MODEL 1
REMARK minimizedAffinity -9.74053383
REMARK  6 active torsions:
REMARK  status: ('A' for Active; 'I' for Inactive)
REMARK    1  A    between atoms: C2_2  and  C30_32 
REMARK    2  A    between atoms: C3_3  and  C4_4 
REMARK    3  A    between atoms: C4_4  and  C5_5 
REMARK    4  A    between atoms: C5_5  and  C6_6 
REMARK    5  A    between atoms: C6_6  and  C8_8 
REMARK    6  A    between atoms: C30_32  and  O4_34 
ROOT
HETATM    1  C8  UNL     1      -0.883  51.460 -21.414  1.00  0.00    -0.002 C 
HETATM    2  C9  UNL     1      -0.126  50.129 -21.146  1.00  0.00     0.007 C 
HETATM    3  C10 UNL     1      -1.184  49.008 -21.099  1.00  0.00     0.015 C 
HETATM    4  C11 UNL     1      -2.528  49.740 -20.932  1.00  0.00    -0.005 C 
HETATM    5  C12 UNL     1      -2.684  50.074 -19.414  1.00  0.00     0.021 C 
HETATM    6  C13 UNL     1      -3.826  49.048 -21.310  1.00  0.00    -0.000 C 
HETATM    7  C14 UNL     1      -4.920  49.730 -21.734  1.00  0.00    -0.060 C 
HETATM    8  C15 UNL     1      -4.819  51.260 -21.930  1.00  0.00     0.036 C 
HETATM    9  C16 UNL     1      -3.460  51.944 -21.652  1.00  0.00     0.015 C 
HETATM   10  C17 UNL     1      -2.290  50.980 -21.879  1.00  0.00    -0.028 C 
HETATM   11  C18 UNL     1      -2.255  50.598 -23.388  1.00  0.00     0.016 C 
HETATM   12  C19 UNL     1      -6.321  49.074 -21.963  1.00  0.00    -0.014 C 
HETATM   13  C20 UNL     1      -7.244  49.695 -20.875  1.00  0.00     0.020 C 
HETATM   14  C21 UNL     1      -6.907  49.445 -23.357  1.00  0.00     0.021 C 
HETATM   15  C22 UNL     1      -6.598  48.421 -24.433  1.00  0.00     0.080 C 
HETATM   16  C23 UNL     1      -7.265  47.105 -24.108  1.00  0.00     0.135 C 
HETATM   17  O1  UNL     1      -7.664  46.373 -25.016  1.00  0.00    -0.297 OA
HETATM   18  C24 UNL     1      -7.412  46.720 -22.629  1.00  0.00     0.018 C 
HETATM   19  C25 UNL     1      -8.859  47.026 -22.196  1.00  0.00     0.023 C 
HETATM   20  C26 UNL     1      -7.245  45.186 -22.511  1.00  0.00     0.023 C 
HETATM   21  C27 UNL     1      -6.338  47.492 -21.762  1.00  0.00     0.020 C 
HETATM   22  C28 UNL     1      -4.946  46.871 -21.961  1.00  0.00     0.090 C 
HETATM   23  C29 UNL     1      -3.916  47.580 -21.137  1.00  0.00     0.157 C 
HETATM   24  O2  UNL     1      -3.150  46.966 -20.400  1.00  0.00    -0.293 OA
ENDROOT
BRANCH   1  25
HETATM   25  C6  UNL     1      -0.041  52.516 -22.189  1.00  0.00    -0.014 C 
HETATM   26  C7  UNL     1       1.142  53.148 -21.444  1.00  0.00     0.010 C 
BRANCH  25  27
HETATM   27  C5  UNL     1       0.406  51.984 -23.569  1.00  0.00     0.008 C 
BRANCH  27  28
HETATM   28  C4  UNL     1       0.828  53.093 -24.540  1.00  0.00     0.028 C 
BRANCH  28  29
HETATM   29  C3  UNL     1       0.430  52.761 -25.953  1.00  0.00    -0.013 C 
HETATM   30  C2  UNL     1       1.128  52.075 -26.880  1.00  0.00     0.008 C 
HETATM   31  C1  UNL     1       0.544  51.743 -28.223  1.00  0.00     0.055 C 
BRANCH  30  32
HETATM   32  C30 UNL     1       2.504  51.562 -26.690  1.00  0.00     0.171 C 
HETATM   33  O3  UNL     1       2.814  50.634 -25.963  1.00  0.00    -0.646 OA
BRANCH  32  34
HETATM   34  O4  UNL     1       3.408  52.156 -27.483  1.00  0.00    -0.773 OA
HETATM   35  H44 UNL     1       4.242  51.685 -27.273  1.00  0.00     0.167 HD
ENDBRANCH  32  34
ENDBRANCH  30  32
ENDBRANCH  28  29
ENDBRANCH  27  28
ENDBRANCH  25  27
ENDBRANCH   1  25
TORSDOF 6
ENDMDL
MODEL 2
REMARK minimizedAffinity -9.56600761
REMARK  6 active torsions:
REMARK  status: ('A' for Active; 'I' for Inactive)
REMARK    1  A    between atoms: C2_2  and  C30_32 
REMARK    2  A    between atoms: C3_3  and  C4_4 
REMARK    3  A    between atoms: C4_4  and  C5_5 
REMARK    4  A    between atoms: C5_5  and  C6_6 
REMARK    5  A    between atoms: C6_6  and  C8_8 
REMARK    6  A    between atoms: C30_32  and  O4_34 
ROOT
HETATM    1  C8  UNL     1      -1.625  51.391 -23.195  1.00  0.00    -0.002 C 
HETATM    2  C9  UNL     1      -2.714  52.272 -23.870  1.00  0.00     0.007 C 
HETATM    3  C10 UNL     1      -4.076  51.613 -23.573  1.00  0.00     0.015 C 
HETATM    4  C11 UNL     1      -3.731  50.188 -23.101  1.00  0.00    -0.005 C 
HETATM    5  C12 UNL     1      -3.492  49.324 -24.381  1.00  0.00     0.021 C 
HETATM    6  C13 UNL     1      -4.733  49.392 -22.281  1.00  0.00    -0.000 C 
HETATM    7  C14 UNL     1      -4.353  48.449 -21.383  1.00  0.00    -0.060 C 
HETATM    8  C15 UNL     1      -2.847  48.236 -21.111  1.00  0.00     0.036 C 
HETATM    9  C16 UNL     1      -1.835  49.129 -21.866  1.00  0.00     0.015 C 
HETATM   10  C17 UNL     1      -2.447  50.486 -22.232  1.00  0.00    -0.028 C 
HETATM   11  C18 UNL     1      -2.766  51.252 -20.915  1.00  0.00     0.016 C 
HETATM   12  C19 UNL     1      -5.352  47.492 -20.651  1.00  0.00    -0.014 C 
HETATM   13  C20 UNL     1      -5.027  46.072 -21.198  1.00  0.00     0.020 C 
HETATM   14  C21 UNL     1      -5.112  47.480 -19.113  1.00  0.00     0.021 C 
HETATM   15  C22 UNL     1      -5.988  48.463 -18.358  1.00  0.00     0.080 C 
HETATM   16  C23 UNL     1      -7.442  48.076 -18.493  1.00  0.00     0.135 C 
HETATM   17  O1  UNL     1      -8.229  48.297 -17.570  1.00  0.00    -0.297 OA
HETATM   18  C24 UNL     1      -7.892  47.417 -19.804  1.00  0.00     0.018 C 
HETATM   19  C25 UNL     1      -7.992  45.897 -19.568  1.00  0.00     0.023 C 
HETATM   20  C26 UNL     1      -9.329  47.898 -20.117  1.00  0.00     0.023 C 
HETATM   21  C27 UNL     1      -6.886  47.790 -20.967  1.00  0.00     0.020 C 
HETATM   22  C28 UNL     1      -7.110  49.241 -21.421  1.00  0.00     0.090 C 
HETATM   23  C29 UNL     1      -6.176  49.610 -22.531  1.00  0.00     0.157 C 
HETATM   24  O2  UNL     1      -6.584  50.118 -23.571  1.00  0.00    -0.293 OA
ENDROOT
BRANCH   1  25
HETATM   25  C6  UNL     1      -0.362  52.188 -22.749  1.00  0.00    -0.014 C 
HETATM   26  C7  UNL     1       0.180  51.907 -21.343  1.00  0.00     0.010 C 
BRANCH  25  27
HETATM   27  C5  UNL     1       0.769  52.090 -23.798  1.00  0.00     0.008 C 
BRANCH  27  28
HETATM   28  C4  UNL     1       0.792  53.270 -24.777  1.00  0.00     0.028 C 
BRANCH  28  29
HETATM   29  C3  UNL     1       0.431  52.830 -26.170  1.00  0.00    -0.013 C 
HETATM   30  C2  UNL     1       1.164  52.100 -27.034  1.00  0.00     0.008 C 
HETATM   31  C1  UNL     1       0.614  51.660 -28.361  1.00  0.00     0.055 C 
BRANCH  30  32
HETATM   32  C30 UNL     1       2.548  51.639 -26.785  1.00  0.00     0.171 C 
HETATM   33  O3  UNL     1       2.858  50.691 -26.084  1.00  0.00    -0.646 OA
BRANCH  32  34
HETATM   34  O4  UNL     1       3.469  52.310 -27.493  1.00  0.00    -0.773 OA
HETATM   35  H44 UNL     1       4.310  51.866 -27.255  1.00  0.00     0.167 HD
ENDBRANCH  32  34
ENDBRANCH  30  32
ENDBRANCH  28  29
ENDBRANCH  27  28
ENDBRANCH  25  27
ENDBRANCH   1  25
TORSDOF 6
ENDMDL
MODEL 3
REMARK minimizedAffinity -9.36369705
REMARK  6 active torsions:
REMARK  status: ('A' for Active; 'I' for Inactive)
REMARK    1  A    between atoms: C2_2  and  C30_32 
REMARK    2  A    between atoms: C3_3  and  C4_4 
REMARK    3  A    between atoms: C4_4  and  C5_5 
REMARK    4  A    between atoms: C5_5  and  C6_6 
REMARK    5  A    between atoms: C6_6  and  C8_8 
REMARK    6  A    between atoms: C30_32  and  O4_34 
ROOT
HETATM    1  C8  UNL     1      -1.409  51.572 -22.935  1.00  0.00    -0.002 C 
HETATM    2  C9  UNL     1      -2.481  52.455 -23.634  1.00  0.00     0.007 C 
HETATM    3  C10 UNL     1      -3.846  51.776 -23.403  1.00  0.00     0.015 C 
HETATM    4  C11 UNL     1      -3.503  50.345 -22.947  1.00  0.00    -0.005 C 
HETATM    5  C12 UNL     1      -3.205  49.511 -24.234  1.00  0.00     0.021 C 
HETATM    6  C13 UNL     1      -4.526  49.522 -22.183  1.00  0.00    -0.000 C 
HETATM    7  C14 UNL     1      -4.171  48.565 -21.290  1.00  0.00    -0.060 C 
HETATM    8  C15 UNL     1      -2.674  48.362 -20.965  1.00  0.00     0.036 C 
HETATM    9  C16 UNL     1      -1.644  49.281 -21.662  1.00  0.00     0.015 C 
HETATM   10  C17 UNL     1      -2.257  50.638 -22.024  1.00  0.00    -0.028 C 
HETATM   11  C18 UNL     1      -2.635  51.373 -20.704  1.00  0.00     0.016 C 
HETATM   12  C19 UNL     1      -5.185  47.582 -20.617  1.00  0.00    -0.014 C 
HETATM   13  C20 UNL     1      -4.824  46.177 -21.180  1.00  0.00     0.020 C 
HETATM   14  C21 UNL     1      -5.004  47.540 -19.071  1.00  0.00     0.021 C 
HETATM   15  C22 UNL     1      -5.920  48.497 -18.331  1.00  0.00     0.080 C 
HETATM   16  C23 UNL     1      -7.363  48.098 -18.530  1.00  0.00     0.135 C 
HETATM   17  O1  UNL     1      -8.187  48.291 -17.634  1.00  0.00    -0.297 OA
HETATM   18  C24 UNL     1      -7.755  47.462 -19.871  1.00  0.00     0.018 C 
HETATM   19  C25 UNL     1      -7.847  45.936 -19.670  1.00  0.00     0.023 C 
HETATM   20  C26 UNL     1      -9.185  47.934 -20.229  1.00  0.00     0.023 C 
HETATM   21  C27 UNL     1      -6.710  47.869 -20.986  1.00  0.00     0.020 C 
HETATM   22  C28 UNL     1      -6.932  49.328 -21.418  1.00  0.00     0.090 C 
HETATM   23  C29 UNL     1      -5.961  49.729 -22.484  1.00  0.00     0.157 C 
HETATM   24  O2  UNL     1      -6.335  50.254 -23.528  1.00  0.00    -0.293 OA
ENDROOT
BRANCH   1  25
HETATM   25  C6  UNL     1      -0.173  52.373 -22.425  1.00  0.00    -0.014 C 
HETATM   26  C7  UNL     1       0.399  51.977 -21.059  1.00  0.00     0.010 C 
BRANCH  25  27
HETATM   27  C5  UNL     1       0.946  52.427 -23.490  1.00  0.00     0.008 C 
BRANCH  27  28
HETATM   28  C4  UNL     1       0.577  53.269 -24.716  1.00  0.00     0.028 C 
BRANCH  28  29
HETATM   29  C3  UNL     1       0.676  52.460 -25.982  1.00  0.00    -0.013 C 
HETATM   30  C2  UNL     1       0.192  52.757 -27.205  1.00  0.00     0.008 C 
HETATM   31  C1  UNL     1       0.462  51.881 -28.395  1.00  0.00     0.055 C 
BRANCH  30  32
HETATM   32  C30 UNL     1      -0.620  53.953 -27.522  1.00  0.00     0.171 C 
HETATM   33  O3  UNL     1      -0.251  55.108 -27.397  1.00  0.00    -0.646 OA
BRANCH  32  34
HETATM   34  O4  UNL     1      -1.809  53.659 -28.071  1.00  0.00    -0.773 OA
HETATM   35  H44 UNL     1      -2.199  54.539 -28.259  1.00  0.00     0.167 HD
ENDBRANCH  32  34
ENDBRANCH  30  32
ENDBRANCH  28  29
ENDBRANCH  27  28
ENDBRANCH  25  27
ENDBRANCH   1  25
TORSDOF 6
ENDMDL
MODEL 4
REMARK minimizedAffinity -9.22960281
REMARK  6 active torsions:
REMARK  status: ('A' for Active; 'I' for Inactive)
REMARK    1  A    between atoms: C2_2  and  C30_32 
REMARK    2  A    between atoms: C3_3  and  C4_4 
REMARK    3  A    between atoms: C4_4  and  C5_5 
REMARK    4  A    between atoms: C5_5  and  C6_6 
REMARK    5  A    between atoms: C6_6  and  C8_8 
REMARK    6  A    between atoms: C30_32  and  O4_34 
ROOT
HETATM    1  C8  UNL     1      -2.175  50.396 -24.744  1.00  0.00    -0.002 C 
HETATM    2  C9  UNL     1      -3.289  51.326 -25.302  1.00  0.00     0.007 C 
HETATM    3  C10 UNL     1      -4.618  50.868 -24.670  1.00  0.00     0.015 C 
HETATM    4  C11 UNL     1      -4.324  49.468 -24.101  1.00  0.00    -0.005 C 
HETATM    5  C12 UNL     1      -4.435  48.456 -25.287  1.00  0.00     0.021 C 
HETATM    6  C13 UNL     1      -5.209  48.884 -23.014  1.00  0.00    -0.000 C 
HETATM    7  C14 UNL     1      -4.747  47.998 -22.095  1.00  0.00    -0.060 C 
HETATM    8  C15 UNL     1      -3.245  47.636 -22.093  1.00  0.00     0.036 C 
HETATM    9  C16 UNL     1      -2.327  48.321 -23.132  1.00  0.00     0.015 C 
HETATM   10  C17 UNL     1      -2.867  49.697 -23.538  1.00  0.00    -0.028 C 
HETATM   11  C18 UNL     1      -2.835  50.625 -22.288  1.00  0.00     0.016 C 
HETATM   12  C19 UNL     1      -5.663  47.246 -21.074  1.00  0.00    -0.014 C 
HETATM   13  C20 UNL     1      -5.595  45.749 -21.494  1.00  0.00     0.020 C 
HETATM   14  C21 UNL     1      -5.116  47.361 -19.620  1.00  0.00     0.021 C 
HETATM   15  C22 UNL     1      -5.721  48.512 -18.838  1.00  0.00     0.080 C 
HETATM   16  C23 UNL     1      -7.202  48.289 -18.643  1.00  0.00     0.135 C 
HETATM   17  O1  UNL     1      -7.760  48.695 -17.621  1.00  0.00    -0.297 OA
HETATM   18  C24 UNL     1      -7.972  47.559 -19.753  1.00  0.00     0.018 C 
HETATM   19  C25 UNL     1      -8.168  46.094 -19.317  1.00  0.00     0.023 C 
HETATM   20  C26 UNL     1      -9.390  48.174 -19.841  1.00  0.00     0.023 C 
HETATM   21  C27 UNL     1      -7.193  47.690 -21.123  1.00  0.00     0.020 C 
HETATM   22  C28 UNL     1      -7.364  49.105 -21.701  1.00  0.00     0.090 C 
HETATM   23  C29 UNL     1      -6.645  49.245 -23.007  1.00  0.00     0.157 C 
HETATM   24  O2  UNL     1      -7.206  49.690 -24.004  1.00  0.00    -0.293 OA
ENDROOT
BRANCH   1  25
HETATM   25  C6  UNL     1      -0.777  51.077 -24.651  1.00  0.00    -0.014 C 
HETATM   26  C7  UNL     1       0.106  51.035 -25.904  1.00  0.00     0.010 C 
BRANCH  25  27
HETATM   27  C5  UNL     1      -0.884  52.521 -24.109  1.00  0.00     0.008 C 
BRANCH  27  28
HETATM   28  C4  UNL     1       0.239  52.888 -23.133  1.00  0.00     0.028 C 
BRANCH  28  29
HETATM   29  C3  UNL     1       0.145  52.083 -21.866  1.00  0.00    -0.013 C 
HETATM   30  C2  UNL     1       0.350  52.490 -20.597  1.00  0.00     0.008 C 
HETATM   31  C1  UNL     1       0.119  51.577 -19.427  1.00  0.00     0.055 C 
BRANCH  30  32
HETATM   32  C30 UNL     1       0.793  53.848 -20.210  1.00  0.00     0.171 C 
HETATM   33  O3  UNL     1       1.668  54.489 -20.767  1.00  0.00    -0.646 OA
BRANCH  32  34
HETATM   34  O4  UNL     1       0.066  54.383 -19.217  1.00  0.00    -0.773 OA
HETATM   35  H44 UNL     1       0.447  55.280 -19.110  1.00  0.00     0.167 HD
ENDBRANCH  32  34
ENDBRANCH  30  32
ENDBRANCH  28  29
ENDBRANCH  27  28
ENDBRANCH  25  27
ENDBRANCH   1  25
TORSDOF 6
ENDMDL
MODEL 5
REMARK minimizedAffinity -9.21580029
REMARK  6 active torsions:
REMARK  status: ('A' for Active; 'I' for Inactive)
REMARK    1  A    between atoms: C2_2  and  C30_32 
REMARK    2  A    between atoms: C3_3  and  C4_4 
REMARK    3  A    between atoms: C4_4  and  C5_5 
REMARK    4  A    between atoms: C5_5  and  C6_6 
REMARK    5  A    between atoms: C6_6  and  C8_8 
REMARK    6  A    between atoms: C30_32  and  O4_34 
ROOT
HETATM    1  C8  UNL     1      -1.548  50.332 -20.072  1.00  0.00    -0.002 C 
HETATM    2  C9  UNL     1      -0.798  50.682 -21.388  1.00  0.00     0.007 C 
HETATM    3  C10 UNL     1      -1.611  50.072 -22.547  1.00  0.00     0.015 C 
HETATM    4  C11 UNL     1      -2.561  49.062 -21.876  1.00  0.00    -0.005 C 
HETATM    5  C12 UNL     1      -1.745  47.750 -21.640  1.00  0.00     0.021 C 
HETATM    6  C13 UNL     1      -3.821  48.608 -22.591  1.00  0.00    -0.000 C 
HETATM    7  C14 UNL     1      -4.938  48.221 -21.925  1.00  0.00    -0.060 C 
HETATM    8  C15 UNL     1      -4.967  48.330 -20.384  1.00  0.00     0.036 C 
HETATM    9  C16 UNL     1      -3.720  48.900 -19.669  1.00  0.00     0.015 C 
HETATM   10  C17 UNL     1      -2.946  49.866 -20.574  1.00  0.00    -0.028 C 
HETATM   11  C18 UNL     1      -3.852  51.099 -20.863  1.00  0.00     0.016 C 
HETATM   12  C19 UNL     1      -6.189  47.585 -22.617  1.00  0.00    -0.014 C 
HETATM   13  C20 UNL     1      -6.239  46.119 -22.097  1.00  0.00     0.020 C 
HETATM   14  C21 UNL     1      -7.506  48.293 -22.185  1.00  0.00     0.021 C 
HETATM   15  C22 UNL     1      -7.934  49.400 -23.130  1.00  0.00     0.080 C 
HETATM   16  C23 UNL     1      -8.270  48.826 -24.487  1.00  0.00     0.135 C 
HETATM   17  O1  UNL     1      -9.150  49.344 -25.177  1.00  0.00    -0.297 OA
HETATM   18  C24 UNL     1      -7.478  47.601 -24.965  1.00  0.00     0.018 C 
HETATM   19  C25 UNL     1      -8.348  46.349 -24.738  1.00  0.00     0.023 C 
HETATM   20  C26 UNL     1      -7.286  47.719 -26.496  1.00  0.00     0.023 C 
HETATM   21  C27 UNL     1      -6.091  47.527 -24.208  1.00  0.00     0.020 C 
HETATM   22  C28 UNL     1      -5.122  48.583 -24.764  1.00  0.00     0.090 C 
HETATM   23  C29 UNL     1      -3.798  48.520 -24.070  1.00  0.00     0.157 C 
HETATM   24  O2  UNL     1      -2.746  48.455 -24.698  1.00  0.00    -0.293 OA
ENDROOT
BRANCH   1  25
HETATM   25  C6  UNL     1      -1.353  51.385 -18.940  1.00  0.00    -0.014 C 
HETATM   26  C7  UNL     1      -2.052  51.111 -17.604  1.00  0.00     0.010 C 
BRANCH  25  27
HETATM   27  C5  UNL     1       0.142  51.708 -18.717  1.00  0.00     0.008 C 
BRANCH  27  28
HETATM   28  C4  UNL     1       0.532  51.784 -17.237  1.00  0.00     0.028 C 
BRANCH  28  29
HETATM   29  C3  UNL     1       1.919  52.342 -17.067  1.00  0.00    -0.013 C 
HETATM   30  C2  UNL     1       2.746  52.222 -16.009  1.00  0.00     0.008 C 
HETATM   31  C1  UNL     1       4.149  52.760 -16.038  1.00  0.00     0.055 C 
BRANCH  30  32
HETATM   32  C30 UNL     1       2.396  51.550 -14.738  1.00  0.00     0.171 C 
HETATM   33  O3  UNL     1       2.151  50.362 -14.614  1.00  0.00    -0.646 OA
BRANCH  32  34
HETATM   34  O4  UNL     1       2.464  52.360 -13.670  1.00  0.00    -0.773 OA
HETATM   35  H44 UNL     1       2.252  51.768 -12.919  1.00  0.00     0.167 HD
ENDBRANCH  32  34
ENDBRANCH  30  32
ENDBRANCH  28  29
ENDBRANCH  27  28
ENDBRANCH  25  27
ENDBRANCH   1  25
TORSDOF 6
ENDMDL
MODEL 6
REMARK minimizedAffinity -9.16190434
REMARK  6 active torsions:
REMARK  status: ('A' for Active; 'I' for Inactive)
REMARK    1  A    between atoms: C2_2  and  C30_32 
REMARK    2  A    between atoms: C3_3  and  C4_4 
REMARK    3  A    between atoms: C4_4  and  C5_5 
REMARK    4  A    between atoms: C5_5  and  C6_6 
REMARK    5  A    between atoms: C6_6  and  C8_8 
REMARK    6  A    between atoms: C30_32  and  O4_34 
ROOT
HETATM    1  C8  UNL     1      -0.726  52.119 -21.599  1.00  0.00    -0.002 C 
HETATM    2  C9  UNL     1       0.708  52.709 -21.698  1.00  0.00     0.007 C 
HETATM    3  C10 UNL     1       1.315  52.663 -20.281  1.00  0.00     0.015 C 
HETATM    4  C11 UNL     1       0.114  52.440 -19.344  1.00  0.00    -0.005 C 
HETATM    5  C12 UNL     1      -0.553  53.833 -19.110  1.00  0.00     0.021 C 
HETATM    6  C13 UNL     1       0.328  51.876 -17.949  1.00  0.00    -0.000 C 
HETATM    7  C14 UNL     1      -0.615  51.142 -17.307  1.00  0.00    -0.060 C 
HETATM    8  C15 UNL     1      -1.920  50.783 -18.052  1.00  0.00     0.036 C 
HETATM    9  C16 UNL     1      -2.084  51.264 -19.512  1.00  0.00     0.015 C 
HETATM   10  C17 UNL     1      -0.727  51.420 -20.207  1.00  0.00    -0.028 C 
HETATM   11  C18 UNL     1      -0.064  50.016 -20.311  1.00  0.00     0.016 C 
HETATM   12  C19 UNL     1      -0.501  50.695 -15.812  1.00  0.00    -0.014 C 
HETATM   13  C20 UNL     1      -1.629  51.469 -15.070  1.00  0.00     0.020 C 
HETATM   14  C21 UNL     1      -0.777  49.171 -15.647  1.00  0.00     0.021 C 
HETATM   15  C22 UNL     1       0.483  48.325 -15.670  1.00  0.00     0.080 C 
HETATM   16  C23 UNL     1       1.357  48.658 -14.484  1.00  0.00     0.135 C 
HETATM   17  O1  UNL     1       2.052  47.783 -13.963  1.00  0.00    -0.297 OA
HETATM   18  C24 UNL     1       1.352  50.105 -13.971  1.00  0.00     0.018 C 
HETATM   19  C25 UNL     1       0.443  50.169 -12.727  1.00  0.00     0.023 C 
HETATM   20  C26 UNL     1       2.779  50.447 -13.478  1.00  0.00     0.023 C 
HETATM   21  C27 UNL     1       0.883  51.083 -15.121  1.00  0.00     0.020 C 
HETATM   22  C28 UNL     1       2.007  51.272 -16.152  1.00  0.00     0.090 C 
HETATM   23  C29 UNL     1       1.587  52.207 -17.244  1.00  0.00     0.157 C 
HETATM   24  O2  UNL     1       2.282  53.164 -17.572  1.00  0.00    -0.293 OA
ENDROOT
BRANCH   1  25
HETATM   25  C6  UNL     1      -1.209  51.422 -22.906  1.00  0.00    -0.014 C 
HETATM   26  C7  UNL     1      -2.688  51.586 -23.279  1.00  0.00     0.010 C 
BRANCH  25  27
HETATM   27  C5  UNL     1      -0.302  51.776 -24.106  1.00  0.00     0.008 C 
BRANCH  27  28
HETATM   28  C4  UNL     1      -0.728  51.093 -25.411  1.00  0.00     0.028 C 
BRANCH  28  29
HETATM   29  C3  UNL     1       0.407  51.050 -26.398  1.00  0.00    -0.013 C 
HETATM   30  C2  UNL     1       0.807  52.010 -27.256  1.00  0.00     0.008 C 
HETATM   31  C1  UNL     1       2.030  51.844 -28.114  1.00  0.00     0.055 C 
BRANCH  30  32
HETATM   32  C30 UNL     1       0.129  53.313 -27.438  1.00  0.00     0.171 C 
HETATM   33  O3  UNL     1       0.311  54.303 -26.751  1.00  0.00    -0.646 OA
BRANCH  32  34
HETATM   34  O4  UNL     1      -0.663  53.355 -28.521  1.00  0.00    -0.773 OA
HETATM   35  H44 UNL     1      -0.996  54.276 -28.526  1.00  0.00     0.167 HD
ENDBRANCH  32  34
ENDBRANCH  30  32
ENDBRANCH  28  29
ENDBRANCH  27  28
ENDBRANCH  25  27
ENDBRANCH   1  25
TORSDOF 6
ENDMDL
MODEL 7
REMARK minimizedAffinity -9.02195072
REMARK  6 active torsions:
REMARK  status: ('A' for Active; 'I' for Inactive)
REMARK    1  A    between atoms: C2_2  and  C30_32 
REMARK    2  A    between atoms: C3_3  and  C4_4 
REMARK    3  A    between atoms: C4_4  and  C5_5 
REMARK    4  A    between atoms: C5_5  and  C6_6 
REMARK    5  A    between atoms: C6_6  and  C8_8 
REMARK    6  A    between atoms: C30_32  and  O4_34 
ROOT
HETATM    1  C8  UNL     1      -1.915  49.457 -17.859  1.00  0.00    -0.002 C 
HETATM    2  C9  UNL     1      -2.207  47.958 -18.150  1.00  0.00     0.007 C 
HETATM    3  C10 UNL     1      -2.594  47.854 -19.639  1.00  0.00     0.015 C 
HETATM    4  C11 UNL     1      -2.911  49.299 -20.067  1.00  0.00    -0.005 C 
HETATM    5  C12 UNL     1      -4.376  49.601 -19.616  1.00  0.00     0.021 C 
HETATM    6  C13 UNL     1      -2.874  49.686 -21.536  1.00  0.00    -0.000 C 
HETATM    7  C14 UNL     1      -2.575  50.942 -21.951  1.00  0.00    -0.060 C 
HETATM    8  C15 UNL     1      -2.167  52.001 -20.902  1.00  0.00     0.036 C 
HETATM    9  C16 UNL     1      -2.098  51.570 -19.418  1.00  0.00     0.015 C 
HETATM   10  C17 UNL     1      -1.784  50.076 -19.282  1.00  0.00    -0.028 C 
HETATM   11  C18 UNL     1      -0.357  49.820 -19.850  1.00  0.00     0.016 C 
HETATM   12  C19 UNL     1      -2.696  51.421 -23.436  1.00  0.00    -0.014 C 
HETATM   13  C20 UNL     1      -3.847  52.468 -23.433  1.00  0.00     0.020 C 
HETATM   14  C21 UNL     1      -1.398  52.135 -23.915  1.00  0.00     0.021 C 
HETATM   15  C22 UNL     1      -0.425  51.209 -24.621  1.00  0.00     0.080 C 
HETATM   16  C23 UNL     1      -1.036  50.687 -25.900  1.00  0.00     0.135 C 
HETATM   17  O1  UNL     1      -0.320  50.450 -26.875  1.00  0.00    -0.297 OA
HETATM   18  C24 UNL     1      -2.553  50.458 -25.931  1.00  0.00     0.018 C 
HETATM   19  C25 UNL     1      -3.204  51.651 -26.657  1.00  0.00     0.023 C 
HETATM   20  C26 UNL     1      -2.836  49.215 -26.810  1.00  0.00     0.023 C 
HETATM   21  C27 UNL     1      -3.099  50.266 -24.459  1.00  0.00     0.020 C 
HETATM   22  C28 UNL     1      -2.728  48.871 -23.929  1.00  0.00     0.090 C 
HETATM   23  C29 UNL     1      -3.248  48.665 -22.541  1.00  0.00     0.157 C 
HETATM   24  O2  UNL     1      -3.904  47.671 -22.242  1.00  0.00    -0.293 OA
ENDROOT
BRANCH   1  25
HETATM   25  C6  UNL     1      -0.867  49.684 -16.728  1.00  0.00    -0.014 C 
HETATM   26  C7  UNL     1      -0.399  48.447 -15.952  1.00  0.00     0.010 C 
BRANCH  25  27
HETATM   27  C5  UNL     1       0.343  50.502 -17.232  1.00  0.00     0.008 C 
BRANCH  27  28
HETATM   28  C4  UNL     1       0.651  51.728 -16.365  1.00  0.00     0.028 C 
BRANCH  28  29
HETATM   29  C3  UNL     1       2.065  52.200 -16.571  1.00  0.00    -0.013 C 
HETATM   30  C2  UNL     1       3.111  52.102 -15.727  1.00  0.00     0.008 C 
HETATM   31  C1  UNL     1       4.492  52.539 -16.126  1.00  0.00     0.055 C 
BRANCH  30  32
HETATM   32  C30 UNL     1       3.039  51.551 -14.355  1.00  0.00     0.171 C 
HETATM   33  O3  UNL     1       3.401  50.436 -14.025  1.00  0.00    -0.646 OA
BRANCH  32  34
HETATM   34  O4  UNL     1       2.615  52.442 -13.445  1.00  0.00    -0.773 OA
HETATM   35  H44 UNL     1       2.663  51.948 -12.600  1.00  0.00     0.167 HD
ENDBRANCH  32  34
ENDBRANCH  30  32
ENDBRANCH  28  29
ENDBRANCH  27  28
ENDBRANCH  25  27
ENDBRANCH   1  25
TORSDOF 6
ENDMDL
MODEL 8
REMARK minimizedAffinity -8.88460445
REMARK  6 active torsions:
REMARK  status: ('A' for Active; 'I' for Inactive)
REMARK    1  A    between atoms: C2_2  and  C30_32 
REMARK    2  A    between atoms: C3_3  and  C4_4 
REMARK    3  A    between atoms: C4_4  and  C5_5 
REMARK    4  A    between atoms: C5_5  and  C6_6 
REMARK    5  A    between atoms: C6_6  and  C8_8 
REMARK    6  A    between atoms: C30_32  and  O4_34 
ROOT
HETATM    1  C8  UNL     1      -4.320  49.083 -21.092  1.00  0.00    -0.002 C 
HETATM    2  C9  UNL     1      -3.935  50.293 -20.195  1.00  0.00     0.007 C 
HETATM    3  C10 UNL     1      -2.956  51.165 -21.006  1.00  0.00     0.015 C 
HETATM    4  C11 UNL     1      -2.485  50.261 -22.161  1.00  0.00    -0.005 C 
HETATM    5  C12 UNL     1      -1.347  49.351 -21.597  1.00  0.00     0.021 C 
HETATM    6  C13 UNL     1      -1.899  50.874 -23.421  1.00  0.00    -0.000 C 
HETATM    7  C14 UNL     1      -1.992  50.275 -24.634  1.00  0.00    -0.060 C 
HETATM    8  C15 UNL     1      -2.803  48.966 -24.763  1.00  0.00     0.036 C 
HETATM    9  C16 UNL     1      -3.492  48.406 -23.497  1.00  0.00     0.015 C 
HETATM   10  C17 UNL     1      -3.837  49.522 -22.506  1.00  0.00    -0.028 C 
HETATM   11  C18 UNL     1      -4.891  50.458 -23.167  1.00  0.00     0.016 C 
HETATM   12  C19 UNL     1      -1.255  50.786 -25.917  1.00  0.00    -0.014 C 
HETATM   13  C20 UNL     1      -0.211  49.682 -26.252  1.00  0.00     0.020 C 
HETATM   14  C21 UNL     1      -2.228  50.909 -27.126  1.00  0.00     0.021 C 
HETATM   15  C22 UNL     1      -2.815  52.299 -27.289  1.00  0.00     0.080 C 
HETATM   16  C23 UNL     1      -1.722  53.292 -27.610  1.00  0.00     0.135 C 
HETATM   17  O1  UNL     1      -1.960  54.260 -28.335  1.00  0.00    -0.297 OA
HETATM   18  C24 UNL     1      -0.334  53.055 -27.000  1.00  0.00     0.018 C 
HETATM   19  C25 UNL     1       0.565  52.425 -28.082  1.00  0.00     0.023 C 
HETATM   20  C26 UNL     1       0.291  54.433 -26.674  1.00  0.00     0.023 C 
HETATM   21  C27 UNL     1      -0.460  52.152 -25.708  1.00  0.00     0.020 C 
HETATM   22  C28 UNL     1      -1.023  52.972 -24.536  1.00  0.00     0.090 C 
HETATM   23  C29 UNL     1      -1.137  52.138 -23.298  1.00  0.00     0.157 C 
HETATM   24  O2  UNL     1      -0.671  52.512 -22.226  1.00  0.00    -0.293 OA
ENDROOT
BRANCH   1  25
HETATM   25  C6  UNL     1      -5.746  48.523 -20.811  1.00  0.00    -0.014 C 
HETATM   26  C7  UNL     1      -6.882  49.543 -20.672  1.00  0.00     0.010 C 
BRANCH  25  27
HETATM   27  C5  UNL     1      -6.129  47.416 -21.819  1.00  0.00     0.008 C 
BRANCH  27  28
HETATM   28  C4  UNL     1      -7.309  47.796 -22.720  1.00  0.00     0.028 C 
BRANCH  28  29
HETATM   29  C3  UNL     1      -7.015  47.489 -24.163  1.00  0.00    -0.013 C 
HETATM   30  C2  UNL     1      -7.747  47.800 -25.252  1.00  0.00     0.008 C 
HETATM   31  C1  UNL     1      -7.260  47.503 -26.642  1.00  0.00     0.055 C 
BRANCH  30  32
HETATM   32  C30 UNL     1      -9.067  48.468 -25.217  1.00  0.00     0.171 C 
HETATM   33  O3  UNL     1     -10.142  47.899 -25.140  1.00  0.00    -0.646 OA
BRANCH  32  34
HETATM   34  O4  UNL     1      -8.985  49.807 -25.178  1.00  0.00    -0.773 OA
HETATM   35  H44 UNL     1      -9.920  50.093 -25.114  1.00  0.00     0.167 HD
ENDBRANCH  32  34
ENDBRANCH  30  32
ENDBRANCH  28  29
ENDBRANCH  27  28
ENDBRANCH  25  27
ENDBRANCH   1  25
TORSDOF 6
ENDMDL
MODEL 9
REMARK minimizedAffinity -8.67026901
REMARK  6 active torsions:
REMARK  status: ('A' for Active; 'I' for Inactive)
REMARK    1  A    between atoms: C2_2  and  C30_32 
REMARK    2  A    between atoms: C3_3  and  C4_4 
REMARK    3  A    between atoms: C4_4  and  C5_5 
REMARK    4  A    between atoms: C5_5  and  C6_6 
REMARK    5  A    between atoms: C6_6  and  C8_8 
REMARK    6  A    between atoms: C30_32  and  O4_34 
ROOT
HETATM    1  C8  UNL     1      -1.410  51.416 -21.879  1.00  0.00    -0.002 C 
HETATM    2  C9  UNL     1      -0.171  50.989 -21.043  1.00  0.00     0.007 C 
HETATM    3  C10 UNL     1      -0.650  49.924 -20.036  1.00  0.00     0.015 C 
HETATM    4  C11 UNL     1      -2.185  50.051 -20.027  1.00  0.00    -0.005 C 
HETATM    5  C12 UNL     1      -2.542  51.239 -19.077  1.00  0.00     0.021 C 
HETATM    6  C13 UNL     1      -3.043  48.897 -19.539  1.00  0.00    -0.000 C 
HETATM    7  C14 UNL     1      -4.301  48.679 -19.999  1.00  0.00    -0.060 C 
HETATM    8  C15 UNL     1      -4.853  49.580 -21.126  1.00  0.00     0.036 C 
HETATM    9  C16 UNL     1      -3.932  50.683 -21.698  1.00  0.00     0.015 C 
HETATM   10  C17 UNL     1      -2.452  50.304 -21.562  1.00  0.00    -0.028 C 
HETATM   11  C18 UNL     1      -2.184  49.049 -22.443  1.00  0.00     0.016 C 
HETATM   12  C19 UNL     1      -5.275  47.612 -19.398  1.00  0.00    -0.014 C 
HETATM   13  C20 UNL     1      -6.426  48.434 -18.749  1.00  0.00     0.020 C 
HETATM   14  C21 UNL     1      -5.895  46.713 -20.507  1.00  0.00     0.021 C 
HETATM   15  C22 UNL     1      -5.126  45.425 -20.739  1.00  0.00     0.080 C 
HETATM   16  C23 UNL     1      -5.182  44.555 -19.505  1.00  0.00     0.135 C 
HETATM   17  O1  UNL     1      -5.186  43.327 -19.613  1.00  0.00    -0.297 OA
HETATM   18  C24 UNL     1      -5.223  45.250 -18.137  1.00  0.00     0.018 C 
HETATM   19  C25 UNL     1      -6.682  45.244 -17.638  1.00  0.00     0.023 C 
HETATM   20  C26 UNL     1      -4.423  44.386 -17.132  1.00  0.00     0.023 C 
HETATM   21  C27 UNL     1      -4.625  46.709 -18.256  1.00  0.00     0.020 C 
HETATM   22  C28 UNL     1      -3.093  46.651 -18.370  1.00  0.00     0.090 C 
HETATM   23  C29 UNL     1      -2.506  48.024 -18.471  1.00  0.00     0.157 C 
HETATM   24  O2  UNL     1      -1.588  48.385 -17.739  1.00  0.00    -0.293 OA
ENDROOT
BRANCH   1  25
HETATM   25  C6  UNL     1      -1.062  51.874 -23.327  1.00  0.00    -0.014 C 
HETATM   26  C7  UNL     1      -2.096  52.745 -24.051  1.00  0.00     0.010 C 
BRANCH  25  27
HETATM   27  C5  UNL     1       0.339  52.521 -23.396  1.00  0.00     0.008 C 
BRANCH  27  28
HETATM   28  C4  UNL     1       0.556  53.369 -24.655  1.00  0.00     0.028 C 
BRANCH  28  29
HETATM   29  C3  UNL     1       0.808  52.502 -25.859  1.00  0.00    -0.013 C 
HETATM   30  C2  UNL     1       0.276  52.609 -27.093  1.00  0.00     0.008 C 
HETATM   31  C1  UNL     1       0.710  51.715 -28.220  1.00  0.00     0.055 C 
BRANCH  30  32
HETATM   32  C30 UNL     1      -0.751  53.600 -27.486  1.00  0.00     0.171 C 
HETATM   33  O3  UNL     1      -1.935  53.361 -27.643  1.00  0.00    -0.646 OA
BRANCH  32  34
HETATM   34  O4  UNL     1      -0.278  54.853 -27.567  1.00  0.00    -0.773 OA
HETATM   35  H44 UNL     1      -1.071  55.384 -27.789  1.00  0.00     0.167 HD
ENDBRANCH  32  34
ENDBRANCH  30  32
ENDBRANCH  28  29
ENDBRANCH  27  28
ENDBRANCH  25  27
ENDBRANCH   1  25
TORSDOF 6
ENDMDL
