MODEL 1
REMARK minimizedAffinity -8.49497604
REMARK CNNscore 0.463240355
REMARK CNNaffinity 6.93203592
REMARK  19 active torsions:
REMARK  status: ('A' for Active; 'I' for Inactive)
REMARK    1  A    between atoms: C2_2  and  C3_3 
REMARK    2  A    between atoms: C3_3  and  C5_5 
REMARK    3  A    between atoms: C5_5  and  N1_6 
REMARK    4  A    between atoms: C5_5  and  C37_46 
REMARK       I    between atoms: N1_6  and  C6_7 
REMARK    5  A    between atoms: C6_7  and  C7_9 
REMARK    6  A    between atoms: C7_9  and  C8_10 
REMARK    7  A    between atoms: C8_10  and  C9_11 
REMARK    8  A    between atoms: C9_11  and  C10_12 
REMARK    9  A    between atoms: C10_12  and  C11_13 
REMARK   10  A    between atoms: C11_13  and  N2_14 
REMARK       I    between atoms: N2_14  and  C12_15 
REMARK   11  A    between atoms: C12_15  and  C13_17 
REMARK   12  A    between atoms: C13_17  and  C14_18 
REMARK   13  A    between atoms: C14_18  and  C15_19 
REMARK   14  A    between atoms: C15_19  and  O4_21 
REMARK   15  A    between atoms: O4_21  and  C16_22 
REMARK   16  A    between atoms: C16_22  and  C17_23 
REMARK   17  A    between atoms: C17_23  and  C18_25 
REMARK   18  A    between atoms: C18_25  and  O6_26 
REMARK   19  A    between atoms: C37_46  and  O9_48 
ROOT
HETATM    1  C15 UNL     1       6.599   7.523  11.231  1.00  0.00     0.259 C 
HETATM    2  O3  UNL     1       7.199   6.834  10.415  1.00  0.00    -0.265 OA
ENDROOT
BRANCH   1   3
HETATM    3  C14 UNL     1       7.173   7.869  12.585  1.00  0.00     0.120 C 
BRANCH   3   4
HETATM    4  C13 UNL     1       6.372   7.372  13.781  1.00  0.00     0.112 C 
BRANCH   4   5
HETATM    5  C12 UNL     1       6.891   7.939  15.088  1.00  0.00     0.217 C 
HETATM    6  N2  UNL     1       8.227   7.677  15.290  1.00  0.00    -0.361 N 
HETATM    7  H22 UNL     1       8.772   7.253  14.546  1.00  0.00     0.162 HD
HETATM    8  O2  UNL     1       6.185   8.541  15.889  1.00  0.00    -0.274 OA
BRANCH   6   9
HETATM    9  C11 UNL     1       8.914   8.167  16.466  1.00  0.00     0.122 C 
BRANCH   9  10
HETATM   10  C10 UNL     1       9.566   9.532  16.261  1.00  0.00     0.020 C 
BRANCH  10  11
HETATM   11  C9  UNL     1       8.862  10.699  16.968  1.00  0.00     0.002 C 
BRANCH  11  12
HETATM   12  C8  UNL     1       8.885  10.619  18.498  1.00  0.00     0.009 C 
BRANCH  12  13
HETATM   13  C7  UNL     1      10.168  11.209  19.090  1.00  0.00     0.103 C 
BRANCH  13  14
HETATM   14  C6  UNL     1       9.897  12.294  20.119  1.00  0.00     0.218 C 
HETATM   15  N1  UNL     1       8.630  12.223  20.659  1.00  0.00    -0.346 N 
HETATM   16  H11 UNL     1       8.172  11.318  20.630  1.00  0.00     0.163 HD
HETATM   17  O1  UNL     1      10.725  13.135  20.451  1.00  0.00    -0.274 OA
BRANCH  15  18
HETATM   18  C5  UNL     1       8.243  13.115  21.757  1.00  0.00     0.186 C 
BRANCH  18  19
HETATM   19  C3  UNL     1       6.702  13.241  21.861  1.00  0.00     0.014 C 
HETATM   20  C4  UNL     1       6.022  12.680  20.603  1.00  0.00     0.012 C 
BRANCH  19  21
HETATM   21  C2  UNL     1       6.176  12.527  23.129  1.00  0.00     0.002 C 
HETATM   22  C1  UNL     1       5.260  11.345  22.840  1.00  0.00     0.005 C 
ENDBRANCH  19  21
ENDBRANCH  18  19
BRANCH  18  23
HETATM   23  C37 UNL     1       8.837  12.501  23.028  1.00  0.00     0.163 C 
HETATM   24  O8  UNL     1       8.937  11.305  23.265  1.00  0.00    -0.648 OA
BRANCH  23  25
HETATM   25  O9  UNL     1       9.242  13.421  23.928  1.00  0.00    -0.775 OA
HETATM   26  H56 UNL     1       9.631  12.893  24.654  1.00  0.00     0.167 HD
ENDBRANCH  23  25
ENDBRANCH  18  23
ENDBRANCH  15  18
ENDBRANCH  13  14
ENDBRANCH  12  13
ENDBRANCH  11  12
ENDBRANCH  10  11
ENDBRANCH   9  10
ENDBRANCH   6   9
ENDBRANCH   4   5
ENDBRANCH   3   4
ENDBRANCH   1   3
BRANCH   1  27
HETATM   27  O4  UNL     1       5.312   7.926  11.088  1.00  0.00    -0.314 OA
BRANCH  27  28
HETATM   28  C16 UNL     1       4.442   7.028  10.405  1.00  0.00     0.260 C 
BRANCH  28  29
HETATM   29  C17 UNL     1       3.141   7.469   9.705  1.00  0.00     0.185 C 
HETATM   30  O5  UNL     1       3.173   8.426   8.922  1.00  0.00    -0.292 OA
BRANCH  29  31
HETATM   31  C18 UNL     1       1.814   6.812  10.166  1.00  0.00     0.128 C 
HETATM   32  C19 UNL     1       2.102   5.333  10.538  1.00  0.00     0.047 C 
HETATM   33  C20 UNL     1       1.109   4.955  11.654  1.00  0.00     0.009 C 
HETATM   34  C21 UNL     1       0.193   6.175  11.794  1.00  0.00     0.002 C 
HETATM   35  C22 UNL     1      -0.579   6.318  13.122  1.00  0.00    -0.004 C 
HETATM   36  C35 UNL     1       1.122   7.372  11.463  1.00  0.00    -0.002 C 
HETATM   37  C23 UNL     1      -1.649   5.209  13.241  1.00  0.00     0.010 C 
HETATM   38  C32 UNL     1      -1.148   7.781  13.293  1.00  0.00     0.002 C 
HETATM   39  C24 UNL     1      -3.011   5.655  12.728  1.00  0.00     0.035 C 
HETATM   40  C25 UNL     1      -3.534   6.862  13.463  1.00  0.00    -0.068 C 
HETATM   41  C26 UNL     1      -4.862   7.064  13.547  1.00  0.00     0.053 C 
HETATM   42  C30 UNL     1      -2.514   7.822  14.074  1.00  0.00    -0.016 C 
HETATM   43  C27 UNL     1      -5.436   8.248  14.237  1.00  0.00     0.149 C 
HETATM   44  O7  UNL     1      -6.655   8.328  14.377  1.00  0.00    -0.293 OA
HETATM   45  C28 UNL     1      -4.496   9.301  14.777  1.00  0.00     0.084 C 
HETATM   46  C29 UNL     1      -3.142   9.246  14.069  1.00  0.00     0.022 C 
HETATM   47  C31 UNL     1      -2.243   7.431  15.555  1.00  0.00     0.020 C 
HETATM   48  C33 UNL     1      -1.142   8.538  11.938  1.00  0.00     0.007 C 
HETATM   49  C34 UNL     1       0.251   8.636  11.286  1.00  0.00     0.013 C 
HETATM   50  C36 UNL     1       2.139   7.633  12.611  1.00  0.00     0.019 C 
BRANCH  31  51
HETATM   51  O6  UNL     1       0.861   6.760   9.094  1.00  0.00    -0.381 OA
HETATM   52  H29 UNL     1       0.663   7.678   8.844  1.00  0.00     0.211 HD
ENDBRANCH  31  51
ENDBRANCH  29  31
ENDBRANCH  28  29
ENDBRANCH  27  28
ENDBRANCH   1  27
TORSDOF 19
ENDMDL
MODEL 2
REMARK minimizedAffinity -8.44987869
REMARK CNNscore 0.452265173
REMARK CNNaffinity 7.48490095
REMARK  19 active torsions:
REMARK  status: ('A' for Active; 'I' for Inactive)
REMARK    1  A    between atoms: C2_2  and  C3_3 
REMARK    2  A    between atoms: C3_3  and  C5_5 
REMARK    3  A    between atoms: C5_5  and  N1_6 
REMARK    4  A    between atoms: C5_5  and  C37_46 
REMARK       I    between atoms: N1_6  and  C6_7 
REMARK    5  A    between atoms: C6_7  and  C7_9 
REMARK    6  A    between atoms: C7_9  and  C8_10 
REMARK    7  A    between atoms: C8_10  and  C9_11 
REMARK    8  A    between atoms: C9_11  and  C10_12 
REMARK    9  A    between atoms: C10_12  and  C11_13 
REMARK   10  A    between atoms: C11_13  and  N2_14 
REMARK       I    between atoms: N2_14  and  C12_15 
REMARK   11  A    between atoms: C12_15  and  C13_17 
REMARK   12  A    between atoms: C13_17  and  C14_18 
REMARK   13  A    between atoms: C14_18  and  C15_19 
REMARK   14  A    between atoms: C15_19  and  O4_21 
REMARK   15  A    between atoms: O4_21  and  C16_22 
REMARK   16  A    between atoms: C16_22  and  C17_23 
REMARK   17  A    between atoms: C17_23  and  C18_25 
REMARK   18  A    between atoms: C18_25  and  O6_26 
REMARK   19  A    between atoms: C37_46  and  O9_48 
ROOT
HETATM    1  C15 UNL     1       0.610   7.989   9.935  1.00  0.00     0.259 C 
HETATM    2  O3  UNL     1       1.002   8.825  10.740  1.00  0.00    -0.265 OA
ENDROOT
BRANCH   1   3
HETATM    3  C14 UNL     1       0.872   8.099   8.452  1.00  0.00     0.120 C 
BRANCH   3   4
HETATM    4  C13 UNL     1       2.309   7.833   8.021  1.00  0.00     0.112 C 
BRANCH   4   5
HETATM    5  C12 UNL     1       2.942   6.710   8.818  1.00  0.00     0.217 C 
HETATM    6  N2  UNL     1       3.775   7.166   9.815  1.00  0.00    -0.361 N 
HETATM    7  H22 UNL     1       3.815   8.160  10.017  1.00  0.00     0.162 HD
HETATM    8  O2  UNL     1       2.753   5.522   8.578  1.00  0.00    -0.274 OA
BRANCH   6   9
HETATM    9  C11 UNL     1       4.446   6.244  10.706  1.00  0.00     0.122 C 
BRANCH   9  10
HETATM   10  C10 UNL     1       5.930   6.556  10.893  1.00  0.00     0.020 C 
BRANCH  10  11
HETATM   11  C9  UNL     1       6.400   6.617  12.353  1.00  0.00     0.002 C 
BRANCH  11  12
HETATM   12  C8  UNL     1       5.954   7.873  13.110  1.00  0.00     0.009 C 
BRANCH  12  13
HETATM   13  C7  UNL     1       6.878   9.065  12.850  1.00  0.00     0.103 C 
BRANCH  13  14
HETATM   14  C6  UNL     1       7.626   9.513  14.096  1.00  0.00     0.218 C 
HETATM   15  N1  UNL     1       8.768   8.777  14.334  1.00  0.00    -0.346 N 
HETATM   16  H11 UNL     1       9.189   8.317  13.534  1.00  0.00     0.163 HD
HETATM   17  O1  UNL     1       7.263  10.443  14.807  1.00  0.00    -0.274 OA
BRANCH  15  18
HETATM   18  C5  UNL     1       9.676   9.154  15.423  1.00  0.00     0.186 C 
BRANCH  18  19
HETATM   19  C3  UNL     1       9.985  10.672  15.394  1.00  0.00     0.014 C 
HETATM   20  C4  UNL     1      10.717  11.105  16.673  1.00  0.00     0.012 C 
BRANCH  19  21
HETATM   21  C2  UNL     1      10.813  11.042  14.140  1.00  0.00     0.002 C 
HETATM   22  C1  UNL     1      12.094  10.234  13.983  1.00  0.00     0.005 C 
ENDBRANCH  19  21
ENDBRANCH  18  19
BRANCH  18  23
HETATM   23  C37 UNL     1       8.966   8.757  16.721  1.00  0.00     0.163 C 
HETATM   24  O8  UNL     1       8.423   9.525  17.502  1.00  0.00    -0.648 OA
BRANCH  23  25
HETATM   25  O9  UNL     1       9.005   7.431  16.967  1.00  0.00    -0.775 OA
HETATM   26  H56 UNL     1       8.485   7.322  17.789  1.00  0.00     0.167 HD
ENDBRANCH  23  25
ENDBRANCH  18  23
ENDBRANCH  15  18
ENDBRANCH  13  14
ENDBRANCH  12  13
ENDBRANCH  11  12
ENDBRANCH  10  11
ENDBRANCH   9  10
ENDBRANCH   6   9
ENDBRANCH   4   5
ENDBRANCH   3   4
ENDBRANCH   1   3
BRANCH   1  27
HETATM   27  O4  UNL     1      -0.220   6.963  10.247  1.00  0.00    -0.314 OA
BRANCH  27  28
HETATM   28  C16 UNL     1      -0.086   6.418  11.556  1.00  0.00     0.260 C 
BRANCH  28  29
HETATM   29  C17 UNL     1      -0.564   5.005  11.945  1.00  0.00     0.185 C 
HETATM   30  O5  UNL     1       0.276   4.136  12.206  1.00  0.00    -0.292 OA
BRANCH  29  31
HETATM   31  C18 UNL     1      -2.076   4.688  11.799  1.00  0.00     0.128 C 
HETATM   32  C19 UNL     1      -2.252   3.146  11.761  1.00  0.00     0.047 C 
HETATM   33  C20 UNL     1      -3.626   2.843  12.389  1.00  0.00     0.009 C 
HETATM   34  C21 UNL     1      -4.255   4.216  12.642  1.00  0.00     0.002 C 
HETATM   35  C22 UNL     1      -5.390   4.281  13.685  1.00  0.00    -0.004 C 
HETATM   36  C35 UNL     1      -3.040   5.124  12.964  1.00  0.00    -0.002 C 
HETATM   37  C23 UNL     1      -6.643   3.545  13.158  1.00  0.00     0.010 C 
HETATM   38  C32 UNL     1      -5.662   5.770  14.135  1.00  0.00     0.002 C 
HETATM   39  C24 UNL     1      -7.618   4.480  12.455  1.00  0.00     0.035 C 
HETATM   40  C25 UNL     1      -8.096   5.591  13.354  1.00  0.00    -0.068 C 
HETATM   41  C26 UNL     1      -9.297   6.156  13.128  1.00  0.00     0.053 C 
HETATM   42  C30 UNL     1      -7.173   6.041  14.485  1.00  0.00    -0.016 C 
HETATM   43  C27 UNL     1      -9.811   7.271  13.965  1.00  0.00     0.149 C 
HETATM   44  O7  UNL     1     -10.957   7.677  13.784  1.00  0.00    -0.293 OA
HETATM   45  C28 UNL     1      -8.916   7.847  15.039  1.00  0.00     0.084 C 
HETATM   46  C29 UNL     1      -7.445   7.550  14.748  1.00  0.00     0.022 C 
HETATM   47  C31 UNL     1      -7.520   5.265  15.788  1.00  0.00     0.020 C 
HETATM   48  C33 UNL     1      -5.028   6.774  13.137  1.00  0.00     0.007 C 
HETATM   49  C34 UNL     1      -3.508   6.596  12.954  1.00  0.00     0.013 C 
HETATM   50  C36 UNL     1      -2.451   4.804  14.368  1.00  0.00     0.019 C 
BRANCH  31  51
HETATM   51  O6  UNL     1      -2.587   5.165  10.546  1.00  0.00    -0.381 OA
HETATM   52  H29 UNL     1      -2.488   6.132  10.547  1.00  0.00     0.211 HD
ENDBRANCH  31  51
ENDBRANCH  29  31
ENDBRANCH  28  29
ENDBRANCH  27  28
ENDBRANCH   1  27
TORSDOF 19
ENDMDL
MODEL 3
REMARK minimizedAffinity -8.16358089
REMARK CNNscore 0.445628107
REMARK CNNaffinity 7.2651825
REMARK  19 active torsions:
REMARK  status: ('A' for Active; 'I' for Inactive)
REMARK    1  A    between atoms: C2_2  and  C3_3 
REMARK    2  A    between atoms: C3_3  and  C5_5 
REMARK    3  A    between atoms: C5_5  and  N1_6 
REMARK    4  A    between atoms: C5_5  and  C37_46 
REMARK       I    between atoms: N1_6  and  C6_7 
REMARK    5  A    between atoms: C6_7  and  C7_9 
REMARK    6  A    between atoms: C7_9  and  C8_10 
REMARK    7  A    between atoms: C8_10  and  C9_11 
REMARK    8  A    between atoms: C9_11  and  C10_12 
REMARK    9  A    between atoms: C10_12  and  C11_13 
REMARK   10  A    between atoms: C11_13  and  N2_14 
REMARK       I    between atoms: N2_14  and  C12_15 
REMARK   11  A    between atoms: C12_15  and  C13_17 
REMARK   12  A    between atoms: C13_17  and  C14_18 
REMARK   13  A    between atoms: C14_18  and  C15_19 
REMARK   14  A    between atoms: C15_19  and  O4_21 
REMARK   15  A    between atoms: O4_21  and  C16_22 
REMARK   16  A    between atoms: C16_22  and  C17_23 
REMARK   17  A    between atoms: C17_23  and  C18_25 
REMARK   18  A    between atoms: C18_25  and  O6_26 
REMARK   19  A    between atoms: C37_46  and  O9_48 
ROOT
HETATM    1  C15 UNL     1       5.297   8.509  10.709  1.00  0.00     0.259 C 
HETATM    2  O3  UNL     1       5.396   9.589  10.138  1.00  0.00    -0.265 OA
ENDROOT
BRANCH   1   3
HETATM    3  C14 UNL     1       5.779   8.287  12.123  1.00  0.00     0.120 C 
BRANCH   3   4
HETATM    4  C13 UNL     1       7.088   7.519  12.254  1.00  0.00     0.112 C 
BRANCH   4   5
HETATM    5  C12 UNL     1       7.980   8.097  13.335  1.00  0.00     0.217 C 
HETATM    6  N2  UNL     1       7.278   8.797  14.290  1.00  0.00    -0.361 N 
HETATM    7  H22 UNL     1       6.263   8.781  14.276  1.00  0.00     0.162 HD
HETATM    8  O2  UNL     1       9.201   7.976  13.338  1.00  0.00    -0.274 OA
BRANCH   6   9
HETATM    9  C11 UNL     1       7.951   9.394  15.423  1.00  0.00     0.122 C 
BRANCH   9  10
HETATM   10  C10 UNL     1       8.308  10.864  15.208  1.00  0.00     0.020 C 
BRANCH  10  11
HETATM   11  C9  UNL     1       8.707  11.626  16.480  1.00  0.00     0.002 C 
BRANCH  11  12
HETATM   12  C8  UNL     1       7.605  11.705  17.543  1.00  0.00     0.009 C 
BRANCH  12  13
HETATM   13  C7  UNL     1       8.107  11.293  18.929  1.00  0.00     0.103 C 
BRANCH  13  14
HETATM   14  C6  UNL     1       7.968  12.402  19.959  1.00  0.00     0.218 C 
HETATM   15  N1  UNL     1       7.381  11.979  21.133  1.00  0.00    -0.346 N 
HETATM   16  H11 UNL     1       7.449  10.990  21.346  1.00  0.00     0.163 HD
HETATM   17  O1  UNL     1       8.355  13.551  19.775  1.00  0.00    -0.274 OA
BRANCH  15  18
HETATM   18  C5  UNL     1       7.283  12.888  22.280  1.00  0.00     0.186 C 
BRANCH  18  19
HETATM   19  C3  UNL     1       5.943  12.697  23.035  1.00  0.00     0.014 C 
HETATM   20  C4  UNL     1       5.035  13.922  22.855  1.00  0.00     0.012 C 
BRANCH  19  21
HETATM   21  C2  UNL     1       5.224  11.410  22.562  1.00  0.00     0.002 C 
HETATM   22  C1  UNL     1       3.864  11.187  23.211  1.00  0.00     0.005 C 
ENDBRANCH  19  21
ENDBRANCH  18  19
BRANCH  18  23
HETATM   23  C37 UNL     1       8.479  12.561  23.180  1.00  0.00     0.163 C 
HETATM   24  O8  UNL     1       9.160  13.375  23.789  1.00  0.00    -0.648 OA
BRANCH  23  25
HETATM   25  O9  UNL     1       8.759  11.242  23.238  1.00  0.00    -0.775 OA
HETATM   26  H56 UNL     1       9.503  11.181  23.872  1.00  0.00     0.167 HD
ENDBRANCH  23  25
ENDBRANCH  18  23
ENDBRANCH  15  18
ENDBRANCH  13  14
ENDBRANCH  12  13
ENDBRANCH  11  12
ENDBRANCH  10  11
ENDBRANCH   9  10
ENDBRANCH   6   9
ENDBRANCH   4   5
ENDBRANCH   3   4
ENDBRANCH   1   3
BRANCH   1  27
HETATM   27  O4  UNL     1       4.891   7.365  10.106  1.00  0.00    -0.314 OA
BRANCH  27  28
HETATM   28  C16 UNL     1       4.035   6.520  10.869  1.00  0.00     0.260 C 
BRANCH  28  29
HETATM   29  C17 UNL     1       2.501   6.501  10.717  1.00  0.00     0.185 C 
HETATM   30  O5  UNL     1       2.009   6.348   9.593  1.00  0.00    -0.292 OA
BRANCH  29  31
HETATM   31  C18 UNL     1       1.647   6.870  11.959  1.00  0.00     0.128 C 
HETATM   32  C19 UNL     1       2.056   8.292  12.430  1.00  0.00     0.047 C 
HETATM   33  C20 UNL     1       0.799   8.930  13.052  1.00  0.00     0.009 C 
HETATM   34  C21 UNL     1      -0.252   7.816  13.046  1.00  0.00     0.002 C 
HETATM   35  C22 UNL     1      -1.729   8.251  13.144  1.00  0.00    -0.004 C 
HETATM   36  C35 UNL     1       0.089   6.995  11.776  1.00  0.00    -0.002 C 
HETATM   37  C23 UNL     1      -2.022   8.839  14.543  1.00  0.00     0.010 C 
HETATM   38  C32 UNL     1      -2.696   7.074  12.727  1.00  0.00     0.002 C 
HETATM   39  C24 UNL     1      -2.558   7.796  15.515  1.00  0.00     0.035 C 
HETATM   40  C25 UNL     1      -3.831   7.155  15.023  1.00  0.00    -0.068 C 
HETATM   41  C26 UNL     1      -4.708   6.655  15.913  1.00  0.00     0.053 C 
HETATM   42  C30 UNL     1      -4.059   7.090  13.514  1.00  0.00    -0.016 C 
HETATM   43  C27 UNL     1      -5.967   5.990  15.488  1.00  0.00     0.149 C 
HETATM   44  O7  UNL     1      -6.782   5.648  16.342  1.00  0.00    -0.293 OA
HETATM   45  C28 UNL     1      -6.220   5.789  14.011  1.00  0.00     0.084 C 
HETATM   46  C29 UNL     1      -4.914   5.822  13.219  1.00  0.00     0.022 C 
HETATM   47  C31 UNL     1      -4.878   8.329  13.050  1.00  0.00     0.020 C 
HETATM   48  C33 UNL     1      -1.947   5.715  12.735  1.00  0.00     0.007 C 
HETATM   49  C34 UNL     1      -0.715   5.676  11.811  1.00  0.00     0.013 C 
HETATM   50  C36 UNL     1      -0.294   7.770  10.482  1.00  0.00     0.019 C 
BRANCH  31  51
HETATM   51  O6  UNL     1       1.935   6.001  13.063  1.00  0.00    -0.381 OA
HETATM   52  H29 UNL     1       1.685   5.102  12.791  1.00  0.00     0.211 HD
ENDBRANCH  31  51
ENDBRANCH  29  31
ENDBRANCH  28  29
ENDBRANCH  27  28
ENDBRANCH   1  27
TORSDOF 19
ENDMDL
MODEL 4
REMARK minimizedAffinity -8.35396862
REMARK CNNscore 0.36800462
REMARK CNNaffinity 6.89016771
REMARK  19 active torsions:
REMARK  status: ('A' for Active; 'I' for Inactive)
REMARK    1  A    between atoms: C2_2  and  C3_3 
REMARK    2  A    between atoms: C3_3  and  C5_5 
REMARK    3  A    between atoms: C5_5  and  N1_6 
REMARK    4  A    between atoms: C5_5  and  C37_46 
REMARK       I    between atoms: N1_6  and  C6_7 
REMARK    5  A    between atoms: C6_7  and  C7_9 
REMARK    6  A    between atoms: C7_9  and  C8_10 
REMARK    7  A    between atoms: C8_10  and  C9_11 
REMARK    8  A    between atoms: C9_11  and  C10_12 
REMARK    9  A    between atoms: C10_12  and  C11_13 
REMARK   10  A    between atoms: C11_13  and  N2_14 
REMARK       I    between atoms: N2_14  and  C12_15 
REMARK   11  A    between atoms: C12_15  and  C13_17 
REMARK   12  A    between atoms: C13_17  and  C14_18 
REMARK   13  A    between atoms: C14_18  and  C15_19 
REMARK   14  A    between atoms: C15_19  and  O4_21 
REMARK   15  A    between atoms: O4_21  and  C16_22 
REMARK   16  A    between atoms: C16_22  and  C17_23 
REMARK   17  A    between atoms: C17_23  and  C18_25 
REMARK   18  A    between atoms: C18_25  and  O6_26 
REMARK   19  A    between atoms: C37_46  and  O9_48 
ROOT
HETATM    1  C15 UNL     1       5.481   6.587  11.286  1.00  0.00     0.259 C 
HETATM    2  O3  UNL     1       5.501   5.903  10.270  1.00  0.00    -0.265 OA
ENDROOT
BRANCH   1   3
HETATM    3  C14 UNL     1       6.603   6.577  12.298  1.00  0.00     0.120 C 
BRANCH   3   4
HETATM    4  C13 UNL     1       6.322   7.327  13.593  1.00  0.00     0.112 C 
BRANCH   4   5
HETATM    5  C12 UNL     1       7.549   8.054  14.107  1.00  0.00     0.217 C 
HETATM    6  N2  UNL     1       8.116   7.439  15.201  1.00  0.00    -0.361 N 
HETATM    7  H22 UNL     1       7.770   6.533  15.500  1.00  0.00     0.162 HD
HETATM    8  O2  UNL     1       7.972   9.095  13.614  1.00  0.00    -0.274 OA
BRANCH   6   9
HETATM    9  C11 UNL     1       9.316   7.965  15.813  1.00  0.00     0.122 C 
BRANCH   9  10
HETATM   10  C10 UNL     1       9.039   9.041  16.862  1.00  0.00     0.020 C 
BRANCH  10  11
HETATM   11  C9  UNL     1       9.878  10.319  16.716  1.00  0.00     0.002 C 
BRANCH  11  12
HETATM   12  C8  UNL     1       9.957  11.173  17.987  1.00  0.00     0.009 C 
BRANCH  12  13
HETATM   13  C7  UNL     1       8.712  11.020  18.865  1.00  0.00     0.103 C 
BRANCH  13  14
HETATM   14  C6  UNL     1       8.338  12.305  19.584  1.00  0.00     0.218 C 
HETATM   15  N1  UNL     1       7.875  12.093  20.866  1.00  0.00    -0.346 N 
HETATM   16  H11 UNL     1       8.169  11.234  21.320  1.00  0.00     0.163 HD
HETATM   17  O1  UNL     1       8.451  13.419  19.085  1.00  0.00    -0.274 OA
BRANCH  15  18
HETATM   18  C5  UNL     1       7.588  13.230  21.746  1.00  0.00     0.186 C 
BRANCH  18  19
HETATM   19  C3  UNL     1       6.394  12.923  22.687  1.00  0.00     0.014 C 
HETATM   20  C4  UNL     1       5.611  14.204  23.012  1.00  0.00     0.012 C 
BRANCH  19  21
HETATM   21  C2  UNL     1       5.462  11.857  22.063  1.00  0.00     0.002 C 
HETATM   22  C1  UNL     1       4.887  10.871  23.072  1.00  0.00     0.005 C 
ENDBRANCH  19  21
ENDBRANCH  18  19
BRANCH  18  23
HETATM   23  C37 UNL     1       8.872  13.482  22.543  1.00  0.00     0.163 C 
HETATM   24  O8  UNL     1       9.118  13.045  23.658  1.00  0.00    -0.648 OA
BRANCH  23  25
HETATM   25  O9  UNL     1       9.749  14.283  21.904  1.00  0.00    -0.775 OA
HETATM   26  H56 UNL     1      10.524  14.318  22.501  1.00  0.00     0.167 HD
ENDBRANCH  23  25
ENDBRANCH  18  23
ENDBRANCH  15  18
ENDBRANCH  13  14
ENDBRANCH  12  13
ENDBRANCH  11  12
ENDBRANCH  10  11
ENDBRANCH   9  10
ENDBRANCH   6   9
ENDBRANCH   4   5
ENDBRANCH   3   4
ENDBRANCH   1   3
BRANCH   1  27
HETATM   27  O4  UNL     1       4.410   7.308  11.699  1.00  0.00    -0.314 OA
BRANCH  27  28
HETATM   28  C16 UNL     1       3.134   6.699  11.523  1.00  0.00     0.260 C 
BRANCH  28  29
HETATM   29  C17 UNL     1       1.816   7.493  11.426  1.00  0.00     0.185 C 
HETATM   30  O5  UNL     1       1.852   8.727  11.485  1.00  0.00    -0.292 OA
BRANCH  29  31
HETATM   31  C18 UNL     1       0.487   6.693  11.456  1.00  0.00     0.128 C 
HETATM   32  C19 UNL     1       0.825   5.183  11.570  1.00  0.00     0.047 C 
HETATM   33  C20 UNL     1      -0.329   4.529  12.353  1.00  0.00     0.009 C 
HETATM   34  C21 UNL     1      -1.357   5.647  12.545  1.00  0.00     0.002 C 
HETATM   35  C22 UNL     1      -2.383   5.463  13.684  1.00  0.00    -0.004 C 
HETATM   36  C35 UNL     1      -0.491   6.927  12.667  1.00  0.00    -0.002 C 
HETATM   37  C23 UNL     1      -3.354   4.310  13.347  1.00  0.00     0.010 C 
HETATM   38  C32 UNL     1      -3.100   6.828  14.026  1.00  0.00     0.002 C 
HETATM   39  C24 UNL     1      -4.625   4.796  12.663  1.00  0.00     0.035 C 
HETATM   40  C25 UNL     1      -5.384   5.790  13.504  1.00  0.00    -0.068 C 
HETATM   41  C26 UNL     1      -6.715   5.911  13.348  1.00  0.00     0.053 C 
HETATM   42  C30 UNL     1      -4.590   6.638  14.497  1.00  0.00    -0.016 C 
HETATM   43  C27 UNL     1      -7.514   6.890  14.130  1.00  0.00     0.149 C 
HETATM   44  O7  UNL     1      -8.738   6.884  14.026  1.00  0.00    -0.293 OA
HETATM   45  C28 UNL     1      -6.792   7.841  15.058  1.00  0.00     0.084 C 
HETATM   46  C29 UNL     1      -5.327   8.000  14.652  1.00  0.00     0.022 C 
HETATM   47  C31 UNL     1      -4.579   5.946  15.890  1.00  0.00     0.020 C 
HETATM   48  C33 UNL     1      -2.896   7.861  12.887  1.00  0.00     0.007 C 
HETATM   49  C34 UNL     1      -1.417   8.160  12.574  1.00  0.00     0.013 C 
HETATM   50  C36 UNL     1       0.258   6.976  14.030  1.00  0.00     0.019 C 
BRANCH  31  51
HETATM   51  O6  UNL     1      -0.231   6.835  10.222  1.00  0.00    -0.381 OA
HETATM   52  H29 UNL     1      -0.456   7.776  10.129  1.00  0.00     0.211 HD
ENDBRANCH  31  51
ENDBRANCH  29  31
ENDBRANCH  28  29
ENDBRANCH  27  28
ENDBRANCH   1  27
TORSDOF 19
ENDMDL
MODEL 5
REMARK minimizedAffinity -7.72645807
REMARK CNNscore 0.280352861
REMARK CNNaffinity 6.75949621
REMARK  19 active torsions:
REMARK  status: ('A' for Active; 'I' for Inactive)
REMARK    1  A    between atoms: C2_2  and  C3_3 
REMARK    2  A    between atoms: C3_3  and  C5_5 
REMARK    3  A    between atoms: C5_5  and  N1_6 
REMARK    4  A    between atoms: C5_5  and  C37_46 
REMARK       I    between atoms: N1_6  and  C6_7 
REMARK    5  A    between atoms: C6_7  and  C7_9 
REMARK    6  A    between atoms: C7_9  and  C8_10 
REMARK    7  A    between atoms: C8_10  and  C9_11 
REMARK    8  A    between atoms: C9_11  and  C10_12 
REMARK    9  A    between atoms: C10_12  and  C11_13 
REMARK   10  A    between atoms: C11_13  and  N2_14 
REMARK       I    between atoms: N2_14  and  C12_15 
REMARK   11  A    between atoms: C12_15  and  C13_17 
REMARK   12  A    between atoms: C13_17  and  C14_18 
REMARK   13  A    between atoms: C14_18  and  C15_19 
REMARK   14  A    between atoms: C15_19  and  O4_21 
REMARK   15  A    between atoms: O4_21  and  C16_22 
REMARK   16  A    between atoms: C16_22  and  C17_23 
REMARK   17  A    between atoms: C17_23  and  C18_25 
REMARK   18  A    between atoms: C18_25  and  O6_26 
REMARK   19  A    between atoms: C37_46  and  O9_48 
ROOT
HETATM    1  C15 UNL     1       1.395  10.541  17.941  1.00  0.00     0.259 C 
HETATM    2  O3  UNL     1       2.250   9.687  17.742  1.00  0.00    -0.265 OA
ENDROOT
BRANCH   1   3
HETATM    3  C14 UNL     1       1.410  11.446  19.151  1.00  0.00     0.120 C 
BRANCH   3   4
HETATM    4  C13 UNL     1       0.901  10.819  20.442  1.00  0.00     0.112 C 
BRANCH   4   5
HETATM    5  C12 UNL     1       1.992  10.064  21.176  1.00  0.00     0.217 C 
HETATM    6  N2  UNL     1       3.222  10.675  21.080  1.00  0.00    -0.361 N 
HETATM    7  H22 UNL     1       3.292  11.594  20.653  1.00  0.00     0.162 HD
HETATM    8  O2  UNL     1       1.800   9.007  21.768  1.00  0.00    -0.274 OA
BRANCH   6   9
HETATM    9  C11 UNL     1       4.383  10.124  21.745  1.00  0.00     0.122 C 
BRANCH   9  10
HETATM   10  C10 UNL     1       4.642  10.738  23.119  1.00  0.00     0.020 C 
BRANCH  10  11
HETATM   11  C9  UNL     1       5.431  12.056  23.100  1.00  0.00     0.002 C 
BRANCH  11  12
HETATM   12  C8  UNL     1       6.409  12.192  21.929  1.00  0.00     0.009 C 
BRANCH  12  13
HETATM   13  C7  UNL     1       7.841  12.463  22.398  1.00  0.00     0.103 C 
BRANCH  13  14
HETATM   14  C6  UNL     1       8.872  12.235  21.306  1.00  0.00     0.218 C 
HETATM   15  N1  UNL     1       8.377  12.461  20.039  1.00  0.00    -0.346 N 
HETATM   16  H11 UNL     1       7.577  13.081  19.966  1.00  0.00     0.163 HD
HETATM   17  O1  UNL     1      10.031  11.902  21.526  1.00  0.00    -0.274 OA
BRANCH  15  18
HETATM   18  C5  UNL     1       9.269  12.408  18.876  1.00  0.00     0.186 C 
BRANCH  18  19
HETATM   19  C3  UNL     1      10.733  12.134  19.305  1.00  0.00     0.014 C 
HETATM   20  C4  UNL     1      11.207  10.767  18.790  1.00  0.00     0.012 C 
BRANCH  19  21
HETATM   21  C2  UNL     1      11.672  13.260  18.809  1.00  0.00     0.002 C 
HETATM   22  C1  UNL     1      12.276  13.001  17.435  1.00  0.00     0.005 C 
ENDBRANCH  19  21
ENDBRANCH  18  19
BRANCH  18  23
HETATM   23  C37 UNL     1       8.733  11.285  17.983  1.00  0.00     0.163 C 
HETATM   24  O8  UNL     1       8.968  11.145  16.791  1.00  0.00    -0.648 OA
BRANCH  23  25
HETATM   25  O9  UNL     1       7.918  10.428  18.633  1.00  0.00    -0.775 OA
HETATM   26  H56 UNL     1       7.692   9.753  17.962  1.00  0.00     0.167 HD
ENDBRANCH  23  25
ENDBRANCH  18  23
ENDBRANCH  15  18
ENDBRANCH  13  14
ENDBRANCH  12  13
ENDBRANCH  11  12
ENDBRANCH  10  11
ENDBRANCH   9  10
ENDBRANCH   6   9
ENDBRANCH   4   5
ENDBRANCH   3   4
ENDBRANCH   1   3
BRANCH   1  27
HETATM   27  O4  UNL     1       0.269  10.679  17.198  1.00  0.00    -0.314 OA
BRANCH  27  28
HETATM   28  C16 UNL     1       0.441  11.195  15.881  1.00  0.00     0.260 C 
BRANCH  28  29
HETATM   29  C17 UNL     1      -0.673  11.200  14.816  1.00  0.00     0.185 C 
HETATM   30  O5  UNL     1      -1.218  12.270  14.520  1.00  0.00    -0.292 OA
BRANCH  29  31
HETATM   31  C18 UNL     1      -1.191   9.830  14.305  1.00  0.00     0.128 C 
HETATM   32  C19 UNL     1      -0.138   8.745  14.655  1.00  0.00     0.047 C 
HETATM   33  C20 UNL     1      -0.912   7.434  14.886  1.00  0.00     0.009 C 
HETATM   34  C21 UNL     1      -2.364   7.767  14.529  1.00  0.00     0.002 C 
HETATM   35  C22 UNL     1      -3.454   6.838  15.104  1.00  0.00    -0.004 C 
HETATM   36  C35 UNL     1      -2.512   9.255  14.938  1.00  0.00    -0.002 C 
HETATM   37  C23 UNL     1      -3.368   5.442  14.447  1.00  0.00     0.010 C 
HETATM   38  C32 UNL     1      -4.880   7.508  15.003  1.00  0.00     0.002 C 
HETATM   39  C24 UNL     1      -4.286   5.305  13.241  1.00  0.00     0.035 C 
HETATM   40  C25 UNL     1      -5.732   5.547  13.591  1.00  0.00    -0.068 C 
HETATM   41  C26 UNL     1      -6.698   4.969  12.853  1.00  0.00     0.053 C 
HETATM   42  C30 UNL     1      -6.036   6.463  14.775  1.00  0.00    -0.016 C 
HETATM   43  C27 UNL     1      -8.141   5.190  13.134  1.00  0.00     0.149 C 
HETATM   44  O7  UNL     1      -8.979   4.554  12.498  1.00  0.00    -0.293 OA
HETATM   45  C28 UNL     1      -8.529   6.166  14.221  1.00  0.00     0.084 C 
HETATM   46  C29 UNL     1      -7.400   7.159  14.498  1.00  0.00     0.022 C 
HETATM   47  C31 UNL     1      -6.193   5.616  16.070  1.00  0.00     0.020 C 
HETATM   48  C33 UNL     1      -4.864   8.698  14.008  1.00  0.00     0.007 C 
HETATM   49  C34 UNL     1      -3.841   9.795  14.364  1.00  0.00     0.013 C 
HETATM   50  C36 UNL     1      -2.544   9.415  16.485  1.00  0.00     0.019 C 
BRANCH  31  51
HETATM   51  O6  UNL     1      -1.296   9.816  12.874  1.00  0.00    -0.381 OA
HETATM   52  H29 UNL     1      -1.954  10.489  12.629  1.00  0.00     0.211 HD
ENDBRANCH  31  51
ENDBRANCH  29  31
ENDBRANCH  28  29
ENDBRANCH  27  28
ENDBRANCH   1  27
TORSDOF 19
ENDMDL
MODEL 6
REMARK minimizedAffinity -8.13061428
REMARK CNNscore 0.27581653
REMARK CNNaffinity 7.47224569
REMARK  19 active torsions:
REMARK  status: ('A' for Active; 'I' for Inactive)
REMARK    1  A    between atoms: C2_2  and  C3_3 
REMARK    2  A    between atoms: C3_3  and  C5_5 
REMARK    3  A    between atoms: C5_5  and  N1_6 
REMARK    4  A    between atoms: C5_5  and  C37_46 
REMARK       I    between atoms: N1_6  and  C6_7 
REMARK    5  A    between atoms: C6_7  and  C7_9 
REMARK    6  A    between atoms: C7_9  and  C8_10 
REMARK    7  A    between atoms: C8_10  and  C9_11 
REMARK    8  A    between atoms: C9_11  and  C10_12 
REMARK    9  A    between atoms: C10_12  and  C11_13 
REMARK   10  A    between atoms: C11_13  and  N2_14 
REMARK       I    between atoms: N2_14  and  C12_15 
REMARK   11  A    between atoms: C12_15  and  C13_17 
REMARK   12  A    between atoms: C13_17  and  C14_18 
REMARK   13  A    between atoms: C14_18  and  C15_19 
REMARK   14  A    between atoms: C15_19  and  O4_21 
REMARK   15  A    between atoms: O4_21  and  C16_22 
REMARK   16  A    between atoms: C16_22  and  C17_23 
REMARK   17  A    between atoms: C17_23  and  C18_25 
REMARK   18  A    between atoms: C18_25  and  O6_26 
REMARK   19  A    between atoms: C37_46  and  O9_48 
ROOT
HETATM    1  C15 UNL     1      -0.832   8.314  12.055  1.00  0.00     0.259 C 
HETATM    2  O3  UNL     1      -1.509   9.300  11.791  1.00  0.00    -0.265 OA
ENDROOT
BRANCH   1   3
HETATM    3  C14 UNL     1       0.209   8.308  13.150  1.00  0.00     0.120 C 
BRANCH   3   4
HETATM    4  C13 UNL     1       1.430   9.181  12.894  1.00  0.00     0.112 C 
BRANCH   4   5
HETATM    5  C12 UNL     1       2.450   9.072  14.010  1.00  0.00     0.217 C 
HETATM    6  N2  UNL     1       3.477   8.204  13.713  1.00  0.00    -0.361 N 
HETATM    7  H22 UNL     1       3.544   7.809  12.780  1.00  0.00     0.162 HD
HETATM    8  O2  UNL     1       2.353   9.674  15.074  1.00  0.00    -0.274 OA
BRANCH   6   9
HETATM    9  C11 UNL     1       4.567   7.992  14.641  1.00  0.00     0.122 C 
BRANCH   9  10
HETATM   10  C10 UNL     1       5.729   8.962  14.440  1.00  0.00     0.020 C 
BRANCH  10  11
HETATM   11  C9  UNL     1       6.886   8.419  13.589  1.00  0.00     0.002 C 
BRANCH  11  12
HETATM   12  C8  UNL     1       7.055   9.114  12.233  1.00  0.00     0.009 C 
BRANCH  12  13
HETATM   13  C7  UNL     1       6.731   8.184  11.061  1.00  0.00     0.103 C 
BRANCH  13  14
HETATM   14  C6  UNL     1       5.240   8.073  10.792  1.00  0.00     0.218 C 
HETATM   15  N1  UNL     1       4.880   6.867  10.228  1.00  0.00    -0.346 N 
HETATM   16  H11 UNL     1       5.503   6.083  10.392  1.00  0.00     0.163 HD
HETATM   17  O1  UNL     1       4.434   8.956  11.063  1.00  0.00    -0.274 OA
BRANCH  15  18
HETATM   18  C5  UNL     1       3.465   6.542  10.017  1.00  0.00     0.186 C 
BRANCH  18  19
HETATM   19  C3  UNL     1       2.911   7.246   8.753  1.00  0.00     0.014 C 
HETATM   20  C4  UNL     1       2.529   6.218   7.678  1.00  0.00     0.012 C 
BRANCH  19  21
HETATM   21  C2  UNL     1       1.699   8.140   9.107  1.00  0.00     0.002 C 
HETATM   22  C1  UNL     1       0.576   8.097   8.079  1.00  0.00     0.005 C 
ENDBRANCH  19  21
ENDBRANCH  18  19
BRANCH  18  23
HETATM   23  C37 UNL     1       3.399   5.018   9.878  1.00  0.00     0.163 C 
HETATM   24  O8  UNL     1       2.421   4.321  10.111  1.00  0.00    -0.648 OA
BRANCH  23  25
HETATM   25  O9  UNL     1       4.565   4.466   9.483  1.00  0.00    -0.775 OA
HETATM   26  H56 UNL     1       4.363   3.512   9.397  1.00  0.00     0.167 HD
ENDBRANCH  23  25
ENDBRANCH  18  23
ENDBRANCH  15  18
ENDBRANCH  13  14
ENDBRANCH  12  13
ENDBRANCH  11  12
ENDBRANCH  10  11
ENDBRANCH   9  10
ENDBRANCH   6   9
ENDBRANCH   4   5
ENDBRANCH   3   4
ENDBRANCH   1   3
BRANCH   1  27
HETATM   27  O4  UNL     1      -0.824   7.176  11.318  1.00  0.00    -0.314 OA
BRANCH  27  28
HETATM   28  C16 UNL     1      -0.066   6.090  11.842  1.00  0.00     0.260 C 
BRANCH  28  29
HETATM   29  C17 UNL     1      -0.647   4.682  12.081  1.00  0.00     0.185 C 
HETATM   30  O5  UNL     1       0.126   3.736  12.271  1.00  0.00    -0.292 OA
BRANCH  29  31
HETATM   31  C18 UNL     1      -2.172   4.486  11.877  1.00  0.00     0.128 C 
HETATM   32  C19 UNL     1      -2.457   2.966  11.734  1.00  0.00     0.047 C 
HETATM   33  C20 UNL     1      -3.866   2.725  12.307  1.00  0.00     0.009 C 
HETATM   34  C21 UNL     1      -4.404   4.121  12.633  1.00  0.00     0.002 C 
HETATM   35  C22 UNL     1      -5.562   4.204  13.649  1.00  0.00    -0.004 C 
HETATM   36  C35 UNL     1      -3.137   4.916  13.043  1.00  0.00    -0.002 C 
HETATM   37  C23 UNL     1      -6.847   3.596  13.044  1.00  0.00     0.010 C 
HETATM   38  C32 UNL     1      -5.740   5.677  14.187  1.00  0.00     0.002 C 
HETATM   39  C24 UNL     1      -7.732   4.641  12.379  1.00  0.00     0.035 C 
HETATM   40  C25 UNL     1      -8.156   5.726  13.336  1.00  0.00    -0.068 C 
HETATM   41  C26 UNL     1      -9.307   6.390  13.118  1.00  0.00     0.053 C 
HETATM   42  C30 UNL     1      -7.238   6.035  14.517  1.00  0.00    -0.016 C 
HETATM   43  C27 UNL     1      -9.765   7.485  14.011  1.00  0.00     0.149 C 
HETATM   44  O7  UNL     1     -10.873   7.984  13.828  1.00  0.00    -0.293 OA
HETATM   45  C28 UNL     1      -8.864   7.925  15.143  1.00  0.00     0.084 C 
HETATM   46  C29 UNL     1      -7.410   7.541  14.870  1.00  0.00     0.022 C 
HETATM   47  C31 UNL     1      -7.677   5.206  15.758  1.00  0.00     0.020 C 
HETATM   48  C33 UNL     1      -5.007   6.693  13.272  1.00  0.00     0.007 C 
HETATM   49  C34 UNL     1      -3.499   6.417  13.116  1.00  0.00     0.013 C 
HETATM   50  C36 UNL     1      -2.615   4.467  14.438  1.00  0.00     0.019 C 
BRANCH  31  51
HETATM   51  O6  UNL     1      -2.611   5.076  10.645  1.00  0.00    -0.381 OA
HETATM   52  H29 UNL     1      -2.444   6.032  10.711  1.00  0.00     0.211 HD
ENDBRANCH  31  51
ENDBRANCH  29  31
ENDBRANCH  28  29
ENDBRANCH  27  28
ENDBRANCH   1  27
TORSDOF 19
ENDMDL
MODEL 7
REMARK minimizedAffinity -7.80733299
REMARK CNNscore 0.256234288
REMARK CNNaffinity 7.20267439
REMARK  19 active torsions:
REMARK  status: ('A' for Active; 'I' for Inactive)
REMARK    1  A    between atoms: C2_2  and  C3_3 
REMARK    2  A    between atoms: C3_3  and  C5_5 
REMARK    3  A    between atoms: C5_5  and  N1_6 
REMARK    4  A    between atoms: C5_5  and  C37_46 
REMARK       I    between atoms: N1_6  and  C6_7 
REMARK    5  A    between atoms: C6_7  and  C7_9 
REMARK    6  A    between atoms: C7_9  and  C8_10 
REMARK    7  A    between atoms: C8_10  and  C9_11 
REMARK    8  A    between atoms: C9_11  and  C10_12 
REMARK    9  A    between atoms: C10_12  and  C11_13 
REMARK   10  A    between atoms: C11_13  and  N2_14 
REMARK       I    between atoms: N2_14  and  C12_15 
REMARK   11  A    between atoms: C12_15  and  C13_17 
REMARK   12  A    between atoms: C13_17  and  C14_18 
REMARK   13  A    between atoms: C14_18  and  C15_19 
REMARK   14  A    between atoms: C15_19  and  O4_21 
REMARK   15  A    between atoms: O4_21  and  C16_22 
REMARK   16  A    between atoms: C16_22  and  C17_23 
REMARK   17  A    between atoms: C17_23  and  C18_25 
REMARK   18  A    between atoms: C18_25  and  O6_26 
REMARK   19  A    between atoms: C37_46  and  O9_48 
ROOT
HETATM    1  C15 UNL     1      -0.801  11.547  16.541  1.00  0.00     0.259 C 
HETATM    2  O3  UNL     1      -1.719  12.340  16.377  1.00  0.00    -0.265 OA
ENDROOT
BRANCH   1   3
HETATM    3  C14 UNL     1       0.487  11.922  17.235  1.00  0.00     0.120 C 
BRANCH   3   4
HETATM    4  C13 UNL     1       1.256  10.764  17.857  1.00  0.00     0.112 C 
BRANCH   4   5
HETATM    5  C12 UNL     1       1.188  10.784  19.371  1.00  0.00     0.217 C 
HETATM    6  N2  UNL     1       2.311  10.252  19.964  1.00  0.00    -0.361 N 
HETATM    7  H22 UNL     1       3.112  10.007  19.388  1.00  0.00     0.162 HD
HETATM    8  O2  UNL     1       0.221  11.203  19.998  1.00  0.00    -0.274 OA
BRANCH   6   9
HETATM    9  C11 UNL     1       2.449  10.215  21.403  1.00  0.00     0.122 C 
BRANCH   9  10
HETATM   10  C10 UNL     1       3.838   9.780  21.867  1.00  0.00     0.020 C 
BRANCH  10  11
HETATM   11  C9  UNL     1       4.385  10.545  23.081  1.00  0.00     0.002 C 
BRANCH  11  12
HETATM   12  C8  UNL     1       5.210  11.787  22.727  1.00  0.00     0.009 C 
BRANCH  12  13
HETATM   13  C7  UNL     1       6.687  11.625  23.093  1.00  0.00     0.103 C 
BRANCH  13  14
HETATM   14  C6  UNL     1       7.494  12.892  22.862  1.00  0.00     0.218 C 
HETATM   15  N1  UNL     1       7.241  13.479  21.640  1.00  0.00    -0.346 N 
HETATM   16  H11 UNL     1       6.345  13.270  21.211  1.00  0.00     0.163 HD
HETATM   17  O1  UNL     1       8.276  13.357  23.683  1.00  0.00    -0.274 OA
BRANCH  15  18
HETATM   18  C5  UNL     1       7.838  14.776  21.305  1.00  0.00     0.186 C 
BRANCH  18  19
HETATM   19  C3  UNL     1       7.097  15.935  22.017  1.00  0.00     0.014 C 
HETATM   20  C4  UNL     1       6.203  16.701  21.031  1.00  0.00     0.012 C 
BRANCH  19  21
HETATM   21  C2  UNL     1       6.266  15.406  23.211  1.00  0.00     0.002 C 
HETATM   22  C1  UNL     1       5.160  16.352  23.662  1.00  0.00     0.005 C 
ENDBRANCH  19  21
ENDBRANCH  18  19
BRANCH  18  23
HETATM   23  C37 UNL     1       9.301  14.694  21.752  1.00  0.00     0.163 C 
HETATM   24  O8  UNL     1      10.122  13.873  21.366  1.00  0.00    -0.648 OA
BRANCH  23  25
HETATM   25  O9  UNL     1       9.633  15.626  22.669  1.00  0.00    -0.775 OA
HETATM   26  H56 UNL     1      10.588  15.483  22.824  1.00  0.00     0.167 HD
ENDBRANCH  23  25
ENDBRANCH  18  23
ENDBRANCH  15  18
ENDBRANCH  13  14
ENDBRANCH  12  13
ENDBRANCH  11  12
ENDBRANCH  10  11
ENDBRANCH   9  10
ENDBRANCH   6   9
ENDBRANCH   4   5
ENDBRANCH   3   4
ENDBRANCH   1   3
BRANCH   1  27
HETATM   27  O4  UNL     1      -0.762  10.304  15.999  1.00  0.00    -0.314 OA
BRANCH  27  28
HETATM   28  C16 UNL     1      -1.028  10.217  14.602  1.00  0.00     0.260 C 
BRANCH  28  29
HETATM   29  C17 UNL     1      -0.834   8.929  13.777  1.00  0.00     0.185 C 
HETATM   30  O5  UNL     1       0.307   8.602  13.432  1.00  0.00    -0.292 OA
BRANCH  29  31
HETATM   31  C18 UNL     1      -2.104   8.209  13.251  1.00  0.00     0.128 C 
HETATM   32  C19 UNL     1      -1.682   6.835  12.666  1.00  0.00     0.047 C 
HETATM   33  C20 UNL     1      -2.869   5.878  12.886  1.00  0.00     0.009 C 
HETATM   34  C21 UNL     1      -3.983   6.757  13.461  1.00  0.00     0.002 C 
HETATM   35  C22 UNL     1      -5.111   6.040  14.232  1.00  0.00    -0.004 C 
HETATM   36  C35 UNL     1      -3.220   7.822  14.291  1.00  0.00    -0.002 C 
HETATM   37  C23 UNL     1      -5.963   5.190  13.263  1.00  0.00     0.010 C 
HETATM   38  C32 UNL     1      -5.948   7.063  15.095  1.00  0.00     0.002 C 
HETATM   39  C24 UNL     1      -7.182   5.941  12.744  1.00  0.00     0.035 C 
HETATM   40  C25 UNL     1      -8.090   6.399  13.856  1.00  0.00    -0.068 C 
HETATM   41  C26 UNL     1      -9.402   6.573  13.611  1.00  0.00     0.053 C 
HETATM   42  C30 UNL     1      -7.465   6.662  15.225  1.00  0.00    -0.016 C 
HETATM   43  C27 UNL     1     -10.342   7.047  14.660  1.00  0.00     0.149 C 
HETATM   44  O7  UNL     1     -11.545   7.086  14.414  1.00  0.00    -0.293 OA
HETATM   45  C28 UNL     1      -9.788   7.431  16.013  1.00  0.00     0.084 C 
HETATM   46  C29 UNL     1      -8.301   7.774  15.922  1.00  0.00     0.022 C 
HETATM   47  C31 UNL     1      -7.559   5.381  16.103  1.00  0.00     0.020 C 
HETATM   48  C33 UNL     1      -5.690   8.520  14.629  1.00  0.00     0.007 C 
HETATM   49  C34 UNL     1      -4.209   8.941  14.687  1.00  0.00     0.013 C 
HETATM   50  C36 UNL     1      -2.627   7.206  15.591  1.00  0.00     0.019 C 
BRANCH  31  51
HETATM   51  O6  UNL     1      -2.693   8.929  12.158  1.00  0.00    -0.381 OA
HETATM   52  H29 UNL     1      -2.967   9.795  12.501  1.00  0.00     0.211 HD
ENDBRANCH  31  51
ENDBRANCH  29  31
ENDBRANCH  28  29
ENDBRANCH  27  28
ENDBRANCH   1  27
TORSDOF 19
ENDMDL
MODEL 8
REMARK minimizedAffinity -8.22251987
REMARK CNNscore 0.2484622
REMARK CNNaffinity 6.93528366
REMARK  19 active torsions:
REMARK  status: ('A' for Active; 'I' for Inactive)
REMARK    1  A    between atoms: C2_2  and  C3_3 
REMARK    2  A    between atoms: C3_3  and  C5_5 
REMARK    3  A    between atoms: C5_5  and  N1_6 
REMARK    4  A    between atoms: C5_5  and  C37_46 
REMARK       I    between atoms: N1_6  and  C6_7 
REMARK    5  A    between atoms: C6_7  and  C7_9 
REMARK    6  A    between atoms: C7_9  and  C8_10 
REMARK    7  A    between atoms: C8_10  and  C9_11 
REMARK    8  A    between atoms: C9_11  and  C10_12 
REMARK    9  A    between atoms: C10_12  and  C11_13 
REMARK   10  A    between atoms: C11_13  and  N2_14 
REMARK       I    between atoms: N2_14  and  C12_15 
REMARK   11  A    between atoms: C12_15  and  C13_17 
REMARK   12  A    between atoms: C13_17  and  C14_18 
REMARK   13  A    between atoms: C14_18  and  C15_19 
REMARK   14  A    between atoms: C15_19  and  O4_21 
REMARK   15  A    between atoms: O4_21  and  C16_22 
REMARK   16  A    between atoms: C16_22  and  C17_23 
REMARK   17  A    between atoms: C17_23  and  C18_25 
REMARK   18  A    between atoms: C18_25  and  O6_26 
REMARK   19  A    between atoms: C37_46  and  O9_48 
ROOT
HETATM    1  C15 UNL     1       1.417   6.581   9.800  1.00  0.00     0.259 C 
HETATM    2  O3  UNL     1       0.594   7.485   9.724  1.00  0.00    -0.265 OA
ENDROOT
BRANCH   1   3
HETATM    3  C14 UNL     1       2.756   6.636   9.102  1.00  0.00     0.120 C 
BRANCH   3   4
HETATM    4  C13 UNL     1       3.757   7.623   9.687  1.00  0.00     0.112 C 
BRANCH   4   5
HETATM    5  C12 UNL     1       4.811   6.932  10.529  1.00  0.00     0.217 C 
HETATM    6  N2  UNL     1       5.324   7.744  11.516  1.00  0.00    -0.361 N 
HETATM    7  H22 UNL     1       4.906   8.654  11.682  1.00  0.00     0.162 HD
HETATM    8  O2  UNL     1       5.185   5.781  10.331  1.00  0.00    -0.274 OA
BRANCH   6   9
HETATM    9  C11 UNL     1       6.318   7.252  12.445  1.00  0.00     0.122 C 
BRANCH   9  10
HETATM   10  C10 UNL     1       6.878   8.337  13.362  1.00  0.00     0.020 C 
BRANCH  10  11
HETATM   11  C9  UNL     1       7.390   7.837  14.721  1.00  0.00     0.002 C 
BRANCH  11  12
HETATM   12  C8  UNL     1       8.905   7.965  14.913  1.00  0.00     0.009 C 
BRANCH  12  13
HETATM   13  C7  UNL     1       9.312   7.879  16.386  1.00  0.00     0.103 C 
BRANCH  13  14
HETATM   14  C6  UNL     1       9.187   9.210  17.110  1.00  0.00     0.218 C 
HETATM   15  N1  UNL     1      10.326   9.982  17.022  1.00  0.00    -0.346 N 
HETATM   16  H11 UNL     1      10.940   9.800  16.234  1.00  0.00     0.163 HD
HETATM   17  O1  UNL     1       8.173   9.570  17.696  1.00  0.00    -0.274 OA
BRANCH  15  18
HETATM   18  C5  UNL     1      10.336  11.348  17.556  1.00  0.00     0.186 C 
BRANCH  18  19
HETATM   19  C3  UNL     1      10.470  11.344  19.100  1.00  0.00     0.014 C 
HETATM   20  C4  UNL     1      11.946  11.417  19.521  1.00  0.00     0.012 C 
BRANCH  19  21
HETATM   21  C2  UNL     1       9.666  12.510  19.725  1.00  0.00     0.002 C 
HETATM   22  C1  UNL     1       8.531  12.060  20.635  1.00  0.00     0.005 C 
ENDBRANCH  19  21
ENDBRANCH  18  19
BRANCH  18  23
HETATM   23  C37 UNL     1      11.528  12.049  16.897  1.00  0.00     0.163 C 
HETATM   24  O8  UNL     1      12.416  11.502  16.259  1.00  0.00    -0.648 OA
BRANCH  23  25
HETATM   25  O9  UNL     1      11.544  13.383  17.102  1.00  0.00    -0.775 OA
HETATM   26  H56 UNL     1      12.320  13.696  16.596  1.00  0.00     0.167 HD
ENDBRANCH  23  25
ENDBRANCH  18  23
ENDBRANCH  15  18
ENDBRANCH  13  14
ENDBRANCH  12  13
ENDBRANCH  11  12
ENDBRANCH  10  11
ENDBRANCH   9  10
ENDBRANCH   6   9
ENDBRANCH   4   5
ENDBRANCH   3   4
ENDBRANCH   1   3
BRANCH   1  27
HETATM   27  O4  UNL     1       1.177   5.380  10.381  1.00  0.00    -0.314 OA
BRANCH  27  28
HETATM   28  C16 UNL     1       1.150   5.362  11.805  1.00  0.00     0.260 C 
BRANCH  28  29
HETATM   29  C17 UNL     1      -0.041   5.873  12.641  1.00  0.00     0.185 C 
HETATM   30  O5  UNL     1       0.181   6.509  13.678  1.00  0.00    -0.292 OA
BRANCH  29  31
HETATM   31  C18 UNL     1      -1.462   5.396  12.241  1.00  0.00     0.128 C 
HETATM   32  C19 UNL     1      -1.420   3.860  12.021  1.00  0.00     0.047 C 
HETATM   33  C20 UNL     1      -2.810   3.319  12.405  1.00  0.00     0.009 C 
HETATM   34  C21 UNL     1      -3.649   4.566  12.701  1.00  0.00     0.002 C 
HETATM   35  C22 UNL     1      -4.912   4.368  13.565  1.00  0.00    -0.004 C 
HETATM   36  C35 UNL     1      -2.623   5.569  13.289  1.00  0.00    -0.002 C 
HETATM   37  C23 UNL     1      -5.971   3.555  12.786  1.00  0.00     0.010 C 
HETATM   38  C32 UNL     1      -5.442   5.748  14.119  1.00  0.00     0.002 C 
HETATM   39  C24 UNL     1      -6.961   4.443  12.046  1.00  0.00     0.035 C 
HETATM   40  C25 UNL     1      -7.702   5.373  12.973  1.00  0.00    -0.068 C 
HETATM   41  C26 UNL     1      -8.928   5.811  12.631  1.00  0.00     0.053 C 
HETATM   42  C30 UNL     1      -7.008   5.791  14.268  1.00  0.00    -0.016 C 
HETATM   43  C27 UNL     1      -9.696   6.748  13.492  1.00  0.00     0.149 C 
HETATM   44  O7  UNL     1     -10.853   7.031  13.186  1.00  0.00    -0.293 OA
HETATM   45  C28 UNL     1      -9.041   7.293  14.739  1.00  0.00     0.084 C 
HETATM   46  C29 UNL     1      -7.517   7.214  14.640  1.00  0.00     0.022 C 
HETATM   47  C31 UNL     1      -7.417   4.828  15.420  1.00  0.00     0.020 C 
HETATM   48  C33 UNL     1      -4.823   6.934  13.333  1.00  0.00     0.007 C 
HETATM   49  C34 UNL     1      -3.283   6.964  13.360  1.00  0.00     0.013 C 
HETATM   50  C36 UNL     1      -2.189   5.156  14.725  1.00  0.00     0.019 C 
BRANCH  31  51
HETATM   51  O6  UNL     1      -1.862   5.955  10.981  1.00  0.00    -0.381 OA
HETATM   52  H29 UNL     1      -1.897   6.919  11.096  1.00  0.00     0.211 HD
ENDBRANCH  31  51
ENDBRANCH  29  31
ENDBRANCH  28  29
ENDBRANCH  27  28
ENDBRANCH   1  27
TORSDOF 19
ENDMDL
MODEL 9
REMARK minimizedAffinity -7.6125555
REMARK CNNscore 0.243097246
REMARK CNNaffinity 6.96612549
REMARK  19 active torsions:
REMARK  status: ('A' for Active; 'I' for Inactive)
REMARK    1  A    between atoms: C2_2  and  C3_3 
REMARK    2  A    between atoms: C3_3  and  C5_5 
REMARK    3  A    between atoms: C5_5  and  N1_6 
REMARK    4  A    between atoms: C5_5  and  C37_46 
REMARK       I    between atoms: N1_6  and  C6_7 
REMARK    5  A    between atoms: C6_7  and  C7_9 
REMARK    6  A    between atoms: C7_9  and  C8_10 
REMARK    7  A    between atoms: C8_10  and  C9_11 
REMARK    8  A    between atoms: C9_11  and  C10_12 
REMARK    9  A    between atoms: C10_12  and  C11_13 
REMARK   10  A    between atoms: C11_13  and  N2_14 
REMARK       I    between atoms: N2_14  and  C12_15 
REMARK   11  A    between atoms: C12_15  and  C13_17 
REMARK   12  A    between atoms: C13_17  and  C14_18 
REMARK   13  A    between atoms: C14_18  and  C15_19 
REMARK   14  A    between atoms: C15_19  and  O4_21 
REMARK   15  A    between atoms: O4_21  and  C16_22 
REMARK   16  A    between atoms: C16_22  and  C17_23 
REMARK   17  A    between atoms: C17_23  and  C18_25 
REMARK   18  A    between atoms: C18_25  and  O6_26 
REMARK   19  A    between atoms: C37_46  and  O9_48 
ROOT
HETATM    1  C15 UNL     1      -9.733   9.695  15.780  1.00  0.00     0.259 C 
HETATM    2  O3  UNL     1     -10.203   9.319  16.847  1.00  0.00    -0.265 OA
ENDROOT
BRANCH   1   3
HETATM    3  C14 UNL     1      -9.870  11.116  15.284  1.00  0.00     0.120 C 
BRANCH   3   4
HETATM    4  C13 UNL     1     -11.295  11.574  15.001  1.00  0.00     0.112 C 
BRANCH   4   5
HETATM    5  C12 UNL     1     -12.116  10.493  14.326  1.00  0.00     0.217 C 
HETATM    6  N2  UNL     1     -11.498   9.969  13.213  1.00  0.00    -0.361 N 
HETATM    7  H22 UNL     1     -10.542  10.238  12.999  1.00  0.00     0.162 HD
HETATM    8  O2  UNL     1     -13.225  10.146  14.717  1.00  0.00    -0.274 OA
BRANCH   6   9
HETATM    9  C11 UNL     1     -12.110   8.901  12.453  1.00  0.00     0.122 C 
BRANCH   9  10
HETATM   10  C10 UNL     1     -11.444   7.544  12.671  1.00  0.00     0.020 C 
BRANCH  10  11
HETATM   11  C9  UNL     1     -11.938   6.771  13.902  1.00  0.00     0.002 C 
BRANCH  11  12
HETATM   12  C8  UNL     1     -13.413   6.360  13.842  1.00  0.00     0.009 C 
BRANCH  12  13
HETATM   13  C7  UNL     1     -14.173   6.743  15.115  1.00  0.00     0.103 C 
BRANCH  13  14
HETATM   14  C6  UNL     1     -15.436   7.539  14.830  1.00  0.00     0.218 C 
HETATM   15  N1  UNL     1     -15.471   8.059  13.553  1.00  0.00    -0.346 N 
HETATM   16  H11 UNL     1     -14.908   7.585  12.853  1.00  0.00     0.163 HD
HETATM   17  O1  UNL     1     -16.340   7.691  15.644  1.00  0.00    -0.274 OA
BRANCH  15  18
HETATM   18  C5  UNL     1     -16.671   8.748  13.068  1.00  0.00     0.186 C 
BRANCH  18  19
HETATM   19  C3  UNL     1     -16.577  10.275  13.312  1.00  0.00     0.014 C 
HETATM   20  C4  UNL     1     -16.310  11.023  11.997  1.00  0.00     0.012 C 
BRANCH  19  21
HETATM   21  C2  UNL     1     -17.864  10.805  13.989  1.00  0.00     0.002 C 
HETATM   22  C1  UNL     1     -19.021  11.034  13.026  1.00  0.00     0.005 C 
ENDBRANCH  19  21
ENDBRANCH  18  19
BRANCH  18  23
HETATM   23  C37 UNL     1     -16.765   8.429  11.572  1.00  0.00     0.163 C 
HETATM   24  O8  UNL     1     -17.712   8.689  10.844  1.00  0.00    -0.648 OA
BRANCH  23  25
HETATM   25  O9  UNL     1     -15.680   7.785  11.094  1.00  0.00    -0.775 OA
HETATM   26  H56 UNL     1     -15.859   7.689  10.137  1.00  0.00     0.167 HD
ENDBRANCH  23  25
ENDBRANCH  18  23
ENDBRANCH  15  18
ENDBRANCH  13  14
ENDBRANCH  12  13
ENDBRANCH  11  12
ENDBRANCH  10  11
ENDBRANCH   9  10
ENDBRANCH   6   9
ENDBRANCH   4   5
ENDBRANCH   3   4
ENDBRANCH   1   3
BRANCH   1  27
HETATM   27  O4  UNL     1      -9.176   8.870  14.860  1.00  0.00    -0.314 OA
BRANCH  27  28
HETATM   28  C16 UNL     1      -7.860   8.404  15.145  1.00  0.00     0.260 C 
BRANCH  28  29
HETATM   29  C17 UNL     1      -7.567   7.102  15.917  1.00  0.00     0.185 C 
HETATM   30  O5  UNL     1      -7.410   7.150  17.142  1.00  0.00    -0.292 OA
BRANCH  29  31
HETATM   31  C18 UNL     1      -7.288   5.819  15.089  1.00  0.00     0.128 C 
HETATM   32  C19 UNL     1      -8.507   5.557  14.164  1.00  0.00     0.047 C 
HETATM   33  C20 UNL     1      -7.962   4.871  12.897  1.00  0.00     0.009 C 
HETATM   34  C21 UNL     1      -6.476   4.633  13.187  1.00  0.00     0.002 C 
HETATM   35  C22 UNL     1      -5.555   4.416  11.968  1.00  0.00    -0.004 C 
HETATM   36  C35 UNL     1      -6.079   5.836  14.081  1.00  0.00    -0.002 C 
HETATM   37  C23 UNL     1      -5.877   3.067  11.288  1.00  0.00     0.010 C 
HETATM   38  C32 UNL     1      -4.037   4.587  12.368  1.00  0.00     0.002 C 
HETATM   39  C24 UNL     1      -5.000   1.931  11.797  1.00  0.00     0.035 C 
HETATM   40  C25 UNL     1      -3.533   2.200  11.585  1.00  0.00    -0.068 C 
HETATM   41  C26 UNL     1      -2.680   1.166  11.457  1.00  0.00     0.053 C 
HETATM   42  C30 UNL     1      -3.074   3.657  11.540  1.00  0.00    -0.016 C 
HETATM   43  C27 UNL     1      -1.220   1.369  11.271  1.00  0.00     0.149 C 
HETATM   44  O7  UNL     1      -0.503   0.395  11.052  1.00  0.00    -0.293 OA
HETATM   45  C28 UNL     1      -0.669   2.776  11.321  1.00  0.00     0.084 C 
HETATM   46  C29 UNL     1      -1.613   3.711  12.075  1.00  0.00     0.022 C 
HETATM   47  C31 UNL     1      -3.055   4.159  10.067  1.00  0.00     0.020 C 
HETATM   48  C33 UNL     1      -3.859   4.515  13.908  1.00  0.00     0.007 C 
HETATM   49  C34 UNL     1      -4.681   5.564  14.681  1.00  0.00     0.013 C 
HETATM   50  C36 UNL     1      -6.014   7.155  13.259  1.00  0.00     0.019 C 
BRANCH  31  51
HETATM   51  O6  UNL     1      -7.193   4.665  15.937  1.00  0.00    -0.381 OA
HETATM   52  H29 UNL     1      -6.433   4.806  16.526  1.00  0.00     0.211 HD
ENDBRANCH  31  51
ENDBRANCH  29  31
ENDBRANCH  28  29
ENDBRANCH  27  28
ENDBRANCH   1  27
TORSDOF 19
ENDMDL
