MODEL 1
REMARK minimizedAffinity -8.63669395
REMARK  12 active torsions:
REMARK  status: ('A' for Active; 'I' for Inactive)
REMARK    1  A    between atoms: C2_2  and  C3_3 
REMARK    2  A    between atoms: C3_3  and  O2_5 
REMARK    3  A    between atoms: C14_16  and  C15_17 
REMARK    4  A    between atoms: C15_17  and  C17_19 
REMARK    5  A    between atoms: C17_19  and  C18_20 
REMARK    6  A    between atoms: C18_20  and  C19_21 
REMARK    7  A    between atoms: C20_22  and  C22_24 
REMARK    8  A    between atoms: C22_24  and  O4_26 
REMARK    9  A    between atoms: C27_31  and  C28_32 
REMARK   10  A    between atoms: C28_32  and  C29_33 
REMARK   11  A    between atoms: C29_33  and  C30_34 
REMARK   12  A    between atoms: C30_34  and  O5_35 
ROOT
HETATM    1  C1  UNL     1       2.964   5.128   7.176  1.00  0.00     0.056 C 
HETATM    2  C2  UNL     1       3.385   5.258   8.611  1.00  0.00     0.014 C 
HETATM    3  C4  UNL     1       3.422   6.419   9.313  1.00  0.00    -0.062 C 
HETATM    4  C5  UNL     1       3.062   7.741   8.688  1.00  0.00     0.036 C 
HETATM    5  C6  UNL     1       1.871   8.395   9.383  1.00  0.00     0.010 C 
HETATM    6  C7  UNL     1       1.817   8.237  10.925  1.00  0.00     0.003 C 
HETATM    7  C8  UNL     1       3.192   7.768  11.563  1.00  0.00    -0.032 C 
HETATM    8  C9  UNL     1       4.148   8.998  11.539  1.00  0.00     0.016 C 
HETATM    9  C10 UNL     1       3.047   7.394  13.087  1.00  0.00     0.011 C 
HETATM   10  C11 UNL     1       1.736   6.720  13.531  1.00  0.00     0.011 C 
HETATM   11  C12 UNL     1       0.506   7.480  13.012  1.00  0.00    -0.032 C 
HETATM   12  C13 UNL     1       0.519   8.920  13.621  1.00  0.00     0.016 C 
HETATM   13  C14 UNL     1      -0.901   6.855  13.276  1.00  0.00    -0.002 C 
HETATM   14  C23 UNL     1      -1.763   7.499  12.142  1.00  0.00     0.006 C 
HETATM   15  C24 UNL     1      -0.795   8.066  11.083  1.00  0.00     0.011 C 
HETATM   16  C25 UNL     1       0.568   7.441  11.434  1.00  0.00    -0.032 C 
HETATM   17  C26 UNL     1       0.528   6.002  10.825  1.00  0.00     0.016 C 
HETATM   18  C27 UNL     1       3.820   6.521  10.791  1.00  0.00     0.024 C 
ENDROOT
BRANCH  13  19
HETATM   19  C15 UNL     1      -1.586   7.001  14.672  1.00  0.00    -0.014 C 
HETATM   20  C16 UNL     1      -0.572   7.249  15.793  1.00  0.00     0.010 C 
BRANCH  19  21
HETATM   21  C17 UNL     1      -2.422   5.726  14.984  1.00  0.00     0.008 C 
BRANCH  21  22
HETATM   22  C18 UNL     1      -3.697   5.528  14.149  1.00  0.00     0.028 C 
BRANCH  22  23
HETATM   23  C19 UNL     1      -3.560   4.442  13.119  1.00  0.00    -0.013 C 
HETATM   24  C20 UNL     1      -4.542   3.739  12.518  1.00  0.00     0.008 C 
HETATM   25  C21 UNL     1      -6.015   3.891  12.748  1.00  0.00     0.055 C 
BRANCH  24  26
HETATM   26  C22 UNL     1      -4.107   2.720  11.526  1.00  0.00     0.171 C 
HETATM   27  O3  UNL     1      -3.798   1.564  11.753  1.00  0.00    -0.646 OA
BRANCH  26  28
HETATM   28  O4  UNL     1      -4.077   3.205  10.273  1.00  0.00    -0.773 OA
HETATM   29  H33 UNL     1      -3.779   2.438   9.741  1.00  0.00     0.167 HD
ENDBRANCH  26  28
ENDBRANCH  24  26
ENDBRANCH  22  23
ENDBRANCH  21  22
ENDBRANCH  19  21
ENDBRANCH  13  19
BRANCH  18  30
HETATM   30  C28 UNL     1       5.346   6.293  11.021  1.00  0.00     0.012 C 
BRANCH  30  31
HETATM   31  C29 UNL     1       6.198   7.540  11.304  1.00  0.00     0.027 C 
BRANCH  31  32
HETATM   32  C30 UNL     1       7.116   7.339  12.506  1.00  0.00     0.164 C 
BRANCH  32  33
HETATM   33  O5  UNL     1       6.402   6.727  13.571  1.00  0.00    -0.401 OA
HETATM   34  H48 UNL     1       7.026   6.623  14.309  1.00  0.00     0.209 HD
ENDBRANCH  32  33
ENDBRANCH  31  32
ENDBRANCH  30  31
ENDBRANCH  18  30
BRANCH   2  35
HETATM   35  C3  UNL     1       3.763   3.971   9.240  1.00  0.00     0.171 C 
HETATM   36  O1  UNL     1       4.793   3.344   9.080  1.00  0.00    -0.646 OA
BRANCH  35  37
HETATM   37  O2  UNL     1       2.789   3.547  10.063  1.00  0.00    -0.773 OA
HETATM   38  H4  UNL     1       3.113   2.676  10.375  1.00  0.00     0.167 HD
ENDBRANCH  35  37
ENDBRANCH   2  35
TORSDOF 12
ENDMDL
MODEL 2
REMARK minimizedAffinity -8.13024616
REMARK  12 active torsions:
REMARK  status: ('A' for Active; 'I' for Inactive)
REMARK    1  A    between atoms: C2_2  and  C3_3 
REMARK    2  A    between atoms: C3_3  and  O2_5 
REMARK    3  A    between atoms: C14_16  and  C15_17 
REMARK    4  A    between atoms: C15_17  and  C17_19 
REMARK    5  A    between atoms: C17_19  and  C18_20 
REMARK    6  A    between atoms: C18_20  and  C19_21 
REMARK    7  A    between atoms: C20_22  and  C22_24 
REMARK    8  A    between atoms: C22_24  and  O4_26 
REMARK    9  A    between atoms: C27_31  and  C28_32 
REMARK   10  A    between atoms: C28_32  and  C29_33 
REMARK   11  A    between atoms: C29_33  and  C30_34 
REMARK   12  A    between atoms: C30_34  and  O5_35 
ROOT
HETATM    1  C1  UNL     1       2.922   5.174   7.227  1.00  0.00     0.056 C 
HETATM    2  C2  UNL     1       3.373   5.332   8.649  1.00  0.00     0.014 C 
HETATM    3  C4  UNL     1       3.431   6.507   9.326  1.00  0.00    -0.062 C 
HETATM    4  C5  UNL     1       3.064   7.817   8.681  1.00  0.00     0.036 C 
HETATM    5  C6  UNL     1       1.892   8.492   9.387  1.00  0.00     0.010 C 
HETATM    6  C7  UNL     1       1.869   8.367  10.932  1.00  0.00     0.003 C 
HETATM    7  C8  UNL     1       3.254   7.904  11.551  1.00  0.00    -0.032 C 
HETATM    8  C9  UNL     1       4.215   9.128  11.482  1.00  0.00     0.016 C 
HETATM    9  C10 UNL     1       3.139   7.563  13.086  1.00  0.00     0.011 C 
HETATM   10  C11 UNL     1       1.834   6.906  13.571  1.00  0.00     0.011 C 
HETATM   11  C12 UNL     1       0.597   7.662  13.061  1.00  0.00    -0.032 C 
HETATM   12  C13 UNL     1       0.630   9.114  13.639  1.00  0.00     0.016 C 
HETATM   13  C14 UNL     1      -0.807   7.050  13.368  1.00  0.00    -0.002 C 
HETATM   14  C23 UNL     1      -1.689   7.675  12.238  1.00  0.00     0.006 C 
HETATM   15  C24 UNL     1      -0.740   8.214  11.148  1.00  0.00     0.011 C 
HETATM   16  C25 UNL     1       0.627   7.589  11.483  1.00  0.00    -0.032 C 
HETATM   17  C26 UNL     1       0.567   6.138  10.906  1.00  0.00     0.016 C 
HETATM   18  C27 UNL     1       3.859   6.638  10.794  1.00  0.00     0.024 C 
ENDROOT
BRANCH  13  19
HETATM   19  C15 UNL     1      -1.462   7.229  14.774  1.00  0.00    -0.014 C 
HETATM   20  C16 UNL     1      -0.437   7.133  15.908  1.00  0.00     0.010 C 
BRANCH  19  21
HETATM   21  C17 UNL     1      -2.578   6.163  14.975  1.00  0.00     0.008 C 
BRANCH  21  22
HETATM   22  C18 UNL     1      -3.031   5.409  13.714  1.00  0.00     0.028 C 
BRANCH  22  23
HETATM   23  C19 UNL     1      -4.520   5.212  13.652  1.00  0.00    -0.013 C 
HETATM   24  C20 UNL     1      -5.477   6.149  13.497  1.00  0.00     0.008 C 
HETATM   25  C21 UNL     1      -5.261   7.625  13.349  1.00  0.00     0.055 C 
BRANCH  24  26
HETATM   26  C22 UNL     1      -6.880   5.657  13.467  1.00  0.00     0.171 C 
HETATM   27  O3  UNL     1      -7.734   5.933  12.643  1.00  0.00    -0.646 OA
BRANCH  26  28
HETATM   28  O4  UNL     1      -7.154   4.829  14.489  1.00  0.00    -0.773 OA
HETATM   29  H33 UNL     1      -8.093   4.591  14.341  1.00  0.00     0.167 HD
ENDBRANCH  26  28
ENDBRANCH  24  26
ENDBRANCH  22  23
ENDBRANCH  21  22
ENDBRANCH  19  21
ENDBRANCH  13  19
BRANCH  18  30
HETATM   30  C28 UNL     1       5.389   6.406  10.996  1.00  0.00     0.012 C 
BRANCH  30  31
HETATM   31  C29 UNL     1       6.152   7.477  11.790  1.00  0.00     0.027 C 
BRANCH  31  32
HETATM   32  C30 UNL     1       7.072   6.858  12.839  1.00  0.00     0.164 C 
BRANCH  32  33
HETATM   33  O5  UNL     1       6.333   6.530  14.006  1.00  0.00    -0.401 OA
HETATM   34  H48 UNL     1       6.960   6.143  14.640  1.00  0.00     0.209 HD
ENDBRANCH  32  33
ENDBRANCH  31  32
ENDBRANCH  30  31
ENDBRANCH  18  30
BRANCH   2  35
HETATM   35  C3  UNL     1       3.758   4.056   9.298  1.00  0.00     0.171 C 
HETATM   36  O1  UNL     1       4.810   3.458   9.186  1.00  0.00    -0.646 OA
BRANCH  35  37
HETATM   37  O2  UNL     1       2.760   3.606  10.078  1.00  0.00    -0.773 OA
HETATM   38  H4  UNL     1       3.093   2.745  10.407  1.00  0.00     0.167 HD
ENDBRANCH  35  37
ENDBRANCH   2  35
TORSDOF 12
ENDMDL
MODEL 3
REMARK minimizedAffinity -8.02463722
REMARK  12 active torsions:
REMARK  status: ('A' for Active; 'I' for Inactive)
REMARK    1  A    between atoms: C2_2  and  C3_3 
REMARK    2  A    between atoms: C3_3  and  O2_5 
REMARK    3  A    between atoms: C14_16  and  C15_17 
REMARK    4  A    between atoms: C15_17  and  C17_19 
REMARK    5  A    between atoms: C17_19  and  C18_20 
REMARK    6  A    between atoms: C18_20  and  C19_21 
REMARK    7  A    between atoms: C20_22  and  C22_24 
REMARK    8  A    between atoms: C22_24  and  O4_26 
REMARK    9  A    between atoms: C27_31  and  C28_32 
REMARK   10  A    between atoms: C28_32  and  C29_33 
REMARK   11  A    between atoms: C29_33  and  C30_34 
REMARK   12  A    between atoms: C30_34  and  O5_35 
ROOT
HETATM    1  C1  UNL     1      -7.415   3.578  14.690  1.00  0.00     0.056 C 
HETATM    2  C2  UNL     1      -7.143   4.954  14.156  1.00  0.00     0.014 C 
HETATM    3  C4  UNL     1      -6.412   5.908  14.788  1.00  0.00    -0.062 C 
HETATM    4  C5  UNL     1      -5.809   5.680  16.148  1.00  0.00     0.036 C 
HETATM    5  C6  UNL     1      -4.288   5.792  16.124  1.00  0.00     0.010 C 
HETATM    6  C7  UNL     1      -3.705   6.896  15.204  1.00  0.00     0.003 C 
HETATM    7  C8  UNL     1      -4.778   7.972  14.748  1.00  0.00    -0.032 C 
HETATM    8  C9  UNL     1      -5.056   8.888  15.978  1.00  0.00     0.016 C 
HETATM    9  C10 UNL     1      -4.218   8.940  13.637  1.00  0.00     0.011 C 
HETATM   10  C11 UNL     1      -3.251   8.344  12.597  1.00  0.00     0.011 C 
HETATM   11  C12 UNL     1      -2.129   7.537  13.267  1.00  0.00    -0.032 C 
HETATM   12  C13 UNL     1      -1.299   8.500  14.176  1.00  0.00     0.016 C 
HETATM   13  C14 UNL     1      -1.134   6.768  12.340  1.00  0.00    -0.002 C 
HETATM   14  C23 UNL     1      -0.603   5.647  13.292  1.00  0.00     0.006 C 
HETATM   15  C24 UNL     1      -1.574   5.547  14.486  1.00  0.00     0.011 C 
HETATM   16  C25 UNL     1      -2.815   6.343  14.041  1.00  0.00    -0.032 C 
HETATM   17  C26 UNL     1      -3.623   5.365  13.127  1.00  0.00     0.016 C 
HETATM   18  C27 UNL     1      -6.116   7.296  14.205  1.00  0.00     0.024 C 
ENDROOT
BRANCH  13  19
HETATM   19  C15 UNL     1       0.036   7.521  11.631  1.00  0.00    -0.014 C 
HETATM   20  C16 UNL     1       0.851   8.376  12.606  1.00  0.00     0.010 C 
BRANCH  19  21
HETATM   21  C17 UNL     1      -0.530   8.413  10.487  1.00  0.00     0.008 C 
BRANCH  21  22
HETATM   22  C18 UNL     1       0.236   8.375   9.155  1.00  0.00     0.028 C 
BRANCH  22  23
HETATM   23  C19 UNL     1       1.352   7.368   9.149  1.00  0.00    -0.013 C 
HETATM   24  C20 UNL     1       2.004   6.857   8.085  1.00  0.00     0.008 C 
HETATM   25  C21 UNL     1       1.754   7.188   6.645  1.00  0.00     0.055 C 
BRANCH  24  26
HETATM   26  C22 UNL     1       3.079   5.873   8.383  1.00  0.00     0.171 C 
HETATM   27  O3  UNL     1       3.295   4.827   7.799  1.00  0.00    -0.646 OA
BRANCH  26  28
HETATM   28  O4  UNL     1       3.845   6.251   9.421  1.00  0.00    -0.773 OA
HETATM   29  H33 UNL     1       4.495   5.522   9.499  1.00  0.00     0.167 HD
ENDBRANCH  26  28
ENDBRANCH  24  26
ENDBRANCH  22  23
ENDBRANCH  21  22
ENDBRANCH  19  21
ENDBRANCH  13  19
BRANCH  18  30
HETATM   30  C28 UNL     1      -7.372   8.221  14.185  1.00  0.00     0.012 C 
BRANCH  30  31
HETATM   31  C29 UNL     1      -8.339   8.099  15.373  1.00  0.00     0.027 C 
BRANCH  31  32
HETATM   32  C30 UNL     1      -9.773   7.845  14.914  1.00  0.00     0.164 C 
BRANCH  32  33
HETATM   33  O5  UNL     1     -10.183   6.538  15.288  1.00  0.00    -0.401 OA
HETATM   34  H48 UNL     1     -11.095   6.425  14.974  1.00  0.00     0.209 HD
ENDBRANCH  32  33
ENDBRANCH  31  32
ENDBRANCH  30  31
ENDBRANCH  18  30
BRANCH   2  35
HETATM   35  C3  UNL     1      -7.744   5.207  12.826  1.00  0.00     0.171 C 
HETATM   36  O1  UNL     1      -8.810   5.740  12.586  1.00  0.00    -0.646 OA
BRANCH  35  37
HETATM   37  O2  UNL     1      -6.932   4.763  11.851  1.00  0.00    -0.773 OA
HETATM   38  H4  UNL     1      -7.444   4.927  11.031  1.00  0.00     0.167 HD
ENDBRANCH  35  37
ENDBRANCH   2  35
TORSDOF 12
ENDMDL
MODEL 4
REMARK minimizedAffinity -7.8427701
REMARK  12 active torsions:
REMARK  status: ('A' for Active; 'I' for Inactive)
REMARK    1  A    between atoms: C2_2  and  C3_3 
REMARK    2  A    between atoms: C3_3  and  O2_5 
REMARK    3  A    between atoms: C14_16  and  C15_17 
REMARK    4  A    between atoms: C15_17  and  C17_19 
REMARK    5  A    between atoms: C17_19  and  C18_20 
REMARK    6  A    between atoms: C18_20  and  C19_21 
REMARK    7  A    between atoms: C20_22  and  C22_24 
REMARK    8  A    between atoms: C22_24  and  O4_26 
REMARK    9  A    between atoms: C27_31  and  C28_32 
REMARK   10  A    between atoms: C28_32  and  C29_33 
REMARK   11  A    between atoms: C29_33  and  C30_34 
REMARK   12  A    between atoms: C30_34  and  O5_35 
ROOT
HETATM    1  C1  UNL     1       2.524   9.446  12.195  1.00  0.00     0.056 C 
HETATM    2  C2  UNL     1       1.595   8.364  11.727  1.00  0.00     0.014 C 
HETATM    3  C4  UNL     1       1.137   7.341  12.492  1.00  0.00    -0.062 C 
HETATM    4  C5  UNL     1       1.558   7.168  13.927  1.00  0.00     0.036 C 
HETATM    5  C6  UNL     1       0.370   7.237  14.882  1.00  0.00     0.010 C 
HETATM    6  C7  UNL     1      -0.939   6.574  14.384  1.00  0.00     0.003 C 
HETATM    7  C8  UNL     1      -0.726   5.600  13.149  1.00  0.00    -0.032 C 
HETATM    8  C9  UNL     1      -0.063   4.303  13.701  1.00  0.00     0.016 C 
HETATM    9  C10 UNL     1      -2.092   5.125  12.521  1.00  0.00     0.011 C 
HETATM   10  C11 UNL     1      -3.253   6.135  12.499  1.00  0.00     0.011 C 
HETATM   11  C12 UNL     1      -3.457   6.791  13.873  1.00  0.00    -0.032 C 
HETATM   12  C13 UNL     1      -3.828   5.677  14.905  1.00  0.00     0.016 C 
HETATM   13  C14 UNL     1      -4.521   7.929  13.984  1.00  0.00    -0.002 C 
HETATM   14  C23 UNL     1      -4.022   8.720  15.237  1.00  0.00     0.006 C 
HETATM   15  C24 UNL     1      -2.558   8.310  15.498  1.00  0.00     0.011 C 
HETATM   16  C25 UNL     1      -2.129   7.577  14.213  1.00  0.00    -0.032 C 
HETATM   17  C26 UNL     1      -1.774   8.708  13.195  1.00  0.00     0.016 C 
HETATM   18  C27 UNL     1       0.156   6.268  12.001  1.00  0.00     0.024 C 
ENDROOT
BRANCH  13  19
HETATM   19  C15 UNL     1      -6.042   7.588  14.088  1.00  0.00    -0.014 C 
HETATM   20  C16 UNL     1      -6.762   8.459  15.123  1.00  0.00     0.010 C 
BRANCH  19  21
HETATM   21  C17 UNL     1      -6.221   6.083  14.443  1.00  0.00     0.008 C 
BRANCH  21  22
HETATM   22  C18 UNL     1      -7.129   5.269  13.508  1.00  0.00     0.028 C 
BRANCH  22  23
HETATM   23  C19 UNL     1      -6.359   4.450  12.510  1.00  0.00    -0.013 C 
HETATM   24  C20 UNL     1      -6.535   3.153  12.186  1.00  0.00     0.008 C 
HETATM   25  C21 UNL     1      -7.560   2.223  12.762  1.00  0.00     0.055 C 
BRANCH  24  26
HETATM   26  C22 UNL     1      -5.621   2.604  11.150  1.00  0.00     0.171 C 
HETATM   27  O3  UNL     1      -5.062   3.225  10.264  1.00  0.00    -0.646 OA
BRANCH  26  28
HETATM   28  O4  UNL     1      -5.447   1.277  11.272  1.00  0.00    -0.773 OA
HETATM   29  H33 UNL     1      -4.834   1.061  10.539  1.00  0.00     0.167 HD
ENDBRANCH  26  28
ENDBRANCH  24  26
ENDBRANCH  22  23
ENDBRANCH  21  22
ENDBRANCH  19  21
ENDBRANCH  13  19
BRANCH  18  30
HETATM   30  C28 UNL     1       0.810   5.271  10.995  1.00  0.00     0.012 C 
BRANCH  30  31
HETATM   31  C29 UNL     1       2.343   5.163  11.026  1.00  0.00     0.027 C 
BRANCH  31  32
HETATM   32  C30 UNL     1       2.909   4.745   9.671  1.00  0.00     0.164 C 
BRANCH  32  33
HETATM   33  O5  UNL     1       3.303   3.381   9.705  1.00  0.00    -0.401 OA
HETATM   34  H48 UNL     1       3.656   3.165   8.826  1.00  0.00     0.209 HD
ENDBRANCH  32  33
ENDBRANCH  31  32
ENDBRANCH  30  31
ENDBRANCH  18  30
BRANCH   2  35
HETATM   35  C3  UNL     1       1.183   8.504  10.310  1.00  0.00     0.171 C 
HETATM   36  O1  UNL     1       0.096   8.848   9.887  1.00  0.00    -0.646 OA
BRANCH  35  37
HETATM   37  O2  UNL     1       2.204   8.199   9.492  1.00  0.00    -0.773 OA
HETATM   38  H4  UNL     1       1.812   8.269   8.596  1.00  0.00     0.167 HD
ENDBRANCH  35  37
ENDBRANCH   2  35
TORSDOF 12
ENDMDL
MODEL 5
REMARK minimizedAffinity -7.54294777
REMARK  12 active torsions:
REMARK  status: ('A' for Active; 'I' for Inactive)
REMARK    1  A    between atoms: C2_2  and  C3_3 
REMARK    2  A    between atoms: C3_3  and  O2_5 
REMARK    3  A    between atoms: C14_16  and  C15_17 
REMARK    4  A    between atoms: C15_17  and  C17_19 
REMARK    5  A    between atoms: C17_19  and  C18_20 
REMARK    6  A    between atoms: C18_20  and  C19_21 
REMARK    7  A    between atoms: C20_22  and  C22_24 
REMARK    8  A    between atoms: C22_24  and  O4_26 
REMARK    9  A    between atoms: C27_31  and  C28_32 
REMARK   10  A    between atoms: C28_32  and  C29_33 
REMARK   11  A    between atoms: C29_33  and  C30_34 
REMARK   12  A    between atoms: C30_34  and  O5_35 
ROOT
HETATM    1  C1  UNL     1       1.860   9.146  12.150  1.00  0.00     0.056 C 
HETATM    2  C2  UNL     1       0.952   7.969  11.942  1.00  0.00     0.014 C 
HETATM    3  C4  UNL     1       0.456   7.180  12.929  1.00  0.00    -0.062 C 
HETATM    4  C5  UNL     1       0.809   7.397  14.376  1.00  0.00     0.036 C 
HETATM    5  C6  UNL     1      -0.422   7.704  15.224  1.00  0.00     0.010 C 
HETATM    6  C7  UNL     1      -1.708   6.919  14.859  1.00  0.00     0.003 C 
HETATM    7  C8  UNL     1      -1.439   5.655  13.937  1.00  0.00    -0.032 C 
HETATM    8  C9  UNL     1      -0.805   4.558  14.843  1.00  0.00     0.016 C 
HETATM    9  C10 UNL     1      -2.774   5.016  13.395  1.00  0.00     0.011 C 
HETATM   10  C11 UNL     1      -3.931   5.972  13.053  1.00  0.00     0.011 C 
HETATM   11  C12 UNL     1      -4.198   6.966  14.194  1.00  0.00    -0.032 C 
HETATM   12  C13 UNL     1      -4.620   6.161  15.466  1.00  0.00     0.016 C 
HETATM   13  C14 UNL     1      -5.265   8.082  13.951  1.00  0.00    -0.002 C 
HETATM   14  C23 UNL     1      -4.823   9.182  14.971  1.00  0.00     0.006 C 
HETATM   15  C24 UNL     1      -3.374   8.870  15.398  1.00  0.00     0.011 C 
HETATM   16  C25 UNL     1      -2.887   7.828  14.375  1.00  0.00    -0.032 C 
HETATM   17  C26 UNL     1      -2.481   8.654  13.111  1.00  0.00     0.016 C 
HETATM   18  C27 UNL     1      -0.502   6.005  12.695  1.00  0.00     0.024 C 
ENDROOT
BRANCH  13  19
HETATM   19  C15 UNL     1      -6.789   7.764  14.072  1.00  0.00    -0.014 C 
HETATM   20  C16 UNL     1      -7.451   8.530  15.222  1.00  0.00     0.010 C 
BRANCH  19  21
HETATM   21  C17 UNL     1      -6.994   6.234  14.264  1.00  0.00     0.008 C 
BRANCH  21  22
HETATM   22  C18 UNL     1      -7.657   5.486  13.096  1.00  0.00     0.028 C 
BRANCH  22  23
HETATM   23  C19 UNL     1      -6.683   4.667  12.296  1.00  0.00    -0.013 C 
HETATM   24  C20 UNL     1      -6.633   3.325  12.168  1.00  0.00     0.008 C 
HETATM   25  C21 UNL     1      -7.559   2.336  12.808  1.00  0.00     0.055 C 
BRANCH  24  26
HETATM   26  C22 UNL     1      -5.553   2.787  11.300  1.00  0.00     0.171 C 
HETATM   27  O3  UNL     1      -4.603   3.402  10.849  1.00  0.00    -0.646 OA
BRANCH  26  28
HETATM   28  O4  UNL     1      -5.716   1.481  11.029  1.00  0.00    -0.773 OA
HETATM   29  H33 UNL     1      -4.947   1.270  10.460  1.00  0.00     0.167 HD
ENDBRANCH  26  28
ENDBRANCH  24  26
ENDBRANCH  22  23
ENDBRANCH  21  22
ENDBRANCH  19  21
ENDBRANCH  13  19
BRANCH  18  30
HETATM   30  C28 UNL     1       0.197   4.784  12.021  1.00  0.00     0.012 C 
BRANCH  30  31
HETATM   31  C29 UNL     1      -0.640   3.975  11.018  1.00  0.00     0.027 C 
BRANCH  31  32
HETATM   32  C30 UNL     1      -0.744   2.507  11.420  1.00  0.00     0.164 C 
BRANCH  32  33
HETATM   33  O5  UNL     1      -1.407   1.767  10.405  1.00  0.00    -0.401 OA
HETATM   34  H48 UNL     1      -1.451   0.844  10.708  1.00  0.00     0.209 HD
ENDBRANCH  32  33
ENDBRANCH  31  32
ENDBRANCH  30  31
ENDBRANCH  18  30
BRANCH   2  35
HETATM   35  C3  UNL     1       0.607   7.725  10.522  1.00  0.00     0.171 C 
HETATM   36  O1  UNL     1      -0.082   6.831  10.071  1.00  0.00    -0.646 OA
BRANCH  35  37
HETATM   37  O2  UNL     1       1.167   8.661   9.735  1.00  0.00    -0.773 OA
HETATM   38  H4  UNL     1       0.926   8.376   8.829  1.00  0.00     0.167 HD
ENDBRANCH  35  37
ENDBRANCH   2  35
TORSDOF 12
ENDMDL
MODEL 6
REMARK minimizedAffinity -7.49748039
REMARK  12 active torsions:
REMARK  status: ('A' for Active; 'I' for Inactive)
REMARK    1  A    between atoms: C2_2  and  C3_3 
REMARK    2  A    between atoms: C3_3  and  O2_5 
REMARK    3  A    between atoms: C14_16  and  C15_17 
REMARK    4  A    between atoms: C15_17  and  C17_19 
REMARK    5  A    between atoms: C17_19  and  C18_20 
REMARK    6  A    between atoms: C18_20  and  C19_21 
REMARK    7  A    between atoms: C20_22  and  C22_24 
REMARK    8  A    between atoms: C22_24  and  O4_26 
REMARK    9  A    between atoms: C27_31  and  C28_32 
REMARK   10  A    between atoms: C28_32  and  C29_33 
REMARK   11  A    between atoms: C29_33  and  C30_34 
REMARK   12  A    between atoms: C30_34  and  O5_35 
ROOT
HETATM    1  C1  UNL     1      -2.382  14.691  14.959  1.00  0.00     0.056 C 
HETATM    2  C2  UNL     1      -1.720  13.575  15.714  1.00  0.00     0.014 C 
HETATM    3  C4  UNL     1      -2.369  12.613  16.418  1.00  0.00    -0.062 C 
HETATM    4  C5  UNL     1      -3.869  12.590  16.539  1.00  0.00     0.036 C 
HETATM    5  C6  UNL     1      -4.470  11.316  15.954  1.00  0.00     0.010 C 
HETATM    6  C7  UNL     1      -3.663  10.014  16.194  1.00  0.00     0.003 C 
HETATM    7  C8  UNL     1      -2.564  10.151  17.331  1.00  0.00    -0.032 C 
HETATM    8  C9  UNL     1      -3.317  10.153  18.694  1.00  0.00     0.016 C 
HETATM    9  C10 UNL     1      -1.610   8.897  17.394  1.00  0.00     0.011 C 
HETATM   10  C11 UNL     1      -1.244   8.216  16.062  1.00  0.00     0.011 C 
HETATM   11  C12 UNL     1      -2.491   7.941  15.208  1.00  0.00    -0.032 C 
HETATM   12  C13 UNL     1      -3.423   6.961  15.991  1.00  0.00     0.016 C 
HETATM   13  C14 UNL     1      -2.275   7.361  13.773  1.00  0.00    -0.002 C 
HETATM   14  C23 UNL     1      -3.588   7.798  13.045  1.00  0.00     0.006 C 
HETATM   15  C24 UNL     1      -4.244   8.910  13.888  1.00  0.00     0.011 C 
HETATM   16  C25 UNL     1      -3.146   9.340  14.879  1.00  0.00    -0.032 C 
HETATM   17  C26 UNL     1      -2.222  10.308  14.072  1.00  0.00     0.016 C 
HETATM   18  C27 UNL     1      -1.671  11.460  17.150  1.00  0.00     0.024 C 
ENDROOT
BRANCH  13  19
HETATM   19  C15 UNL     1      -1.981   5.841  13.565  1.00  0.00    -0.014 C 
HETATM   20  C16 UNL     1      -1.465   5.538  12.155  1.00  0.00     0.010 C 
BRANCH  19  21
HETATM   21  C17 UNL     1      -3.267   5.013  13.851  1.00  0.00     0.008 C 
BRANCH  21  22
HETATM   22  C18 UNL     1      -3.954   4.384  12.629  1.00  0.00     0.028 C 
BRANCH  22  23
HETATM   23  C19 UNL     1      -5.389   4.016  12.888  1.00  0.00    -0.013 C 
HETATM   24  C20 UNL     1      -6.133   3.081  12.261  1.00  0.00     0.008 C 
HETATM   25  C21 UNL     1      -5.683   2.185  11.148  1.00  0.00     0.055 C 
BRANCH  24  26
HETATM   26  C22 UNL     1      -7.534   2.931  12.736  1.00  0.00     0.171 C 
HETATM   27  O3  UNL     1      -8.255   3.809  13.176  1.00  0.00    -0.646 OA
BRANCH  26  28
HETATM   28  O4  UNL     1      -7.975   1.665  12.639  1.00  0.00    -0.773 OA
HETATM   29  H33 UNL     1      -8.891   1.719  12.980  1.00  0.00     0.167 HD
ENDBRANCH  26  28
ENDBRANCH  24  26
ENDBRANCH  22  23
ENDBRANCH  21  22
ENDBRANCH  19  21
ENDBRANCH  13  19
BRANCH  18  30
HETATM   30  C28 UNL     1      -0.911  11.932  18.428  1.00  0.00     0.012 C 
BRANCH  30  31
HETATM   31  C29 UNL     1       0.372  11.169  18.792  1.00  0.00     0.027 C 
BRANCH  31  32
HETATM   32  C30 UNL     1       0.700  11.287  20.278  1.00  0.00     0.164 C 
BRANCH  32  33
HETATM   33  O5  UNL     1       1.458  10.164  20.703  1.00  0.00    -0.401 OA
HETATM   34  H48 UNL     1       1.639  10.284  21.650  1.00  0.00     0.209 HD
ENDBRANCH  32  33
ENDBRANCH  31  32
ENDBRANCH  30  31
ENDBRANCH  18  30
BRANCH   2  35
HETATM   35  C3  UNL     1      -0.241  13.590  15.624  1.00  0.00     0.171 C 
HETATM   36  O1  UNL     1       0.541  14.129  16.383  1.00  0.00    -0.646 OA
BRANCH  35  37
HETATM   37  O2  UNL     1       0.171  12.895  14.549  1.00  0.00    -0.773 OA
HETATM   38  H4  UNL     1       1.144  13.016  14.554  1.00  0.00     0.167 HD
ENDBRANCH  35  37
ENDBRANCH   2  35
TORSDOF 12
ENDMDL
MODEL 7
REMARK minimizedAffinity -7.46944761
REMARK  12 active torsions:
REMARK  status: ('A' for Active; 'I' for Inactive)
REMARK    1  A    between atoms: C2_2  and  C3_3 
REMARK    2  A    between atoms: C3_3  and  O2_5 
REMARK    3  A    between atoms: C14_16  and  C15_17 
REMARK    4  A    between atoms: C15_17  and  C17_19 
REMARK    5  A    between atoms: C17_19  and  C18_20 
REMARK    6  A    between atoms: C18_20  and  C19_21 
REMARK    7  A    between atoms: C20_22  and  C22_24 
REMARK    8  A    between atoms: C22_24  and  O4_26 
REMARK    9  A    between atoms: C27_31  and  C28_32 
REMARK   10  A    between atoms: C28_32  and  C29_33 
REMARK   11  A    between atoms: C29_33  and  C30_34 
REMARK   12  A    between atoms: C30_34  and  O5_35 
ROOT
HETATM    1  C1  UNL     1      -7.481   3.495  14.513  1.00  0.00     0.056 C 
HETATM    2  C2  UNL     1      -7.211   4.886  14.019  1.00  0.00     0.014 C 
HETATM    3  C4  UNL     1      -6.494   5.827  14.685  1.00  0.00    -0.062 C 
HETATM    4  C5  UNL     1      -5.906   5.565  16.046  1.00  0.00     0.036 C 
HETATM    5  C6  UNL     1      -4.385   5.687  16.044  1.00  0.00     0.010 C 
HETATM    6  C7  UNL     1      -3.798   6.818  15.162  1.00  0.00     0.003 C 
HETATM    7  C8  UNL     1      -4.871   7.901  14.721  1.00  0.00    -0.032 C 
HETATM    8  C9  UNL     1      -5.169   8.781  15.971  1.00  0.00     0.016 C 
HETATM    9  C10 UNL     1      -4.303   8.901  13.643  1.00  0.00     0.011 C 
HETATM   10  C11 UNL     1      -3.320   8.338  12.600  1.00  0.00     0.011 C 
HETATM   11  C12 UNL     1      -2.202   7.520  13.262  1.00  0.00    -0.032 C 
HETATM   12  C13 UNL     1      -1.388   8.463  14.207  1.00  0.00     0.016 C 
HETATM   13  C14 UNL     1      -1.191   6.781  12.328  1.00  0.00    -0.002 C 
HETATM   14  C23 UNL     1      -0.665   5.638  13.256  1.00  0.00     0.006 C 
HETATM   15  C24 UNL     1      -1.650   5.501  14.435  1.00  0.00     0.011 C 
HETATM   16  C25 UNL     1      -2.890   6.301  13.995  1.00  0.00    -0.032 C 
HETATM   17  C26 UNL     1      -3.680   5.344  13.045  1.00  0.00     0.016 C 
HETATM   18  C27 UNL     1      -6.198   7.231  14.143  1.00  0.00     0.024 C 
ENDROOT
BRANCH  13  19
HETATM   19  C15 UNL     1      -0.017   7.559  11.653  1.00  0.00    -0.014 C 
HETATM   20  C16 UNL     1       0.296   7.034  10.249  1.00  0.00     0.010 C 
BRANCH  19  21
HETATM   21  C17 UNL     1       1.254   7.474  12.548  1.00  0.00     0.008 C 
BRANCH  21  22
HETATM   22  C18 UNL     1       2.602   7.433  11.810  1.00  0.00     0.028 C 
BRANCH  22  23
HETATM   23  C19 UNL     1       2.710   6.282  10.849  1.00  0.00    -0.013 C 
HETATM   24  C20 UNL     1       3.823   5.778  10.278  1.00  0.00     0.008 C 
HETATM   25  C21 UNL     1       5.225   6.265  10.481  1.00  0.00     0.055 C 
BRANCH  24  26
HETATM   26  C22 UNL     1       3.625   4.623   9.362  1.00  0.00     0.171 C 
HETATM   27  O3  UNL     1       3.682   4.636   8.146  1.00  0.00    -0.646 OA
BRANCH  26  28
HETATM   28  O4  UNL     1       3.358   3.485  10.025  1.00  0.00    -0.773 OA
HETATM   29  H33 UNL     1       3.255   2.825   9.308  1.00  0.00     0.167 HD
ENDBRANCH  26  28
ENDBRANCH  24  26
ENDBRANCH  22  23
ENDBRANCH  21  22
ENDBRANCH  19  21
ENDBRANCH  13  19
BRANCH  18  30
HETATM   30  C28 UNL     1      -7.459   8.149  14.132  1.00  0.00     0.012 C 
BRANCH  30  31
HETATM   31  C29 UNL     1      -8.484   7.930  15.256  1.00  0.00     0.027 C 
BRANCH  31  32
HETATM   32  C30 UNL     1      -9.915   8.145  14.769  1.00  0.00     0.164 C 
BRANCH  32  33
HETATM   33  O5  UNL     1     -10.828   7.466  15.619  1.00  0.00    -0.401 OA
HETATM   34  H48 UNL     1     -11.719   7.630  15.268  1.00  0.00     0.209 HD
ENDBRANCH  32  33
ENDBRANCH  31  32
ENDBRANCH  30  31
ENDBRANCH  18  30
BRANCH   2  35
HETATM   35  C3  UNL     1      -7.797   5.172  12.688  1.00  0.00     0.171 C 
HETATM   36  O1  UNL     1      -8.822   5.778  12.447  1.00  0.00    -0.646 OA
BRANCH  35  37
HETATM   37  O2  UNL     1      -7.023   4.662  11.715  1.00  0.00    -0.773 OA
HETATM   38  H4  UNL     1      -7.524   4.855  10.896  1.00  0.00     0.167 HD
ENDBRANCH  35  37
ENDBRANCH   2  35
TORSDOF 12
ENDMDL
MODEL 8
REMARK minimizedAffinity -7.42881632
REMARK  12 active torsions:
REMARK  status: ('A' for Active; 'I' for Inactive)
REMARK    1  A    between atoms: C2_2  and  C3_3 
REMARK    2  A    between atoms: C3_3  and  O2_5 
REMARK    3  A    between atoms: C14_16  and  C15_17 
REMARK    4  A    between atoms: C15_17  and  C17_19 
REMARK    5  A    between atoms: C17_19  and  C18_20 
REMARK    6  A    between atoms: C18_20  and  C19_21 
REMARK    7  A    between atoms: C20_22  and  C22_24 
REMARK    8  A    between atoms: C22_24  and  O4_26 
REMARK    9  A    between atoms: C27_31  and  C28_32 
REMARK   10  A    between atoms: C28_32  and  C29_33 
REMARK   11  A    between atoms: C29_33  and  C30_34 
REMARK   12  A    between atoms: C30_34  and  O5_35 
ROOT
HETATM    1  C1  UNL     1      -3.405   7.677  15.767  1.00  0.00     0.056 C 
HETATM    2  C2  UNL     1      -4.242   7.138  14.644  1.00  0.00     0.014 C 
HETATM    3  C4  UNL     1      -5.248   6.237  14.780  1.00  0.00    -0.062 C 
HETATM    4  C5  UNL     1      -5.614   5.647  16.116  1.00  0.00     0.036 C 
HETATM    5  C6  UNL     1      -7.051   5.976  16.511  1.00  0.00     0.010 C 
HETATM    6  C7  UNL     1      -8.089   5.965  15.359  1.00  0.00     0.003 C 
HETATM    7  C8  UNL     1      -7.571   5.238  14.046  1.00  0.00    -0.032 C 
HETATM    8  C9  UNL     1      -7.600   3.707  14.333  1.00  0.00     0.016 C 
HETATM    9  C10 UNL     1      -8.547   5.444  12.826  1.00  0.00     0.011 C 
HETATM   10  C11 UNL     1      -9.263   6.802  12.709  1.00  0.00     0.011 C 
HETATM   11  C12 UNL     1      -9.919   7.210  14.037  1.00  0.00    -0.032 C 
HETATM   12  C13 UNL     1     -11.001   6.144  14.405  1.00  0.00     0.016 C 
HETATM   13  C14 UNL     1     -10.583   8.622  14.116  1.00  0.00    -0.002 C 
HETATM   14  C23 UNL     1     -10.553   8.911  15.652  1.00  0.00     0.006 C 
HETATM   15  C24 UNL     1      -9.544   7.936  16.293  1.00  0.00     0.011 C 
HETATM   16  C25 UNL     1      -8.760   7.356  15.101  1.00  0.00    -0.032 C 
HETATM   17  C26 UNL     1      -7.693   8.441  14.745  1.00  0.00     0.016 C 
HETATM   18  C27 UNL     1      -6.116   5.730  13.621  1.00  0.00     0.024 C 
ENDROOT
BRANCH  13  19
HETATM   19  C15 UNL     1     -12.002   8.868  13.512  1.00  0.00    -0.014 C 
HETATM   20  C16 UNL     1     -12.921   9.623  14.478  1.00  0.00     0.010 C 
BRANCH  19  21
HETATM   21  C17 UNL     1     -12.649   7.508  13.117  1.00  0.00     0.008 C 
BRANCH  21  22
HETATM   22  C18 UNL     1     -14.155   7.369  13.387  1.00  0.00     0.028 C 
BRANCH  22  23
HETATM   23  C19 UNL     1     -14.506   6.102  14.117  1.00  0.00    -0.013 C 
HETATM   24  C20 UNL     1     -15.666   5.416  14.080  1.00  0.00     0.008 C 
HETATM   25  C21 UNL     1     -16.886   5.772  13.286  1.00  0.00     0.055 C 
BRANCH  24  26
HETATM   26  C22 UNL     1     -15.726   4.183  14.909  1.00  0.00     0.171 C 
HETATM   27  O3  UNL     1     -16.633   3.841  15.647  1.00  0.00    -0.646 OA
BRANCH  26  28
HETATM   28  O4  UNL     1     -14.627   3.422  14.776  1.00  0.00    -0.773 OA
HETATM   29  H33 UNL     1     -14.805   2.661  15.367  1.00  0.00     0.167 HD
ENDBRANCH  26  28
ENDBRANCH  24  26
ENDBRANCH  22  23
ENDBRANCH  21  22
ENDBRANCH  19  21
ENDBRANCH  13  19
BRANCH  18  30
HETATM   30  C28 UNL     1      -5.340   4.771  12.665  1.00  0.00     0.012 C 
BRANCH  30  31
HETATM   31  C29 UNL     1      -6.130   3.594  12.074  1.00  0.00     0.027 C 
BRANCH  31  32
HETATM   32  C30 UNL     1      -5.208   2.527  11.491  1.00  0.00     0.164 C 
BRANCH  32  33
HETATM   33  O5  UNL     1      -5.616   2.196  10.171  1.00  0.00    -0.401 OA
HETATM   34  H48 UNL     1      -5.003   1.515   9.846  1.00  0.00     0.209 HD
ENDBRANCH  32  33
ENDBRANCH  31  32
ENDBRANCH  30  31
ENDBRANCH  18  30
BRANCH   2  35
HETATM   35  C3  UNL     1      -3.885   7.691  13.316  1.00  0.00     0.171 C 
HETATM   36  O1  UNL     1      -2.941   7.381  12.615  1.00  0.00    -0.646 OA
BRANCH  35  37
HETATM   37  O2  UNL     1      -4.776   8.626  12.943  1.00  0.00    -0.773 OA
HETATM   38  H4  UNL     1      -4.419   8.960  12.093  1.00  0.00     0.167 HD
ENDBRANCH  35  37
ENDBRANCH   2  35
TORSDOF 12
ENDMDL
MODEL 9
REMARK minimizedAffinity -7.42809582
REMARK  12 active torsions:
REMARK  status: ('A' for Active; 'I' for Inactive)
REMARK    1  A    between atoms: C2_2  and  C3_3 
REMARK    2  A    between atoms: C3_3  and  O2_5 
REMARK    3  A    between atoms: C14_16  and  C15_17 
REMARK    4  A    between atoms: C15_17  and  C17_19 
REMARK    5  A    between atoms: C17_19  and  C18_20 
REMARK    6  A    between atoms: C18_20  and  C19_21 
REMARK    7  A    between atoms: C20_22  and  C22_24 
REMARK    8  A    between atoms: C22_24  and  O4_26 
REMARK    9  A    between atoms: C27_31  and  C28_32 
REMARK   10  A    between atoms: C28_32  and  C29_33 
REMARK   11  A    between atoms: C29_33  and  C30_34 
REMARK   12  A    between atoms: C30_34  and  O5_35 
ROOT
HETATM    1  C1  UNL     1       1.898  12.330  16.278  1.00  0.00     0.056 C 
HETATM    2  C2  UNL     1       0.926  11.305  16.785  1.00  0.00     0.014 C 
HETATM    3  C4  UNL     1      -0.344  11.140  16.333  1.00  0.00    -0.062 C 
HETATM    4  C5  UNL     1      -0.930  12.022  15.264  1.00  0.00     0.036 C 
HETATM    5  C6  UNL     1      -1.335  11.227  14.026  1.00  0.00     0.010 C 
HETATM    6  C7  UNL     1      -1.954   9.831  14.292  1.00  0.00     0.003 C 
HETATM    7  C8  UNL     1      -2.426   9.621  15.792  1.00  0.00    -0.032 C 
HETATM    8  C9  UNL     1      -3.737  10.441  15.976  1.00  0.00     0.016 C 
HETATM    9  C10 UNL     1      -2.833   8.127  16.087  1.00  0.00     0.011 C 
HETATM   10  C11 UNL     1      -2.029   7.019  15.382  1.00  0.00     0.011 C 
HETATM   11  C12 UNL     1      -1.901   7.287  13.875  1.00  0.00    -0.032 C 
HETATM   12  C13 UNL     1      -3.332   7.295  13.248  1.00  0.00     0.016 C 
HETATM   13  C14 UNL     1      -1.009   6.315  13.037  1.00  0.00    -0.002 C 
HETATM   14  C23 UNL     1      -0.625   7.203  11.809  1.00  0.00     0.006 C 
HETATM   15  C24 UNL     1      -0.909   8.671  12.184  1.00  0.00     0.011 C 
HETATM   16  C25 UNL     1      -1.112   8.646  13.711  1.00  0.00    -0.032 C 
HETATM   17  C26 UNL     1       0.330   8.629  14.315  1.00  0.00     0.016 C 
HETATM   18  C27 UNL     1      -1.307  10.059  16.841  1.00  0.00     0.024 C 
ENDROOT
BRANCH  13  19
HETATM   19  C15 UNL     1      -1.556   4.922  12.591  1.00  0.00    -0.014 C 
HETATM   20  C16 UNL     1      -1.257   4.627  11.117  1.00  0.00     0.010 C 
BRANCH  19  21
HETATM   21  C17 UNL     1      -3.089   4.851  12.847  1.00  0.00     0.008 C 
BRANCH  21  22
HETATM   22  C18 UNL     1      -3.920   4.105  11.791  1.00  0.00     0.028 C 
BRANCH  22  23
HETATM   23  C19 UNL     1      -5.155   3.465  12.362  1.00  0.00    -0.013 C 
HETATM   24  C20 UNL     1      -6.209   4.070  12.949  1.00  0.00     0.008 C 
HETATM   25  C21 UNL     1      -6.383   5.542  13.165  1.00  0.00     0.055 C 
BRANCH  24  26
HETATM   26  C22 UNL     1      -7.300   3.176  13.419  1.00  0.00     0.171 C 
HETATM   27  O3  UNL     1      -7.696   2.158  12.879  1.00  0.00    -0.646 OA
BRANCH  26  28
HETATM   28  O4  UNL     1      -7.859   3.608  14.562  1.00  0.00    -0.773 OA
HETATM   29  H33 UNL     1      -8.547   2.935  14.746  1.00  0.00     0.167 HD
ENDBRANCH  26  28
ENDBRANCH  24  26
ENDBRANCH  22  23
ENDBRANCH  21  22
ENDBRANCH  19  21
ENDBRANCH  13  19
BRANCH  18  30
HETATM   30  C28 UNL     1      -1.820  10.342  18.286  1.00  0.00     0.012 C 
BRANCH  30  31
HETATM   31  C29 UNL     1      -2.966  11.355  18.428  1.00  0.00     0.027 C 
BRANCH  31  32
HETATM   32  C30 UNL     1      -2.451  12.751  18.770  1.00  0.00     0.164 C 
BRANCH  32  33
HETATM   33  O5  UNL     1      -3.436  13.726  18.460  1.00  0.00    -0.401 OA
HETATM   34  H48 UNL     1      -3.061  14.592  18.692  1.00  0.00     0.209 HD
ENDBRANCH  32  33
ENDBRANCH  31  32
ENDBRANCH  30  31
ENDBRANCH  18  30
BRANCH   2  35
HETATM   35  C3  UNL     1       1.477  10.437  17.853  1.00  0.00     0.171 C 
HETATM   36  O1  UNL     1       2.003   9.350  17.723  1.00  0.00    -0.646 OA
BRANCH  35  37
HETATM   37  O2  UNL     1       1.329  11.021  19.055  1.00  0.00    -0.773 OA
HETATM   38  H4  UNL     1       1.669  10.349  19.682  1.00  0.00     0.167 HD
ENDBRANCH  35  37
ENDBRANCH   2  35
TORSDOF 12
ENDMDL
