MODEL 1
REMARK minimizedAffinity -9.81563377
REMARK CNNscore 0.619095027
REMARK CNNaffinity 7.38805389
REMARK  6 active torsions:
REMARK  status: ('A' for Active; 'I' for Inactive)
REMARK    1  A    between atoms: C2_2  and  C30_32 
REMARK    2  A    between atoms: C3_3  and  C4_4 
REMARK    3  A    between atoms: C4_4  and  C5_6 
REMARK    4  A    between atoms: C5_6  and  C6_7 
REMARK    5  A    between atoms: C6_7  and  C8_9 
REMARK    6  A    between atoms: C30_32  and  O4_34 
ROOT
HETATM    1  C8  UNL     1      -5.105   5.023  13.860  1.00  0.00    -0.001 C 
HETATM    2  C9  UNL     1      -5.763   4.361  12.610  1.00  0.00     0.007 C 
HETATM    3  C10 UNL     1      -7.230   4.821  12.556  1.00  0.00     0.015 C 
HETATM    4  C11 UNL     1      -7.501   5.414  13.953  1.00  0.00    -0.013 C 
HETATM    5  C12 UNL     1      -7.814   4.197  14.883  1.00  0.00     0.021 C 
HETATM    6  C13 UNL     1      -8.660   6.391  14.139  1.00  0.00    -0.070 C 
HETATM    7  C14 UNL     1      -9.618   6.564  13.215  1.00  0.00    -0.022 C 
HETATM    8  C15 UNL     1     -10.833   7.408  13.405  1.00  0.00     0.034 C 
HETATM    9  C16 UNL     1     -11.134   7.787  14.879  1.00  0.00     0.013 C 
HETATM   10  C17 UNL     1     -12.331   8.808  14.999  1.00  0.00     0.018 C 
HETATM   11  C18 UNL     1     -13.221   8.442  16.210  1.00  0.00     0.023 C 
HETATM   12  C19 UNL     1     -13.271   8.836  13.775  1.00  0.00     0.023 C 
HETATM   13  C20 UNL     1     -11.796  10.235  15.167  1.00  0.00     0.135 C 
HETATM   14  O2  UNL     1     -12.460  11.122  15.706  1.00  0.00    -0.297 OA
HETATM   15  C21 UNL     1     -10.455  10.553  14.547  1.00  0.00     0.080 C 
HETATM   16  C22 UNL     1      -9.342   9.586  14.948  1.00  0.00     0.017 C 
HETATM   17  C23 UNL     1      -9.813   8.255  15.597  1.00  0.00    -0.031 C 
HETATM   18  C24 UNL     1     -10.048   8.512  17.111  1.00  0.00     0.016 C 
HETATM   19  C25 UNL     1      -8.712   7.106  15.494  1.00  0.00     0.024 C 
HETATM   20  C26 UNL     1      -7.305   7.571  15.980  1.00  0.00     0.010 C 
HETATM   21  C27 UNL     1      -6.138   6.607  15.696  1.00  0.00     0.011 C 
HETATM   22  C28 UNL     1      -6.134   6.138  14.232  1.00  0.00    -0.029 C 
HETATM   23  C29 UNL     1      -5.911   7.376  13.308  1.00  0.00     0.016 C 
ENDROOT
BRANCH   1  24
HETATM   24  C6  UNL     1      -3.613   5.390  13.599  1.00  0.00    -0.007 C 
HETATM   25  C7  UNL     1      -2.932   5.986  14.838  1.00  0.00     0.011 C 
BRANCH  24  26
HETATM   26  C5  UNL     1      -2.823   4.138  13.145  1.00  0.00     0.087 C 
BRANCH  26  27
HETATM   27  C4  UNL     1      -1.746   4.436  12.110  1.00  0.00     0.150 C 
HETATM   28  O1  UNL     1      -1.439   5.577  11.781  1.00  0.00    -0.293 OA
BRANCH  27  29
HETATM   29  C3  UNL     1      -1.126   3.243  11.462  1.00  0.00     0.063 C 
HETATM   30  C2  UNL     1      -1.753   2.077  11.220  1.00  0.00     0.015 C 
HETATM   31  C1  UNL     1      -3.192   1.751  11.477  1.00  0.00     0.055 C 
BRANCH  30  32
HETATM   32  C30 UNL     1      -0.903   1.032  10.604  1.00  0.00     0.171 C 
HETATM   33  O3  UNL     1      -0.186   0.243  11.195  1.00  0.00    -0.646 OA
BRANCH  32  34
HETATM   34  O4  UNL     1      -1.002   1.010   9.266  1.00  0.00    -0.773 OA
HETATM   35  H44 UNL     1      -0.410   0.279   8.996  1.00  0.00     0.167 HD
ENDBRANCH  32  34
ENDBRANCH  30  32
ENDBRANCH  27  29
ENDBRANCH  26  27
ENDBRANCH  24  26
ENDBRANCH   1  24
TORSDOF 6
ENDMDL
MODEL 2
REMARK minimizedAffinity -8.07013035
REMARK CNNscore 0.598186314
REMARK CNNaffinity 7.46465921
REMARK  6 active torsions:
REMARK  status: ('A' for Active; 'I' for Inactive)
REMARK    1  A    between atoms: C2_2  and  C30_32 
REMARK    2  A    between atoms: C3_3  and  C4_4 
REMARK    3  A    between atoms: C4_4  and  C5_6 
REMARK    4  A    between atoms: C5_6  and  C6_7 
REMARK    5  A    between atoms: C6_7  and  C8_9 
REMARK    6  A    between atoms: C30_32  and  O4_34 
ROOT
HETATM    1  C8  UNL     1      -5.979   4.591  12.970  1.00  0.00    -0.001 C 
HETATM    2  C9  UNL     1      -5.308   4.918  14.339  1.00  0.00     0.007 C 
HETATM    3  C10 UNL     1      -6.216   5.918  15.076  1.00  0.00     0.015 C 
HETATM    4  C11 UNL     1      -7.176   6.443  13.989  1.00  0.00    -0.013 C 
HETATM    5  C12 UNL     1      -6.394   7.561  13.228  1.00  0.00     0.021 C 
HETATM    6  C13 UNL     1      -8.506   7.069  14.405  1.00  0.00    -0.070 C 
HETATM    7  C14 UNL     1      -8.773   7.429  15.671  1.00  0.00    -0.022 C 
HETATM    8  C15 UNL     1     -10.001   8.158  16.100  1.00  0.00     0.034 C 
HETATM    9  C16 UNL     1     -10.795   8.824  14.946  1.00  0.00     0.013 C 
HETATM   10  C17 UNL     1     -12.162   9.439  15.440  1.00  0.00     0.018 C 
HETATM   11  C18 UNL     1     -12.418  10.794  14.740  1.00  0.00     0.023 C 
HETATM   12  C19 UNL     1     -12.221   9.726  16.955  1.00  0.00     0.023 C 
HETATM   13  C20 UNL     1     -13.316   8.477  15.136  1.00  0.00     0.135 C 
HETATM   14  O2  UNL     1     -14.477   8.870  15.009  1.00  0.00    -0.297 OA
HETATM   15  C21 UNL     1     -13.002   7.000  15.103  1.00  0.00     0.080 C 
HETATM   16  C22 UNL     1     -11.835   6.635  14.186  1.00  0.00     0.017 C 
HETATM   17  C23 UNL     1     -10.938   7.822  13.739  1.00  0.00    -0.031 C 
HETATM   18  C24 UNL     1     -11.608   8.499  12.513  1.00  0.00     0.016 C 
HETATM   19  C25 UNL     1      -9.492   7.345  13.265  1.00  0.00     0.024 C 
HETATM   20  C26 UNL     1      -9.548   6.183  12.227  1.00  0.00     0.010 C 
HETATM   21  C27 UNL     1      -8.205   5.507  11.895  1.00  0.00     0.011 C 
HETATM   22  C28 UNL     1      -7.433   5.126  13.170  1.00  0.00    -0.029 C 
HETATM   23  C29 UNL     1      -8.266   4.074  13.967  1.00  0.00     0.016 C 
ENDROOT
BRANCH   1  24
HETATM   24  C6  UNL     1      -5.742   3.108  12.552  1.00  0.00    -0.007 C 
HETATM   25  C7  UNL     1      -7.046   2.386  12.191  1.00  0.00     0.011 C 
BRANCH  24  26
HETATM   26  C5  UNL     1      -4.778   3.039  11.341  1.00  0.00     0.087 C 
BRANCH  26  27
HETATM   27  C4  UNL     1      -3.503   2.255  11.619  1.00  0.00     0.150 C 
HETATM   28  O1  UNL     1      -3.485   1.033  11.735  1.00  0.00    -0.293 OA
BRANCH  27  29
HETATM   29  C3  UNL     1      -2.270   3.073  11.812  1.00  0.00     0.063 C 
HETATM   30  C2  UNL     1      -1.024   2.690  11.480  1.00  0.00     0.015 C 
HETATM   31  C1  UNL     1      -0.617   1.420  10.796  1.00  0.00     0.055 C 
BRANCH  30  32
HETATM   32  C30 UNL     1       0.037   3.669  11.814  1.00  0.00     0.171 C 
HETATM   33  O3  UNL     1       0.003   4.491  12.713  1.00  0.00    -0.646 OA
BRANCH  32  34
HETATM   34  O4  UNL     1       1.106   3.564  11.011  1.00  0.00    -0.773 OA
HETATM   35  H44 UNL     1       1.723   4.248  11.344  1.00  0.00     0.167 HD
ENDBRANCH  32  34
ENDBRANCH  30  32
ENDBRANCH  27  29
ENDBRANCH  26  27
ENDBRANCH  24  26
ENDBRANCH   1  24
TORSDOF 6
ENDMDL
MODEL 3
REMARK minimizedAffinity -8.782547
REMARK CNNscore 0.534418404
REMARK CNNaffinity 7.07374954
REMARK  6 active torsions:
REMARK  status: ('A' for Active; 'I' for Inactive)
REMARK    1  A    between atoms: C2_2  and  C30_32 
REMARK    2  A    between atoms: C3_3  and  C4_4 
REMARK    3  A    between atoms: C4_4  and  C5_6 
REMARK    4  A    between atoms: C5_6  and  C6_7 
REMARK    5  A    between atoms: C6_7  and  C8_9 
REMARK    6  A    between atoms: C30_32  and  O4_34 
ROOT
HETATM    1  C8  UNL     1      -5.171   4.866  13.805  1.00  0.00    -0.001 C 
HETATM    2  C9  UNL     1      -5.866   4.251  12.552  1.00  0.00     0.007 C 
HETATM    3  C10 UNL     1      -7.314   4.770  12.521  1.00  0.00     0.015 C 
HETATM    4  C11 UNL     1      -7.549   5.351  13.930  1.00  0.00    -0.013 C 
HETATM    5  C12 UNL     1      -7.900   4.132  14.843  1.00  0.00     0.021 C 
HETATM    6  C13 UNL     1      -8.666   6.370  14.143  1.00  0.00    -0.070 C 
HETATM    7  C14 UNL     1      -9.625   6.595  13.231  1.00  0.00    -0.022 C 
HETATM    8  C15 UNL     1     -10.803   7.484  13.447  1.00  0.00     0.034 C 
HETATM    9  C16 UNL     1     -11.075   7.850  14.929  1.00  0.00     0.013 C 
HETATM   10  C17 UNL     1     -12.229   8.916  15.077  1.00  0.00     0.018 C 
HETATM   11  C18 UNL     1     -13.121   8.567  16.291  1.00  0.00     0.023 C 
HETATM   12  C19 UNL     1     -13.179   9.001  13.864  1.00  0.00     0.023 C 
HETATM   13  C20 UNL     1     -11.636  10.318  15.262  1.00  0.00     0.135 C 
HETATM   14  O2  UNL     1     -12.259  11.222  15.821  1.00  0.00    -0.297 OA
HETATM   15  C21 UNL     1     -10.290  10.593  14.634  1.00  0.00     0.080 C 
HETATM   16  C22 UNL     1      -9.212   9.576  15.008  1.00  0.00     0.017 C 
HETATM   17  C23 UNL     1      -9.729   8.254  15.641  1.00  0.00    -0.031 C 
HETATM   18  C24 UNL     1      -9.940   8.497  17.161  1.00  0.00     0.016 C 
HETATM   19  C25 UNL     1      -8.676   7.065  15.509  1.00  0.00     0.024 C 
HETATM   20  C26 UNL     1      -7.247   7.466  15.987  1.00  0.00     0.010 C 
HETATM   21  C27 UNL     1      -6.122   6.461  15.677  1.00  0.00     0.011 C 
HETATM   22  C28 UNL     1      -6.151   6.016  14.205  1.00  0.00    -0.029 C 
HETATM   23  C29 UNL     1      -5.887   7.258  13.298  1.00  0.00     0.016 C 
ENDROOT
BRANCH   1  24
HETATM   24  C6  UNL     1      -3.668   5.178  13.535  1.00  0.00    -0.007 C 
HETATM   25  C7  UNL     1      -3.098   4.352  12.375  1.00  0.00     0.011 C 
BRANCH  24  26
HETATM   26  C5  UNL     1      -3.480   6.683  13.220  1.00  0.00     0.087 C 
BRANCH  26  27
HETATM   27  C4  UNL     1      -2.061   7.185  13.453  1.00  0.00     0.150 C 
HETATM   28  O1  UNL     1      -1.794   8.071  14.258  1.00  0.00    -0.293 OA
BRANCH  27  29
HETATM   29  C3  UNL     1      -1.010   6.575  12.587  1.00  0.00     0.063 C 
HETATM   30  C2  UNL     1      -0.433   7.175  11.529  1.00  0.00     0.015 C 
HETATM   31  C1  UNL     1      -0.660   8.574  11.044  1.00  0.00     0.055 C 
BRANCH  30  32
HETATM   32  C30 UNL     1       0.554   6.340  10.805  1.00  0.00     0.171 C 
HETATM   33  O3  UNL     1       0.652   5.126  10.860  1.00  0.00    -0.646 OA
BRANCH  32  34
HETATM   34  O4  UNL     1       1.371   7.067  10.028  1.00  0.00    -0.773 OA
HETATM   35  H44 UNL     1       1.953   6.401   9.606  1.00  0.00     0.167 HD
ENDBRANCH  32  34
ENDBRANCH  30  32
ENDBRANCH  27  29
ENDBRANCH  26  27
ENDBRANCH  24  26
ENDBRANCH   1  24
TORSDOF 6
ENDMDL
MODEL 4
REMARK minimizedAffinity -7.23833847
REMARK CNNscore 0.48455292
REMARK CNNaffinity 7.01953173
REMARK  6 active torsions:
REMARK  status: ('A' for Active; 'I' for Inactive)
REMARK    1  A    between atoms: C2_2  and  C30_32 
REMARK    2  A    between atoms: C3_3  and  C4_4 
REMARK    3  A    between atoms: C4_4  and  C5_6 
REMARK    4  A    between atoms: C5_6  and  C6_7 
REMARK    5  A    between atoms: C6_7  and  C8_9 
REMARK    6  A    between atoms: C30_32  and  O4_34 
ROOT
HETATM    1  C8  UNL     1      -9.504   6.791  14.790  1.00  0.00    -0.001 C 
HETATM    2  C9  UNL     1      -9.731   6.463  13.282  1.00  0.00     0.007 C 
HETATM    3  C10 UNL     1     -10.905   7.327  12.789  1.00  0.00     0.015 C 
HETATM    4  C11 UNL     1     -11.576   7.842  14.079  1.00  0.00    -0.013 C 
HETATM    5  C12 UNL     1     -12.505   6.685  14.571  1.00  0.00     0.021 C 
HETATM    6  C13 UNL     1     -12.456   9.089  14.018  1.00  0.00    -0.070 C 
HETATM    7  C14 UNL     1     -12.891   9.613  12.861  1.00  0.00    -0.022 C 
HETATM    8  C15 UNL     1     -13.853  10.749  12.758  1.00  0.00     0.034 C 
HETATM    9  C16 UNL     1     -14.629  11.061  14.064  1.00  0.00     0.013 C 
HETATM   10  C17 UNL     1     -15.507  12.366  13.938  1.00  0.00     0.018 C 
HETATM   11  C18 UNL     1     -16.867  12.161  14.644  1.00  0.00     0.023 C 
HETATM   12  C19 UNL     1     -15.838  12.774  12.487  1.00  0.00     0.023 C 
HETATM   13  C20 UNL     1     -14.776  13.558  14.568  1.00  0.00     0.135 C 
HETATM   14  O2  UNL     1     -15.381  14.545  14.991  1.00  0.00    -0.297 OA
HETATM   15  C21 UNL     1     -13.265  13.535  14.556  1.00  0.00     0.080 C 
HETATM   16  C22 UNL     1     -12.661  12.256  15.135  1.00  0.00     0.017 C 
HETATM   17  C23 UNL     1     -13.643  11.063  15.292  1.00  0.00    -0.031 C 
HETATM   18  C24 UNL     1     -14.405  11.236  16.634  1.00  0.00     0.016 C 
HETATM   19  C25 UNL     1     -12.887   9.661  15.373  1.00  0.00     0.024 C 
HETATM   20  C26 UNL     1     -11.731   9.657  16.420  1.00  0.00     0.010 C 
HETATM   21  C27 UNL     1     -10.802   8.429  16.397  1.00  0.00     0.011 C 
HETATM   22  C28 UNL     1     -10.312   8.116  14.973  1.00  0.00    -0.029 C 
HETATM   23  C29 UNL     1      -9.460   9.317  14.458  1.00  0.00     0.016 C 
ENDROOT
BRANCH   1  24
HETATM   24  C6  UNL     1      -7.993   6.738  15.169  1.00  0.00    -0.007 C 
HETATM   25  C7  UNL     1      -7.758   6.969  16.668  1.00  0.00     0.011 C 
BRANCH  24  26
HETATM   26  C5  UNL     1      -7.387   5.369  14.771  1.00  0.00     0.087 C 
BRANCH  26  27
HETATM   27  C4  UNL     1      -6.433   5.445  13.586  1.00  0.00     0.150 C 
HETATM   28  O1  UNL     1      -5.714   6.416  13.373  1.00  0.00    -0.293 OA
BRANCH  27  29
HETATM   29  C3  UNL     1      -6.473   4.284  12.650  1.00  0.00     0.063 C 
HETATM   30  C2  UNL     1      -5.408   3.550  12.277  1.00  0.00     0.015 C 
HETATM   31  C1  UNL     1      -3.997   3.688  12.762  1.00  0.00     0.055 C 
BRANCH  30  32
HETATM   32  C30 UNL     1      -5.705   2.476  11.301  1.00  0.00     0.171 C 
HETATM   33  O3  UNL     1      -6.248   1.411  11.542  1.00  0.00    -0.646 OA
BRANCH  32  34
HETATM   34  O4  UNL     1      -5.321   2.791  10.056  1.00  0.00    -0.773 OA
HETATM   35  H44 UNL     1      -5.583   2.013   9.521  1.00  0.00     0.167 HD
ENDBRANCH  32  34
ENDBRANCH  30  32
ENDBRANCH  27  29
ENDBRANCH  26  27
ENDBRANCH  24  26
ENDBRANCH   1  24
TORSDOF 6
ENDMDL
MODEL 5
REMARK minimizedAffinity -7.63413286
REMARK CNNscore 0.474790186
REMARK CNNaffinity 6.4482131
REMARK  6 active torsions:
REMARK  status: ('A' for Active; 'I' for Inactive)
REMARK    1  A    between atoms: C2_2  and  C30_32 
REMARK    2  A    between atoms: C3_3  and  C4_4 
REMARK    3  A    between atoms: C4_4  and  C5_6 
REMARK    4  A    between atoms: C5_6  and  C6_7 
REMARK    5  A    between atoms: C6_7  and  C8_9 
REMARK    6  A    between atoms: C30_32  and  O4_34 
ROOT
HETATM    1  C8  UNL     1      -2.079   9.386  16.137  1.00  0.00    -0.001 C 
HETATM    2  C9  UNL     1      -0.853  10.189  16.671  1.00  0.00     0.007 C 
HETATM    3  C10 UNL     1       0.343   9.878  15.754  1.00  0.00     0.015 C 
HETATM    4  C11 UNL     1      -0.092   8.631  14.958  1.00  0.00    -0.013 C 
HETATM    5  C12 UNL     1       0.179   7.409  15.894  1.00  0.00     0.021 C 
HETATM    6  C13 UNL     1       0.599   8.309  13.636  1.00  0.00    -0.070 C 
HETATM    7  C14 UNL     1       1.743   8.899  13.252  1.00  0.00    -0.022 C 
HETATM    8  C15 UNL     1       2.519   8.526  12.035  1.00  0.00     0.034 C 
HETATM    9  C16 UNL     1       2.141   7.153  11.422  1.00  0.00     0.013 C 
HETATM   10  C17 UNL     1       2.879   6.888  10.052  1.00  0.00     0.018 C 
HETATM   11  C18 UNL     1       3.324   5.410   9.966  1.00  0.00     0.023 C 
HETATM   12  C19 UNL     1       4.155   7.729   9.843  1.00  0.00     0.023 C 
HETATM   13  C20 UNL     1       1.948   7.213   8.878  1.00  0.00     0.135 C 
HETATM   14  O2  UNL     1       2.096   6.700   7.767  1.00  0.00    -0.297 OA
HETATM   15  C21 UNL     1       0.897   8.276   9.095  1.00  0.00     0.080 C 
HETATM   16  C22 UNL     1       0.027   8.045  10.330  1.00  0.00     0.017 C 
HETATM   17  C23 UNL     1       0.574   7.007  11.349  1.00  0.00    -0.031 C 
HETATM   18  C24 UNL     1       0.156   5.590  10.866  1.00  0.00     0.016 C 
HETATM   19  C25 UNL     1      -0.050   7.197  12.804  1.00  0.00     0.024 C 
HETATM   20  C26 UNL     1      -1.606   7.292  12.787  1.00  0.00     0.010 C 
HETATM   21  C27 UNL     1      -2.273   7.710  14.111  1.00  0.00     0.011 C 
HETATM   22  C28 UNL     1      -1.609   8.962  14.708  1.00  0.00    -0.029 C 
HETATM   23  C29 UNL     1      -1.809  10.156  13.723  1.00  0.00     0.016 C 
ENDROOT
BRANCH   1  24
HETATM   24  C6  UNL     1      -3.410  10.176  16.320  1.00  0.00    -0.007 C 
HETATM   25  C7  UNL     1      -4.643   9.335  15.967  1.00  0.00     0.011 C 
BRANCH  24  26
HETATM   26  C5  UNL     1      -3.542  10.673  17.782  1.00  0.00     0.087 C 
BRANCH  26  27
HETATM   27  C4  UNL     1      -3.672  12.185  17.904  1.00  0.00     0.150 C 
HETATM   28  O1  UNL     1      -3.451  12.949  16.970  1.00  0.00    -0.293 OA
BRANCH  27  29
HETATM   29  C3  UNL     1      -4.021  12.695  19.262  1.00  0.00     0.063 C 
HETATM   30  C2  UNL     1      -5.107  13.432  19.559  1.00  0.00     0.015 C 
HETATM   31  C1  UNL     1      -6.213  13.832  18.631  1.00  0.00     0.055 C 
BRANCH  30  32
HETATM   32  C30 UNL     1      -5.204  13.852  20.977  1.00  0.00     0.171 C 
HETATM   33  O3  UNL     1      -4.616  14.786  21.495  1.00  0.00    -0.646 OA
BRANCH  32  34
HETATM   34  O4  UNL     1      -6.050  13.088  21.683  1.00  0.00    -0.773 OA
HETATM   35  H44 UNL     1      -6.028  13.477  22.582  1.00  0.00     0.167 HD
ENDBRANCH  32  34
ENDBRANCH  30  32
ENDBRANCH  27  29
ENDBRANCH  26  27
ENDBRANCH  24  26
ENDBRANCH   1  24
TORSDOF 6
ENDMDL
MODEL 6
REMARK minimizedAffinity -8.17436409
REMARK CNNscore 0.417950451
REMARK CNNaffinity 6.75602102
REMARK  6 active torsions:
REMARK  status: ('A' for Active; 'I' for Inactive)
REMARK    1  A    between atoms: C2_2  and  C30_32 
REMARK    2  A    between atoms: C3_3  and  C4_4 
REMARK    3  A    between atoms: C4_4  and  C5_6 
REMARK    4  A    between atoms: C5_6  and  C6_7 
REMARK    5  A    between atoms: C6_7  and  C8_9 
REMARK    6  A    between atoms: C30_32  and  O4_34 
ROOT
HETATM    1  C8  UNL     1      -7.010   6.889  15.039  1.00  0.00    -0.001 C 
HETATM    2  C9  UNL     1      -6.596   5.762  16.034  1.00  0.00     0.007 C 
HETATM    3  C10 UNL     1      -5.076   5.564  15.908  1.00  0.00     0.015 C 
HETATM    4  C11 UNL     1      -4.698   6.285  14.599  1.00  0.00    -0.013 C 
HETATM    5  C12 UNL     1      -5.024   5.281  13.446  1.00  0.00     0.021 C 
HETATM    6  C13 UNL     1      -3.252   6.723  14.376  1.00  0.00    -0.070 C 
HETATM    7  C14 UNL     1      -2.237   6.287  15.138  1.00  0.00    -0.022 C 
HETATM    8  C15 UNL     1      -0.798   6.585  14.880  1.00  0.00     0.034 C 
HETATM    9  C16 UNL     1      -0.493   7.121  13.457  1.00  0.00     0.013 C 
HETATM   10  C17 UNL     1       1.012   7.568  13.298  1.00  0.00     0.018 C 
HETATM   11  C18 UNL     1       1.547   7.148  11.910  1.00  0.00     0.023 C 
HETATM   12  C19 UNL     1       1.974   6.945  14.331  1.00  0.00     0.023 C 
HETATM   13  C20 UNL     1       1.132   9.088  13.456  1.00  0.00     0.135 C 
HETATM   14  O2  UNL     1       2.064   9.724  12.961  1.00  0.00    -0.297 OA
HETATM   15  C21 UNL     1       0.120   9.779  14.340  1.00  0.00     0.080 C 
HETATM   16  C22 UNL     1      -1.332   9.459  13.986  1.00  0.00     0.017 C 
HETATM   17  C23 UNL     1      -1.540   8.229  13.061  1.00  0.00    -0.031 C 
HETATM   18  C24 UNL     1      -1.350   8.692  11.590  1.00  0.00     0.016 C 
HETATM   19  C25 UNL     1      -3.016   7.633  13.165  1.00  0.00     0.024 C 
HETATM   20  C26 UNL     1      -4.121   8.722  13.009  1.00  0.00     0.010 C 
HETATM   21  C27 UNL     1      -5.560   8.277  13.331  1.00  0.00     0.011 C 
HETATM   22  C28 UNL     1      -5.637   7.543  14.680  1.00  0.00    -0.029 C 
HETATM   23  C29 UNL     1      -5.223   8.531  15.815  1.00  0.00     0.016 C 
ENDROOT
BRANCH   1  24
HETATM   24  C6  UNL     1      -8.169   7.763  15.607  1.00  0.00    -0.007 C 
HETATM   25  C7  UNL     1      -8.220   9.155  14.966  1.00  0.00     0.011 C 
BRANCH  24  26
HETATM   26  C5  UNL     1      -9.530   7.058  15.388  1.00  0.00     0.087 C 
BRANCH  26  27
HETATM   27  C4  UNL     1      -9.835   6.758  13.927  1.00  0.00     0.150 C 
HETATM   28  O1  UNL     1      -9.191   5.951  13.265  1.00  0.00    -0.293 OA
BRANCH  27  29
HETATM   29  C3  UNL     1     -10.934   7.563  13.318  1.00  0.00     0.063 C 
HETATM   30  C2  UNL     1     -12.249   7.311  13.456  1.00  0.00     0.015 C 
HETATM   31  C1  UNL     1     -12.885   6.239  14.287  1.00  0.00     0.055 C 
BRANCH  30  32
HETATM   32  C30 UNL     1     -13.139   8.235  12.715  1.00  0.00     0.171 C 
HETATM   33  O3  UNL     1     -12.869   9.370  12.361  1.00  0.00    -0.646 OA
BRANCH  32  34
HETATM   34  O4  UNL     1     -14.331   7.687  12.433  1.00  0.00    -0.773 OA
HETATM   35  H44 UNL     1     -14.805   8.388  11.941  1.00  0.00     0.167 HD
ENDBRANCH  32  34
ENDBRANCH  30  32
ENDBRANCH  27  29
ENDBRANCH  26  27
ENDBRANCH  24  26
ENDBRANCH   1  24
TORSDOF 6
ENDMDL
MODEL 7
REMARK minimizedAffinity -9.1168251
REMARK CNNscore 0.392667025
REMARK CNNaffinity 6.84690237
REMARK  6 active torsions:
REMARK  status: ('A' for Active; 'I' for Inactive)
REMARK    1  A    between atoms: C2_2  and  C30_32 
REMARK    2  A    between atoms: C3_3  and  C4_4 
REMARK    3  A    between atoms: C4_4  and  C5_6 
REMARK    4  A    between atoms: C5_6  and  C6_7 
REMARK    5  A    between atoms: C6_7  and  C8_9 
REMARK    6  A    between atoms: C30_32  and  O4_34 
ROOT
HETATM    1  C8  UNL     1      -3.680   5.579  13.058  1.00  0.00    -0.001 C 
HETATM    2  C9  UNL     1      -2.276   4.977  13.370  1.00  0.00     0.007 C 
HETATM    3  C10 UNL     1      -1.490   6.023  14.179  1.00  0.00     0.015 C 
HETATM    4  C11 UNL     1      -2.283   7.332  13.994  1.00  0.00    -0.013 C 
HETATM    5  C12 UNL     1      -1.834   7.915  12.615  1.00  0.00     0.021 C 
HETATM    6  C13 UNL     1      -2.107   8.464  15.004  1.00  0.00    -0.070 C 
HETATM    7  C14 UNL     1      -1.106   8.487  15.899  1.00  0.00    -0.022 C 
HETATM    8  C15 UNL     1      -0.821   9.628  16.816  1.00  0.00     0.034 C 
HETATM    9  C16 UNL     1      -1.511  10.961  16.428  1.00  0.00     0.013 C 
HETATM   10  C17 UNL     1      -1.302  12.081  17.519  1.00  0.00     0.018 C 
HETATM   11  C18 UNL     1      -1.054  13.447  16.836  1.00  0.00     0.023 C 
HETATM   12  C19 UNL     1      -0.094  11.846  18.450  1.00  0.00     0.023 C 
HETATM   13  C20 UNL     1      -2.536  12.176  18.424  1.00  0.00     0.135 C 
HETATM   14  O2  UNL     1      -2.817  13.207  19.038  1.00  0.00    -0.297 OA
HETATM   15  C21 UNL     1      -3.347  10.918  18.631  1.00  0.00     0.080 C 
HETATM   16  C22 UNL     1      -3.772  10.235  17.331  1.00  0.00     0.017 C 
HETATM   17  C23 UNL     1      -3.019  10.699  16.054  1.00  0.00    -0.031 C 
HETATM   18  C24 UNL     1      -3.708  11.988  15.528  1.00  0.00     0.016 C 
HETATM   19  C25 UNL     1      -3.100   9.624  14.878  1.00  0.00     0.024 C 
HETATM   20  C26 UNL     1      -4.556   9.140  14.600  1.00  0.00     0.010 C 
HETATM   21  C27 UNL     1      -4.699   7.937  13.649  1.00  0.00     0.011 C 
HETATM   22  C28 UNL     1      -3.757   6.787  14.045  1.00  0.00    -0.029 C 
HETATM   23  C29 UNL     1      -4.159   6.273  15.462  1.00  0.00     0.016 C 
ENDROOT
BRANCH   1  24
HETATM   24  C6  UNL     1      -4.791   4.486  13.071  1.00  0.00    -0.007 C 
HETATM   25  C7  UNL     1      -6.144   5.032  13.546  1.00  0.00     0.011 C 
BRANCH  24  26
HETATM   26  C5  UNL     1      -4.963   3.877  11.657  1.00  0.00     0.087 C 
BRANCH  26  27
HETATM   27  C4  UNL     1      -4.847   2.359  11.627  1.00  0.00     0.150 C 
HETATM   28  O1  UNL     1      -5.822   1.617  11.685  1.00  0.00    -0.293 OA
BRANCH  27  29
HETATM   29  C3  UNL     1      -3.457   1.819  11.590  1.00  0.00     0.063 C 
HETATM   30  C2  UNL     1      -2.444   2.331  10.867  1.00  0.00     0.015 C 
HETATM   31  C1  UNL     1      -2.469   3.565  10.018  1.00  0.00     0.055 C 
BRANCH  30  32
HETATM   32  C30 UNL     1      -1.168   1.584  10.969  1.00  0.00     0.171 C 
HETATM   33  O3  UNL     1      -0.999   0.405  10.707  1.00  0.00    -0.646 OA
BRANCH  32  34
HETATM   34  O4  UNL     1      -0.152   2.354  11.384  1.00  0.00    -0.773 OA
HETATM   35  H44 UNL     1       0.618   1.748  11.395  1.00  0.00     0.167 HD
ENDBRANCH  32  34
ENDBRANCH  30  32
ENDBRANCH  27  29
ENDBRANCH  26  27
ENDBRANCH  24  26
ENDBRANCH   1  24
TORSDOF 6
ENDMDL
MODEL 8
REMARK minimizedAffinity -7.0337491
REMARK CNNscore 0.349987864
REMARK CNNaffinity 6.45731735
REMARK  6 active torsions:
REMARK  status: ('A' for Active; 'I' for Inactive)
REMARK    1  A    between atoms: C2_2  and  C30_32 
REMARK    2  A    between atoms: C3_3  and  C4_4 
REMARK    3  A    between atoms: C4_4  and  C5_6 
REMARK    4  A    between atoms: C5_6  and  C6_7 
REMARK    5  A    between atoms: C6_7  and  C8_9 
REMARK    6  A    between atoms: C30_32  and  O4_34 
ROOT
HETATM    1  C8  UNL     1      -1.305   9.809  16.614  1.00  0.00    -0.001 C 
HETATM    2  C9  UNL     1       0.025  10.549  16.952  1.00  0.00     0.007 C 
HETATM    3  C10 UNL     1       1.049  10.189  15.861  1.00  0.00     0.015 C 
HETATM    4  C11 UNL     1       0.436   8.970  15.142  1.00  0.00    -0.013 C 
HETATM    5  C12 UNL     1       0.789   7.729  16.024  1.00  0.00     0.021 C 
HETATM    6  C13 UNL     1       0.899   8.625  13.728  1.00  0.00    -0.070 C 
HETATM    7  C14 UNL     1       1.996   9.164  13.172  1.00  0.00    -0.022 C 
HETATM    8  C15 UNL     1       2.555   8.763  11.849  1.00  0.00     0.034 C 
HETATM    9  C16 UNL     1       2.021   7.414  11.301  1.00  0.00     0.013 C 
HETATM   10  C17 UNL     1       2.525   7.126   9.834  1.00  0.00     0.018 C 
HETATM   11  C18 UNL     1       2.880   5.628   9.680  1.00  0.00     0.023 C 
HETATM   12  C19 UNL     1       3.792   7.907   9.430  1.00  0.00     0.023 C 
HETATM   13  C20 UNL     1       1.440   7.503   8.818  1.00  0.00     0.135 C 
HETATM   14  O2  UNL     1       1.389   6.992   7.698  1.00  0.00    -0.297 OA
HETATM   15  C21 UNL     1       0.488   8.613   9.196  1.00  0.00     0.080 C 
HETATM   16  C22 UNL     1      -0.190   8.414  10.551  1.00  0.00     0.017 C 
HETATM   17  C23 UNL     1       0.457   7.343  11.472  1.00  0.00    -0.031 C 
HETATM   18  C24 UNL     1      -0.098   5.952  11.060  1.00  0.00     0.016 C 
HETATM   19  C25 UNL     1       0.076   7.552  13.006  1.00  0.00     0.024 C 
HETATM   20  C26 UNL     1      -1.458   7.721  13.231  1.00  0.00     0.010 C 
HETATM   21  C27 UNL     1      -1.891   8.160  14.642  1.00  0.00     0.011 C 
HETATM   22  C28 UNL     1      -1.083   9.375  15.130  1.00  0.00    -0.029 C 
HETATM   23  C29 UNL     1      -1.376  10.584  14.188  1.00  0.00     0.016 C 
ENDROOT
BRANCH   1  24
HETATM   24  C6  UNL     1      -2.552  10.660  17.002  1.00  0.00    -0.007 C 
HETATM   25  C7  UNL     1      -3.356  10.031  18.147  1.00  0.00     0.011 C 
BRANCH  24  26
HETATM   26  C5  UNL     1      -2.120  12.088  17.417  1.00  0.00     0.087 C 
BRANCH  26  27
HETATM   27  C4  UNL     1      -2.996  13.187  16.832  1.00  0.00     0.150 C 
HETATM   28  O1  UNL     1      -4.144  13.396  17.213  1.00  0.00    -0.293 OA
BRANCH  27  29
HETATM   29  C3  UNL     1      -2.396  13.961  15.706  1.00  0.00     0.063 C 
HETATM   30  C2  UNL     1      -3.081  14.487  14.674  1.00  0.00     0.015 C 
HETATM   31  C1  UNL     1      -4.566  14.474  14.469  1.00  0.00     0.055 C 
BRANCH  30  32
HETATM   32  C30 UNL     1      -2.247  15.175  13.662  1.00  0.00     0.171 C 
HETATM   33  O3  UNL     1      -1.869  14.710  12.600  1.00  0.00    -0.646 OA
BRANCH  32  34
HETATM   34  O4  UNL     1      -1.933  16.430  14.019  1.00  0.00    -0.773 OA
HETATM   35  H44 UNL     1      -1.401  16.765  13.268  1.00  0.00     0.167 HD
ENDBRANCH  32  34
ENDBRANCH  30  32
ENDBRANCH  27  29
ENDBRANCH  26  27
ENDBRANCH  24  26
ENDBRANCH   1  24
TORSDOF 6
ENDMDL
MODEL 9
REMARK minimizedAffinity -8.51176548
REMARK CNNscore 0.341517121
REMARK CNNaffinity 6.74634171
REMARK  6 active torsions:
REMARK  status: ('A' for Active; 'I' for Inactive)
REMARK    1  A    between atoms: C2_2  and  C30_32 
REMARK    2  A    between atoms: C3_3  and  C4_4 
REMARK    3  A    between atoms: C4_4  and  C5_6 
REMARK    4  A    between atoms: C5_6  and  C6_7 
REMARK    5  A    between atoms: C6_7  and  C8_9 
REMARK    6  A    between atoms: C30_32  and  O4_34 
ROOT
HETATM    1  C8  UNL     1      -5.505   7.121  14.924  1.00  0.00    -0.001 C 
HETATM    2  C9  UNL     1      -5.894   8.338  14.031  1.00  0.00     0.007 C 
HETATM    3  C10 UNL     1      -4.640   8.758  13.245  1.00  0.00     0.015 C 
HETATM    4  C11 UNL     1      -3.475   8.047  13.963  1.00  0.00    -0.013 C 
HETATM    5  C12 UNL     1      -3.122   8.940  15.196  1.00  0.00     0.021 C 
HETATM    6  C13 UNL     1      -2.161   7.823  13.217  1.00  0.00    -0.070 C 
HETATM    7  C14 UNL     1      -1.869   8.440  12.061  1.00  0.00    -0.022 C 
HETATM    8  C15 UNL     1      -0.553   8.352  11.366  1.00  0.00     0.034 C 
HETATM    9  C16 UNL     1       0.607   7.808  12.241  1.00  0.00     0.013 C 
HETATM   10  C17 UNL     1       1.929   7.587  11.409  1.00  0.00     0.018 C 
HETATM   11  C18 UNL     1       3.158   8.024  12.239  1.00  0.00     0.023 C 
HETATM   12  C19 UNL     1       1.996   8.392  10.094  1.00  0.00     0.023 C 
HETATM   13  C20 UNL     1       2.069   6.110  11.020  1.00  0.00     0.135 C 
HETATM   14  O2  UNL     1       3.164   5.602  10.774  1.00  0.00    -0.297 OA
HETATM   15  C21 UNL     1       0.799   5.313  10.841  1.00  0.00     0.080 C 
HETATM   16  C22 UNL     1      -0.157   5.394  12.031  1.00  0.00     0.017 C 
HETATM   17  C23 UNL     1       0.129   6.539  13.042  1.00  0.00    -0.031 C 
HETATM   18  C24 UNL     1       1.220   6.047  14.033  1.00  0.00     0.016 C 
HETATM   19  C25 UNL     1      -1.151   6.909  13.919  1.00  0.00     0.024 C 
HETATM   20  C26 UNL     1      -1.822   5.660  14.567  1.00  0.00     0.010 C 
HETATM   21  C27 UNL     1      -3.191   5.895  15.231  1.00  0.00     0.011 C 
HETATM   22  C28 UNL     1      -4.145   6.666  14.304  1.00  0.00    -0.029 C 
HETATM   23  C29 UNL     1      -4.420   5.802  13.034  1.00  0.00     0.016 C 
ENDROOT
BRANCH   1  24
HETATM   24  C6  UNL     1      -6.681   6.106  15.059  1.00  0.00    -0.007 C 
HETATM   25  C7  UNL     1      -6.897   5.650  16.508  1.00  0.00     0.011 C 
BRANCH  24  26
HETATM   26  C5  UNL     1      -7.994   6.734  14.529  1.00  0.00     0.087 C 
BRANCH  26  27
HETATM   27  C4  UNL     1      -8.632   5.949  13.391  1.00  0.00     0.150 C 
HETATM   28  O1  UNL     1      -8.061   5.025  12.820  1.00  0.00    -0.293 OA
BRANCH  27  29
HETATM   29  C3  UNL     1      -9.981   6.418  12.958  1.00  0.00     0.063 C 
HETATM   30  C2  UNL     1     -10.661   7.440  13.510  1.00  0.00     0.015 C 
HETATM   31  C1  UNL     1     -10.196   8.353  14.603  1.00  0.00     0.055 C 
BRANCH  30  32
HETATM   32  C30 UNL     1     -12.001   7.680  12.927  1.00  0.00     0.171 C 
HETATM   33  O3  UNL     1     -12.982   6.967  13.053  1.00  0.00    -0.646 OA
BRANCH  32  34
HETATM   34  O4  UNL     1     -12.058   8.818  12.219  1.00  0.00    -0.773 OA
HETATM   35  H44 UNL     1     -12.986   8.858  11.907  1.00  0.00     0.167 HD
ENDBRANCH  32  34
ENDBRANCH  30  32
ENDBRANCH  27  29
ENDBRANCH  26  27
ENDBRANCH  24  26
ENDBRANCH   1  24
TORSDOF 6
ENDMDL
