MODEL 1
REMARK minimizedAffinity -9.86953259
REMARK  7 active torsions:
REMARK  status: ('A' for Active; 'I' for Inactive)
REMARK    1  A    between atoms: C2_2  and  C4_4 
REMARK    2  A    between atoms: C7_7  and  O1_9 
REMARK    3  A    between atoms: C9_10  and  C10_11 
REMARK    4  A    between atoms: C11_12  and  C12_13 
REMARK    5  A    between atoms: C14_15  and  C15_16 
REMARK    6  A    between atoms: C24_26  and  C26_28 
REMARK    7  A    between atoms: C29_32  and  O4_34 
ROOT
HETATM    1  C15 UNL     1      -2.456  50.657 -27.412  1.00  0.00     0.149 C 
HETATM    2  C16 UNL     1      -1.832  50.096 -26.135  1.00  0.00     0.054 C 
HETATM    3  C17 UNL     1      -1.537  51.333 -25.261  1.00  0.00     0.050 C 
HETATM    4  C18 UNL     1      -2.782  52.167 -25.662  1.00  0.00     0.272 C 
HETATM    5  O2  UNL     1      -3.984  51.780 -25.003  1.00  0.00    -0.360 OA
HETATM    6  C19 UNL     1      -4.197  52.428 -23.766  1.00  0.00     0.171 C 
HETATM    7  C20 UNL     1      -3.657  51.599 -22.614  1.00  0.00     0.027 C 
HETATM    8  C21 UNL     1      -2.695  50.485 -23.021  1.00  0.00     0.012 C 
HETATM    9  C22 UNL     1      -1.400  50.923 -23.743  1.00  0.00     0.032 C 
HETATM   10  C23 UNL     1      -0.595  51.928 -22.891  1.00  0.00    -0.066 C 
HETATM   11  C24 UNL     1       0.078  51.615 -21.755  1.00  0.00    -0.021 C 
HETATM   12  C25 UNL     1       0.846  52.600 -20.919  1.00  0.00     0.052 C 
HETATM   13  C27 UNL     1      -0.571  53.324 -23.463  1.00  0.00     0.038 C 
HETATM   14  C28 UNL     1       0.017  53.358 -24.871  1.00  0.00     0.042 C 
HETATM   15  C29 UNL     1      -0.197  52.065 -25.697  1.00  0.00     0.067 C 
HETATM   16  C30 UNL     1       1.057  51.168 -25.589  1.00  0.00     0.047 C 
HETATM   17  O5  UNL     1      -3.017  51.925 -27.059  1.00  0.00    -0.351 OA
ENDROOT
BRANCH   1  18
HETATM   18  C14 UNL     1      -3.494  49.740 -28.011  1.00  0.00     0.011 C 
HETATM   19  C12 UNL     1      -4.139  48.704 -27.431  1.00  0.00    -0.064 C 
HETATM   20  C13 UNL     1      -3.966  48.332 -25.980  1.00  0.00     0.048 C 
BRANCH  19  21
HETATM   21  C11 UNL     1      -5.080  47.923 -28.240  1.00  0.00     0.003 C 
HETATM   22  C10 UNL     1      -5.641  48.309 -29.398  1.00  0.00    -0.018 C 
BRANCH  22  23
HETATM   23  C9  UNL     1      -6.631  47.556 -30.279  1.00  0.00     0.050 C 
HETATM   24  C4  UNL     1      -7.398  48.397 -31.344  1.00  0.00     0.024 C 
HETATM   25  C5  UNL     1      -8.617  48.908 -30.559  1.00  0.00     0.013 C 
HETATM   26  C6  UNL     1      -8.980  47.818 -29.552  1.00  0.00     0.039 C 
HETATM   27  C7  UNL     1      -7.778  46.859 -29.483  1.00  0.00     0.062 C 
HETATM   28  C8  UNL     1      -7.452  46.457 -28.044  1.00  0.00     0.046 C 
BRANCH  24  29
HETATM   29  C2  UNL     1      -7.691  47.628 -32.637  1.00  0.00    -0.088 C 
HETATM   30  C1  UNL     1      -8.914  47.317 -33.098  1.00  0.00     0.014 C 
HETATM   31  C3  UNL     1      -6.471  47.244 -33.438  1.00  0.00     0.043 C 
ENDBRANCH  24  29
BRANCH  27  32
HETATM   32  O1  UNL     1      -8.119  45.641 -30.165  1.00  0.00    -0.390 OA
HETATM   33  H14 UNL     1      -8.902  45.263 -29.734  1.00  0.00     0.210 HD
ENDBRANCH  27  32
ENDBRANCH  22  23
ENDBRANCH  19  21
ENDBRANCH   1  18
BRANCH  15  34
HETATM   34  O4  UNL     1      -0.241  52.468 -27.070  1.00  0.00    -0.389 OA
HETATM   35  H44 UNL     1       0.585  52.935 -27.287  1.00  0.00     0.210 HD
ENDBRANCH  15  34
BRANCH  11  36
HETATM   36  C26 UNL     1       0.127  50.226 -21.204  1.00  0.00     0.265 C 
HETATM   37  O3  UNL     1      -0.526  49.849 -20.239  1.00  0.00    -0.302 OA
ENDBRANCH  11  36
TORSDOF 7
ENDMDL
MODEL 2
REMARK minimizedAffinity -9.82518959
REMARK  7 active torsions:
REMARK  status: ('A' for Active; 'I' for Inactive)
REMARK    1  A    between atoms: C2_2  and  C4_4 
REMARK    2  A    between atoms: C7_7  and  O1_9 
REMARK    3  A    between atoms: C9_10  and  C10_11 
REMARK    4  A    between atoms: C11_12  and  C12_13 
REMARK    5  A    between atoms: C14_15  and  C15_16 
REMARK    6  A    between atoms: C24_26  and  C26_28 
REMARK    7  A    between atoms: C29_32  and  O4_34 
ROOT
HETATM    1  C15 UNL     1      -2.632  50.361 -27.546  1.00  0.00     0.149 C 
HETATM    2  C16 UNL     1      -1.954  49.934 -26.245  1.00  0.00     0.054 C 
HETATM    3  C17 UNL     1      -1.598  51.256 -25.532  1.00  0.00     0.050 C 
HETATM    4  C18 UNL     1      -2.848  52.065 -25.966  1.00  0.00     0.272 C 
HETATM    5  O2  UNL     1      -4.022  51.779 -25.211  1.00  0.00    -0.360 OA
HETATM    6  C19 UNL     1      -4.163  52.566 -24.046  1.00  0.00     0.171 C 
HETATM    7  C20 UNL     1      -3.579  51.861 -22.835  1.00  0.00     0.027 C 
HETATM    8  C21 UNL     1      -2.656  50.690 -23.158  1.00  0.00     0.012 C 
HETATM    9  C22 UNL     1      -1.392  51.016 -23.986  1.00  0.00     0.032 C 
HETATM   10  C23 UNL     1      -0.530  52.095 -23.293  1.00  0.00    -0.066 C 
HETATM   11  C24 UNL     1       0.194  51.898 -22.162  1.00  0.00    -0.021 C 
HETATM   12  C25 UNL     1       1.017  52.955 -21.481  1.00  0.00     0.052 C 
HETATM   13  C27 UNL     1      -0.514  53.416 -24.020  1.00  0.00     0.038 C 
HETATM   14  C28 UNL     1       0.005  53.279 -25.449  1.00  0.00     0.042 C 
HETATM   15  C29 UNL     1      -0.270  51.906 -26.112  1.00  0.00     0.067 C 
HETATM   16  C30 UNL     1       0.974  51.001 -25.963  1.00  0.00     0.047 C 
HETATM   17  O5  UNL     1      -3.156  51.671 -27.313  1.00  0.00    -0.351 OA
ENDROOT
BRANCH   1  18
HETATM   18  C14 UNL     1      -3.712  49.403 -27.988  1.00  0.00     0.011 C 
HETATM   19  C12 UNL     1      -4.461  48.570 -27.232  1.00  0.00    -0.064 C 
HETATM   20  C13 UNL     1      -4.378  48.523 -25.727  1.00  0.00     0.048 C 
BRANCH  19  21
HETATM   21  C11 UNL     1      -5.424  47.691 -27.901  1.00  0.00     0.003 C 
HETATM   22  C10 UNL     1      -5.871  47.819 -29.161  1.00  0.00    -0.018 C 
BRANCH  22  23
HETATM   23  C9  UNL     1      -6.877  46.953 -29.912  1.00  0.00     0.050 C 
HETATM   24  C4  UNL     1      -6.448  46.446 -31.321  1.00  0.00     0.024 C 
HETATM   25  C5  UNL     1      -6.880  47.597 -32.243  1.00  0.00     0.013 C 
HETATM   26  C6  UNL     1      -8.145  48.198 -31.632  1.00  0.00     0.039 C 
HETATM   27  C7  UNL     1      -8.237  47.667 -30.190  1.00  0.00     0.062 C 
HETATM   28  C8  UNL     1      -8.638  48.764 -29.203  1.00  0.00     0.046 C 
BRANCH  24  29
HETATM   29  C2  UNL     1      -6.991  45.055 -31.664  1.00  0.00    -0.088 C 
HETATM   30  C1  UNL     1      -7.474  44.679 -32.861  1.00  0.00     0.014 C 
HETATM   31  C3  UNL     1      -6.922  44.051 -30.538  1.00  0.00     0.043 C 
ENDBRANCH  24  29
BRANCH  27  32
HETATM   32  O1  UNL     1      -9.279  46.680 -30.127  1.00  0.00    -0.390 OA
HETATM   33  H14 UNL     1     -10.110  47.100 -30.406  1.00  0.00     0.210 HD
ENDBRANCH  27  32
ENDBRANCH  22  23
ENDBRANCH  19  21
ENDBRANCH   1  18
BRANCH  15  34
HETATM   34  O4  UNL     1      -0.376  52.152 -27.519  1.00  0.00    -0.389 OA
HETATM   35  H44 UNL     1       0.445  52.575 -27.827  1.00  0.00     0.210 HD
ENDBRANCH  15  34
BRANCH  11  36
HETATM   36  C26 UNL     1       0.249  50.579 -21.460  1.00  0.00     0.265 C 
HETATM   37  O3  UNL     1      -0.352  50.331 -20.423  1.00  0.00    -0.302 OA
ENDBRANCH  11  36
TORSDOF 7
ENDMDL
MODEL 3
REMARK minimizedAffinity -9.74007034
REMARK  7 active torsions:
REMARK  status: ('A' for Active; 'I' for Inactive)
REMARK    1  A    between atoms: C2_2  and  C4_4 
REMARK    2  A    between atoms: C7_7  and  O1_9 
REMARK    3  A    between atoms: C9_10  and  C10_11 
REMARK    4  A    between atoms: C11_12  and  C12_13 
REMARK    5  A    between atoms: C14_15  and  C15_16 
REMARK    6  A    between atoms: C24_26  and  C26_28 
REMARK    7  A    between atoms: C29_32  and  O4_34 
ROOT
HETATM    1  C15 UNL     1      -2.680  50.342 -27.582  1.00  0.00     0.149 C 
HETATM    2  C16 UNL     1      -2.025  49.896 -26.276  1.00  0.00     0.054 C 
HETATM    3  C17 UNL     1      -1.614  51.206 -25.571  1.00  0.00     0.050 C 
HETATM    4  C18 UNL     1      -2.827  52.065 -26.015  1.00  0.00     0.272 C 
HETATM    5  O2  UNL     1      -4.014  51.835 -25.261  1.00  0.00    -0.360 OA
HETATM    6  C19 UNL     1      -4.125  52.636 -24.103  1.00  0.00     0.171 C 
HETATM    7  C20 UNL     1      -3.575  51.915 -22.885  1.00  0.00     0.027 C 
HETATM    8  C21 UNL     1      -2.702  50.703 -23.197  1.00  0.00     0.012 C 
HETATM    9  C22 UNL     1      -1.423  50.969 -24.023  1.00  0.00     0.032 C 
HETATM   10  C23 UNL     1      -0.517  52.014 -23.335  1.00  0.00    -0.066 C 
HETATM   11  C24 UNL     1       0.194  51.794 -22.200  1.00  0.00    -0.021 C 
HETATM   12  C25 UNL     1       1.060  52.820 -21.524  1.00  0.00     0.052 C 
HETATM   13  C27 UNL     1      -0.442  53.328 -24.071  1.00  0.00     0.038 C 
HETATM   14  C28 UNL     1       0.074  53.159 -25.497  1.00  0.00     0.042 C 
HETATM   15  C29 UNL     1      -0.257  51.795 -26.151  1.00  0.00     0.067 C 
HETATM   16  C30 UNL     1       0.946  50.838 -25.992  1.00  0.00     0.047 C 
HETATM   17  O5  UNL     1      -3.148  51.675 -27.360  1.00  0.00    -0.351 OA
ENDROOT
BRANCH   1  18
HETATM   18  C14 UNL     1      -3.799  49.428 -28.020  1.00  0.00     0.011 C 
HETATM   19  C12 UNL     1      -4.514  48.555 -27.277  1.00  0.00    -0.064 C 
HETATM   20  C13 UNL     1      -4.344  48.407 -25.787  1.00  0.00     0.048 C 
BRANCH  19  21
HETATM   21  C11 UNL     1      -5.529  47.734 -27.944  1.00  0.00     0.003 C 
HETATM   22  C10 UNL     1      -6.134  48.014 -29.111  1.00  0.00    -0.018 C 
BRANCH  22  23
HETATM   23  C9  UNL     1      -7.201  47.215 -29.851  1.00  0.00     0.050 C 
HETATM   24  C4  UNL     1      -8.179  46.377 -28.974  1.00  0.00     0.024 C 
HETATM   25  C5  UNL     1      -7.426  45.048 -28.801  1.00  0.00     0.013 C 
HETATM   26  C6  UNL     1      -6.637  44.819 -30.090  1.00  0.00     0.039 C 
HETATM   27  C7  UNL     1      -6.622  46.160 -30.844  1.00  0.00     0.062 C 
HETATM   28  C8  UNL     1      -5.242  46.470 -31.428  1.00  0.00     0.046 C 
BRANCH  24  29
HETATM   29  C2  UNL     1      -9.597  46.290 -29.549  1.00  0.00    -0.088 C 
HETATM   30  C1  UNL     1     -10.364  45.186 -29.568  1.00  0.00     0.014 C 
HETATM   31  C3  UNL     1     -10.142  47.588 -30.094  1.00  0.00     0.043 C 
ENDBRANCH  24  29
BRANCH  27  32
HETATM   32  O1  UNL     1      -7.513  46.069 -31.967  1.00  0.00    -0.390 OA
HETATM   33  H14 UNL     1      -7.213  45.338 -32.532  1.00  0.00     0.210 HD
ENDBRANCH  27  32
ENDBRANCH  22  23
ENDBRANCH  19  21
ENDBRANCH   1  18
BRANCH  15  34
HETATM   34  O4  UNL     1      -0.349  52.035 -27.560  1.00  0.00    -0.389 OA
HETATM   35  H44 UNL     1       0.490  52.420 -27.868  1.00  0.00     0.210 HD
ENDBRANCH  15  34
BRANCH  11  36
HETATM   36  C26 UNL     1       0.190  50.479 -21.488  1.00  0.00     0.265 C 
HETATM   37  O3  UNL     1      -0.374  50.281 -20.421  1.00  0.00    -0.302 OA
ENDBRANCH  11  36
TORSDOF 7
ENDMDL
MODEL 4
REMARK minimizedAffinity -9.32591438
REMARK  7 active torsions:
REMARK  status: ('A' for Active; 'I' for Inactive)
REMARK    1  A    between atoms: C2_2  and  C4_4 
REMARK    2  A    between atoms: C7_7  and  O1_9 
REMARK    3  A    between atoms: C9_10  and  C10_11 
REMARK    4  A    between atoms: C11_12  and  C12_13 
REMARK    5  A    between atoms: C14_15  and  C15_16 
REMARK    6  A    between atoms: C24_26  and  C26_28 
REMARK    7  A    between atoms: C29_32  and  O4_34 
ROOT
HETATM    1  C15 UNL     1      -6.050  47.355 -28.075  1.00  0.00     0.149 C 
HETATM    2  C16 UNL     1      -6.110  46.564 -29.382  1.00  0.00     0.054 C 
HETATM    3  C17 UNL     1      -7.614  46.445 -29.704  1.00  0.00     0.050 C 
HETATM    4  C18 UNL     1      -8.045  47.842 -29.183  1.00  0.00     0.272 C 
HETATM    5  O2  UNL     1      -7.766  48.913 -30.080  1.00  0.00    -0.360 OA
HETATM    6  C19 UNL     1      -8.797  49.164 -31.014  1.00  0.00     0.171 C 
HETATM    7  C20 UNL     1      -8.553  48.415 -32.312  1.00  0.00     0.027 C 
HETATM    8  C21 UNL     1      -7.520  47.295 -32.222  1.00  0.00     0.012 C 
HETATM    9  C22 UNL     1      -7.834  46.146 -31.237  1.00  0.00     0.032 C 
HETATM   10  C23 UNL     1      -9.192  45.485 -31.560  1.00  0.00    -0.066 C 
HETATM   11  C24 UNL     1      -9.433  44.699 -32.640  1.00  0.00    -0.021 C 
HETATM   12  C25 UNL     1     -10.762  44.073 -32.960  1.00  0.00     0.052 C 
HETATM   13  C27 UNL     1     -10.255  45.747 -30.522  1.00  0.00     0.038 C 
HETATM   14  C28 UNL     1      -9.838  45.260 -29.137  1.00  0.00     0.042 C 
HETATM   15  C29 UNL     1      -8.313  45.287 -28.870  1.00  0.00     0.067 C 
HETATM   16  C30 UNL     1      -7.714  43.888 -29.141  1.00  0.00     0.047 C 
HETATM   17  O5  UNL     1      -7.260  48.113 -28.010  1.00  0.00    -0.351 OA
ENDROOT
BRANCH   1  18
HETATM   18  C14 UNL     1      -4.833  48.244 -27.982  1.00  0.00     0.011 C 
HETATM   19  C12 UNL     1      -4.251  48.764 -26.879  1.00  0.00    -0.064 C 
HETATM   20  C13 UNL     1      -4.711  48.451 -25.478  1.00  0.00     0.048 C 
BRANCH  19  21
HETATM   21  C11 UNL     1      -3.094  49.648 -27.048  1.00  0.00     0.003 C 
HETATM   22  C10 UNL     1      -2.901  50.826 -26.433  1.00  0.00    -0.018 C 
BRANCH  22  23
HETATM   23  C9  UNL     1      -1.733  51.797 -26.571  1.00  0.00     0.050 C 
HETATM   24  C4  UNL     1      -0.391  51.205 -27.096  1.00  0.00     0.024 C 
HETATM   25  C5  UNL     1       0.287  50.708 -25.810  1.00  0.00     0.013 C 
HETATM   26  C6  UNL     1      -0.127  51.667 -24.694  1.00  0.00     0.039 C 
HETATM   27  C7  UNL     1      -1.320  52.479 -25.229  1.00  0.00     0.062 C 
HETATM   28  C8  UNL     1      -2.424  52.628 -24.181  1.00  0.00     0.046 C 
BRANCH  24  29
HETATM   29  C2  UNL     1       0.414  52.183 -27.959  1.00  0.00    -0.088 C 
HETATM   30  C1  UNL     1      -0.080  53.277 -28.564  1.00  0.00     0.014 C 
HETATM   31  C3  UNL     1       1.885  51.865 -28.076  1.00  0.00     0.043 C 
ENDBRANCH  24  29
BRANCH  27  32
HETATM   32  O1  UNL     1      -0.875  53.813 -25.526  1.00  0.00    -0.390 OA
HETATM   33  H14 UNL     1      -0.516  54.200 -24.709  1.00  0.00     0.210 HD
ENDBRANCH  27  32
ENDBRANCH  22  23
ENDBRANCH  19  21
ENDBRANCH   1  18
BRANCH  15  34
HETATM   34  O4  UNL     1      -8.155  45.486 -27.460  1.00  0.00    -0.389 OA
HETATM   35  H44 UNL     1      -8.619  44.772 -26.989  1.00  0.00     0.210 HD
ENDBRANCH  15  34
BRANCH  11  36
HETATM   36  C26 UNL     1      -8.379  44.368 -33.647  1.00  0.00     0.265 C 
HETATM   37  O3  UNL     1      -8.614  44.074 -34.812  1.00  0.00    -0.302 OA
ENDBRANCH  11  36
TORSDOF 7
ENDMDL
MODEL 5
REMARK minimizedAffinity -9.16287422
REMARK  7 active torsions:
REMARK  status: ('A' for Active; 'I' for Inactive)
REMARK    1  A    between atoms: C2_2  and  C4_4 
REMARK    2  A    between atoms: C7_7  and  O1_9 
REMARK    3  A    between atoms: C9_10  and  C10_11 
REMARK    4  A    between atoms: C11_12  and  C12_13 
REMARK    5  A    between atoms: C14_15  and  C15_16 
REMARK    6  A    between atoms: C24_26  and  C26_28 
REMARK    7  A    between atoms: C29_32  and  O4_34 
ROOT
HETATM    1  C15 UNL     1      -2.614  50.892 -26.984  1.00  0.00     0.149 C 
HETATM    2  C16 UNL     1      -2.015  50.003 -25.895  1.00  0.00     0.054 C 
HETATM    3  C17 UNL     1      -2.006  50.881 -24.626  1.00  0.00     0.050 C 
HETATM    4  C18 UNL     1      -3.335  51.636 -24.893  1.00  0.00     0.272 C 
HETATM    5  O2  UNL     1      -4.506  50.890 -24.572  1.00  0.00    -0.360 OA
HETATM    6  C19 UNL     1      -4.928  51.030 -23.231  1.00  0.00     0.171 C 
HETATM    7  C20 UNL     1      -4.355  49.926 -22.360  1.00  0.00     0.027 C 
HETATM    8  C21 UNL     1      -3.189  49.160 -22.979  1.00  0.00     0.012 C 
HETATM    9  C22 UNL     1      -1.930  49.986 -23.329  1.00  0.00     0.032 C 
HETATM   10  C23 UNL     1      -1.380  50.723 -22.089  1.00  0.00    -0.066 C 
HETATM   11  C24 UNL     1      -0.762  50.120 -21.041  1.00  0.00    -0.021 C 
HETATM   12  C25 UNL     1      -0.243  50.840 -19.828  1.00  0.00     0.052 C 
HETATM   13  C27 UNL     1      -1.543  52.221 -22.152  1.00  0.00     0.038 C 
HETATM   14  C28 UNL     1      -0.853  52.823 -23.373  1.00  0.00     0.042 C 
HETATM   15  C29 UNL     1      -0.776  51.886 -24.605  1.00  0.00     0.067 C 
HETATM   16  C30 UNL     1       0.597  51.177 -24.632  1.00  0.00     0.047 C 
HETATM   17  O5  UNL     1      -3.408  51.870 -26.308  1.00  0.00    -0.351 OA
ENDROOT
BRANCH   1  18
HETATM   18  C14 UNL     1      -3.429  50.117 -27.992  1.00  0.00     0.011 C 
HETATM   19  C12 UNL     1      -4.148  48.988 -27.806  1.00  0.00    -0.064 C 
HETATM   20  C13 UNL     1      -4.318  48.331 -26.460  1.00  0.00     0.048 C 
BRANCH  19  21
HETATM   21  C11 UNL     1      -4.823  48.389 -28.961  1.00  0.00     0.003 C 
HETATM   22  C10 UNL     1      -6.122  48.052 -29.033  1.00  0.00    -0.018 C 
BRANCH  22  23
HETATM   23  C9  UNL     1      -6.882  47.418 -30.192  1.00  0.00     0.050 C 
HETATM   24  C4  UNL     1      -7.243  48.352 -31.386  1.00  0.00     0.024 C 
HETATM   25  C5  UNL     1      -8.586  48.958 -30.949  1.00  0.00     0.013 C 
HETATM   26  C6  UNL     1      -9.310  47.884 -30.138  1.00  0.00     0.039 C 
HETATM   27  C7  UNL     1      -8.263  46.814 -29.783  1.00  0.00     0.062 C 
HETATM   28  C8  UNL     1      -8.392  46.349 -28.332  1.00  0.00     0.046 C 
BRANCH  24  29
HETATM   29  C2  UNL     1      -7.222  47.644 -32.745  1.00  0.00    -0.088 C 
HETATM   30  C1  UNL     1      -8.226  47.642 -33.638  1.00  0.00     0.014 C 
HETATM   31  C3  UNL     1      -5.929  46.938 -33.074  1.00  0.00     0.043 C 
ENDBRANCH  24  29
BRANCH  27  32
HETATM   32  O1  UNL     1      -8.498  45.651 -30.593  1.00  0.00    -0.390 OA
HETATM   33  H14 UNL     1      -9.401  45.338 -30.416  1.00  0.00     0.210 HD
ENDBRANCH  27  32
ENDBRANCH  22  23
ENDBRANCH  19  21
ENDBRANCH   1  18
BRANCH  15  34
HETATM   34  O4  UNL     1      -0.772  52.736 -25.757  1.00  0.00    -0.389 OA
HETATM   35  H44 UNL     1      -0.022  53.352 -25.691  1.00  0.00     0.210 HD
ENDBRANCH  15  34
BRANCH  11  36
HETATM   36  C26 UNL     1      -0.527  48.645 -20.985  1.00  0.00     0.265 C 
HETATM   37  O3  UNL     1      -1.193  47.871 -20.310  1.00  0.00    -0.302 OA
ENDBRANCH  11  36
TORSDOF 7
ENDMDL
MODEL 6
REMARK minimizedAffinity -9.0864315
REMARK  7 active torsions:
REMARK  status: ('A' for Active; 'I' for Inactive)
REMARK    1  A    between atoms: C2_2  and  C4_4 
REMARK    2  A    between atoms: C7_7  and  O1_9 
REMARK    3  A    between atoms: C9_10  and  C10_11 
REMARK    4  A    between atoms: C11_12  and  C12_13 
REMARK    5  A    between atoms: C14_15  and  C15_16 
REMARK    6  A    between atoms: C24_26  and  C26_28 
REMARK    7  A    between atoms: C29_32  and  O4_34 
ROOT
HETATM    1  C15 UNL     1      -6.346  47.805 -28.640  1.00  0.00     0.149 C 
HETATM    2  C16 UNL     1      -6.288  46.385 -29.200  1.00  0.00     0.054 C 
HETATM    3  C17 UNL     1      -6.890  46.492 -30.617  1.00  0.00     0.050 C 
HETATM    4  C18 UNL     1      -6.326  47.893 -30.972  1.00  0.00     0.272 C 
HETATM    5  O2  UNL     1      -4.958  47.889 -31.372  1.00  0.00    -0.360 OA
HETATM    6  C19 UNL     1      -4.764  47.679 -32.756  1.00  0.00     0.171 C 
HETATM    7  C20 UNL     1      -4.543  46.208 -33.061  1.00  0.00     0.027 C 
HETATM    8  C21 UNL     1      -4.944  45.253 -31.940  1.00  0.00     0.012 C 
HETATM    9  C22 UNL     1      -6.429  45.277 -31.512  1.00  0.00     0.032 C 
HETATM   10  C23 UNL     1      -7.362  44.989 -32.708  1.00  0.00    -0.066 C 
HETATM   11  C24 UNL     1      -7.497  43.780 -33.311  1.00  0.00    -0.021 C 
HETATM   12  C25 UNL     1      -8.394  43.508 -34.486  1.00  0.00     0.052 C 
HETATM   13  C27 UNL     1      -8.177  46.182 -33.142  1.00  0.00     0.038 C 
HETATM   14  C28 UNL     1      -9.051  46.722 -32.013  1.00  0.00     0.042 C 
HETATM   15  C29 UNL     1      -8.479  46.510 -30.589  1.00  0.00     0.067 C 
HETATM   16  C30 UNL     1      -9.096  45.237 -29.967  1.00  0.00     0.047 C 
HETATM   17  O5  UNL     1      -6.369  48.680 -29.771  1.00  0.00    -0.351 OA
ENDROOT
BRANCH   1  18
HETATM   18  C14 UNL     1      -5.192  48.121 -27.719  1.00  0.00     0.011 C 
HETATM   19  C12 UNL     1      -5.179  48.170 -26.369  1.00  0.00    -0.064 C 
HETATM   20  C13 UNL     1      -6.375  47.818 -25.520  1.00  0.00     0.048 C 
BRANCH  19  21
HETATM   21  C11 UNL     1      -3.936  48.550 -25.693  1.00  0.00     0.003 C 
HETATM   22  C10 UNL     1      -3.495  49.803 -25.489  1.00  0.00    -0.018 C 
BRANCH  22  23
HETATM   23  C9  UNL     1      -2.212  50.267 -24.809  1.00  0.00     0.050 C 
HETATM   24  C4  UNL     1      -2.376  51.093 -23.498  1.00  0.00     0.024 C 
HETATM   25  C5  UNL     1      -2.519  52.532 -24.019  1.00  0.00     0.013 C 
HETATM   26  C6  UNL     1      -1.658  52.631 -25.278  1.00  0.00     0.039 C 
HETATM   27  C7  UNL     1      -1.325  51.189 -25.701  1.00  0.00     0.062 C 
HETATM   28  C8  UNL     1      -1.457  50.994 -27.213  1.00  0.00     0.046 C 
BRANCH  24  29
HETATM   29  C2  UNL     1      -1.265  50.844 -22.473  1.00  0.00    -0.088 C 
HETATM   30  C1  UNL     1      -0.361  51.752 -22.068  1.00  0.00     0.014 C 
HETATM   31  C3  UNL     1      -1.252  49.459 -21.873  1.00  0.00     0.043 C 
ENDBRANCH  24  29
BRANCH  27  32
HETATM   32  O1  UNL     1       0.052  50.922 -25.388  1.00  0.00    -0.390 OA
HETATM   33  H14 UNL     1       0.600  51.570 -25.862  1.00  0.00     0.210 HD
ENDBRANCH  27  32
ENDBRANCH  22  23
ENDBRANCH  19  21
ENDBRANCH   1  18
BRANCH  15  34
HETATM   34  O4  UNL     1      -8.979  47.587 -29.790  1.00  0.00    -0.389 OA
HETATM   35  H44 UNL     1      -9.951  47.578 -29.823  1.00  0.00     0.210 HD
ENDBRANCH  15  34
BRANCH  11  36
HETATM   36  C26 UNL     1      -6.752  42.566 -32.857  1.00  0.00     0.265 C 
HETATM   37  O3  UNL     1      -5.760  42.123 -33.419  1.00  0.00    -0.302 OA
ENDBRANCH  11  36
TORSDOF 7
ENDMDL
MODEL 7
REMARK minimizedAffinity -8.93562031
REMARK  7 active torsions:
REMARK  status: ('A' for Active; 'I' for Inactive)
REMARK    1  A    between atoms: C2_2  and  C4_4 
REMARK    2  A    between atoms: C7_7  and  O1_9 
REMARK    3  A    between atoms: C9_10  and  C10_11 
REMARK    4  A    between atoms: C11_12  and  C12_13 
REMARK    5  A    between atoms: C14_15  and  C15_16 
REMARK    6  A    between atoms: C24_26  and  C26_28 
REMARK    7  A    between atoms: C29_32  and  O4_34 
ROOT
HETATM    1  C15 UNL     1      -2.957  49.766 -27.358  1.00  0.00     0.149 C 
HETATM    2  C16 UNL     1      -2.141  49.603 -26.076  1.00  0.00     0.054 C 
HETATM    3  C17 UNL     1      -1.770  51.040 -25.655  1.00  0.00     0.050 C 
HETATM    4  C18 UNL     1      -3.087  51.728 -26.101  1.00  0.00     0.272 C 
HETATM    5  O2  UNL     1      -4.171  51.563 -25.191  1.00  0.00    -0.360 OA
HETATM    6  C19 UNL     1      -4.230  52.550 -24.182  1.00  0.00     0.171 C 
HETATM    7  C20 UNL     1      -3.506  52.094 -22.928  1.00  0.00     0.027 C 
HETATM    8  C21 UNL     1      -2.572  50.902 -23.124  1.00  0.00     0.012 C 
HETATM    9  C22 UNL     1      -1.407  51.096 -24.121  1.00  0.00     0.032 C 
HETATM   10  C23 UNL     1      -0.526  52.301 -23.727  1.00  0.00    -0.066 C 
HETATM   11  C24 UNL     1       0.310  52.333 -22.658  1.00  0.00    -0.021 C 
HETATM   12  C25 UNL     1       1.153  53.515 -22.268  1.00  0.00     0.052 C 
HETATM   13  C27 UNL     1      -0.631  53.466 -24.680  1.00  0.00     0.038 C 
HETATM   14  C28 UNL     1      -0.247  53.077 -26.106  1.00  0.00     0.042 C 
HETATM   15  C29 UNL     1      -0.530  51.599 -26.476  1.00  0.00     0.067 C 
HETATM   16  C30 UNL     1       0.757  50.763 -26.291  1.00  0.00     0.047 C 
HETATM   17  O5  UNL     1      -3.506  51.086 -27.315  1.00  0.00    -0.351 OA
ENDROOT
BRANCH   1  18
HETATM   18  C14 UNL     1      -4.036  48.721 -27.505  1.00  0.00     0.011 C 
HETATM   19  C12 UNL     1      -4.825  48.468 -28.573  1.00  0.00    -0.064 C 
HETATM   20  C13 UNL     1      -4.685  49.188 -29.890  1.00  0.00     0.048 C 
BRANCH  19  21
HETATM   21  C11 UNL     1      -5.844  47.421 -28.459  1.00  0.00     0.003 C 
HETATM   22  C10 UNL     1      -7.173  47.596 -28.547  1.00  0.00    -0.018 C 
BRANCH  22  23
HETATM   23  C9  UNL     1      -8.284  46.559 -28.426  1.00  0.00     0.050 C 
HETATM   24  C4  UNL     1      -7.874  45.068 -28.625  1.00  0.00     0.024 C 
HETATM   25  C5  UNL     1      -7.986  44.886 -30.147  1.00  0.00     0.013 C 
HETATM   26  C6  UNL     1      -9.134  45.779 -30.614  1.00  0.00     0.039 C 
HETATM   27  C7  UNL     1      -9.438  46.750 -29.459  1.00  0.00     0.062 C 
HETATM   28  C8  UNL     1      -9.666  48.178 -29.960  1.00  0.00     0.046 C 
BRANCH  24  29
HETATM   29  C2  UNL     1      -8.675  44.092 -27.758  1.00  0.00    -0.088 C 
HETATM   30  C1  UNL     1      -8.692  44.077 -26.414  1.00  0.00     0.014 C 
HETATM   31  C3  UNL     1      -9.525  43.109 -28.527  1.00  0.00     0.043 C 
ENDBRANCH  24  29
BRANCH  27  32
HETATM   32  O1  UNL     1     -10.668  46.352 -28.832  1.00  0.00    -0.390 OA
HETATM   33  H14 UNL     1     -11.369  46.367 -29.505  1.00  0.00     0.210 HD
ENDBRANCH  27  32
ENDBRANCH  22  23
ENDBRANCH  19  21
ENDBRANCH   1  18
BRANCH  15  34
HETATM   34  O4  UNL     1      -0.780  51.578 -27.886  1.00  0.00    -0.389 OA
HETATM   35  H44 UNL     1      -0.009  51.954 -28.347  1.00  0.00     0.210 HD
ENDBRANCH  15  34
BRANCH  11  36
HETATM   36  C26 UNL     1       0.483  51.168 -21.737  1.00  0.00     0.265 C 
HETATM   37  O3  UNL     1      -0.025  51.093 -20.626  1.00  0.00    -0.302 OA
ENDBRANCH  11  36
TORSDOF 7
ENDMDL
MODEL 8
REMARK minimizedAffinity -8.78874874
REMARK  7 active torsions:
REMARK  status: ('A' for Active; 'I' for Inactive)
REMARK    1  A    between atoms: C2_2  and  C4_4 
REMARK    2  A    between atoms: C7_7  and  O1_9 
REMARK    3  A    between atoms: C9_10  and  C10_11 
REMARK    4  A    between atoms: C11_12  and  C12_13 
REMARK    5  A    between atoms: C14_15  and  C15_16 
REMARK    6  A    between atoms: C24_26  and  C26_28 
REMARK    7  A    between atoms: C29_32  and  O4_34 
ROOT
HETATM    1  C15 UNL     1      -7.579  47.145 -27.098  1.00  0.00     0.149 C 
HETATM    2  C16 UNL     1      -7.469  46.272 -28.348  1.00  0.00     0.054 C 
HETATM    3  C17 UNL     1      -8.773  46.533 -29.130  1.00  0.00     0.050 C 
HETATM    4  C18 UNL     1      -8.918  48.039 -28.788  1.00  0.00     0.272 C 
HETATM    5  O2  UNL     1      -8.085  48.898 -29.561  1.00  0.00    -0.360 OA
HETATM    6  C19 UNL     1      -8.667  49.323 -30.777  1.00  0.00     0.171 C 
HETATM    7  C20 UNL     1      -8.270  48.408 -31.922  1.00  0.00     0.027 C 
HETATM    8  C21 UNL     1      -7.682  47.065 -31.497  1.00  0.00     0.012 C 
HETATM    9  C22 UNL     1      -8.596  46.150 -30.651  1.00  0.00     0.032 C 
HETATM   10  C23 UNL     1      -9.924  45.852 -31.382  1.00  0.00    -0.066 C 
HETATM   11  C24 UNL     1     -10.044  45.057 -32.475  1.00  0.00    -0.021 C 
HETATM   12  C25 UNL     1     -11.336  44.783 -33.194  1.00  0.00     0.052 C 
HETATM   13  C27 UNL     1     -11.127  46.496 -30.739  1.00  0.00     0.038 C 
HETATM   14  C28 UNL     1     -11.307  46.058 -29.288  1.00  0.00     0.042 C 
HETATM   15  C29 UNL     1      -9.993  45.697 -28.550  1.00  0.00     0.067 C 
HETATM   16  C30 UNL     1      -9.772  44.169 -28.602  1.00  0.00     0.047 C 
HETATM   17  O5  UNL     1      -8.480  48.204 -27.430  1.00  0.00    -0.351 OA
ENDROOT
BRANCH   1  18
HETATM   18  C14 UNL     1      -6.245  47.676 -26.633  1.00  0.00     0.011 C 
HETATM   19  C12 UNL     1      -5.168  48.016 -27.374  1.00  0.00    -0.064 C 
HETATM   20  C13 UNL     1      -5.161  47.985 -28.882  1.00  0.00     0.048 C 
BRANCH  19  21
HETATM   21  C11 UNL     1      -3.956  48.468 -26.684  1.00  0.00     0.003 C 
HETATM   22  C10 UNL     1      -3.884  49.452 -25.772  1.00  0.00    -0.018 C 
BRANCH  22  23
HETATM   23  C9  UNL     1      -2.662  49.979 -25.029  1.00  0.00     0.050 C 
HETATM   24  C4  UNL     1      -2.927  50.710 -23.679  1.00  0.00     0.024 C 
HETATM   25  C5  UNL     1      -3.177  52.160 -24.121  1.00  0.00     0.013 C 
HETATM   26  C6  UNL     1      -2.297  52.404 -25.347  1.00  0.00     0.039 C 
HETATM   27  C7  UNL     1      -1.833  51.023 -25.842  1.00  0.00     0.062 C 
HETATM   28  C8  UNL     1      -1.911  50.907 -27.365  1.00  0.00     0.046 C 
BRANCH  24  29
HETATM   29  C2  UNL     1      -1.824  50.493 -22.638  1.00  0.00    -0.088 C 
HETATM   30  C1  UNL     1      -1.036  51.454 -22.125  1.00  0.00     0.014 C 
HETATM   31  C3  UNL     1      -1.675  49.071 -22.155  1.00  0.00     0.043 C 
ENDBRANCH  24  29
BRANCH  27  32
HETATM   32  O1  UNL     1      -0.447  50.852 -25.504  1.00  0.00    -0.390 OA
HETATM   33  H14 UNL     1       0.056  51.570 -25.924  1.00  0.00     0.210 HD
ENDBRANCH  27  32
ENDBRANCH  22  23
ENDBRANCH  19  21
ENDBRANCH   1  18
BRANCH  15  34
HETATM   34  O4  UNL     1     -10.217  45.987 -27.166  1.00  0.00    -0.389 OA
HETATM   35  H44 UNL     1     -10.987  45.478 -26.859  1.00  0.00     0.210 HD
ENDBRANCH  15  34
BRANCH  11  36
HETATM   36  C26 UNL     1      -8.878  44.352 -33.091  1.00  0.00     0.265 C 
HETATM   37  O3  UNL     1      -8.286  44.750 -34.085  1.00  0.00    -0.302 OA
ENDBRANCH  11  36
TORSDOF 7
ENDMDL
MODEL 9
REMARK minimizedAffinity -8.7551775
REMARK  7 active torsions:
REMARK  status: ('A' for Active; 'I' for Inactive)
REMARK    1  A    between atoms: C2_2  and  C4_4 
REMARK    2  A    between atoms: C7_7  and  O1_9 
REMARK    3  A    between atoms: C9_10  and  C10_11 
REMARK    4  A    between atoms: C11_12  and  C12_13 
REMARK    5  A    between atoms: C14_15  and  C15_16 
REMARK    6  A    between atoms: C24_26  and  C26_28 
REMARK    7  A    between atoms: C29_32  and  O4_34 
ROOT
HETATM    1  C15 UNL     1       0.038  51.995 -19.070  1.00  0.00     0.149 C 
HETATM    2  C16 UNL     1       0.643  50.791 -18.349  1.00  0.00     0.054 C 
HETATM    3  C17 UNL     1       0.190  50.939 -16.882  1.00  0.00     0.050 C 
HETATM    4  C18 UNL     1      -1.219  51.523 -17.161  1.00  0.00     0.272 C 
HETATM    5  O2  UNL     1      -2.191  50.552 -17.538  1.00  0.00    -0.360 OA
HETATM    6  C19 UNL     1      -2.870  49.964 -16.448  1.00  0.00     0.171 C 
HETATM    7  C20 UNL     1      -2.194  48.675 -16.014  1.00  0.00     0.027 C 
HETATM    8  C21 UNL     1      -0.776  48.484 -16.545  1.00  0.00     0.012 C 
HETATM    9  C22 UNL     1       0.263  49.551 -16.134  1.00  0.00     0.032 C 
HETATM   10  C23 UNL     1       0.367  49.670 -14.598  1.00  0.00    -0.066 C 
HETATM   11  C24 UNL     1       0.922  48.736 -13.784  1.00  0.00    -0.021 C 
HETATM   12  C25 UNL     1       1.005  48.848 -12.288  1.00  0.00     0.052 C 
HETATM   13  C27 UNL     1      -0.170  50.971 -14.053  1.00  0.00     0.038 C 
HETATM   14  C28 UNL     1       0.548  52.181 -14.646  1.00  0.00     0.042 C 
HETATM   15  C29 UNL     1       1.089  51.977 -16.083  1.00  0.00     0.067 C 
HETATM   16  C30 UNL     1       2.581  51.581 -16.023  1.00  0.00     0.047 C 
HETATM   17  O5  UNL     1      -1.094  52.398 -18.294  1.00  0.00    -0.351 OA
ENDROOT
BRANCH   1  18
HETATM   18  C14 UNL     1      -0.349  51.692 -20.498  1.00  0.00     0.011 C 
HETATM   19  C12 UNL     1       0.090  52.279 -21.633  1.00  0.00    -0.064 C 
HETATM   20  C13 UNL     1       1.159  53.343 -21.651  1.00  0.00     0.048 C 
BRANCH  19  21
HETATM   21  C11 UNL     1      -0.473  51.840 -22.912  1.00  0.00     0.003 C 
HETATM   22  C10 UNL     1      -0.665  52.607 -23.999  1.00  0.00    -0.018 C 
BRANCH  22  23
HETATM   23  C9  UNL     1      -1.255  52.220 -25.350  1.00  0.00     0.050 C 
HETATM   24  C4  UNL     1      -1.126  50.723 -25.766  1.00  0.00     0.024 C 
HETATM   25  C5  UNL     1       0.249  50.678 -26.450  1.00  0.00     0.013 C 
HETATM   26  C6  UNL     1       0.443  52.029 -27.138  1.00  0.00     0.039 C 
HETATM   27  C7  UNL     1      -0.618  52.980 -26.556  1.00  0.00     0.062 C 
HETATM   28  C8  UNL     1      -0.039  54.362 -26.251  1.00  0.00     0.046 C 
BRANCH  24  29
HETATM   29  C2  UNL     1      -2.315  50.211 -26.586  1.00  0.00    -0.088 C 
HETATM   30  C1  UNL     1      -2.675  50.660 -27.801  1.00  0.00     0.014 C 
HETATM   31  C3  UNL     1      -3.090  49.084 -25.947  1.00  0.00     0.043 C 
ENDBRANCH  24  29
BRANCH  27  32
HETATM   32  O1  UNL     1      -1.642  53.189 -27.542  1.00  0.00    -0.390 OA
HETATM   33  H14 UNL     1      -1.224  53.564 -28.335  1.00  0.00     0.210 HD
ENDBRANCH  27  32
ENDBRANCH  22  23
ENDBRANCH  19  21
ENDBRANCH   1  18
BRANCH  15  34
HETATM   34  O4  UNL     1       1.078  53.268 -16.704  1.00  0.00    -0.389 OA
HETATM   35  H44 UNL     1       1.616  53.878 -16.169  1.00  0.00     0.210 HD
ENDBRANCH  15  34
BRANCH  11  36
HETATM   36  C26 UNL     1       1.522  47.469 -14.305  1.00  0.00     0.265 C 
HETATM   37  O3  UNL     1       1.329  46.367 -13.809  1.00  0.00    -0.302 OA
ENDBRANCH  11  36
TORSDOF 7
ENDMDL
