MODEL 1
REMARK minimizedAffinity -9.12079048
REMARK  6 active torsions:
REMARK  status: ('A' for Active; 'I' for Inactive)
REMARK    1  A    between atoms: C4_4  and  C5_5 
REMARK    2  A    between atoms: C5_5  and  C6_6 
REMARK    3  A    between atoms: C6_6  and  C7_7 
REMARK    4  A    between atoms: C7_7  and  C9_9 
REMARK    5  A    between atoms: C17_17  and  C18_18 
REMARK    6  A    between atoms: C18_18  and  O1_21 
ROOT
HETATM    1  C9  UNL     1      -5.539   6.663  14.669  1.00  0.00    -0.002 C 
HETATM    2  C10 UNL     1      -6.093   7.597  13.556  1.00  0.00     0.006 C 
HETATM    3  C11 UNL     1      -4.855   8.197  12.831  1.00  0.00     0.011 C 
HETATM    4  C12 UNL     1      -3.665   7.859  13.759  1.00  0.00    -0.032 C 
HETATM    5  C13 UNL     1      -3.721   8.941  14.890  1.00  0.00     0.016 C 
HETATM    6  C14 UNL     1      -2.257   7.813  13.094  1.00  0.00     0.003 C 
HETATM    7  C15 UNL     1      -1.780   9.134  12.487  1.00  0.00     0.009 C 
HETATM    8  C16 UNL     1      -0.664   8.847  11.488  1.00  0.00     0.042 C 
HETATM    9  C17 UNL     1       0.544   8.021  12.028  1.00  0.00     0.095 C 
HETATM   10  O2  UNL     1       1.277   8.979  12.831  1.00  0.00    -0.377 OA
HETATM   11  C21 UNL     1       2.488   8.512  13.410  1.00  0.00     0.169 C 
HETATM   12  C22 UNL     1       2.335   7.247  14.238  1.00  0.00     0.027 C 
HETATM   13  C23 UNL     1       1.324   6.233  13.703  1.00  0.00     0.010 C 
HETATM   14  C24 UNL     1       0.098   6.844  12.985  1.00  0.00     0.032 C 
HETATM   15  C25 UNL     1      -1.119   7.173  13.980  1.00  0.00    -0.033 C 
HETATM   16  C26 UNL     1      -0.656   8.089  15.139  1.00  0.00     0.016 C 
HETATM   17  C27 UNL     1      -1.637   5.847  14.658  1.00  0.00     0.011 C 
HETATM   18  C28 UNL     1      -3.070   5.893  15.244  1.00  0.00     0.011 C 
HETATM   19  C29 UNL     1      -4.081   6.395  14.200  1.00  0.00    -0.032 C 
HETATM   20  C30 UNL     1      -4.090   5.355  13.037  1.00  0.00     0.016 C 
ENDROOT
BRANCH   1  21
HETATM   21  C7  UNL     1      -6.464   5.537  15.204  1.00  0.00    -0.014 C 
HETATM   22  C8  UNL     1      -7.166   6.025  16.488  1.00  0.00     0.010 C 
BRANCH  21  23
HETATM   23  C6  UNL     1      -7.492   4.822  14.303  1.00  0.00     0.008 C 
BRANCH  23  24
HETATM   24  C5  UNL     1      -7.104   4.559  12.847  1.00  0.00     0.028 C 
BRANCH  24  25
HETATM   25  C4  UNL     1      -6.874   3.092  12.591  1.00  0.00    -0.025 C 
HETATM   26  C2  UNL     1      -6.171   2.535  11.586  1.00  0.00    -0.091 C 
HETATM   27  C1  UNL     1      -5.409   3.304  10.540  1.00  0.00     0.042 C 
HETATM   28  C3  UNL     1      -6.056   1.037  11.470  1.00  0.00     0.042 C 
ENDBRANCH  24  25
ENDBRANCH  23  24
ENDBRANCH  21  23
ENDBRANCH   1  21
BRANCH   9  29
HETATM   29  C18 UNL     1       1.418   7.542  10.747  1.00  0.00     0.082 C 
HETATM   30  C19 UNL     1       2.802   8.224  10.713  1.00  0.00     0.049 C 
HETATM   31  C20 UNL     1       0.713   7.778   9.395  1.00  0.00     0.049 C 
BRANCH  29  32
HETATM   32  O1  UNL     1       1.673   6.127  10.777  1.00  0.00    -0.388 OA
HETATM   33  H35 UNL     1       2.231   5.900  10.014  1.00  0.00     0.210 HD
ENDBRANCH  29  32
ENDBRANCH   9  29
TORSDOF 6
ENDMDL
MODEL 2
REMARK minimizedAffinity -8.95455933
REMARK  6 active torsions:
REMARK  status: ('A' for Active; 'I' for Inactive)
REMARK    1  A    between atoms: C4_4  and  C5_5 
REMARK    2  A    between atoms: C5_5  and  C6_6 
REMARK    3  A    between atoms: C6_6  and  C7_7 
REMARK    4  A    between atoms: C7_7  and  C9_9 
REMARK    5  A    between atoms: C17_17  and  C18_18 
REMARK    6  A    between atoms: C18_18  and  O1_21 
ROOT
HETATM    1  C9  UNL     1      -5.623   6.793  14.952  1.00  0.00    -0.002 C 
HETATM    2  C10 UNL     1      -6.225   7.760  13.892  1.00  0.00     0.006 C 
HETATM    3  C11 UNL     1      -5.024   8.330  13.086  1.00  0.00     0.011 C 
HETATM    4  C12 UNL     1      -3.782   7.943  13.921  1.00  0.00    -0.032 C 
HETATM    5  C13 UNL     1      -3.721   9.010  15.066  1.00  0.00     0.016 C 
HETATM    6  C14 UNL     1      -2.428   7.861  13.155  1.00  0.00     0.003 C 
HETATM    7  C15 UNL     1      -1.953   9.174  12.531  1.00  0.00     0.009 C 
HETATM    8  C16 UNL     1      -0.922   8.866  11.450  1.00  0.00     0.042 C 
HETATM    9  C17 UNL     1       0.294   7.996  11.891  1.00  0.00     0.095 C 
HETATM   10  O2  UNL     1       1.114   8.919  12.649  1.00  0.00    -0.377 OA
HETATM   11  C21 UNL     1       2.348   8.406  13.134  1.00  0.00     0.169 C 
HETATM   12  C22 UNL     1       2.214   7.135  13.956  1.00  0.00     0.027 C 
HETATM   13  C23 UNL     1       1.135   6.161  13.484  1.00  0.00     0.010 C 
HETATM   14  C24 UNL     1      -0.119   6.820  12.864  1.00  0.00     0.032 C 
HETATM   15  C25 UNL     1      -1.251   7.174  13.949  1.00  0.00    -0.033 C 
HETATM   16  C26 UNL     1      -0.675   8.058  15.081  1.00  0.00     0.016 C 
HETATM   17  C27 UNL     1      -1.760   5.855  14.648  1.00  0.00     0.011 C 
HETATM   18  C28 UNL     1      -3.145   5.939  15.336  1.00  0.00     0.011 C 
HETATM   19  C29 UNL     1      -4.212   6.487  14.375  1.00  0.00    -0.032 C 
HETATM   20  C30 UNL     1      -4.339   5.463  13.203  1.00  0.00     0.016 C 
ENDROOT
BRANCH   1  21
HETATM   21  C7  UNL     1      -6.542   5.690  15.539  1.00  0.00    -0.014 C 
HETATM   22  C8  UNL     1      -7.604   6.345  16.446  1.00  0.00     0.010 C 
BRANCH  21  23
HETATM   23  C6  UNL     1      -7.220   4.626  14.650  1.00  0.00     0.008 C 
BRANCH  23  24
HETATM   24  C5  UNL     1      -7.794   5.080  13.307  1.00  0.00     0.028 C 
BRANCH  24  25
HETATM   25  C4  UNL     1      -9.065   5.868  13.484  1.00  0.00    -0.025 C 
HETATM   26  C2  UNL     1      -9.804   6.460  12.527  1.00  0.00    -0.091 C 
HETATM   27  C1  UNL     1      -9.518   6.385  11.050  1.00  0.00     0.042 C 
HETATM   28  C3  UNL     1     -11.048   7.229  12.885  1.00  0.00     0.042 C 
ENDBRANCH  24  25
ENDBRANCH  23  24
ENDBRANCH  21  23
ENDBRANCH   1  21
BRANCH   9  29
HETATM   29  C18 UNL     1       1.057   7.507  10.544  1.00  0.00     0.082 C 
HETATM   30  C19 UNL     1       0.356   8.027   9.271  1.00  0.00     0.049 C 
HETATM   31  C20 UNL     1       1.206   5.975  10.440  1.00  0.00     0.049 C 
BRANCH  29  32
HETATM   32  O1  UNL     1       2.406   8.004  10.487  1.00  0.00    -0.388 OA
HETATM   33  H35 UNL     1       2.802   7.720   9.646  1.00  0.00     0.210 HD
ENDBRANCH  29  32
ENDBRANCH   9  29
TORSDOF 6
ENDMDL
MODEL 3
REMARK minimizedAffinity -8.78590775
REMARK  6 active torsions:
REMARK  status: ('A' for Active; 'I' for Inactive)
REMARK    1  A    between atoms: C4_4  and  C5_5 
REMARK    2  A    between atoms: C5_5  and  C6_6 
REMARK    3  A    between atoms: C6_6  and  C7_7 
REMARK    4  A    between atoms: C7_7  and  C9_9 
REMARK    5  A    between atoms: C17_17  and  C18_18 
REMARK    6  A    between atoms: C18_18  and  O1_21 
ROOT
HETATM    1  C9  UNL     1       1.289   7.845  12.789  1.00  0.00    -0.002 C 
HETATM    2  C10 UNL     1       1.667   6.348  12.969  1.00  0.00     0.006 C 
HETATM    3  C11 UNL     1       0.378   5.625  13.455  1.00  0.00     0.011 C 
HETATM    4  C12 UNL     1      -0.577   6.772  13.857  1.00  0.00    -0.032 C 
HETATM    5  C13 UNL     1      -0.098   7.211  15.282  1.00  0.00     0.016 C 
HETATM    6  C14 UNL     1      -2.099   6.443  13.851  1.00  0.00     0.003 C 
HETATM    7  C15 UNL     1      -2.533   5.353  14.833  1.00  0.00     0.009 C 
HETATM    8  C16 UNL     1      -3.891   4.808  14.403  1.00  0.00     0.042 C 
HETATM    9  C17 UNL     1      -5.024   5.861  14.214  1.00  0.00     0.095 C 
HETATM   10  O2  UNL     1      -5.401   6.200  15.572  1.00  0.00    -0.377 OA
HETATM   11  C21 UNL     1      -6.480   7.114  15.711  1.00  0.00     0.169 C 
HETATM   12  C22 UNL     1      -6.295   8.417  14.952  1.00  0.00     0.027 C 
HETATM   13  C23 UNL     1      -5.593   8.293  13.600  1.00  0.00     0.010 C 
HETATM   14  C24 UNL     1      -4.515   7.187  13.519  1.00  0.00     0.032 C 
HETATM   15  C25 UNL     1      -3.055   7.693  13.961  1.00  0.00    -0.033 C 
HETATM   16  C26 UNL     1      -3.090   8.316  15.378  1.00  0.00     0.016 C 
HETATM   17  C27 UNL     1      -2.566   8.841  12.997  1.00  0.00     0.011 C 
HETATM   18  C28 UNL     1      -1.039   9.098  12.961  1.00  0.00     0.011 C 
HETATM   19  C29 UNL     1      -0.262   7.800  12.692  1.00  0.00    -0.032 C 
HETATM   20  C30 UNL     1      -0.681   7.304  11.272  1.00  0.00     0.016 C 
ENDROOT
BRANCH   1  21
HETATM   21  C7  UNL     1       2.160   8.709  11.838  1.00  0.00    -0.014 C 
HETATM   22  C8  UNL     1       3.149   9.545  12.676  1.00  0.00     0.010 C 
BRANCH  21  23
HETATM   23  C6  UNL     1       2.904   8.103  10.630  1.00  0.00     0.008 C 
BRANCH  23  24
HETATM   24  C5  UNL     1       2.603   6.649  10.263  1.00  0.00     0.028 C 
BRANCH  24  25
HETATM   25  C4  UNL     1       2.132   6.523   8.837  1.00  0.00    -0.025 C 
HETATM   26  C2  UNL     1       2.323   7.396   7.830  1.00  0.00    -0.091 C 
HETATM   27  C1  UNL     1       3.122   8.668   7.934  1.00  0.00     0.042 C 
HETATM   28  C3  UNL     1       1.764   7.118   6.459  1.00  0.00     0.042 C 
ENDBRANCH  24  25
ENDBRANCH  23  24
ENDBRANCH  21  23
ENDBRANCH   1  21
BRANCH   9  29
HETATM   29  C18 UNL     1      -6.245   5.129  13.435  1.00  0.00     0.082 C 
HETATM   30  C19 UNL     1      -7.196   4.408  14.413  1.00  0.00     0.049 C 
HETATM   31  C20 UNL     1      -5.778   4.122  12.362  1.00  0.00     0.049 C 
BRANCH  29  32
HETATM   32  O1  UNL     1      -7.057   6.072  12.712  1.00  0.00    -0.388 OA
HETATM   33  H35 UNL     1      -7.793   5.590  12.300  1.00  0.00     0.210 HD
ENDBRANCH  29  32
ENDBRANCH   9  29
TORSDOF 6
ENDMDL
MODEL 4
REMARK minimizedAffinity -8.53593159
REMARK  6 active torsions:
REMARK  status: ('A' for Active; 'I' for Inactive)
REMARK    1  A    between atoms: C4_4  and  C5_5 
REMARK    2  A    between atoms: C5_5  and  C6_6 
REMARK    3  A    between atoms: C6_6  and  C7_7 
REMARK    4  A    between atoms: C7_7  and  C9_9 
REMARK    5  A    between atoms: C17_17  and  C18_18 
REMARK    6  A    between atoms: C18_18  and  O1_21 
ROOT
HETATM    1  C9  UNL     1      -4.636   5.108  12.957  1.00  0.00    -0.002 C 
HETATM    2  C10 UNL     1      -3.545   4.226  13.627  1.00  0.00     0.006 C 
HETATM    3  C11 UNL     1      -2.720   5.171  14.547  1.00  0.00     0.011 C 
HETATM    4  C12 UNL     1      -3.144   6.594  14.114  1.00  0.00    -0.032 C 
HETATM    5  C13 UNL     1      -2.316   6.879  12.816  1.00  0.00     0.016 C 
HETATM    6  C14 UNL     1      -2.950   7.726  15.165  1.00  0.00     0.003 C 
HETATM    7  C15 UNL     1      -1.503   7.977  15.593  1.00  0.00     0.009 C 
HETATM    8  C16 UNL     1      -1.500   8.731  16.919  1.00  0.00     0.042 C 
HETATM    9  C17 UNL     1      -2.322  10.056  16.955  1.00  0.00     0.095 C 
HETATM   10  O2  UNL     1      -1.489  10.991  16.226  1.00  0.00    -0.377 OA
HETATM   11  C21 UNL     1      -1.969  12.327  16.151  1.00  0.00     0.169 C 
HETATM   12  C22 UNL     1      -3.381  12.452  15.604  1.00  0.00     0.027 C 
HETATM   13  C23 UNL     1      -4.342  11.337  16.012  1.00  0.00     0.010 C 
HETATM   14  C24 UNL     1      -3.696   9.942  16.181  1.00  0.00     0.032 C 
HETATM   15  C25 UNL     1      -3.664   9.090  14.819  1.00  0.00    -0.033 C 
HETATM   16  C26 UNL     1      -2.964   9.880  13.688  1.00  0.00     0.016 C 
HETATM   17  C27 UNL     1      -5.134   8.823  14.314  1.00  0.00     0.011 C 
HETATM   18  C28 UNL     1      -5.314   7.641  13.329  1.00  0.00     0.011 C 
HETATM   19  C29 UNL     1      -4.694   6.352  13.888  1.00  0.00    -0.032 C 
HETATM   20  C30 UNL     1      -5.480   5.994  15.188  1.00  0.00     0.016 C 
ENDROOT
BRANCH   1  21
HETATM   21  C7  UNL     1      -5.912   4.408  12.420  1.00  0.00    -0.014 C 
HETATM   22  C8  UNL     1      -5.532   3.024  11.854  1.00  0.00     0.010 C 
BRANCH  21  23
HETATM   23  C6  UNL     1      -7.195   4.274  13.269  1.00  0.00     0.008 C 
BRANCH  23  24
HETATM   24  C5  UNL     1      -8.386   5.161  12.906  1.00  0.00     0.028 C 
BRANCH  24  25
HETATM   25  C4  UNL     1      -8.662   6.184  13.977  1.00  0.00    -0.025 C 
HETATM   26  C2  UNL     1      -9.700   7.039  14.046  1.00  0.00    -0.091 C 
HETATM   27  C1  UNL     1     -10.844   7.085  13.068  1.00  0.00     0.042 C 
HETATM   28  C3  UNL     1      -9.813   8.016  15.187  1.00  0.00     0.042 C 
ENDBRANCH  24  25
ENDBRANCH  23  24
ENDBRANCH  21  23
ENDBRANCH   1  21
BRANCH   9  29
HETATM   29  C18 UNL     1      -2.470  10.494  18.511  1.00  0.00     0.082 C 
HETATM   30  C19 UNL     1      -3.566  11.564  18.701  1.00  0.00     0.049 C 
HETATM   31  C20 UNL     1      -1.156  11.011  19.135  1.00  0.00     0.049 C 
BRANCH  29  32
HETATM   32  O1  UNL     1      -2.850   9.384  19.343  1.00  0.00    -0.388 OA
HETATM   33  H35 UNL     1      -2.965   9.707  20.252  1.00  0.00     0.210 HD
ENDBRANCH  29  32
ENDBRANCH   9  29
TORSDOF 6
ENDMDL
MODEL 5
REMARK minimizedAffinity -8.37357998
REMARK  6 active torsions:
REMARK  status: ('A' for Active; 'I' for Inactive)
REMARK    1  A    between atoms: C4_4  and  C5_5 
REMARK    2  A    between atoms: C5_5  and  C6_6 
REMARK    3  A    between atoms: C6_6  and  C7_7 
REMARK    4  A    between atoms: C7_7  and  C9_9 
REMARK    5  A    between atoms: C17_17  and  C18_18 
REMARK    6  A    between atoms: C18_18  and  O1_21 
ROOT
HETATM    1  C9  UNL     1      -1.236   6.345  12.284  1.00  0.00    -0.002 C 
HETATM    2  C10 UNL     1      -0.659   5.413  11.181  1.00  0.00     0.006 C 
HETATM    3  C11 UNL     1       0.861   5.730  11.089  1.00  0.00     0.011 C 
HETATM    4  C12 UNL     1       1.027   7.046  11.885  1.00  0.00    -0.032 C 
HETATM    5  C13 UNL     1       0.574   8.171  10.894  1.00  0.00     0.016 C 
HETATM    6  C14 UNL     1       2.446   7.338  12.456  1.00  0.00     0.003 C 
HETATM    7  C15 UNL     1       3.550   7.496  11.409  1.00  0.00     0.009 C 
HETATM    8  C16 UNL     1       4.905   7.298  12.081  1.00  0.00     0.042 C 
HETATM    9  C17 UNL     1       5.192   8.195  13.323  1.00  0.00     0.095 C 
HETATM   10  O2  UNL     1       5.478   9.492  12.744  1.00  0.00    -0.377 OA
HETATM   11  C21 UNL     1       5.844  10.518  13.659  1.00  0.00     0.169 C 
HETATM   12  C22 UNL     1       4.848  10.732  14.785  1.00  0.00     0.027 C 
HETATM   13  C23 UNL     1       4.176   9.466  15.315  1.00  0.00     0.010 C 
HETATM   14  C24 UNL     1       3.929   8.363  14.259  1.00  0.00     0.032 C 
HETATM   15  C25 UNL     1       2.515   8.511  13.509  1.00  0.00    -0.033 C 
HETATM   16  C26 UNL     1       2.370   9.915  12.873  1.00  0.00     0.016 C 
HETATM   17  C27 UNL     1       1.336   8.383  14.547  1.00  0.00     0.011 C 
HETATM   18  C28 UNL     1      -0.051   8.015  13.963  1.00  0.00     0.011 C 
HETATM   19  C29 UNL     1       0.032   6.758  13.084  1.00  0.00    -0.032 C 
HETATM   20  C30 UNL     1       0.470   5.581  14.010  1.00  0.00     0.016 C 
ENDROOT
BRANCH   1  21
HETATM   21  C7  UNL     1      -2.559   5.923  12.976  1.00  0.00    -0.014 C 
HETATM   22  C8  UNL     1      -3.446   7.169  13.176  1.00  0.00     0.010 C 
BRANCH  21  23
HETATM   23  C6  UNL     1      -3.428   4.761  12.449  1.00  0.00     0.008 C 
BRANCH  23  24
HETATM   24  C5  UNL     1      -4.904   4.737  12.847  1.00  0.00     0.028 C 
BRANCH  24  25
HETATM   25  C4  UNL     1      -5.643   3.613  12.167  1.00  0.00    -0.025 C 
HETATM   26  C2  UNL     1      -5.129   2.466  11.686  1.00  0.00    -0.091 C 
HETATM   27  C1  UNL     1      -3.685   2.054  11.804  1.00  0.00     0.042 C 
HETATM   28  C3  UNL     1      -6.016   1.451  11.015  1.00  0.00     0.042 C 
ENDBRANCH  24  25
ENDBRANCH  23  24
ENDBRANCH  21  23
ENDBRANCH   1  21
BRANCH   9  29
HETATM   29  C18 UNL     1       6.498   7.588  14.071  1.00  0.00     0.082 C 
HETATM   30  C19 UNL     1       6.725   8.248  15.448  1.00  0.00     0.049 C 
HETATM   31  C20 UNL     1       7.795   7.704  13.243  1.00  0.00     0.049 C 
BRANCH  29  32
HETATM   32  O1  UNL     1       6.358   6.179  14.324  1.00  0.00    -0.388 OA
HETATM   33  H35 UNL     1       7.144   5.875  14.808  1.00  0.00     0.210 HD
ENDBRANCH  29  32
ENDBRANCH   9  29
TORSDOF 6
ENDMDL
MODEL 6
REMARK minimizedAffinity -8.36973572
REMARK  6 active torsions:
REMARK  status: ('A' for Active; 'I' for Inactive)
REMARK    1  A    between atoms: C4_4  and  C5_5 
REMARK    2  A    between atoms: C5_5  and  C6_6 
REMARK    3  A    between atoms: C6_6  and  C7_7 
REMARK    4  A    between atoms: C7_7  and  C9_9 
REMARK    5  A    between atoms: C17_17  and  C18_18 
REMARK    6  A    between atoms: C18_18  and  O1_21 
ROOT
HETATM    1  C9  UNL     1      -4.928   5.866  14.223  1.00  0.00    -0.002 C 
HETATM    2  C10 UNL     1      -5.452   4.871  13.149  1.00  0.00     0.006 C 
HETATM    3  C11 UNL     1      -6.973   5.157  12.990  1.00  0.00     0.011 C 
HETATM    4  C12 UNL     1      -7.324   6.052  14.202  1.00  0.00    -0.032 C 
HETATM    5  C13 UNL     1      -7.478   5.057  15.401  1.00  0.00     0.016 C 
HETATM    6  C14 UNL     1      -8.583   6.956  14.056  1.00  0.00     0.003 C 
HETATM    7  C15 UNL     1      -9.903   6.207  13.861  1.00  0.00     0.009 C 
HETATM    8  C16 UNL     1     -10.934   7.163  13.268  1.00  0.00     0.042 C 
HETATM    9  C17 UNL     1     -11.165   8.492  14.050  1.00  0.00     0.095 C 
HETATM   10  O2  UNL     1     -11.954   8.080  15.193  1.00  0.00    -0.377 OA
HETATM   11  C21 UNL     1     -12.375   9.118  16.068  1.00  0.00     0.169 C 
HETATM   12  C22 UNL     1     -11.246   9.993  16.586  1.00  0.00     0.027 C 
HETATM   13  C23 UNL     1     -10.122  10.269  15.588  1.00  0.00     0.010 C 
HETATM   14  C24 UNL     1      -9.821   9.116  14.601  1.00  0.00     0.032 C 
HETATM   15  C25 UNL     1      -8.741   8.068  15.163  1.00  0.00    -0.033 C 
HETATM   16  C26 UNL     1      -9.176   7.507  16.539  1.00  0.00     0.016 C 
HETATM   17  C27 UNL     1      -7.362   8.793  15.409  1.00  0.00     0.011 C 
HETATM   18  C28 UNL     1      -6.113   7.879  15.473  1.00  0.00     0.011 C 
HETATM   19  C29 UNL     1      -6.029   6.964  14.241  1.00  0.00    -0.032 C 
HETATM   20  C30 UNL     1      -5.862   7.891  12.996  1.00  0.00     0.016 C 
ENDROOT
BRANCH   1  21
HETATM   21  C7  UNL     1      -3.414   6.202  14.230  1.00  0.00    -0.014 C 
HETATM   22  C8  UNL     1      -2.971   6.521  15.673  1.00  0.00     0.010 C 
BRANCH  21  23
HETATM   23  C6  UNL     1      -2.366   5.282  13.568  1.00  0.00     0.008 C 
BRANCH  23  24
HETATM   24  C5  UNL     1      -2.423   5.112  12.049  1.00  0.00     0.028 C 
BRANCH  24  25
HETATM   25  C4  UNL     1      -1.571   3.958  11.588  1.00  0.00    -0.025 C 
HETATM   26  C2  UNL     1      -1.926   2.662  11.496  1.00  0.00    -0.091 C 
HETATM   27  C1  UNL     1      -3.302   2.124  11.784  1.00  0.00     0.042 C 
HETATM   28  C3  UNL     1      -0.935   1.629  11.027  1.00  0.00     0.042 C 
ENDBRANCH  24  25
ENDBRANCH  23  24
ENDBRANCH  21  23
ENDBRANCH   1  21
BRANCH   9  29
HETATM   29  C18 UNL     1     -12.011   9.484  13.083  1.00  0.00     0.082 C 
HETATM   30  C19 UNL     1     -11.794  10.966  13.456  1.00  0.00     0.049 C 
HETATM   31  C20 UNL     1     -13.526   9.191  13.069  1.00  0.00     0.049 C 
BRANCH  29  32
HETATM   32  O1  UNL     1     -11.608   9.357  11.708  1.00  0.00    -0.388 OA
HETATM   33  H35 UNL     1     -12.113   9.999  11.180  1.00  0.00     0.210 HD
ENDBRANCH  29  32
ENDBRANCH   9  29
TORSDOF 6
ENDMDL
MODEL 7
REMARK minimizedAffinity -8.36811733
REMARK  6 active torsions:
REMARK  status: ('A' for Active; 'I' for Inactive)
REMARK    1  A    between atoms: C4_4  and  C5_5 
REMARK    2  A    between atoms: C5_5  and  C6_6 
REMARK    3  A    between atoms: C6_6  and  C7_7 
REMARK    4  A    between atoms: C7_7  and  C9_9 
REMARK    5  A    between atoms: C17_17  and  C18_18 
REMARK    6  A    between atoms: C18_18  and  O1_21 
ROOT
HETATM    1  C9  UNL     1      -1.520   6.313  12.431  1.00  0.00    -0.002 C 
HETATM    2  C10 UNL     1      -1.178   5.641  11.071  1.00  0.00     0.006 C 
HETATM    3  C11 UNL     1       0.310   5.982  10.775  1.00  0.00     0.011 C 
HETATM    4  C12 UNL     1       0.656   7.099  11.785  1.00  0.00    -0.032 C 
HETATM    5  C13 UNL     1       0.069   8.406  11.152  1.00  0.00     0.016 C 
HETATM    6  C14 UNL     1       2.163   7.274  12.139  1.00  0.00     0.003 C 
HETATM    7  C15 UNL     1       3.067   7.659  10.966  1.00  0.00     0.009 C 
HETATM    8  C16 UNL     1       4.513   7.331  11.325  1.00  0.00     0.042 C 
HETATM    9  C17 UNL     1       5.045   7.947  12.654  1.00  0.00     0.095 C 
HETATM   10  O2  UNL     1       5.264   9.339  12.319  1.00  0.00    -0.377 OA
HETATM   11  C21 UNL     1       5.820  10.150  13.347  1.00  0.00     0.169 C 
HETATM   12  C22 UNL     1       5.048  10.113  14.655  1.00  0.00     0.027 C 
HETATM   13  C23 UNL     1       4.442   8.758  15.019  1.00  0.00     0.010 C 
HETATM   14  C24 UNL     1       3.975   7.903  13.818  1.00  0.00     0.032 C 
HETATM   15  C25 UNL     1       2.456   8.197  13.384  1.00  0.00    -0.033 C 
HETATM   16  C26 UNL     1       2.244   9.703  13.095  1.00  0.00     0.016 C 
HETATM   17  C27 UNL     1       1.477   7.843  14.569  1.00  0.00     0.011 C 
HETATM   18  C28 UNL     1      -0.002   7.597  14.181  1.00  0.00     0.011 C 
HETATM   19  C29 UNL     1      -0.118   6.556  13.057  1.00  0.00    -0.032 C 
HETATM   20  C30 UNL     1       0.442   5.213  13.620  1.00  0.00     0.016 C 
ENDROOT
BRANCH   1  21
HETATM   21  C7  UNL     1      -2.711   5.745  13.247  1.00  0.00    -0.014 C 
HETATM   22  C8  UNL     1      -3.888   6.741  13.188  1.00  0.00     0.010 C 
BRANCH  21  23
HETATM   23  C6  UNL     1      -3.246   4.313  13.031  1.00  0.00     0.008 C 
BRANCH  23  24
HETATM   24  C5  UNL     1      -4.263   4.093  11.910  1.00  0.00     0.028 C 
BRANCH  24  25
HETATM   25  C4  UNL     1      -5.611   3.696  12.455  1.00  0.00    -0.025 C 
HETATM   26  C2  UNL     1      -6.326   2.597  12.150  1.00  0.00    -0.091 C 
HETATM   27  C1  UNL     1      -5.866   1.498  11.230  1.00  0.00     0.042 C 
HETATM   28  C3  UNL     1      -7.675   2.363  12.779  1.00  0.00     0.042 C 
ENDBRANCH  24  25
ENDBRANCH  23  24
ENDBRANCH  21  23
ENDBRANCH   1  21
BRANCH   9  29
HETATM   29  C18 UNL     1       6.444   7.204  13.009  1.00  0.00     0.082 C 
HETATM   30  C19 UNL     1       7.622   8.200  13.060  1.00  0.00     0.049 C 
HETATM   31  C20 UNL     1       6.800   6.061  12.037  1.00  0.00     0.049 C 
BRANCH  29  32
HETATM   32  O1  UNL     1       6.399   6.575  14.302  1.00  0.00    -0.388 OA
HETATM   33  H35 UNL     1       7.269   6.183  14.483  1.00  0.00     0.210 HD
ENDBRANCH  29  32
ENDBRANCH   9  29
TORSDOF 6
ENDMDL
MODEL 8
REMARK minimizedAffinity -8.21476936
REMARK  6 active torsions:
REMARK  status: ('A' for Active; 'I' for Inactive)
REMARK    1  A    between atoms: C4_4  and  C5_5 
REMARK    2  A    between atoms: C5_5  and  C6_6 
REMARK    3  A    between atoms: C6_6  and  C7_7 
REMARK    4  A    between atoms: C7_7  and  C9_9 
REMARK    5  A    between atoms: C17_17  and  C18_18 
REMARK    6  A    between atoms: C18_18  and  O1_21 
ROOT
HETATM    1  C9  UNL     1      -0.649   5.234  11.437  1.00  0.00    -0.002 C 
HETATM    2  C10 UNL     1       0.879   5.182  11.154  1.00  0.00     0.006 C 
HETATM    3  C11 UNL     1       1.510   6.373  11.931  1.00  0.00     0.011 C 
HETATM    4  C12 UNL     1       0.302   7.246  12.342  1.00  0.00    -0.032 C 
HETATM    5  C13 UNL     1      -0.051   8.069  11.057  1.00  0.00     0.016 C 
HETATM    6  C14 UNL     1       0.507   8.182  13.570  1.00  0.00     0.003 C 
HETATM    7  C15 UNL     1       1.588   9.250  13.401  1.00  0.00     0.009 C 
HETATM    8  C16 UNL     1       2.008   9.754  14.779  1.00  0.00     0.042 C 
HETATM    9  C17 UNL     1       0.861  10.273  15.698  1.00  0.00     0.095 C 
HETATM   10  O2  UNL     1       0.535  11.568  15.136  1.00  0.00    -0.377 OA
HETATM   11  C21 UNL     1      -0.459  12.316  15.824  1.00  0.00     0.169 C 
HETATM   12  C22 UNL     1      -1.765  11.569  16.035  1.00  0.00     0.027 C 
HETATM   13  C23 UNL     1      -1.627  10.075  16.319  1.00  0.00     0.010 C 
HETATM   14  C24 UNL     1      -0.440   9.378  15.612  1.00  0.00     0.032 C 
HETATM   15  C25 UNL     1      -0.813   8.822  14.151  1.00  0.00    -0.033 C 
HETATM   16  C26 UNL     1      -1.392   9.948  13.261  1.00  0.00     0.016 C 
HETATM   17  C27 UNL     1      -1.946   7.731  14.261  1.00  0.00     0.011 C 
HETATM   18  C28 UNL     1      -2.080   6.762  13.060  1.00  0.00     0.011 C 
HETATM   19  C29 UNL     1      -0.732   6.107  12.721  1.00  0.00    -0.032 C 
HETATM   20  C30 UNL     1      -0.317   5.253  13.960  1.00  0.00     0.016 C 
ENDROOT
BRANCH   1  21
HETATM   21  C7  UNL     1      -1.468   3.928  11.262  1.00  0.00    -0.014 C 
HETATM   22  C8  UNL     1      -0.555   2.715  11.539  1.00  0.00     0.010 C 
BRANCH  21  23
HETATM   23  C6  UNL     1      -2.827   3.711  11.961  1.00  0.00     0.008 C 
BRANCH  23  24
HETATM   24  C5  UNL     1      -4.076   3.630  11.082  1.00  0.00     0.028 C 
BRANCH  24  25
HETATM   25  C4  UNL     1      -5.332   3.548  11.910  1.00  0.00    -0.025 C 
HETATM   26  C2  UNL     1      -6.221   2.537  11.955  1.00  0.00    -0.091 C 
HETATM   27  C1  UNL     1      -6.081   1.236  11.212  1.00  0.00     0.042 C 
HETATM   28  C3  UNL     1      -7.441   2.630  12.833  1.00  0.00     0.042 C 
ENDBRANCH  24  25
ENDBRANCH  23  24
ENDBRANCH  21  23
ENDBRANCH   1  21
BRANCH   9  29
HETATM   29  C18 UNL     1       1.467  10.421  17.196  1.00  0.00     0.082 C 
HETATM   30  C19 UNL     1       0.350  10.549  18.254  1.00  0.00     0.049 C 
HETATM   31  C20 UNL     1       2.440  11.608  17.354  1.00  0.00     0.049 C 
BRANCH  29  32
HETATM   32  O1  UNL     1       2.241   9.269  17.573  1.00  0.00    -0.388 OA
HETATM   33  H35 UNL     1       2.545   9.390  18.489  1.00  0.00     0.210 HD
ENDBRANCH  29  32
ENDBRANCH   9  29
TORSDOF 6
ENDMDL
MODEL 9
REMARK minimizedAffinity -8.1777935
REMARK  6 active torsions:
REMARK  status: ('A' for Active; 'I' for Inactive)
REMARK    1  A    between atoms: C4_4  and  C5_5 
REMARK    2  A    between atoms: C5_5  and  C6_6 
REMARK    3  A    between atoms: C6_6  and  C7_7 
REMARK    4  A    between atoms: C7_7  and  C9_9 
REMARK    5  A    between atoms: C17_17  and  C18_18 
REMARK    6  A    between atoms: C18_18  and  O1_21 
ROOT
HETATM    1  C9  UNL     1      -5.277   6.522  13.988  1.00  0.00    -0.002 C 
HETATM    2  C10 UNL     1      -4.519   5.590  13.001  1.00  0.00     0.006 C 
HETATM    3  C11 UNL     1      -3.043   6.081  12.979  1.00  0.00     0.011 C 
HETATM    4  C12 UNL     1      -3.088   7.461  13.675  1.00  0.00    -0.032 C 
HETATM    5  C13 UNL     1      -3.597   8.449  12.571  1.00  0.00     0.016 C 
HETATM    6  C14 UNL     1      -1.757   7.963  14.308  1.00  0.00     0.003 C 
HETATM    7  C15 UNL     1      -0.607   8.178  13.322  1.00  0.00     0.009 C 
HETATM    8  C16 UNL     1       0.710   8.194  14.090  1.00  0.00     0.042 C 
HETATM    9  C17 UNL     1       0.803   9.208  15.271  1.00  0.00     0.095 C 
HETATM   10  O2  UNL     1       0.977  10.484  14.609  1.00  0.00    -0.377 OA
HETATM   11  C21 UNL     1       1.156  11.610  15.459  1.00  0.00     0.169 C 
HETATM   12  C22 UNL     1       0.064  11.783  16.501  1.00  0.00     0.027 C 
HETATM   13  C23 UNL     1      -0.493  10.486  17.088  1.00  0.00     0.010 C 
HETATM   14  C24 UNL     1      -0.535   9.288  16.111  1.00  0.00     0.032 C 
HETATM   15  C25 UNL     1      -1.899   9.209  15.265  1.00  0.00    -0.033 C 
HETATM   16  C26 UNL     1      -2.161  10.536  14.511  1.00  0.00     0.016 C 
HETATM   17  C27 UNL     1      -3.127   9.015  16.235  1.00  0.00     0.011 C 
HETATM   18  C28 UNL     1      -4.416   8.441  15.598  1.00  0.00     0.011 C 
HETATM   19  C29 UNL     1      -4.126   7.143  14.829  1.00  0.00    -0.032 C 
HETATM   20  C30 UNL     1      -3.621   6.098  15.872  1.00  0.00     0.016 C 
ENDROOT
BRANCH   1  21
HETATM   21  C7  UNL     1      -6.589   5.995  14.628  1.00  0.00    -0.014 C 
HETATM   22  C8  UNL     1      -7.708   7.035  14.421  1.00  0.00     0.010 C 
BRANCH  21  23
HETATM   23  C6  UNL     1      -7.142   4.586  14.326  1.00  0.00     0.008 C 
BRANCH  23  24
HETATM   24  C5  UNL     1      -7.450   4.238  12.869  1.00  0.00     0.028 C 
BRANCH  24  25
HETATM   25  C4  UNL     1      -7.044   2.826  12.537  1.00  0.00    -0.025 C 
HETATM   26  C2  UNL     1      -6.219   2.419  11.554  1.00  0.00    -0.091 C 
HETATM   27  C1  UNL     1      -5.479   3.336  10.617  1.00  0.00     0.042 C 
HETATM   28  C3  UNL     1      -5.933   0.954  11.351  1.00  0.00     0.042 C 
ENDBRANCH  24  25
ENDBRANCH  23  24
ENDBRANCH  21  23
ENDBRANCH   1  21
BRANCH   9  29
HETATM   29  C18 UNL     1       2.113   8.819  16.145  1.00  0.00     0.082 C 
HETATM   30  C19 UNL     1       2.250   9.710  17.398  1.00  0.00     0.049 C 
HETATM   31  C20 UNL     1       3.431   8.881  15.345  1.00  0.00     0.049 C 
BRANCH  29  32
HETATM   32  O1  UNL     1       2.049   7.465  16.627  1.00  0.00    -0.388 OA
HETATM   33  H35 UNL     1       2.833   7.297  17.176  1.00  0.00     0.210 HD
ENDBRANCH  29  32
ENDBRANCH   9  29
TORSDOF 6
ENDMDL
