MODEL 1
REMARK minimizedAffinity -7.80401373
REMARK CNNscore 0.792847574
REMARK CNNaffinity 7.03650141
REMARK  8 active torsions:
REMARK  status: ('A' for Active; 'I' for Inactive)
REMARK    1  A    between atoms: C4_4  and  C5_5 
REMARK    2  A    between atoms: C5_5  and  C6_6 
REMARK    3  A    between atoms: C6_6  and  C7_7 
REMARK    4  A    between atoms: C7_7  and  C9_9 
REMARK    5  A    between atoms: C19_19  and  C21_21 
REMARK    6  A    between atoms: C21_21  and  O2_23 
REMARK    7  A    between atoms: C22_24  and  O3_25 
REMARK    8  A    between atoms: C24_27  and  O4_28 
ROOT
HETATM    1  C9  UNL     1       4.375  54.407  -7.805  1.00  0.00    -0.002 C 
HETATM    2  C10 UNL     1       3.854  54.136  -6.363  1.00  0.00     0.006 C 
HETATM    3  C11 UNL     1       2.320  54.272  -6.401  1.00  0.00     0.011 C 
HETATM    4  C12 UNL     1       1.948  54.090  -7.885  1.00  0.00    -0.028 C 
HETATM    5  C13 UNL     1       2.109  52.535  -8.178  1.00  0.00     0.016 C 
HETATM    6  C14 UNL     1       0.468  54.518  -8.334  1.00  0.00    -0.028 C 
HETATM    7  C15 UNL     1       0.042  55.952  -7.909  1.00  0.00     0.016 C 
HETATM    8  C16 UNL     1      -0.560  53.571  -7.610  1.00  0.00     0.011 C 
HETATM    9  C17 UNL     1      -1.882  53.365  -8.337  1.00  0.00     0.007 C 
HETATM   10  C18 UNL     1      -1.635  52.682  -9.692  1.00  0.00     0.018 C 
HETATM   11  C19 UNL     1      -2.963  52.353 -10.481  1.00  0.00     0.072 C 
HETATM   12  C20 UNL     1      -4.012  53.483 -10.373  1.00  0.00     0.030 C 
HETATM   13  C22 UNL     1      -2.664  52.000 -11.973  1.00  0.00     0.139 C 
HETATM   14  C23 UNL     1      -1.219  51.566 -12.176  1.00  0.00     0.065 C 
HETATM   15  C24 UNL     1      -0.238  52.685 -11.825  1.00  0.00     0.130 C 
HETATM   16  C25 UNL     1      -0.632  53.447 -10.559  1.00  0.00    -0.000 A 
HETATM   17  C26 UNL     1      -0.838  54.936 -10.645  1.00  0.00     0.024 A 
HETATM   18  C27 UNL     1       0.400  54.428  -9.915  1.00  0.00    -0.021 A 
HETATM   19  C28 UNL     1       1.661  54.915 -10.673  1.00  0.00     0.012 C 
HETATM   20  C29 UNL     1       3.033  54.579 -10.074  1.00  0.00     0.011 C 
HETATM   21  C30 UNL     1       3.104  54.923  -8.579  1.00  0.00    -0.032 C 
HETATM   22  C31 UNL     1       3.031  56.460  -8.425  1.00  0.00     0.016 C 
ENDROOT
BRANCH   1  23
HETATM   23  C7  UNL     1       5.761  55.125  -7.829  1.00  0.00    -0.014 C 
HETATM   24  C8  UNL     1       6.387  55.074  -9.229  1.00  0.00     0.010 C 
BRANCH  23  25
HETATM   25  C6  UNL     1       5.816  56.558  -7.245  1.00  0.00     0.008 C 
BRANCH  25  26
HETATM   26  C5  UNL     1       6.261  56.614  -5.773  1.00  0.00     0.028 C 
BRANCH  26  27
HETATM   27  C4  UNL     1       7.751  56.633  -5.591  1.00  0.00    -0.025 C 
HETATM   28  C2  UNL     1       8.525  57.642  -5.144  1.00  0.00    -0.091 C 
HETATM   29  C1  UNL     1       8.028  58.987  -4.689  1.00  0.00     0.042 C 
HETATM   30  C3  UNL     1      10.020  57.476  -5.052  1.00  0.00     0.042 C 
ENDBRANCH  26  27
ENDBRANCH  25  26
ENDBRANCH  23  25
ENDBRANCH   1  23
BRANCH  15  31
HETATM   31  O4  UNL     1       1.040  52.081 -11.633  1.00  0.00    -0.395 OA
HETATM   32  H41 UNL     1       1.330  51.752 -12.500  1.00  0.00     0.210 HD
ENDBRANCH  15  31
BRANCH  11  33
HETATM   33  C21 UNL     1      -3.583  51.095  -9.863  1.00  0.00     0.151 C 
HETATM   34  O1  UNL     1      -4.725  50.689  -9.991  1.00  0.00    -0.649 OA
BRANCH  33  35
HETATM   35  O2  UNL     1      -2.733  50.410  -9.067  1.00  0.00    -0.776 OA
HETATM   36  H35 UNL     1      -3.265  49.643  -8.762  1.00  0.00     0.167 HD
ENDBRANCH  33  35
ENDBRANCH  11  33
BRANCH  13  37
HETATM   37  O3  UNL     1      -2.909  53.094 -12.864  1.00  0.00    -0.394 OA
HETATM   38  H37 UNL     1      -3.872  53.168 -12.982  1.00  0.00     0.210 HD
ENDBRANCH  13  37
TORSDOF 8
ENDMDL
MODEL 2
REMARK minimizedAffinity -6.97237682
REMARK CNNscore 0.748950601
REMARK CNNaffinity 6.20968866
REMARK  8 active torsions:
REMARK  status: ('A' for Active; 'I' for Inactive)
REMARK    1  A    between atoms: C4_4  and  C5_5 
REMARK    2  A    between atoms: C5_5  and  C6_6 
REMARK    3  A    between atoms: C6_6  and  C7_7 
REMARK    4  A    between atoms: C7_7  and  C9_9 
REMARK    5  A    between atoms: C19_19  and  C21_21 
REMARK    6  A    between atoms: C21_21  and  O2_23 
REMARK    7  A    between atoms: C22_24  and  O3_25 
REMARK    8  A    between atoms: C24_27  and  O4_28 
ROOT
HETATM    1  C9  UNL     1     -10.860  45.891 -28.162  1.00  0.00    -0.002 C 
HETATM    2  C10 UNL     1     -11.634  46.071 -29.502  1.00  0.00     0.006 C 
HETATM    3  C11 UNL     1     -13.041  45.479 -29.296  1.00  0.00     0.011 C 
HETATM    4  C12 UNL     1     -13.239  45.462 -27.768  1.00  0.00    -0.028 C 
HETATM    5  C13 UNL     1     -13.495  46.976 -27.353  1.00  0.00     0.016 C 
HETATM    6  C14 UNL     1     -14.452  44.587 -27.188  1.00  0.00    -0.028 C 
HETATM    7  C15 UNL     1     -14.500  43.116 -27.691  1.00  0.00     0.016 C 
HETATM    8  C16 UNL     1     -15.802  45.220 -27.694  1.00  0.00     0.011 C 
HETATM    9  C17 UNL     1     -17.011  44.982 -26.801  1.00  0.00     0.007 C 
HETATM   10  C18 UNL     1     -16.785  45.634 -25.427  1.00  0.00     0.018 C 
HETATM   11  C19 UNL     1     -18.027  45.507 -24.459  1.00  0.00     0.072 C 
HETATM   12  C20 UNL     1     -18.708  44.122 -24.547  1.00  0.00     0.030 C 
HETATM   13  C22 UNL     1     -17.636  45.853 -22.987  1.00  0.00     0.139 C 
HETATM   14  C23 UNL     1     -16.366  46.689 -22.917  1.00  0.00     0.065 C 
HETATM   15  C24 UNL     1     -15.163  45.936 -23.484  1.00  0.00     0.130 C 
HETATM   16  C25 UNL     1     -15.492  45.159 -24.759  1.00  0.00    -0.000 A 
HETATM   17  C26 UNL     1     -15.243  43.675 -24.788  1.00  0.00     0.024 A 
HETATM   18  C27 UNL     1     -14.321  44.568 -25.609  1.00  0.00    -0.021 A 
HETATM   19  C28 UNL     1     -12.879  44.441 -25.054  1.00  0.00     0.012 C 
HETATM   20  C29 UNL     1     -11.762  45.204 -25.777  1.00  0.00     0.011 C 
HETATM   21  C30 UNL     1     -11.805  44.978 -27.296  1.00  0.00    -0.032 C 
HETATM   22  C31 UNL     1     -11.450  43.500 -27.581  1.00  0.00     0.016 C 
ENDROOT
BRANCH   1  23
HETATM   23  C7  UNL     1      -9.336  45.621 -28.370  1.00  0.00    -0.014 C 
HETATM   24  C8  UNL     1      -9.102  44.609 -29.499  1.00  0.00     0.010 C 
BRANCH  23  25
HETATM   25  C6  UNL     1      -8.423  46.861 -28.534  1.00  0.00     0.008 C 
BRANCH  25  26
HETATM   26  C5  UNL     1      -7.238  46.639 -29.490  1.00  0.00     0.028 C 
BRANCH  26  27
HETATM   27  C4  UNL     1      -7.569  46.886 -30.934  1.00  0.00    -0.025 C 
HETATM   28  C2  UNL     1      -8.167  47.962 -31.481  1.00  0.00    -0.091 C 
HETATM   29  C1  UNL     1      -8.606  49.191 -30.732  1.00  0.00     0.042 C 
HETATM   30  C3  UNL     1      -8.439  48.016 -32.963  1.00  0.00     0.042 C 
ENDBRANCH  26  27
ENDBRANCH  25  26
ENDBRANCH  23  25
ENDBRANCH   1  23
BRANCH  15  31
HETATM   31  O4  UNL     1     -14.154  46.904 -23.769  1.00  0.00    -0.395 OA
HETATM   32  H41 UNL     1     -13.853  47.258 -22.915  1.00  0.00     0.210 HD
ENDBRANCH  15  31
BRANCH  11  33
HETATM   33  C21 UNL     1     -19.065  46.553 -24.881  1.00  0.00     0.151 C 
HETATM   34  O1  UNL     1     -18.961  47.767 -24.827  1.00  0.00    -0.649 OA
BRANCH  33  35
HETATM   35  O2  UNL     1     -20.221  46.016 -25.328  1.00  0.00    -0.776 OA
HETATM   36  H35 UNL     1     -20.766  46.799 -25.564  1.00  0.00     0.167 HD
ENDBRANCH  33  35
ENDBRANCH  11  33
BRANCH  13  37
HETATM   37  O3  UNL     1     -17.426  44.690 -22.179  1.00  0.00    -0.394 OA
HETATM   38  H37 UNL     1     -18.301  44.324 -21.955  1.00  0.00     0.210 HD
ENDBRANCH  13  37
TORSDOF 8
ENDMDL
MODEL 3
REMARK minimizedAffinity -7.73163271
REMARK CNNscore 0.646929145
REMARK CNNaffinity 6.22974825
REMARK  8 active torsions:
REMARK  status: ('A' for Active; 'I' for Inactive)
REMARK    1  A    between atoms: C4_4  and  C5_5 
REMARK    2  A    between atoms: C5_5  and  C6_6 
REMARK    3  A    between atoms: C6_6  and  C7_7 
REMARK    4  A    between atoms: C7_7  and  C9_9 
REMARK    5  A    between atoms: C19_19  and  C21_21 
REMARK    6  A    between atoms: C21_21  and  O2_23 
REMARK    7  A    between atoms: C22_24  and  O3_25 
REMARK    8  A    between atoms: C24_27  and  O4_28 
ROOT
HETATM    1  C9  UNL     1     -10.240  47.007 -28.546  1.00  0.00    -0.002 C 
HETATM    2  C10 UNL     1     -10.946  46.978 -29.934  1.00  0.00     0.006 C 
HETATM    3  C11 UNL     1     -12.183  46.071 -29.795  1.00  0.00     0.011 C 
HETATM    4  C12 UNL     1     -12.469  46.027 -28.282  1.00  0.00    -0.028 C 
HETATM    5  C13 UNL     1     -13.104  47.441 -27.927  1.00  0.00     0.016 C 
HETATM    6  C14 UNL     1     -13.475  44.896 -27.751  1.00  0.00    -0.028 C 
HETATM    7  C15 UNL     1     -13.140  43.449 -28.214  1.00  0.00     0.016 C 
HETATM    8  C16 UNL     1     -14.901  45.182 -28.355  1.00  0.00     0.011 C 
HETATM    9  C17 UNL     1     -16.074  44.674 -27.529  1.00  0.00     0.007 C 
HETATM   10  C18 UNL     1     -16.099  45.379 -26.163  1.00  0.00     0.018 C 
HETATM   11  C19 UNL     1     -17.334  44.972 -25.267  1.00  0.00     0.072 C 
HETATM   12  C20 UNL     1     -17.660  43.464 -25.356  1.00  0.00     0.030 C 
HETATM   13  C22 UNL     1     -17.133  45.422 -23.785  1.00  0.00     0.139 C 
HETATM   14  C23 UNL     1     -16.105  46.537 -23.663  1.00  0.00     0.065 C 
HETATM   15  C24 UNL     1     -14.723  46.085 -24.136  1.00  0.00     0.130 C 
HETATM   16  C25 UNL     1     -14.776  45.235 -25.406  1.00  0.00    -0.000 A 
HETATM   17  C26 UNL     1     -14.180  43.853 -25.378  1.00  0.00     0.024 A 
HETATM   18  C27 UNL     1     -13.445  44.930 -26.167  1.00  0.00    -0.021 A 
HETATM   19  C28 UNL     1     -12.054  45.158 -25.524  1.00  0.00     0.012 C 
HETATM   20  C29 UNL     1     -11.105  46.156 -26.200  1.00  0.00     0.011 C 
HETATM   21  C30 UNL     1     -10.994  45.906 -27.712  1.00  0.00    -0.032 C 
HETATM   22  C31 UNL     1     -10.282  44.552 -27.933  1.00  0.00     0.016 C 
ENDROOT
BRANCH   1  23
HETATM   23  C7  UNL     1      -8.685  47.105 -28.655  1.00  0.00    -0.014 C 
HETATM   24  C8  UNL     1      -8.268  47.989 -29.838  1.00  0.00     0.010 C 
BRANCH  23  25
HETATM   25  C6  UNL     1      -7.918  47.498 -27.368  1.00  0.00     0.008 C 
BRANCH  25  26
HETATM   26  C5  UNL     1      -6.402  47.657 -27.571  1.00  0.00     0.028 C 
BRANCH  26  27
HETATM   27  C4  UNL     1      -5.651  47.973 -26.309  1.00  0.00    -0.025 C 
HETATM   28  C2  UNL     1      -4.361  48.339 -26.174  1.00  0.00    -0.091 C 
HETATM   29  C1  UNL     1      -3.390  48.545 -27.304  1.00  0.00     0.042 C 
HETATM   30  C3  UNL     1      -3.777  48.593 -24.808  1.00  0.00     0.042 C 
ENDBRANCH  26  27
ENDBRANCH  25  26
ENDBRANCH  23  25
ENDBRANCH   1  23
BRANCH  15  31
HETATM   31  O4  UNL     1     -13.957  47.263 -24.387  1.00  0.00    -0.395 OA
HETATM   32  H41 UNL     1     -13.805  47.689 -23.527  1.00  0.00     0.210 HD
ENDBRANCH  15  31
BRANCH  11  33
HETATM   33  C21 UNL     1     -18.561  45.735 -25.780  1.00  0.00     0.151 C 
HETATM   34  O1  UNL     1     -19.228  45.490 -26.772  1.00  0.00    -0.649 OA
BRANCH  33  35
HETATM   35  O2  UNL     1     -18.881  46.811 -25.029  1.00  0.00    -0.776 OA
HETATM   36  H35 UNL     1     -19.677  47.177 -25.473  1.00  0.00     0.167 HD
ENDBRANCH  33  35
ENDBRANCH  11  33
BRANCH  13  37
HETATM   37  O3  UNL     1     -16.706  44.353 -22.933  1.00  0.00    -0.394 OA
HETATM   38  H37 UNL     1     -17.481  43.792 -22.751  1.00  0.00     0.210 HD
ENDBRANCH  13  37
TORSDOF 8
ENDMDL
MODEL 4
REMARK minimizedAffinity -8.0596981
REMARK CNNscore 0.603792965
REMARK CNNaffinity 6.67157221
REMARK  8 active torsions:
REMARK  status: ('A' for Active; 'I' for Inactive)
REMARK    1  A    between atoms: C4_4  and  C5_5 
REMARK    2  A    between atoms: C5_5  and  C6_6 
REMARK    3  A    between atoms: C6_6  and  C7_7 
REMARK    4  A    between atoms: C7_7  and  C9_9 
REMARK    5  A    between atoms: C19_19  and  C21_21 
REMARK    6  A    between atoms: C21_21  and  O2_23 
REMARK    7  A    between atoms: C22_24  and  O3_25 
REMARK    8  A    between atoms: C24_27  and  O4_28 
ROOT
HETATM    1  C9  UNL     1       4.396  54.699  -7.962  1.00  0.00    -0.002 C 
HETATM    2  C10 UNL     1       3.924  54.427  -6.504  1.00  0.00     0.006 C 
HETATM    3  C11 UNL     1       2.386  54.518  -6.499  1.00  0.00     0.011 C 
HETATM    4  C12 UNL     1       1.978  54.312  -7.970  1.00  0.00    -0.028 C 
HETATM    5  C13 UNL     1       2.176  52.759  -8.254  1.00  0.00     0.016 C 
HETATM    6  C14 UNL     1       0.475  54.692  -8.382  1.00  0.00    -0.028 C 
HETATM    7  C15 UNL     1       0.019  56.118  -7.957  1.00  0.00     0.016 C 
HETATM    8  C16 UNL     1      -0.505  53.722  -7.621  1.00  0.00     0.011 C 
HETATM    9  C17 UNL     1      -1.840  53.471  -8.308  1.00  0.00     0.007 C 
HETATM   10  C18 UNL     1      -1.611  52.783  -9.663  1.00  0.00     0.018 C 
HETATM   11  C19 UNL     1      -2.950  52.409 -10.412  1.00  0.00     0.072 C 
HETATM   12  C20 UNL     1      -4.029  53.509 -10.285  1.00  0.00     0.030 C 
HETATM   13  C22 UNL     1      -2.683  52.050 -11.909  1.00  0.00     0.139 C 
HETATM   14  C23 UNL     1      -1.232  51.656 -12.148  1.00  0.00     0.065 C 
HETATM   15  C24 UNL     1      -0.275  52.806 -11.835  1.00  0.00     0.130 C 
HETATM   16  C25 UNL     1      -0.655  53.568 -10.565  1.00  0.00    -0.000 A 
HETATM   17  C26 UNL     1      -0.907  55.050 -10.658  1.00  0.00     0.024 A 
HETATM   18  C27 UNL     1       0.365  54.585  -9.959  1.00  0.00    -0.021 A 
HETATM   19  C28 UNL     1       1.590  55.101 -10.756  1.00  0.00     0.012 C 
HETATM   20  C29 UNL     1       2.987  54.811 -10.193  1.00  0.00     0.011 C 
HETATM   21  C30 UNL     1       3.090  55.171  -8.704  1.00  0.00    -0.032 C 
HETATM   22  C31 UNL     1       2.976  56.706  -8.562  1.00  0.00     0.016 C 
ENDROOT
BRANCH   1  23
HETATM   23  C7  UNL     1       5.760  55.457  -8.031  1.00  0.00    -0.014 C 
HETATM   24  C8  UNL     1       6.213  55.908  -6.636  1.00  0.00     0.010 C 
BRANCH  23  25
HETATM   25  C6  UNL     1       6.912  54.755  -8.791  1.00  0.00     0.008 C 
BRANCH  25  26
HETATM   26  C5  UNL     1       6.531  53.378  -9.365  1.00  0.00     0.028 C 
BRANCH  26  27
HETATM   27  C4  UNL     1       7.061  52.222  -8.566  1.00  0.00    -0.025 C 
HETATM   28  C2  UNL     1       7.230  50.944  -8.958  1.00  0.00    -0.091 C 
HETATM   29  C1  UNL     1       6.944  50.409 -10.335  1.00  0.00     0.042 C 
HETATM   30  C3  UNL     1       7.758  49.912  -7.995  1.00  0.00     0.042 C 
ENDBRANCH  26  27
ENDBRANCH  25  26
ENDBRANCH  23  25
ENDBRANCH   1  23
BRANCH  15  31
HETATM   31  O4  UNL     1       1.025  52.241 -11.674  1.00  0.00    -0.395 OA
HETATM   32  H41 UNL     1       1.300  51.912 -12.546  1.00  0.00     0.210 HD
ENDBRANCH  15  31
BRANCH  11  33
HETATM   33  C21 UNL     1      -3.515  51.139  -9.765  1.00  0.00     0.151 C 
HETATM   34  O1  UNL     1      -2.959  50.398  -8.972  1.00  0.00    -0.649 OA
BRANCH  33  35
HETATM   35  O2  UNL     1      -4.764  50.832 -10.179  1.00  0.00    -0.776 OA
HETATM   36  H35 UNL     1      -4.983  50.017  -9.676  1.00  0.00     0.167 HD
ENDBRANCH  33  35
ENDBRANCH  11  33
BRANCH  13  37
HETATM   37  O3  UNL     1      -2.984  53.128 -12.802  1.00  0.00    -0.394 OA
HETATM   38  H37 UNL     1      -3.953  53.173 -12.894  1.00  0.00     0.210 HD
ENDBRANCH  13  37
TORSDOF 8
ENDMDL
MODEL 5
REMARK minimizedAffinity -7.2069602
REMARK CNNscore 0.521943927
REMARK CNNaffinity 6.69642496
REMARK  8 active torsions:
REMARK  status: ('A' for Active; 'I' for Inactive)
REMARK    1  A    between atoms: C4_4  and  C5_5 
REMARK    2  A    between atoms: C5_5  and  C6_6 
REMARK    3  A    between atoms: C6_6  and  C7_7 
REMARK    4  A    between atoms: C7_7  and  C9_9 
REMARK    5  A    between atoms: C19_19  and  C21_21 
REMARK    6  A    between atoms: C21_21  and  O2_23 
REMARK    7  A    between atoms: C22_24  and  O3_25 
REMARK    8  A    between atoms: C24_27  and  O4_28 
ROOT
HETATM    1  C9  UNL     1       0.525  54.385  -9.322  1.00  0.00    -0.002 C 
HETATM    2  C10 UNL     1      -0.557  55.456  -9.650  1.00  0.00     0.006 C 
HETATM    3  C11 UNL     1      -1.702  54.735 -10.386  1.00  0.00     0.011 C 
HETATM    4  C12 UNL     1      -1.532  53.250 -10.014  1.00  0.00    -0.028 C 
HETATM    5  C13 UNL     1      -2.031  53.127  -8.509  1.00  0.00     0.016 C 
HETATM    6  C14 UNL     1      -2.342  52.172 -10.884  1.00  0.00    -0.028 C 
HETATM    7  C15 UNL     1      -2.161  52.301 -12.424  1.00  0.00     0.016 C 
HETATM    8  C16 UNL     1      -3.881  52.404 -10.647  1.00  0.00     0.011 C 
HETATM    9  C17 UNL     1      -4.763  51.176 -10.827  1.00  0.00     0.007 C 
HETATM   10  C18 UNL     1      -4.384  50.102  -9.794  1.00  0.00     0.018 C 
HETATM   11  C19 UNL     1      -5.304  48.820  -9.853  1.00  0.00     0.072 C 
HETATM   12  C20 UNL     1      -5.646  48.402 -11.302  1.00  0.00     0.030 C 
HETATM   13  C22 UNL     1      -4.677  47.634  -9.055  1.00  0.00     0.139 C 
HETATM   14  C23 UNL     1      -3.654  48.113  -8.034  1.00  0.00     0.065 C 
HETATM   15  C24 UNL     1      -2.473  48.814  -8.704  1.00  0.00     0.130 C 
HETATM   16  C25 UNL     1      -2.898  49.739  -9.846  1.00  0.00    -0.000 A 
HETATM   17  C26 UNL     1      -2.324  49.506 -11.218  1.00  0.00     0.024 A 
HETATM   18  C27 UNL     1      -1.850  50.731 -10.445  1.00  0.00    -0.021 A 
HETATM   19  C28 UNL     1      -0.330  50.592 -10.174  1.00  0.00     0.012 C 
HETATM   20  C29 UNL     1       0.382  51.751  -9.465  1.00  0.00     0.011 C 
HETATM   21  C30 UNL     1       0.044  53.106 -10.105  1.00  0.00    -0.032 C 
HETATM   22  C31 UNL     1       0.656  53.144 -11.524  1.00  0.00     0.016 C 
ENDROOT
BRANCH   1  23
HETATM   23  C7  UNL     1       1.980  54.948  -9.383  1.00  0.00    -0.014 C 
HETATM   24  C8  UNL     1       2.241  55.663 -10.715  1.00  0.00     0.010 C 
BRANCH  23  25
HETATM   25  C6  UNL     1       2.444  55.813  -8.185  1.00  0.00     0.008 C 
BRANCH  25  26
HETATM   26  C5  UNL     1       3.544  56.829  -8.540  1.00  0.00     0.028 C 
BRANCH  26  27
HETATM   27  C4  UNL     1       4.424  57.200  -7.381  1.00  0.00    -0.025 C 
HETATM   28  C2  UNL     1       5.660  56.747  -7.093  1.00  0.00    -0.091 C 
HETATM   29  C1  UNL     1       6.447  55.772  -7.925  1.00  0.00     0.042 C 
HETATM   30  C3  UNL     1       6.381  57.225  -5.859  1.00  0.00     0.042 C 
ENDBRANCH  26  27
ENDBRANCH  25  26
ENDBRANCH  23  25
ENDBRANCH   1  23
BRANCH  15  31
HETATM   31  O4  UNL     1      -1.811  49.579  -7.698  1.00  0.00    -0.395 OA
HETATM   32  H41 UNL     1      -1.412  48.946  -7.079  1.00  0.00     0.210 HD
ENDBRANCH  15  31
BRANCH  11  33
HETATM   33  C21 UNL     1      -6.626  49.154  -9.151  1.00  0.00     0.151 C 
HETATM   34  O1  UNL     1      -7.448  49.994  -9.475  1.00  0.00    -0.649 OA
BRANCH  33  35
HETATM   35  O2  UNL     1      -6.841  48.427  -8.033  1.00  0.00    -0.776 OA
HETATM   36  H35 UNL     1      -7.714  48.744  -7.713  1.00  0.00     0.167 HD
ENDBRANCH  33  35
ENDBRANCH  11  33
BRANCH  13  37
HETATM   37  O3  UNL     1      -4.022  46.680  -9.899  1.00  0.00    -0.394 OA
HETATM   38  H37 UNL     1      -4.711  46.143 -10.328  1.00  0.00     0.210 HD
ENDBRANCH  13  37
TORSDOF 8
ENDMDL
MODEL 6
REMARK minimizedAffinity -7.5924902
REMARK CNNscore 0.47905305
REMARK CNNaffinity 5.92939997
REMARK  8 active torsions:
REMARK  status: ('A' for Active; 'I' for Inactive)
REMARK    1  A    between atoms: C4_4  and  C5_5 
REMARK    2  A    between atoms: C5_5  and  C6_6 
REMARK    3  A    between atoms: C6_6  and  C7_7 
REMARK    4  A    between atoms: C7_7  and  C9_9 
REMARK    5  A    between atoms: C19_19  and  C21_21 
REMARK    6  A    between atoms: C21_21  and  O2_23 
REMARK    7  A    between atoms: C22_24  and  O3_25 
REMARK    8  A    between atoms: C24_27  and  O4_28 
ROOT
HETATM    1  C9  UNL     1      -6.999  47.107 -30.268  1.00  0.00    -0.002 C 
HETATM    2  C10 UNL     1      -5.621  46.697 -30.864  1.00  0.00     0.006 C 
HETATM    3  C11 UNL     1      -5.823  45.359 -31.600  1.00  0.00     0.011 C 
HETATM    4  C12 UNL     1      -7.338  45.288 -31.873  1.00  0.00    -0.028 C 
HETATM    5  C13 UNL     1      -7.606  46.315 -33.058  1.00  0.00     0.016 C 
HETATM    6  C14 UNL     1      -7.945  43.870 -32.314  1.00  0.00    -0.028 C 
HETATM    7  C15 UNL     1      -7.573  42.679 -31.384  1.00  0.00     0.016 C 
HETATM    8  C16 UNL     1      -7.332  43.485 -33.712  1.00  0.00     0.011 C 
HETATM    9  C17 UNL     1      -8.196  42.575 -34.575  1.00  0.00     0.007 C 
HETATM   10  C18 UNL     1      -9.514  43.283 -34.928  1.00  0.00     0.018 C 
HETATM   11  C19 UNL     1     -10.441  42.442 -35.892  1.00  0.00     0.072 C 
HETATM   12  C20 UNL     1     -10.450  40.937 -35.543  1.00  0.00     0.030 C 
HETATM   13  C22 UNL     1     -11.890  43.022 -35.934  1.00  0.00     0.139 C 
HETATM   14  C23 UNL     1     -11.935  44.475 -35.481  1.00  0.00     0.065 C 
HETATM   15  C24 UNL     1     -11.485  44.628 -34.029  1.00  0.00     0.130 C 
HETATM   16  C25 UNL     1     -10.271  43.762 -33.687  1.00  0.00    -0.000 A 
HETATM   17  C26 UNL     1     -10.384  42.770 -32.560  1.00  0.00     0.024 A 
HETATM   18  C27 UNL     1      -9.523  44.008 -32.336  1.00  0.00    -0.021 A 
HETATM   19  C28 UNL     1     -10.143  44.846 -31.189  1.00  0.00     0.012 C 
HETATM   20  C29 UNL     1      -9.399  46.110 -30.740  1.00  0.00     0.011 C 
HETATM   21  C30 UNL     1      -7.906  45.841 -30.501  1.00  0.00    -0.032 C 
HETATM   22  C31 UNL     1      -7.767  44.909 -29.275  1.00  0.00     0.016 C 
ENDROOT
BRANCH   1  23
HETATM   23  C7  UNL     1      -6.876  47.852 -28.902  1.00  0.00    -0.014 C 
HETATM   24  C8  UNL     1      -8.197  47.800 -28.123  1.00  0.00     0.010 C 
BRANCH  23  25
HETATM   25  C6  UNL     1      -5.680  47.462 -27.998  1.00  0.00     0.008 C 
BRANCH  25  26
HETATM   26  C5  UNL     1      -4.529  48.483 -28.015  1.00  0.00     0.028 C 
BRANCH  26  27
HETATM   27  C4  UNL     1      -3.716  48.499 -26.752  1.00  0.00    -0.025 C 
HETATM   28  C2  UNL     1      -4.153  48.494 -25.477  1.00  0.00    -0.091 C 
HETATM   29  C1  UNL     1      -5.594  48.433 -25.050  1.00  0.00     0.042 C 
HETATM   30  C3  UNL     1      -3.174  48.537 -24.333  1.00  0.00     0.042 C 
ENDBRANCH  26  27
ENDBRANCH  25  26
ENDBRANCH  23  25
ENDBRANCH   1  23
BRANCH  15  31
HETATM   31  O4  UNL     1     -11.155  46.002 -33.831  1.00  0.00    -0.395 OA
HETATM   32  H41 UNL     1     -11.985  46.503 -33.894  1.00  0.00     0.210 HD
ENDBRANCH  15  31
BRANCH  11  33
HETATM   33  C21 UNL     1      -9.887  42.577 -37.316  1.00  0.00     0.151 C 
HETATM   34  O1  UNL     1      -9.778  41.701 -38.157  1.00  0.00    -0.649 OA
BRANCH  33  35
HETATM   35  O2  UNL     1      -9.456  43.822 -37.611  1.00  0.00    -0.776 OA
HETATM   36  H35 UNL     1      -9.148  43.748 -38.541  1.00  0.00     0.167 HD
ENDBRANCH  33  35
ENDBRANCH  11  33
BRANCH  13  37
HETATM   37  O3  UNL     1     -12.806  42.290 -35.111  1.00  0.00    -0.394 OA
HETATM   38  H37 UNL     1     -13.027  41.465 -35.578  1.00  0.00     0.210 HD
ENDBRANCH  13  37
TORSDOF 8
ENDMDL
MODEL 7
REMARK minimizedAffinity -7.30592251
REMARK CNNscore 0.463013947
REMARK CNNaffinity 6.00869036
REMARK  8 active torsions:
REMARK  status: ('A' for Active; 'I' for Inactive)
REMARK    1  A    between atoms: C4_4  and  C5_5 
REMARK    2  A    between atoms: C5_5  and  C6_6 
REMARK    3  A    between atoms: C6_6  and  C7_7 
REMARK    4  A    between atoms: C7_7  and  C9_9 
REMARK    5  A    between atoms: C19_19  and  C21_21 
REMARK    6  A    between atoms: C21_21  and  O2_23 
REMARK    7  A    between atoms: C22_24  and  O3_25 
REMARK    8  A    between atoms: C24_27  and  O4_28 
ROOT
HETATM    1  C9  UNL     1     -12.233  44.589 -27.704  1.00  0.00    -0.002 C 
HETATM    2  C10 UNL     1     -12.213  43.353 -28.651  1.00  0.00     0.006 C 
HETATM    3  C11 UNL     1     -11.465  43.773 -29.930  1.00  0.00     0.011 C 
HETATM    4  C12 UNL     1     -10.633  45.000 -29.512  1.00  0.00    -0.028 C 
HETATM    5  C13 UNL     1      -9.429  44.424 -28.646  1.00  0.00     0.016 C 
HETATM    6  C14 UNL     1     -10.002  45.901 -30.680  1.00  0.00    -0.028 C 
HETATM    7  C15 UNL     1     -11.011  46.361 -31.771  1.00  0.00     0.016 C 
HETATM    8  C16 UNL     1      -8.948  45.030 -31.460  1.00  0.00     0.011 C 
HETATM    9  C17 UNL     1      -7.826  45.809 -32.132  1.00  0.00     0.007 C 
HETATM   10  C18 UNL     1      -6.990  46.545 -31.073  1.00  0.00     0.018 C 
HETATM   11  C19 UNL     1      -5.750  47.316 -31.674  1.00  0.00     0.072 C 
HETATM   12  C20 UNL     1      -6.079  48.017 -33.012  1.00  0.00     0.030 C 
HETATM   13  C22 UNL     1      -5.152  48.323 -30.641  1.00  0.00     0.139 C 
HETATM   14  C23 UNL     1      -5.544  47.972 -29.212  1.00  0.00     0.065 C 
HETATM   15  C24 UNL     1      -7.057  48.040 -29.008  1.00  0.00     0.130 C 
HETATM   16  C25 UNL     1      -7.844  47.449 -30.179  1.00  0.00    -0.000 A 
HETATM   17  C26 UNL     1      -8.848  48.318 -30.889  1.00  0.00     0.024 A 
HETATM   18  C27 UNL     1      -9.376  47.192 -30.008  1.00  0.00    -0.021 A 
HETATM   19  C28 UNL     1     -10.193  47.810 -28.845  1.00  0.00     0.012 C 
HETATM   20  C29 UNL     1     -10.884  46.853 -27.865  1.00  0.00     0.011 C 
HETATM   21  C30 UNL     1     -11.679  45.762 -28.596  1.00  0.00    -0.032 C 
HETATM   22  C31 UNL     1     -12.871  46.427 -29.322  1.00  0.00     0.016 C 
ENDROOT
BRANCH   1  23
HETATM   23  C7  UNL     1     -13.537  44.683 -26.851  1.00  0.00    -0.014 C 
HETATM   24  C8  UNL     1     -13.796  46.124 -26.393  1.00  0.00     0.010 C 
BRANCH  23  25
HETATM   25  C6  UNL     1     -14.816  44.052 -27.457  1.00  0.00     0.008 C 
BRANCH  25  26
HETATM   26  C5  UNL     1     -15.892  45.080 -27.846  1.00  0.00     0.028 C 
BRANCH  26  27
HETATM   27  C4  UNL     1     -17.282  44.688 -27.432  1.00  0.00    -0.025 C 
HETATM   28  C2  UNL     1     -18.176  43.940 -28.109  1.00  0.00    -0.091 C 
HETATM   29  C1  UNL     1     -17.937  43.298 -29.449  1.00  0.00     0.042 C 
HETATM   30  C3  UNL     1     -19.542  43.672 -27.533  1.00  0.00     0.042 C 
ENDBRANCH  26  27
ENDBRANCH  25  26
ENDBRANCH  23  25
ENDBRANCH   1  23
BRANCH  15  31
HETATM   31  O4  UNL     1      -7.357  47.308 -27.821  1.00  0.00    -0.395 OA
HETATM   32  H41 UNL     1      -6.978  47.806 -27.078  1.00  0.00     0.210 HD
ENDBRANCH  15  31
BRANCH  11  33
HETATM   33  C21 UNL     1      -4.647  46.290 -31.956  1.00  0.00     0.151 C 
HETATM   34  O1  UNL     1      -3.493  46.510 -32.285  1.00  0.00    -0.649 OA
BRANCH  33  35
HETATM   35  O2  UNL     1      -5.059  45.009 -31.843  1.00  0.00    -0.776 OA
HETATM   36  H35 UNL     1      -4.252  44.485 -32.039  1.00  0.00     0.167 HD
ENDBRANCH  33  35
ENDBRANCH  11  33
BRANCH  13  37
HETATM   37  O3  UNL     1      -5.566  49.673 -30.876  1.00  0.00    -0.394 OA
HETATM   38  H37 UNL     1      -5.056  50.011 -31.634  1.00  0.00     0.210 HD
ENDBRANCH  13  37
TORSDOF 8
ENDMDL
MODEL 8
REMARK minimizedAffinity -7.4585619
REMARK CNNscore 0.394739032
REMARK CNNaffinity 6.54182577
REMARK  8 active torsions:
REMARK  status: ('A' for Active; 'I' for Inactive)
REMARK    1  A    between atoms: C4_4  and  C5_5 
REMARK    2  A    between atoms: C5_5  and  C6_6 
REMARK    3  A    between atoms: C6_6  and  C7_7 
REMARK    4  A    between atoms: C7_7  and  C9_9 
REMARK    5  A    between atoms: C19_19  and  C21_21 
REMARK    6  A    between atoms: C21_21  and  O2_23 
REMARK    7  A    between atoms: C22_24  and  O3_25 
REMARK    8  A    between atoms: C24_27  and  O4_28 
ROOT
HETATM    1  C9  UNL     1       2.766  56.154  -8.645  1.00  0.00    -0.002 C 
HETATM    2  C10 UNL     1       3.845  55.334  -9.411  1.00  0.00     0.006 C 
HETATM    3  C11 UNL     1       3.245  53.943  -9.689  1.00  0.00     0.011 C 
HETATM    4  C12 UNL     1       1.721  54.144  -9.574  1.00  0.00    -0.028 C 
HETATM    5  C13 UNL     1       1.292  54.916 -10.896  1.00  0.00     0.016 C 
HETATM    6  C14 UNL     1       0.808  52.830  -9.461  1.00  0.00    -0.028 C 
HETATM    7  C15 UNL     1       1.240  51.823  -8.356  1.00  0.00     0.016 C 
HETATM    8  C16 UNL     1       0.940  52.020 -10.804  1.00  0.00     0.011 C 
HETATM    9  C17 UNL     1      -0.257  51.152 -11.164  1.00  0.00     0.007 C 
HETATM   10  C18 UNL     1      -1.499  52.032 -11.380  1.00  0.00     0.018 C 
HETATM   11  C19 UNL     1      -2.774  51.221 -11.838  1.00  0.00     0.072 C 
HETATM   12  C20 UNL     1      -2.913  49.869 -11.102  1.00  0.00     0.030 C 
HETATM   13  C22 UNL     1      -4.072  52.078 -11.699  1.00  0.00     0.139 C 
HETATM   14  C23 UNL     1      -3.768  53.569 -11.658  1.00  0.00     0.065 C 
HETATM   15  C24 UNL     1      -2.913  53.938 -10.447  1.00  0.00     0.130 C 
HETATM   16  C25 UNL     1      -1.797  52.928 -10.175  1.00  0.00    -0.000 A 
HETATM   17  C26 UNL     1      -1.740  52.259  -8.827  1.00  0.00     0.024 A 
HETATM   18  C27 UNL     1      -0.674  53.298  -9.153  1.00  0.00    -0.021 A 
HETATM   19  C28 UNL     1      -0.815  54.484  -8.164  1.00  0.00     0.012 C 
HETATM   20  C29 UNL     1       0.207  55.624  -8.260  1.00  0.00     0.011 C 
HETATM   21  C30 UNL     1       1.649  55.097  -8.309  1.00  0.00    -0.032 C 
HETATM   22  C31 UNL     1       1.982  54.453  -6.944  1.00  0.00     0.016 C 
ENDROOT
BRANCH   1  23
HETATM   23  C7  UNL     1       3.377  57.139  -7.599  1.00  0.00    -0.014 C 
HETATM   24  C8  UNL     1       2.277  57.845  -6.795  1.00  0.00     0.010 C 
BRANCH  23  25
HETATM   25  C6  UNL     1       4.475  56.573  -6.664  1.00  0.00     0.008 C 
BRANCH  25  26
HETATM   26  C5  UNL     1       5.887  57.099  -6.973  1.00  0.00     0.028 C 
BRANCH  26  27
HETATM   27  C4  UNL     1       6.860  56.923  -5.843  1.00  0.00    -0.025 C 
HETATM   28  C2  UNL     1       7.082  57.743  -4.796  1.00  0.00    -0.091 C 
HETATM   29  C1  UNL     1       6.347  59.028  -4.525  1.00  0.00     0.042 C 
HETATM   30  C3  UNL     1       8.127  57.403  -3.766  1.00  0.00     0.042 C 
ENDBRANCH  26  27
ENDBRANCH  25  26
ENDBRANCH  23  25
ENDBRANCH   1  23
BRANCH  15  31
HETATM   31  O4  UNL     1      -2.337  55.217 -10.712  1.00  0.00    -0.395 OA
HETATM   32  H41 UNL     1      -3.065  55.860 -10.713  1.00  0.00     0.210 HD
ENDBRANCH  15  31
BRANCH  11  33
HETATM   33  C21 UNL     1      -2.626  50.913 -13.333  1.00  0.00     0.151 C 
HETATM   34  O1  UNL     1      -1.899  51.470 -14.139  1.00  0.00    -0.649 OA
BRANCH  33  35
HETATM   35  O2  UNL     1      -3.439  49.925 -13.763  1.00  0.00    -0.776 OA
HETATM   36  H35 UNL     1      -3.222  49.842 -14.718  1.00  0.00     0.167 HD
ENDBRANCH  33  35
ENDBRANCH  11  33
BRANCH  13  37
HETATM   37  O3  UNL     1      -4.821  51.763 -10.519  1.00  0.00    -0.394 OA
HETATM   38  H37 UNL     1      -5.287  50.923 -10.681  1.00  0.00     0.210 HD
ENDBRANCH  13  37
TORSDOF 8
ENDMDL
MODEL 9
REMARK minimizedAffinity -7.06652975
REMARK CNNscore 0.380818665
REMARK CNNaffinity 6.32011461
REMARK  8 active torsions:
REMARK  status: ('A' for Active; 'I' for Inactive)
REMARK    1  A    between atoms: C4_4  and  C5_5 
REMARK    2  A    between atoms: C5_5  and  C6_6 
REMARK    3  A    between atoms: C6_6  and  C7_7 
REMARK    4  A    between atoms: C7_7  and  C9_9 
REMARK    5  A    between atoms: C19_19  and  C21_21 
REMARK    6  A    between atoms: C21_21  and  O2_23 
REMARK    7  A    between atoms: C22_24  and  O3_25 
REMARK    8  A    between atoms: C24_27  and  O4_28 
ROOT
HETATM    1  C9  UNL     1      -1.894  50.844 -10.120  1.00  0.00    -0.002 C 
HETATM    2  C10 UNL     1      -1.342  51.070 -11.558  1.00  0.00     0.006 C 
HETATM    3  C11 UNL     1      -0.655  52.448 -11.570  1.00  0.00     0.011 C 
HETATM    4  C12 UNL     1      -0.355  52.748 -10.089  1.00  0.00    -0.028 C 
HETATM    5  C13 UNL     1       0.873  51.814  -9.705  1.00  0.00     0.016 C 
HETATM    6  C14 UNL     1       0.042  54.254  -9.704  1.00  0.00    -0.028 C 
HETATM    7  C15 UNL     1      -0.941  55.345 -10.221  1.00  0.00     0.016 C 
HETATM    8  C16 UNL     1       1.411  54.597 -10.401  1.00  0.00     0.011 C 
HETATM    9  C17 UNL     1       2.255  55.652  -9.701  1.00  0.00     0.007 C 
HETATM   10  C18 UNL     1       2.661  55.157  -8.303  1.00  0.00     0.018 C 
HETATM   11  C19 UNL     1       3.610  56.157  -7.532  1.00  0.00     0.072 C 
HETATM   12  C20 UNL     1       3.203  57.634  -7.732  1.00  0.00     0.030 C 
HETATM   13  C22 UNL     1       3.704  55.796  -6.016  1.00  0.00     0.139 C 
HETATM   14  C23 UNL     1       3.308  54.350  -5.750  1.00  0.00     0.065 C 
HETATM   15  C24 UNL     1       1.854  54.081  -6.137  1.00  0.00     0.130 C 
HETATM   16  C25 UNL     1       1.455  54.748  -7.453  1.00  0.00    -0.000 A 
HETATM   17  C26 UNL     1       0.293  55.705  -7.457  1.00  0.00     0.024 A 
HETATM   18  C27 UNL     1       0.101  54.348  -8.124  1.00  0.00    -0.021 A 
HETATM   19  C28 UNL     1      -1.001  53.569  -7.360  1.00  0.00     0.012 C 
HETATM   20  C29 UNL     1      -1.414  52.195  -7.902  1.00  0.00     0.011 C 
HETATM   21  C30 UNL     1      -1.694  52.236  -9.412  1.00  0.00    -0.032 C 
HETATM   22  C31 UNL     1      -2.957  53.093  -9.653  1.00  0.00     0.016 C 
ENDROOT
BRANCH   1  23
HETATM   23  C7  UNL     1      -3.233  50.040 -10.100  1.00  0.00    -0.014 C 
HETATM   24  C8  UNL     1      -3.426  49.321  -8.758  1.00  0.00     0.010 C 
BRANCH  23  25
HETATM   25  C6  UNL     1      -4.515  50.806 -10.512  1.00  0.00     0.008 C 
BRANCH  25  26
HETATM   26  C5  UNL     1      -5.713  49.893 -10.822  1.00  0.00     0.028 C 
BRANCH  26  27
HETATM   27  C4  UNL     1      -6.686  49.763  -9.685  1.00  0.00    -0.025 C 
HETATM   28  C2  UNL     1      -8.000  49.471  -9.740  1.00  0.00    -0.091 C 
HETATM   29  C1  UNL     1      -8.775  49.171 -10.995  1.00  0.00     0.042 C 
HETATM   30  C3  UNL     1      -8.823  49.408  -8.479  1.00  0.00     0.042 C 
ENDBRANCH  26  27
ENDBRANCH  25  26
ENDBRANCH  23  25
ENDBRANCH   1  23
BRANCH  15  31
HETATM   31  O4  UNL     1       1.704  52.668  -6.259  1.00  0.00    -0.395 OA
HETATM   32  H41 UNL     1       1.803  52.295  -5.368  1.00  0.00     0.210 HD
ENDBRANCH  15  31
BRANCH  11  33
HETATM   33  C21 UNL     1       5.026  55.994  -8.096  1.00  0.00     0.151 C 
HETATM   34  O1  UNL     1       6.075  56.359  -7.590  1.00  0.00    -0.649 OA
BRANCH  33  35
HETATM   35  O2  UNL     1       5.060  55.401  -9.309  1.00  0.00    -0.776 OA
HETATM   36  H35 UNL     1       6.018  55.361  -9.523  1.00  0.00     0.167 HD
ENDBRANCH  33  35
ENDBRANCH  11  33
BRANCH  13  37
HETATM   37  O3  UNL     1       2.871  56.623  -5.195  1.00  0.00    -0.394 OA
HETATM   38  H37 UNL     1       3.309  57.488  -5.107  1.00  0.00     0.210 HD
ENDBRANCH  13  37
TORSDOF 8
ENDMDL
