MODEL 1
REMARK minimizedAffinity -8.02558708
REMARK CNNscore 0.396377236
REMARK CNNaffinity 6.12883759
REMARK  6 active torsions:
REMARK  status: ('A' for Active; 'I' for Inactive)
REMARK    1  A    between atoms: C9_10  and  C10_11 
REMARK    2  A    between atoms: C11_13  and  O3_14 
REMARK    3  A    between atoms: C12_15  and  C13_16 
REMARK    4  A    between atoms: C14_18  and  O5_19 
REMARK    5  A    between atoms: C16_21  and  C17_22 
REMARK    6  A    between atoms: C17_22  and  C18_23 
ROOT
HETATM    1  C1  UNL     1      -4.481   8.464  12.887  1.00  0.00     0.043 C 
HETATM    2  C2  UNL     1      -3.212   8.491  13.711  1.00  0.00    -0.087 C 
HETATM    3  C3  UNL     1      -2.266   9.407  13.422  1.00  0.00    -0.024 C 
HETATM    4  C4  UNL     1      -0.944   9.721  14.062  1.00  0.00     0.030 C 
HETATM    5  C5  UNL     1      -0.120   8.611  14.716  1.00  0.00     0.042 C 
HETATM    6  C6  UNL     1       0.776   7.731  13.794  1.00  0.00     0.069 C 
HETATM    7  C7  UNL     1       1.446   6.679  14.701  1.00  0.00     0.047 C 
HETATM    8  O1  UNL     1       1.812   8.711  13.417  1.00  0.00    -0.338 OA
HETATM    9  C8  UNL     1       2.868   8.216  12.706  1.00  0.00     0.095 A 
HETATM   10  C9  UNL     1       4.134   8.778  12.931  1.00  0.00     0.070 A 
HETATM   11  C11 UNL     1       5.266   8.234  12.309  1.00  0.00     0.097 A 
HETATM   12  C12 UNL     1       5.125   7.126  11.472  1.00  0.00     0.069 A 
HETATM   13  C14 UNL     1       3.846   6.592  11.231  1.00  0.00     0.091 A 
HETATM   14  C15 UNL     1       2.695   7.166  11.803  1.00  0.00     0.015 A 
HETATM   15  C16 UNL     1       1.299   6.665  11.486  1.00  0.00     0.032 C 
HETATM   16  C21 UNL     1       0.171   7.216  12.456  1.00  0.00     0.034 C 
HETATM   17  C22 UNL     1      -1.073   6.348  12.310  1.00  0.00     0.006 A 
HETATM   18  C23 UNL     1      -2.193   5.829  13.195  1.00  0.00    -0.001 A 
HETATM   19  C24 UNL     1      -2.387   6.179  14.624  1.00  0.00     0.010 C 
HETATM   20  C25 UNL     1      -3.186   7.483  14.845  1.00  0.00     0.034 C 
HETATM   21  C26 UNL     1      -1.173   4.846  12.630  1.00  0.00    -0.039 A 
HETATM   22  C27 UNL     1      -0.272   4.104  13.580  1.00  0.00     0.015 C 
HETATM   23  C28 UNL     1      -1.605   3.971  11.468  1.00  0.00     0.015 C 
ENDROOT
BRANCH  15  24
HETATM   24  C17 UNL     1       0.930   6.775   9.967  1.00  0.00     0.014 C 
BRANCH  24  25
HETATM   25  C18 UNL     1       1.038   8.104   9.175  1.00  0.00    -0.022 C 
HETATM   26  C19 UNL     1      -0.310   8.697   8.763  1.00  0.00     0.009 C 
HETATM   27  C20 UNL     1       1.986   8.084   7.981  1.00  0.00     0.009 C 
ENDBRANCH  24  25
ENDBRANCH  15  24
BRANCH  13  28
HETATM   28  O5  UNL     1       3.674   5.483  10.441  1.00  0.00    -0.359 OA
HETATM   29  H15 UNL     1       4.552   5.203  10.092  1.00  0.00     0.217 HD
ENDBRANCH  13  28
BRANCH  10  30
HETATM   30  C10 UNL     1       4.264   9.926  13.851  1.00  0.00     0.275 C 
HETATM   31  O2  UNL     1       5.376  10.325  14.190  1.00  0.00    -0.301 OA
ENDBRANCH  10  30
BRANCH  12  32
HETATM   32  C13 UNL     1       6.323   6.528  10.846  1.00  0.00     0.275 C 
HETATM   33  O4  UNL     1       7.188   7.244  10.347  1.00  0.00    -0.301 OA
ENDBRANCH  12  32
BRANCH  11  34
HETATM   34  O3  UNL     1       6.523   8.748  12.514  1.00  0.00    -0.359 OA
HETATM   35  H13 UNL     1       6.457   9.509  13.137  1.00  0.00     0.217 HD
ENDBRANCH  11  34
TORSDOF 6
ENDMDL
MODEL 2
REMARK minimizedAffinity -5.84767437
REMARK CNNscore 0.285363913
REMARK CNNaffinity 5.24131632
REMARK  6 active torsions:
REMARK  status: ('A' for Active; 'I' for Inactive)
REMARK    1  A    between atoms: C9_10  and  C10_11 
REMARK    2  A    between atoms: C11_13  and  O3_14 
REMARK    3  A    between atoms: C12_15  and  C13_16 
REMARK    4  A    between atoms: C14_18  and  O5_19 
REMARK    5  A    between atoms: C16_21  and  C17_22 
REMARK    6  A    between atoms: C17_22  and  C18_23 
ROOT
HETATM    1  C1  UNL     1     -13.437  -6.051   8.182  1.00  0.00     0.043 C 
HETATM    2  C2  UNL     1     -14.379  -4.993   8.716  1.00  0.00    -0.087 C 
HETATM    3  C3  UNL     1     -13.878  -3.993   9.469  1.00  0.00    -0.024 C 
HETATM    4  C4  UNL     1     -14.521  -2.790  10.099  1.00  0.00     0.030 C 
HETATM    5  C5  UNL     1     -15.970  -2.856  10.585  1.00  0.00     0.042 C 
HETATM    6  C6  UNL     1     -16.238  -3.472  11.991  1.00  0.00     0.069 C 
HETATM    7  C7  UNL     1     -17.767  -3.453  12.197  1.00  0.00     0.047 C 
HETATM    8  O1  UNL     1     -15.665  -2.422  12.853  1.00  0.00    -0.338 OA
HETATM    9  C8  UNL     1     -15.867  -2.579  14.195  1.00  0.00     0.095 A 
HETATM   10  C9  UNL     1     -16.050  -1.426  14.972  1.00  0.00     0.070 A 
HETATM   11  C11 UNL     1     -16.369  -1.537  16.333  1.00  0.00     0.097 A 
HETATM   12  C12 UNL     1     -16.510  -2.803  16.904  1.00  0.00     0.069 A 
HETATM   13  C14 UNL     1     -16.294  -3.950  16.120  1.00  0.00     0.091 A 
HETATM   14  C15 UNL     1     -15.916  -3.851  14.768  1.00  0.00     0.015 A 
HETATM   15  C16 UNL     1     -15.589  -5.071  13.928  1.00  0.00     0.032 C 
HETATM   16  C21 UNL     1     -15.499  -4.786  12.370  1.00  0.00     0.034 C 
HETATM   17  C22 UNL     1     -15.580  -6.111  11.621  1.00  0.00     0.006 A 
HETATM   18  C23 UNL     1     -16.155  -6.630  10.315  1.00  0.00    -0.001 A 
HETATM   19  C24 UNL     1     -16.808  -5.796   9.275  1.00  0.00     0.010 C 
HETATM   20  C25 UNL     1     -15.819  -5.162   8.271  1.00  0.00     0.034 C 
HETATM   21  C26 UNL     1     -16.771  -7.087  11.633  1.00  0.00    -0.039 A 
HETATM   22  C27 UNL     1     -18.194  -6.708  11.942  1.00  0.00     0.015 C 
HETATM   23  C28 UNL     1     -16.446  -8.487  12.116  1.00  0.00     0.015 C 
ENDROOT
BRANCH  15  24
HETATM   24  C17 UNL     1     -14.384  -5.904  14.487  1.00  0.00     0.014 C 
BRANCH  24  25
HETATM   25  C18 UNL     1     -12.916  -5.636  14.066  1.00  0.00    -0.022 C 
HETATM   26  C19 UNL     1     -11.923  -6.692  14.552  1.00  0.00     0.009 C 
HETATM   27  C20 UNL     1     -12.387  -4.240  14.374  1.00  0.00     0.009 C 
ENDBRANCH  24  25
ENDBRANCH  15  24
BRANCH  13  28
HETATM   28  O5  UNL     1     -16.458  -5.210  16.640  1.00  0.00    -0.359 OA
HETATM   29  H15 UNL     1     -16.699  -5.131  17.593  1.00  0.00     0.217 HD
ENDBRANCH  13  28
BRANCH  10  30
HETATM   30  C10 UNL     1     -15.932  -0.098  14.337  1.00  0.00     0.275 C 
HETATM   31  O2  UNL     1     -15.464   0.008  13.206  1.00  0.00    -0.301 OA
ENDBRANCH  10  30
BRANCH  12  32
HETATM   32  C13 UNL     1     -16.885  -2.921  18.329  1.00  0.00     0.275 C 
HETATM   33  O4  UNL     1     -16.171  -2.435  19.203  1.00  0.00    -0.301 OA
ENDBRANCH  12  32
BRANCH  11  34
HETATM   34  O3  UNL     1     -16.567  -0.432  17.124  1.00  0.00    -0.359 OA
HETATM   35  H13 UNL     1     -16.449   0.377  16.573  1.00  0.00     0.217 HD
ENDBRANCH  11  34
TORSDOF 6
ENDMDL
MODEL 3
REMARK minimizedAffinity -5.95517015
REMARK CNNscore 0.282401085
REMARK CNNaffinity 5.33043289
REMARK  6 active torsions:
REMARK  status: ('A' for Active; 'I' for Inactive)
REMARK    1  A    between atoms: C9_10  and  C10_11 
REMARK    2  A    between atoms: C11_13  and  O3_14 
REMARK    3  A    between atoms: C12_15  and  C13_16 
REMARK    4  A    between atoms: C14_18  and  O5_19 
REMARK    5  A    between atoms: C16_21  and  C17_22 
REMARK    6  A    between atoms: C17_22  and  C18_23 
ROOT
HETATM    1  C1  UNL     1     -10.303 -14.081   3.467  1.00  0.00     0.043 C 
HETATM    2  C2  UNL     1      -9.163 -13.123   3.736  1.00  0.00    -0.087 C 
HETATM    3  C3  UNL     1      -8.240 -13.451   4.663  1.00  0.00    -0.024 C 
HETATM    4  C4  UNL     1      -6.990 -12.758   5.125  1.00  0.00     0.030 C 
HETATM    5  C5  UNL     1      -6.910 -11.231   5.126  1.00  0.00     0.042 C 
HETATM    6  C6  UNL     1      -7.524 -10.471   6.339  1.00  0.00     0.069 C 
HETATM    7  C7  UNL     1      -7.345  -8.965   6.055  1.00  0.00     0.047 C 
HETATM    8  O1  UNL     1      -6.562 -10.837   7.395  1.00  0.00    -0.338 OA
HETATM    9  C8  UNL     1      -6.727 -10.204   8.595  1.00  0.00     0.095 A 
HETATM   10  C9  UNL     1      -5.579  -9.893   9.338  1.00  0.00     0.070 A 
HETATM   11  C11 UNL     1      -5.686  -9.149  10.521  1.00  0.00     0.097 A 
HETATM   12  C12 UNL     1      -6.942  -8.713  10.947  1.00  0.00     0.069 A 
HETATM   13  C14 UNL     1      -8.088  -9.057  10.208  1.00  0.00     0.091 A 
HETATM   14  C15 UNL     1      -7.999  -9.854   9.052  1.00  0.00     0.015 A 
HETATM   15  C16 UNL     1      -9.228 -10.314   8.290  1.00  0.00     0.032 C 
HETATM   16  C21 UNL     1      -8.919 -10.922   6.858  1.00  0.00     0.034 C 
HETATM   17  C22 UNL     1     -10.210 -10.958   6.048  1.00  0.00     0.006 A 
HETATM   18  C23 UNL     1     -10.635 -10.782   4.601  1.00  0.00    -0.001 A 
HETATM   19  C24 UNL     1      -9.711 -10.577   3.456  1.00  0.00     0.010 C 
HETATM   20  C25 UNL     1      -9.165 -11.890   2.852  1.00  0.00     0.034 C 
HETATM   21  C26 UNL     1     -11.052  -9.738   5.631  1.00  0.00    -0.039 A 
HETATM   22  C27 UNL     1     -10.528  -8.334   5.498  1.00  0.00     0.015 C 
HETATM   23  C28 UNL     1     -12.490  -9.758   6.113  1.00  0.00     0.015 C 
ENDROOT
BRANCH  15  24
HETATM   24  C17 UNL     1     -10.199 -11.193   9.152  1.00  0.00     0.014 C 
BRANCH  24  25
HETATM   25  C18 UNL     1     -10.056 -11.333  10.689  1.00  0.00    -0.022 C 
HETATM   26  C19 UNL     1      -9.360 -12.620  11.138  1.00  0.00     0.009 C 
HETATM   27  C20 UNL     1     -11.335 -11.124  11.492  1.00  0.00     0.009 C 
ENDBRANCH  24  25
ENDBRANCH  15  24
BRANCH  13  28
HETATM   28  O5  UNL     1      -9.334  -8.617  10.579  1.00  0.00    -0.359 OA
HETATM   29  H15 UNL     1      -9.251  -8.094  11.411  1.00  0.00     0.217 HD
ENDBRANCH  13  28
BRANCH  10  30
HETATM   30  C10 UNL     1      -4.257 -10.334   8.848  1.00  0.00     0.275 C 
HETATM   31  O2  UNL     1      -3.527  -9.548   8.247  1.00  0.00    -0.301 OA
ENDBRANCH  10  30
BRANCH  12  32
HETATM   32  C13 UNL     1      -7.051  -7.895  12.173  1.00  0.00     0.275 C 
HETATM   33  O4  UNL     1      -6.690  -6.720  12.173  1.00  0.00    -0.301 OA
ENDBRANCH  12  32
BRANCH  11  34
HETATM   34  O3  UNL     1      -4.584  -8.815  11.270  1.00  0.00    -0.359 OA
HETATM   35  H13 UNL     1      -3.780  -9.179  10.830  1.00  0.00     0.217 HD
ENDBRANCH  11  34
TORSDOF 6
ENDMDL
MODEL 4
REMARK minimizedAffinity -5.88253736
REMARK CNNscore 0.270893097
REMARK CNNaffinity 5.58008623
REMARK  6 active torsions:
REMARK  status: ('A' for Active; 'I' for Inactive)
REMARK    1  A    between atoms: C9_10  and  C10_11 
REMARK    2  A    between atoms: C11_13  and  O3_14 
REMARK    3  A    between atoms: C12_15  and  C13_16 
REMARK    4  A    between atoms: C14_18  and  O5_19 
REMARK    5  A    between atoms: C16_21  and  C17_22 
REMARK    6  A    between atoms: C17_22  and  C18_23 
ROOT
HETATM    1  C1  UNL     1      -1.274  17.971   5.652  1.00  0.00     0.043 C 
HETATM    2  C2  UNL     1      -0.057  17.174   5.234  1.00  0.00    -0.087 C 
HETATM    3  C3  UNL     1       0.809  17.717   4.356  1.00  0.00    -0.024 C 
HETATM    4  C4  UNL     1       2.106  17.219   3.785  1.00  0.00     0.030 C 
HETATM    5  C5  UNL     1       2.325  15.722   3.560  1.00  0.00     0.042 C 
HETATM    6  C6  UNL     1       1.754  15.091   2.256  1.00  0.00     0.069 C 
HETATM    7  C7  UNL     1       2.076  13.583   2.315  1.00  0.00     0.047 C 
HETATM    8  O1  UNL     1       2.653  15.694   1.254  1.00  0.00    -0.338 OA
HETATM    9  C8  UNL     1       2.518  15.228  -0.023  1.00  0.00     0.095 A 
HETATM   10  C9  UNL     1       3.672  15.137  -0.816  1.00  0.00     0.070 A 
HETATM   11  C11 UNL     1       3.605  14.564  -2.094  1.00  0.00     0.097 A 
HETATM   12  C12 UNL     1       2.384  14.078  -2.566  1.00  0.00     0.069 A 
HETATM   13  C14 UNL     1       1.230  14.203  -1.772  1.00  0.00     0.091 A 
HETATM   14  C15 UNL     1       1.273  14.830  -0.513  1.00  0.00     0.015 A 
HETATM   15  C16 UNL     1       0.025  15.058   0.320  1.00  0.00     0.032 C 
HETATM   16  C21 UNL     1       0.311  15.479   1.822  1.00  0.00     0.034 C 
HETATM   17  C22 UNL     1      -0.957  15.276   2.642  1.00  0.00     0.006 A 
HETATM   18  C23 UNL     1      -1.329  14.855   4.053  1.00  0.00    -0.001 A 
HETATM   19  C24 UNL     1      -0.364  14.574   5.146  1.00  0.00     0.010 C 
HETATM   20  C25 UNL     1       0.074  15.831   5.929  1.00  0.00     0.034 C 
HETATM   21  C26 UNL     1      -1.674  13.935   2.886  1.00  0.00    -0.039 A 
HETATM   22  C27 UNL     1      -1.021  12.582   2.807  1.00  0.00     0.015 C 
HETATM   23  C28 UNL     1      -3.119  13.889   2.427  1.00  0.00     0.015 C 
ENDROOT
BRANCH  15  24
HETATM   24  C17 UNL     1      -1.042  15.956  -0.394  1.00  0.00     0.014 C 
BRANCH  24  25
HETATM   25  C18 UNL     1      -2.111  16.765   0.386  1.00  0.00    -0.022 C 
HETATM   26  C19 UNL     1      -3.541  16.553  -0.111  1.00  0.00     0.009 C 
HETATM   27  C20 UNL     1      -1.826  18.254   0.541  1.00  0.00     0.009 C 
ENDBRANCH  24  25
ENDBRANCH  15  24
BRANCH  13  28
HETATM   28  O5  UNL     1       0.020  13.706  -2.191  1.00  0.00    -0.359 OA
HETATM   29  H15 UNL     1       0.131  13.318  -3.090  1.00  0.00     0.217 HD
ENDBRANCH  13  28
BRANCH  10  30
HETATM   30  C10 UNL     1       4.959  15.624  -0.280  1.00  0.00     0.275 C 
HETATM   31  O2  UNL     1       5.929  14.871  -0.218  1.00  0.00    -0.301 OA
ENDBRANCH  10  30
BRANCH  12  32
HETATM   32  C13 UNL     1       2.321  13.439  -3.896  1.00  0.00     0.275 C 
HETATM   33  O4  UNL     1       3.051  12.488  -4.167  1.00  0.00    -0.301 OA
ENDBRANCH  12  32
BRANCH  11  34
HETATM   34  O3  UNL     1       4.714  14.447  -2.894  1.00  0.00    -0.359 OA
HETATM   35  H13 UNL     1       5.492  14.817  -2.414  1.00  0.00     0.217 HD
ENDBRANCH  11  34
TORSDOF 6
ENDMDL
MODEL 5
REMARK minimizedAffinity -5.38591194
REMARK CNNscore 0.268989682
REMARK CNNaffinity 5.32692337
REMARK  6 active torsions:
REMARK  status: ('A' for Active; 'I' for Inactive)
REMARK    1  A    between atoms: C9_10  and  C10_11 
REMARK    2  A    between atoms: C11_13  and  O3_14 
REMARK    3  A    between atoms: C12_15  and  C13_16 
REMARK    4  A    between atoms: C14_18  and  O5_19 
REMARK    5  A    between atoms: C16_21  and  C17_22 
REMARK    6  A    between atoms: C17_22  and  C18_23 
ROOT
HETATM    1  C1  UNL     1     -11.411   9.652  18.250  1.00  0.00     0.043 C 
HETATM    2  C2  UNL     1     -11.798  10.690  17.219  1.00  0.00    -0.087 C 
HETATM    3  C3  UNL     1     -13.037  11.220  17.259  1.00  0.00    -0.024 C 
HETATM    4  C4  UNL     1     -13.704  12.278  16.429  1.00  0.00     0.030 C 
HETATM    5  C5  UNL     1     -13.336  12.448  14.954  1.00  0.00     0.042 C 
HETATM    6  C6  UNL     1     -14.022  11.505  13.920  1.00  0.00     0.069 C 
HETATM    7  C7  UNL     1     -13.436  11.863  12.539  1.00  0.00     0.047 C 
HETATM    8  O1  UNL     1     -15.401  12.025  13.961  1.00  0.00    -0.338 OA
HETATM    9  C8  UNL     1     -16.262  11.501  13.039  1.00  0.00     0.095 A 
HETATM   10  C9  UNL     1     -17.247  12.345  12.505  1.00  0.00     0.070 A 
HETATM   11  C11 UNL     1     -18.084  11.887  11.477  1.00  0.00     0.097 A 
HETATM   12  C12 UNL     1     -17.923  10.591  10.985  1.00  0.00     0.069 A 
HETATM   13  C14 UNL     1     -16.950   9.747  11.550  1.00  0.00     0.091 A 
HETATM   14  C15 UNL     1     -16.145  10.174  12.622  1.00  0.00     0.015 A 
HETATM   15  C16 UNL     1     -15.154   9.252  13.307  1.00  0.00     0.032 C 
HETATM   16  C21 UNL     1     -14.126   9.991  14.263  1.00  0.00     0.034 C 
HETATM   17  C22 UNL     1     -12.960   9.054  14.554  1.00  0.00     0.006 A 
HETATM   18  C23 UNL     1     -11.463   9.160  14.782  1.00  0.00    -0.001 A 
HETATM   19  C24 UNL     1     -10.695  10.428  14.858  1.00  0.00     0.010 C 
HETATM   20  C25 UNL     1     -10.679  11.065  16.265  1.00  0.00     0.034 C 
HETATM   21  C26 UNL     1     -11.977   8.482  13.516  1.00  0.00    -0.039 A 
HETATM   22  C27 UNL     1     -11.672   9.106  12.181  1.00  0.00     0.015 C 
HETATM   23  C28 UNL     1     -11.921   6.968  13.455  1.00  0.00     0.015 C 
ENDROOT
BRANCH  15  24
HETATM   24  C17 UNL     1     -15.825   7.993  13.957  1.00  0.00     0.014 C 
BRANCH  24  25
HETATM   25  C18 UNL     1     -15.469   6.545  13.534  1.00  0.00    -0.022 C 
HETATM   26  C19 UNL     1     -16.620   5.788  12.868  1.00  0.00     0.009 C 
HETATM   27  C20 UNL     1     -14.832   5.680  14.616  1.00  0.00     0.009 C 
ENDBRANCH  24  25
ENDBRANCH  15  24
BRANCH  13  28
HETATM   28  O5  UNL     1     -16.741   8.478  11.068  1.00  0.00    -0.359 OA
HETATM   29  H15 UNL     1     -17.384   8.305  10.341  1.00  0.00     0.217 HD
ENDBRANCH  13  28
BRANCH  10  30
HETATM   30  C10 UNL     1     -17.375  13.724  13.016  1.00  0.00     0.275 C 
HETATM   31  O2  UNL     1     -16.617  14.605  12.616  1.00  0.00    -0.301 OA
ENDBRANCH  10  30
BRANCH  12  32
HETATM   32  C13 UNL     1     -18.778  10.122   9.876  1.00  0.00     0.275 C 
HETATM   33  O4  UNL     1     -18.314   9.983   8.746  1.00  0.00    -0.301 OA
ENDBRANCH  12  32
BRANCH  11  34
HETATM   34  O3  UNL     1     -19.052  12.687  10.922  1.00  0.00    -0.359 OA
HETATM   35  H13 UNL     1     -19.027  13.568  11.362  1.00  0.00     0.217 HD
ENDBRANCH  11  34
TORSDOF 6
ENDMDL
MODEL 6
REMARK minimizedAffinity -8.50934601
REMARK CNNscore 0.266115785
REMARK CNNaffinity 6.44796753
REMARK  6 active torsions:
REMARK  status: ('A' for Active; 'I' for Inactive)
REMARK    1  A    between atoms: C9_10  and  C10_11 
REMARK    2  A    between atoms: C11_13  and  O3_14 
REMARK    3  A    between atoms: C12_15  and  C13_16 
REMARK    4  A    between atoms: C14_18  and  O5_19 
REMARK    5  A    between atoms: C16_21  and  C17_22 
REMARK    6  A    between atoms: C17_22  and  C18_23 
ROOT
HETATM    1  C1  UNL     1       0.447   9.836  16.886  1.00  0.00     0.043 C 
HETATM    2  C2  UNL     1      -0.986   9.779  16.403  1.00  0.00    -0.087 C 
HETATM    3  C3  UNL     1      -1.798   8.814  16.879  1.00  0.00    -0.024 C 
HETATM    4  C4  UNL     1      -3.251   8.516  16.642  1.00  0.00     0.030 C 
HETATM    5  C5  UNL     1      -3.892   8.828  15.288  1.00  0.00     0.042 C 
HETATM    6  C6  UNL     1      -3.710   7.790  14.141  1.00  0.00     0.069 C 
HETATM    7  C7  UNL     1      -4.409   8.378  12.898  1.00  0.00     0.047 C 
HETATM    8  O1  UNL     1      -4.556   6.691  14.643  1.00  0.00    -0.338 OA
HETATM    9  C8  UNL     1      -4.742   5.645  13.784  1.00  0.00     0.095 A 
HETATM   10  C9  UNL     1      -5.983   4.992  13.802  1.00  0.00     0.070 A 
HETATM   11  C11 UNL     1      -6.263   3.985  12.867  1.00  0.00     0.097 A 
HETATM   12  C12 UNL     1      -5.300   3.645  11.915  1.00  0.00     0.069 A 
HETATM   13  C14 UNL     1      -4.049   4.287  11.928  1.00  0.00     0.091 A 
HETATM   14  C15 UNL     1      -3.735   5.256  12.899  1.00  0.00     0.015 A 
HETATM   15  C16 UNL     1      -2.362   5.896  12.988  1.00  0.00     0.032 C 
HETATM   16  C21 UNL     1      -2.298   7.176  13.923  1.00  0.00     0.034 C 
HETATM   17  C22 UNL     1      -1.021   7.949  13.614  1.00  0.00     0.006 A 
HETATM   18  C23 UNL     1      -0.568   9.398  13.562  1.00  0.00    -0.001 A 
HETATM   19  C24 UNL     1      -1.399  10.569  13.940  1.00  0.00     0.010 C 
HETATM   20  C25 UNL     1      -1.364  10.897  15.449  1.00  0.00     0.034 C 
HETATM   21  C26 UNL     1      -0.659   8.599  12.266  1.00  0.00    -0.039 A 
HETATM   22  C27 UNL     1      -1.652   9.021  11.218  1.00  0.00     0.015 C 
HETATM   23  C28 UNL     1       0.636   8.109  11.647  1.00  0.00     0.015 C 
ENDROOT
BRANCH  15  24
HETATM   24  C17 UNL     1      -1.214   4.863  13.255  1.00  0.00     0.014 C 
BRANCH  24  25
HETATM   25  C18 UNL     1      -0.187   4.456  12.167  1.00  0.00    -0.022 C 
HETATM   26  C19 UNL     1      -0.210   5.344  10.922  1.00  0.00     0.009 C 
HETATM   27  C20 UNL     1      -0.204   2.987  11.761  1.00  0.00     0.009 C 
ENDBRANCH  24  25
ENDBRANCH  15  24
BRANCH  13  28
HETATM   28  O5  UNL     1      -3.092   4.002  10.986  1.00  0.00    -0.359 OA
HETATM   29  H15 UNL     1      -3.434   3.296  10.389  1.00  0.00     0.217 HD
ENDBRANCH  13  28
BRANCH  10  30
HETATM   30  C10 UNL     1      -6.999   5.395  14.795  1.00  0.00     0.275 C 
HETATM   31  O2  UNL     1      -8.088   5.829  14.425  1.00  0.00    -0.301 OA
ENDBRANCH  10  30
BRANCH  12  32
HETATM   32  C13 UNL     1      -5.609   2.611  10.905  1.00  0.00     0.275 C 
HETATM   33  O4  UNL     1      -5.746   1.436  11.237  1.00  0.00    -0.301 OA
ENDBRANCH  12  32
BRANCH  11  34
HETATM   34  O3  UNL     1      -7.470   3.332  12.845  1.00  0.00    -0.359 OA
HETATM   35  H13 UNL     1      -8.041   3.695  13.563  1.00  0.00     0.217 HD
ENDBRANCH  11  34
TORSDOF 6
ENDMDL
MODEL 7
REMARK minimizedAffinity -5.20873976
REMARK CNNscore 0.262137026
REMARK CNNaffinity 5.6172905
REMARK  6 active torsions:
REMARK  status: ('A' for Active; 'I' for Inactive)
REMARK    1  A    between atoms: C9_10  and  C10_11 
REMARK    2  A    between atoms: C11_13  and  O3_14 
REMARK    3  A    between atoms: C12_15  and  C13_16 
REMARK    4  A    between atoms: C14_18  and  O5_19 
REMARK    5  A    between atoms: C16_21  and  C17_22 
REMARK    6  A    between atoms: C17_22  and  C18_23 
ROOT
HETATM    1  C1  UNL     1     -17.420  -5.269  28.269  1.00  0.00     0.043 C 
HETATM    2  C2  UNL     1     -16.373  -6.258  27.803  1.00  0.00    -0.087 C 
HETATM    3  C3  UNL     1     -16.694  -7.566  27.739  1.00  0.00    -0.024 C 
HETATM    4  C4  UNL     1     -15.918  -8.770  27.287  1.00  0.00     0.030 C 
HETATM    5  C5  UNL     1     -14.401  -8.826  27.476  1.00  0.00     0.042 C 
HETATM    6  C6  UNL     1     -13.857  -9.263  28.869  1.00  0.00     0.069 C 
HETATM    7  C7  UNL     1     -12.319  -9.183  28.788  1.00  0.00     0.047 C 
HETATM    8  O1  UNL     1     -14.225 -10.691  28.861  1.00  0.00    -0.338 OA
HETATM    9  C8  UNL     1     -13.754 -11.432  29.907  1.00  0.00     0.095 A 
HETATM   10  C9  UNL     1     -13.398 -12.767  29.660  1.00  0.00     0.070 A 
HETATM   11  C11 UNL     1     -12.807 -13.537  30.672  1.00  0.00     0.097 A 
HETATM   12  C12 UNL     1     -12.569 -12.963  31.921  1.00  0.00     0.069 A 
HETATM   13  C14 UNL     1     -12.958 -11.633  32.164  1.00  0.00     0.091 A 
HETATM   14  C15 UNL     1     -13.606 -10.869  31.176  1.00  0.00     0.015 A 
HETATM   15  C16 UNL     1     -14.116  -9.466  31.443  1.00  0.00     0.032 C 
HETATM   16  C21 UNL     1     -14.522  -8.658  30.140  1.00  0.00     0.034 C 
HETATM   17  C22 UNL     1     -14.615  -7.177  30.485  1.00  0.00     0.006 A 
HETATM   18  C23 UNL     1     -14.329  -5.845  29.814  1.00  0.00    -0.001 A 
HETATM   19  C24 UNL     1     -13.892  -5.673  28.405  1.00  0.00     0.010 C 
HETATM   20  C25 UNL     1     -15.058  -5.624  27.392  1.00  0.00     0.034 C 
HETATM   21  C26 UNL     1     -13.461  -6.289  30.986  1.00  0.00    -0.039 A 
HETATM   22  C27 UNL     1     -12.000  -6.559  30.750  1.00  0.00     0.015 C 
HETATM   23  C28 UNL     1     -13.700  -5.628  32.330  1.00  0.00     0.015 C 
ENDROOT
BRANCH  15  24
HETATM   24  C17 UNL     1     -15.192  -9.404  32.582  1.00  0.00     0.014 C 
BRANCH  24  25
HETATM   25  C18 UNL     1     -15.074  -8.440  33.791  1.00  0.00    -0.022 C 
HETATM   26  C19 UNL     1     -14.720  -9.130  35.109  1.00  0.00     0.009 C 
HETATM   27  C20 UNL     1     -16.251  -7.494  33.997  1.00  0.00     0.009 C 
ENDBRANCH  24  25
ENDBRANCH  15  24
BRANCH  13  28
HETATM   28  O5  UNL     1     -12.708 -11.026  33.371  1.00  0.00    -0.359 OA
HETATM   29  H15 UNL     1     -12.275 -11.678  33.970  1.00  0.00     0.217 HD
ENDBRANCH  13  28
BRANCH  10  30
HETATM   30  C10 UNL     1     -13.625 -13.340  28.318  1.00  0.00     0.275 C 
HETATM   31  O2  UNL     1     -12.688 -13.818  27.682  1.00  0.00    -0.301 OA
ENDBRANCH  10  30
BRANCH  12  32
HETATM   32  C13 UNL     1     -11.911 -13.762  32.976  1.00  0.00     0.275 C 
HETATM   33  O4  UNL     1     -12.138 -13.535  34.163  1.00  0.00    -0.301 OA
ENDBRANCH  12  32
BRANCH  11  34
HETATM   34  O3  UNL     1     -12.434 -14.842  30.465  1.00  0.00    -0.359 OA
HETATM   35  H13 UNL     1     -12.652 -15.090  29.536  1.00  0.00     0.217 HD
ENDBRANCH  11  34
TORSDOF 6
ENDMDL
MODEL 8
REMARK minimizedAffinity -7.52845049
REMARK CNNscore 0.241044134
REMARK CNNaffinity 6.13090706
REMARK  6 active torsions:
REMARK  status: ('A' for Active; 'I' for Inactive)
REMARK    1  A    between atoms: C9_10  and  C10_11 
REMARK    2  A    between atoms: C11_13  and  O3_14 
REMARK    3  A    between atoms: C12_15  and  C13_16 
REMARK    4  A    between atoms: C14_18  and  O5_19 
REMARK    5  A    between atoms: C16_21  and  C17_22 
REMARK    6  A    between atoms: C17_22  and  C18_23 
ROOT
HETATM    1  C1  UNL     1      -5.763   7.217  13.534  1.00  0.00     0.043 C 
HETATM    2  C2  UNL     1      -4.620   7.488  14.489  1.00  0.00    -0.087 C 
HETATM    3  C3  UNL     1      -4.122   8.737  14.573  1.00  0.00    -0.024 C 
HETATM    4  C4  UNL     1      -3.046   9.334  15.434  1.00  0.00     0.030 C 
HETATM    5  C5  UNL     1      -1.849   8.487  15.871  1.00  0.00     0.042 C 
HETATM    6  C6  UNL     1      -0.666   8.329  14.870  1.00  0.00     0.069 C 
HETATM    7  C7  UNL     1       0.364   7.400  15.545  1.00  0.00     0.047 C 
HETATM    8  O1  UNL     1      -0.111   9.695  14.898  1.00  0.00    -0.338 OA
HETATM    9  C8  UNL     1       1.062   9.875  14.221  1.00  0.00     0.095 A 
HETATM   10  C9  UNL     1       1.991  10.787  14.743  1.00  0.00     0.070 A 
HETATM   11  C11 UNL     1       3.252  10.927  14.146  1.00  0.00     0.097 A 
HETATM   12  C12 UNL     1       3.577  10.146  13.036  1.00  0.00     0.069 A 
HETATM   13  C14 UNL     1       2.625   9.258  12.505  1.00  0.00     0.091 A 
HETATM   14  C15 UNL     1       1.336   9.152  13.058  1.00  0.00     0.015 A 
HETATM   15  C16 UNL     1       0.263   8.269  12.448  1.00  0.00     0.032 C 
HETATM   16  C21 UNL     1      -0.999   8.035  13.379  1.00  0.00     0.034 C 
HETATM   17  C22 UNL     1      -1.786   6.840  12.854  1.00  0.00     0.006 A 
HETATM   18  C23 UNL     1      -2.608   5.697  13.423  1.00  0.00    -0.001 A 
HETATM   19  C24 UNL     1      -2.940   5.513  14.858  1.00  0.00     0.010 C 
HETATM   20  C25 UNL     1      -4.200   6.284  15.311  1.00  0.00     0.034 C 
HETATM   21  C26 UNL     1      -1.273   5.392  12.752  1.00  0.00    -0.039 A 
HETATM   22  C27 UNL     1      -0.158   4.812  13.578  1.00  0.00     0.015 C 
HETATM   23  C28 UNL     1      -1.305   4.799  11.356  1.00  0.00     0.015 C 
ENDROOT
BRANCH  15  24
HETATM   24  C17 UNL     1      -0.104   8.667  10.977  1.00  0.00     0.014 C 
BRANCH  24  25
HETATM   25  C18 UNL     1       0.094   7.705   9.777  1.00  0.00    -0.022 C 
HETATM   26  C19 UNL     1       1.130   6.607  10.019  1.00  0.00     0.009 C 
HETATM   27  C20 UNL     1       0.348   8.375   8.431  1.00  0.00     0.009 C 
ENDBRANCH  24  25
ENDBRANCH  15  24
BRANCH  13  28
HETATM   28  O5  UNL     1       2.923   8.450  11.435  1.00  0.00    -0.359 OA
HETATM   29  H15 UNL     1       3.843   8.644  11.138  1.00  0.00     0.217 HD
ENDBRANCH  13  28
BRANCH  10  30
HETATM   30  C10 UNL     1       1.637  11.575  15.941  1.00  0.00     0.275 C 
HETATM   31  O2  UNL     1       1.054  12.650  15.825  1.00  0.00    -0.301 OA
ENDBRANCH  10  30
BRANCH  12  32
HETATM   32  C13 UNL     1       4.920  10.265  12.431  1.00  0.00     0.275 C 
HETATM   33  O4  UNL     1       5.230  11.268  11.792  1.00  0.00    -0.301 OA
ENDBRANCH  12  32
BRANCH  11  34
HETATM   34  O3  UNL     1       4.192  11.800  14.636  1.00  0.00    -0.359 OA
HETATM   35  H13 UNL     1       3.818  12.259  15.425  1.00  0.00     0.217 HD
ENDBRANCH  11  34
TORSDOF 6
ENDMDL
MODEL 9
REMARK minimizedAffinity -5.79698229
REMARK CNNscore 0.211114824
REMARK CNNaffinity 5.26915884
REMARK  6 active torsions:
REMARK  status: ('A' for Active; 'I' for Inactive)
REMARK    1  A    between atoms: C9_10  and  C10_11 
REMARK    2  A    between atoms: C11_13  and  O3_14 
REMARK    3  A    between atoms: C12_15  and  C13_16 
REMARK    4  A    between atoms: C14_18  and  O5_19 
REMARK    5  A    between atoms: C16_21  and  C17_22 
REMARK    6  A    between atoms: C17_22  and  C18_23 
ROOT
HETATM    1  C1  UNL     1      -7.726  -7.583  -3.400  1.00  0.00     0.043 C 
HETATM    2  C2  UNL     1      -8.898  -7.880  -2.490  1.00  0.00    -0.087 C 
HETATM    3  C3  UNL     1      -9.168  -7.034  -1.476  1.00  0.00    -0.024 C 
HETATM    4  C4  UNL     1     -10.259  -7.018  -0.444  1.00  0.00     0.030 C 
HETATM    5  C5  UNL     1     -10.851  -8.330   0.073  1.00  0.00     0.042 C 
HETATM    6  C6  UNL     1     -10.084  -9.078   1.204  1.00  0.00     0.069 C 
HETATM    7  C7  UNL     1     -10.872 -10.373   1.491  1.00  0.00     0.047 C 
HETATM    8  O1  UNL     1     -10.319  -8.161   2.335  1.00  0.00    -0.338 OA
HETATM    9  C8  UNL     1      -9.892  -8.600   3.556  1.00  0.00     0.095 A 
HETATM   10  C9  UNL     1     -10.647  -8.247   4.684  1.00  0.00     0.070 A 
HETATM   11  C11 UNL     1     -10.313  -8.762   5.944  1.00  0.00     0.097 A 
HETATM   12  C12 UNL     1      -9.230  -9.634   6.065  1.00  0.00     0.069 A 
HETATM   13  C14 UNL     1      -8.463  -9.956   4.931  1.00  0.00     0.091 A 
HETATM   14  C15 UNL     1      -8.752  -9.398   3.672  1.00  0.00     0.015 A 
HETATM   15  C16 UNL     1      -7.885  -9.658   2.454  1.00  0.00     0.032 C 
HETATM   16  C21 UNL     1      -8.540  -9.214   1.079  1.00  0.00     0.034 C 
HETATM   17  C22 UNL     1      -7.787  -9.884  -0.065  1.00  0.00     0.006 A 
HETATM   18  C23 UNL     1      -8.103 -10.458  -1.435  1.00  0.00    -0.001 A 
HETATM   19  C24 UNL     1      -9.432 -10.414  -2.096  1.00  0.00     0.010 C 
HETATM   20  C25 UNL     1      -9.694  -9.111  -2.884  1.00  0.00     0.034 C 
HETATM   21  C26 UNL     1      -7.677 -11.399  -0.313  1.00  0.00    -0.039 A 
HETATM   22  C27 UNL     1      -8.655 -12.428   0.186  1.00  0.00     0.015 C 
HETATM   23  C28 UNL     1      -6.261 -11.941  -0.347  1.00  0.00     0.015 C 
ENDROOT
BRANCH  15  24
HETATM   24  C17 UNL     1      -6.405  -9.174   2.632  1.00  0.00     0.014 C 
BRANCH  24  25
HETATM   25  C18 UNL     1      -5.188 -10.115   2.433  1.00  0.00    -0.022 C 
HETATM   26  C19 UNL     1      -5.391 -11.525   2.989  1.00  0.00     0.009 C 
HETATM   27  C20 UNL     1      -3.845  -9.561   2.894  1.00  0.00     0.009 C 
ENDBRANCH  24  25
ENDBRANCH  15  24
BRANCH  13  28
HETATM   28  O5  UNL     1      -7.412 -10.836   5.008  1.00  0.00    -0.359 OA
HETATM   29  H15 UNL     1      -7.310 -11.128   5.943  1.00  0.00     0.217 HD
ENDBRANCH  13  28
BRANCH  10  30
HETATM   30  C10 UNL     1     -11.811  -7.352   4.525  1.00  0.00     0.275 C 
HETATM   31  O2  UNL     1     -12.075  -6.520   5.390  1.00  0.00    -0.301 OA
ENDBRANCH  10  30
BRANCH  12  32
HETATM   32  C13 UNL     1      -8.902 -10.208   7.387  1.00  0.00     0.275 C 
HETATM   33  O4  UNL     1      -8.763 -11.422   7.522  1.00  0.00    -0.301 OA
ENDBRANCH  12  32
BRANCH  11  34
HETATM   34  O3  UNL     1     -11.036  -8.449   7.069  1.00  0.00    -0.359 OA
HETATM   35  H13 UNL     1     -11.771  -7.843   6.816  1.00  0.00     0.217 HD
ENDBRANCH  11  34
TORSDOF 6
ENDMDL
