MODEL 1
REMARK minimizedAffinity -8.79642963
REMARK CNNscore 0.288451612
REMARK CNNaffinity 7.01368189
REMARK  12 active torsions:
REMARK  status: ('A' for Active; 'I' for Inactive)
REMARK    1  A    between atoms: O1_2  and  C2_3 
REMARK    2  A    between atoms: C2_3  and  C5_6 
REMARK    3  A    between atoms: C6_7  and  C7_8 
REMARK    4  A    between atoms: C7_8  and  C8_9 
REMARK    5  A    between atoms: C8_9  and  C10_11 
REMARK    6  A    between atoms: C28_31  and  O4_32 
REMARK    7  A    between atoms: O4_32  and  C29_33 
REMARK    8  A    between atoms: C30_35  and  C31_36 
REMARK    9  A    between atoms: C31_36  and  O6_37 
REMARK   10  A    between atoms: C32_38  and  O7_39 
REMARK   11  A    between atoms: C33_40  and  O8_41 
REMARK   12  A    between atoms: C34_42  and  O9_43 
ROOT
HETATM    1  C10 UNL     1       0.143  51.464 -20.635  1.00  0.00    -0.002 C 
HETATM    2  C11 UNL     1      -0.219  52.290 -19.359  1.00  0.00     0.006 C 
HETATM    3  C12 UNL     1      -1.567  51.760 -18.825  1.00  0.00     0.011 C 
HETATM    4  C13 UNL     1      -1.841  50.479 -19.636  1.00  0.00    -0.028 C 
HETATM    5  C14 UNL     1      -1.028  49.345 -18.925  1.00  0.00     0.016 C 
HETATM    6  C15 UNL     1      -3.343  50.087 -19.768  1.00  0.00     0.035 C 
HETATM    7  C16 UNL     1      -4.009  49.763 -18.445  1.00  0.00    -0.021 C 
HETATM    8  C17 UNL     1      -4.726  48.642 -18.273  1.00  0.00     0.009 C 
HETATM    9  C18 UNL     1      -4.855  47.594 -19.375  1.00  0.00     0.102 C 
HETATM   10  O2  UNL     1      -5.773  48.157 -20.334  1.00  0.00    -0.304 OA
HETATM   11  C19 UNL     1      -5.088  49.013 -21.164  1.00  0.00     0.270 C 
HETATM   12  O3  UNL     1      -5.628  49.727 -21.992  1.00  0.00    -0.264 OA
HETATM   13  C20 UNL     1      -3.587  48.954 -20.839  1.00  0.00     0.062 C 
HETATM   14  C21 UNL     1      -2.755  49.142 -22.133  1.00  0.00     0.022 C 
HETATM   15  C22 UNL     1      -1.314  49.661 -21.959  1.00  0.00     0.011 C 
HETATM   16  C23 UNL     1      -1.259  50.895 -21.044  1.00  0.00    -0.032 C 
HETATM   17  C24 UNL     1      -2.066  52.040 -21.745  1.00  0.00     0.016 C 
HETATM   18  C25 UNL     1      -3.550  47.543 -20.195  1.00  0.00     0.045 C 
HETATM   19  C26 UNL     1      -3.506  46.395 -21.224  1.00  0.00     0.012 C 
HETATM   20  C27 UNL     1      -3.890  45.053 -20.612  1.00  0.00     0.033 C 
HETATM   21  C28 UNL     1      -5.296  45.125 -19.990  1.00  0.00     0.136 C 
HETATM   22  C35 UNL     1      -5.354  46.204 -18.851  1.00  0.00     0.015 C 
HETATM   23  C36 UNL     1      -4.493  45.716 -17.659  1.00  0.00     0.021 C 
HETATM   24  C37 UNL     1      -6.815  46.293 -18.342  1.00  0.00     0.021 C 
ENDROOT
BRANCH  21  25
HETATM   25  O4  UNL     1      -6.270  45.457 -20.989  1.00  0.00    -0.352 OA
BRANCH  25  26
HETATM   26  C29 UNL     1      -7.160  44.388 -21.349  1.00  0.00     0.292 C 
HETATM   27  O5  UNL     1      -6.650  43.138 -20.911  1.00  0.00    -0.348 OA
HETATM   28  C30 UNL     1      -7.510  42.021 -21.215  1.00  0.00     0.179 C 
HETATM   29  C32 UNL     1      -8.570  42.287 -22.308  1.00  0.00     0.180 C 
HETATM   30  C33 UNL     1      -8.055  43.210 -23.425  1.00  0.00     0.183 C 
HETATM   31  C34 UNL     1      -7.216  44.383 -22.889  1.00  0.00     0.204 C 
BRANCH  28  32
HETATM   32  C31 UNL     1      -6.576  40.862 -21.583  1.00  0.00     0.198 C 
BRANCH  32  33
HETATM   33  O6  UNL     1      -5.430  40.891 -20.732  1.00  0.00    -0.398 OA
HETATM   34  H46 UNL     1      -5.112  41.810 -20.782  1.00  0.00     0.209 HD
ENDBRANCH  32  33
ENDBRANCH  28  32
BRANCH  29  35
HETATM   35  O7  UNL     1      -9.701  42.908 -21.677  1.00  0.00    -0.390 OA
HETATM   36  H48 UNL     1     -10.384  43.056 -22.364  1.00  0.00     0.210 HD
ENDBRANCH  29  35
BRANCH  30  37
HETATM   37  O8  UNL     1      -7.299  42.437 -24.363  1.00  0.00    -0.390 OA
HETATM   38  H50 UNL     1      -7.106  43.013 -25.127  1.00  0.00     0.210 HD
ENDBRANCH  30  37
BRANCH  31  39
HETATM   39  O9  UNL     1      -7.754  45.624 -23.377  1.00  0.00    -0.388 OA
HETATM   40  H52 UNL     1      -7.177  46.310 -22.990  1.00  0.00     0.210 HD
ENDBRANCH  31  39
ENDBRANCH  25  26
ENDBRANCH  21  25
BRANCH   1  41
HETATM   41  C8  UNL     1       0.980  52.247 -21.694  1.00  0.00    -0.010 C 
HETATM   42  C9  UNL     1       1.771  53.402 -21.056  1.00  0.00     0.010 C 
BRANCH  41  43
HETATM   43  C7  UNL     1       0.151  52.808 -22.879  1.00  0.00     0.031 C 
BRANCH  43  44
HETATM   44  C6  UNL     1       0.636  52.492 -24.267  1.00  0.00    -0.027 C 
HETATM   45  C5  UNL     1      -0.172  52.145 -25.283  1.00  0.00     0.006 C 
BRANCH  45  46
HETATM   46  C2  UNL     1       0.259  51.917 -26.720  1.00  0.00     0.070 C 
HETATM   47  C3  UNL     1       1.738  51.505 -26.785  1.00  0.00     0.050 C 
HETATM   48  C4  UNL     1       0.089  53.239 -27.486  1.00  0.00     0.050 C 
BRANCH  46  49
HETATM   49  O1  UNL     1      -0.600  50.973 -27.383  1.00  0.00    -0.382 OA
HETATM   50  C1  UNL     1      -1.677  50.456 -26.607  1.00  0.00     0.202 C 
ENDBRANCH  46  49
ENDBRANCH  45  46
ENDBRANCH  43  44
ENDBRANCH  41  43
ENDBRANCH   1  41
TORSDOF 12
ENDMDL
MODEL 2
REMARK minimizedAffinity -7.85874557
REMARK CNNscore 0.274867326
REMARK CNNaffinity 6.18733549
REMARK  12 active torsions:
REMARK  status: ('A' for Active; 'I' for Inactive)
REMARK    1  A    between atoms: O1_2  and  C2_3 
REMARK    2  A    between atoms: C2_3  and  C5_6 
REMARK    3  A    between atoms: C6_7  and  C7_8 
REMARK    4  A    between atoms: C7_8  and  C8_9 
REMARK    5  A    between atoms: C8_9  and  C10_11 
REMARK    6  A    between atoms: C28_31  and  O4_32 
REMARK    7  A    between atoms: O4_32  and  C29_33 
REMARK    8  A    between atoms: C30_35  and  C31_36 
REMARK    9  A    between atoms: C31_36  and  O6_37 
REMARK   10  A    between atoms: C32_38  and  O7_39 
REMARK   11  A    between atoms: C33_40  and  O8_41 
REMARK   12  A    between atoms: C34_42  and  O9_43 
ROOT
HETATM    1  C10 UNL     1      -7.490  47.755 -25.502  1.00  0.00    -0.002 C 
HETATM    2  C11 UNL     1      -6.928  47.001 -26.749  1.00  0.00     0.006 C 
HETATM    3  C12 UNL     1      -7.996  45.980 -27.200  1.00  0.00     0.011 C 
HETATM    4  C13 UNL     1      -9.251  46.328 -26.377  1.00  0.00    -0.028 C 
HETATM    5  C14 UNL     1      -9.946  47.505 -27.142  1.00  0.00     0.016 C 
HETATM    6  C15 UNL     1     -10.244  45.148 -26.152  1.00  0.00     0.035 C 
HETATM    7  C16 UNL     1     -10.852  44.609 -27.432  1.00  0.00    -0.021 C 
HETATM    8  C17 UNL     1     -12.176  44.431 -27.562  1.00  0.00     0.009 C 
HETATM    9  C18 UNL     1     -13.152  44.827 -26.458  1.00  0.00     0.102 C 
HETATM   10  O2  UNL     1     -13.012  43.814 -25.442  1.00  0.00    -0.304 OA
HETATM   11  C19 UNL     1     -11.925  44.114 -24.653  1.00  0.00     0.270 C 
HETATM   12  O3  UNL     1     -11.491  43.370 -23.791  1.00  0.00    -0.264 OA
HETATM   13  C20 UNL     1     -11.346  45.474 -25.072  1.00  0.00     0.062 C 
HETATM   14  C21 UNL     1     -10.790  46.220 -23.832  1.00  0.00     0.022 C 
HETATM   15  C22 UNL     1      -9.710  47.288 -24.095  1.00  0.00     0.011 C 
HETATM   16  C23 UNL     1      -8.593  46.757 -25.007  1.00  0.00    -0.032 C 
HETATM   17  C24 UNL     1      -7.886  45.580 -24.253  1.00  0.00     0.016 C 
HETATM   18  C25 UNL     1     -12.622  46.074 -25.721  1.00  0.00     0.045 C 
HETATM   19  C26 UNL     1     -13.616  46.664 -24.701  1.00  0.00     0.012 C 
HETATM   20  C27 UNL     1     -15.007  46.855 -25.292  1.00  0.00     0.033 C 
HETATM   21  C28 UNL     1     -15.557  45.521 -25.825  1.00  0.00     0.136 C 
HETATM   22  C35 UNL     1     -14.634  44.940 -26.954  1.00  0.00     0.015 C 
HETATM   23  C36 UNL     1     -14.736  45.856 -28.199  1.00  0.00     0.021 C 
HETATM   24  C37 UNL     1     -15.189  43.555 -27.370  1.00  0.00     0.021 C 
ENDROOT
BRANCH  21  25
HETATM   25  O4  UNL     1     -15.650  44.558 -24.765  1.00  0.00    -0.352 OA
BRANCH  25  26
HETATM   26  C29 UNL     1     -16.970  44.366 -24.232  1.00  0.00     0.292 C 
HETATM   27  O5  UNL     1     -17.947  44.939 -25.085  1.00  0.00    -0.348 OA
HETATM   28  C30 UNL     1     -19.300  44.758 -24.623  1.00  0.00     0.179 C 
HETATM   29  C32 UNL     1     -19.440  44.390 -23.128  1.00  0.00     0.180 C 
HETATM   30  C33 UNL     1     -18.393  45.087 -22.243  1.00  0.00     0.183 C 
HETATM   31  C34 UNL     1     -16.995  45.115 -22.884  1.00  0.00     0.204 C 
BRANCH  28  32
HETATM   32  C31 UNL     1     -20.039  46.055 -24.971  1.00  0.00     0.198 C 
BRANCH  32  33
HETATM   33  O6  UNL     1     -19.126  47.152 -24.903  1.00  0.00    -0.398 OA
HETATM   34  H46 UNL     1     -18.692  47.053 -24.036  1.00  0.00     0.209 HD
ENDBRANCH  32  33
ENDBRANCH  28  32
BRANCH  29  35
HETATM   35  O7  UNL     1     -19.274  42.968 -23.012  1.00  0.00    -0.390 OA
HETATM   36  H48 UNL     1     -19.386  42.729 -22.067  1.00  0.00     0.210 HD
ENDBRANCH  29  35
BRANCH  30  37
HETATM   37  O8  UNL     1     -18.837  46.414 -21.945  1.00  0.00    -0.390 OA
HETATM   38  H50 UNL     1     -18.231  46.781 -21.274  1.00  0.00     0.210 HD
ENDBRANCH  30  37
BRANCH  31  39
HETATM   39  O9  UNL     1     -16.035  44.547 -21.976  1.00  0.00    -0.388 OA
HETATM   40  H52 UNL     1     -15.187  44.595 -22.455  1.00  0.00     0.210 HD
ENDBRANCH  31  39
ENDBRANCH  25  26
ENDBRANCH  21  25
BRANCH   1  41
HETATM   41  C8  UNL     1      -6.400  48.236 -24.494  1.00  0.00    -0.010 C 
HETATM   42  C9  UNL     1      -6.823  49.525 -23.769  1.00  0.00     0.010 C 
BRANCH  41  43
HETATM   43  C7  UNL     1      -4.999  48.457 -25.122  1.00  0.00     0.031 C 
BRANCH  43  44
HETATM   44  C6  UNL     1      -3.854  48.699 -24.177  1.00  0.00    -0.027 C 
HETATM   45  C5  UNL     1      -3.264  49.894 -24.004  1.00  0.00     0.006 C 
BRANCH  45  46
HETATM   46  C2  UNL     1      -2.178  50.208 -22.991  1.00  0.00     0.070 C 
HETATM   47  C3  UNL     1      -1.920  48.998 -22.079  1.00  0.00     0.050 C 
HETATM   48  C4  UNL     1      -2.661  51.379 -22.120  1.00  0.00     0.050 C 
BRANCH  46  49
HETATM   49  O1  UNL     1      -0.978  50.673 -23.633  1.00  0.00    -0.382 OA
HETATM   50  C1  UNL     1      -0.587  52.010 -23.335  1.00  0.00     0.202 C 
ENDBRANCH  46  49
ENDBRANCH  45  46
ENDBRANCH  43  44
ENDBRANCH  41  43
ENDBRANCH   1  41
TORSDOF 12
ENDMDL
MODEL 3
REMARK minimizedAffinity -7.8164854
REMARK CNNscore 0.228101462
REMARK CNNaffinity 6.88757658
REMARK  12 active torsions:
REMARK  status: ('A' for Active; 'I' for Inactive)
REMARK    1  A    between atoms: O1_2  and  C2_3 
REMARK    2  A    between atoms: C2_3  and  C5_6 
REMARK    3  A    between atoms: C6_7  and  C7_8 
REMARK    4  A    between atoms: C7_8  and  C8_9 
REMARK    5  A    between atoms: C8_9  and  C10_11 
REMARK    6  A    between atoms: C28_31  and  O4_32 
REMARK    7  A    between atoms: O4_32  and  C29_33 
REMARK    8  A    between atoms: C30_35  and  C31_36 
REMARK    9  A    between atoms: C31_36  and  O6_37 
REMARK   10  A    between atoms: C32_38  and  O7_39 
REMARK   11  A    between atoms: C33_40  and  O8_41 
REMARK   12  A    between atoms: C34_42  and  O9_43 
ROOT
HETATM    1  C10 UNL     1      -0.928  52.735  -9.160  1.00  0.00    -0.002 C 
HETATM    2  C11 UNL     1      -1.940  51.872  -8.341  1.00  0.00     0.006 C 
HETATM    3  C12 UNL     1      -2.663  50.933  -9.332  1.00  0.00     0.011 C 
HETATM    4  C13 UNL     1      -1.890  51.080 -10.656  1.00  0.00    -0.028 C 
HETATM    5  C14 UNL     1      -0.656  50.123 -10.535  1.00  0.00     0.016 C 
HETATM    6  C15 UNL     1      -2.712  50.765 -11.942  1.00  0.00     0.035 C 
HETATM    7  C16 UNL     1      -3.195  49.331 -12.022  1.00  0.00    -0.021 C 
HETATM    8  C17 UNL     1      -3.008  48.585 -13.123  1.00  0.00     0.009 C 
HETATM    9  C18 UNL     1      -2.237  49.114 -14.329  1.00  0.00     0.102 C 
HETATM   10  O2  UNL     1      -3.131  50.037 -14.981  1.00  0.00    -0.304 OA
HETATM   11  C19 UNL     1      -3.064  51.255 -14.346  1.00  0.00     0.270 C 
HETATM   12  O3  UNL     1      -3.801  52.191 -14.602  1.00  0.00    -0.264 OA
HETATM   13  C20 UNL     1      -1.975  51.210 -13.263  1.00  0.00     0.062 C 
HETATM   14  C21 UNL     1      -1.285  52.594 -13.146  1.00  0.00     0.022 C 
HETATM   15  C22 UNL     1      -0.597  52.911 -11.803  1.00  0.00     0.011 C 
HETATM   16  C23 UNL     1      -1.517  52.613 -10.608  1.00  0.00    -0.032 C 
HETATM   17  C24 UNL     1      -2.755  53.566 -10.715  1.00  0.00     0.016 C 
HETATM   18  C25 UNL     1      -1.116  50.060 -13.852  1.00  0.00     0.045 C 
HETATM   19  C26 UNL     1      -0.163  50.512 -14.977  1.00  0.00     0.012 C 
HETATM   20  C27 UNL     1       0.345  49.343 -15.811  1.00  0.00     0.033 C 
HETATM   21  C28 UNL     1      -0.831  48.564 -16.425  1.00  0.00     0.136 C 
HETATM   22  C35 UNL     1      -1.767  47.982 -15.306  1.00  0.00     0.015 C 
HETATM   23  C36 UNL     1      -1.000  46.872 -14.545  1.00  0.00     0.021 C 
HETATM   24  C37 UNL     1      -2.977  47.302 -15.993  1.00  0.00     0.021 C 
ENDROOT
BRANCH  21  25
HETATM   25  O4  UNL     1      -1.608  49.418 -17.277  1.00  0.00    -0.352 OA
BRANCH  25  26
HETATM   26  C29 UNL     1      -1.390  49.233 -18.684  1.00  0.00     0.292 C 
HETATM   27  O5  UNL     1      -0.442  50.166 -19.175  1.00  0.00    -0.348 OA
HETATM   28  C30 UNL     1      -0.154  50.018 -20.580  1.00  0.00     0.179 C 
HETATM   29  C32 UNL     1      -1.200  49.212 -21.383  1.00  0.00     0.180 C 
HETATM   30  C33 UNL     1      -2.638  49.453 -20.897  1.00  0.00     0.183 C 
HETATM   31  C34 UNL     1      -2.747  49.509 -19.363  1.00  0.00     0.204 C 
BRANCH  28  32
HETATM   32  C31 UNL     1       0.024  51.441 -21.124  1.00  0.00     0.198 C 
BRANCH  32  33
HETATM   33  O6  UNL     1      -0.401  51.481 -22.487  1.00  0.00    -0.398 OA
HETATM   34  H46 UNL     1       0.062  50.735 -22.909  1.00  0.00     0.209 HD
ENDBRANCH  32  33
ENDBRANCH  28  32
BRANCH  29  35
HETATM   35  O7  UNL     1      -0.886  47.819 -21.234  1.00  0.00    -0.390 OA
HETATM   36  H48 UNL     1      -1.534  47.307 -21.762  1.00  0.00     0.210 HD
ENDBRANCH  29  35
BRANCH  30  37
HETATM   37  O8  UNL     1      -3.137  50.660 -21.481  1.00  0.00    -0.390 OA
HETATM   38  H50 UNL     1      -4.089  50.715 -21.271  1.00  0.00     0.210 HD
ENDBRANCH  30  37
BRANCH  31  39
HETATM   39  O9  UNL     1      -3.735  48.565 -18.914  1.00  0.00    -0.388 OA
HETATM   40  H52 UNL     1      -3.737  48.657 -17.943  1.00  0.00     0.210 HD
ENDBRANCH  31  39
ENDBRANCH  25  26
ENDBRANCH  21  25
BRANCH   1  41
HETATM   41  C8  UNL     1      -0.665  54.155  -8.568  1.00  0.00    -0.010 C 
HETATM   42  C9  UNL     1      -0.466  55.206  -9.675  1.00  0.00     0.010 C 
BRANCH  41  43
HETATM   43  C7  UNL     1       0.537  54.230  -7.590  1.00  0.00     0.031 C 
BRANCH  43  44
HETATM   44  C6  UNL     1       1.629  55.211  -7.919  1.00  0.00    -0.027 C 
HETATM   45  C5  UNL     1       2.809  54.865  -8.462  1.00  0.00     0.006 C 
BRANCH  45  46
HETATM   46  C2  UNL     1       3.896  55.827  -8.905  1.00  0.00     0.070 C 
HETATM   47  C3  UNL     1       3.685  57.213  -8.276  1.00  0.00     0.050 C 
HETATM   48  C4  UNL     1       3.815  55.970 -10.434  1.00  0.00     0.050 C 
BRANCH  46  49
HETATM   49  O1  UNL     1       5.207  55.298  -8.635  1.00  0.00    -0.382 OA
HETATM   50  C1  UNL     1       6.043  55.092  -9.770  1.00  0.00     0.202 C 
ENDBRANCH  46  49
ENDBRANCH  45  46
ENDBRANCH  43  44
ENDBRANCH  41  43
ENDBRANCH   1  41
TORSDOF 12
ENDMDL
MODEL 4
REMARK minimizedAffinity -8.57064247
REMARK CNNscore 0.207559764
REMARK CNNaffinity 6.36548471
REMARK  12 active torsions:
REMARK  status: ('A' for Active; 'I' for Inactive)
REMARK    1  A    between atoms: O1_2  and  C2_3 
REMARK    2  A    between atoms: C2_3  and  C5_6 
REMARK    3  A    between atoms: C6_7  and  C7_8 
REMARK    4  A    between atoms: C7_8  and  C8_9 
REMARK    5  A    between atoms: C8_9  and  C10_11 
REMARK    6  A    between atoms: C28_31  and  O4_32 
REMARK    7  A    between atoms: O4_32  and  C29_33 
REMARK    8  A    between atoms: C30_35  and  C31_36 
REMARK    9  A    between atoms: C31_36  and  O6_37 
REMARK   10  A    between atoms: C32_38  and  O7_39 
REMARK   11  A    between atoms: C33_40  and  O8_41 
REMARK   12  A    between atoms: C34_42  and  O9_43 
ROOT
HETATM    1  C10 UNL     1      -1.563  50.693 -16.598  1.00  0.00    -0.002 C 
HETATM    2  C11 UNL     1      -0.086  50.778 -17.100  1.00  0.00     0.006 C 
HETATM    3  C12 UNL     1      -0.055  50.260 -18.554  1.00  0.00     0.011 C 
HETATM    4  C13 UNL     1      -1.534  50.123 -18.960  1.00  0.00    -0.028 C 
HETATM    5  C14 UNL     1      -1.986  51.557 -19.402  1.00  0.00     0.016 C 
HETATM    6  C15 UNL     1      -1.820  49.080 -20.082  1.00  0.00     0.035 C 
HETATM    7  C16 UNL     1      -1.164  49.414 -21.408  1.00  0.00    -0.021 C 
HETATM    8  C17 UNL     1      -1.857  49.406 -22.557  1.00  0.00     0.009 C 
HETATM    9  C18 UNL     1      -3.358  49.132 -22.589  1.00  0.00     0.102 C 
HETATM   10  O2  UNL     1      -3.493  47.713 -22.380  1.00  0.00    -0.304 OA
HETATM   11  C19 UNL     1      -3.426  47.448 -21.031  1.00  0.00     0.270 C 
HETATM   12  O3  UNL     1      -3.386  46.323 -20.566  1.00  0.00    -0.264 OA
HETATM   13  C20 UNL     1      -3.357  48.770 -20.251  1.00  0.00     0.062 C 
HETATM   14  C21 UNL     1      -4.108  48.630 -18.901  1.00  0.00     0.022 C 
HETATM   15  C22 UNL     1      -3.695  49.601 -17.778  1.00  0.00     0.011 C 
HETATM   16  C23 UNL     1      -2.169  49.646 -17.596  1.00  0.00    -0.032 C 
HETATM   17  C24 UNL     1      -1.703  48.219 -17.150  1.00  0.00     0.016 C 
HETATM   18  C25 UNL     1      -4.013  49.694 -21.311  1.00  0.00     0.045 C 
HETATM   19  C26 UNL     1      -5.554  49.628 -21.321  1.00  0.00     0.012 C 
HETATM   20  C27 UNL     1      -6.150  50.192 -22.605  1.00  0.00     0.033 C 
HETATM   21  C28 UNL     1      -5.601  49.442 -23.831  1.00  0.00     0.136 C 
HETATM   22  C35 UNL     1      -4.040  49.583 -23.927  1.00  0.00     0.015 C 
HETATM   23  C36 UNL     1      -3.693  51.055 -24.261  1.00  0.00     0.021 C 
HETATM   24  C37 UNL     1      -3.548  48.724 -25.118  1.00  0.00     0.021 C 
ENDROOT
BRANCH  21  25
HETATM   25  O4  UNL     1      -5.934  48.048 -23.757  1.00  0.00    -0.352 OA
BRANCH  25  26
HETATM   26  C29 UNL     1      -6.860  47.591 -24.755  1.00  0.00     0.292 C 
HETATM   27  O5  UNL     1      -6.279  47.651 -26.048  1.00  0.00    -0.348 OA
HETATM   28  C30 UNL     1      -7.147  47.179 -27.098  1.00  0.00     0.179 C 
HETATM   29  C32 UNL     1      -8.647  47.114 -26.730  1.00  0.00     0.180 C 
HETATM   30  C33 UNL     1      -9.084  48.263 -25.806  1.00  0.00     0.183 C 
HETATM   31  C34 UNL     1      -8.052  48.568 -24.707  1.00  0.00     0.204 C 
BRANCH  28  32
HETATM   32  C31 UNL     1      -6.885  48.092 -28.301  1.00  0.00     0.198 C 
BRANCH  32  33
HETATM   33  O6  UNL     1      -5.538  48.564 -28.251  1.00  0.00    -0.398 OA
HETATM   34  H46 UNL     1      -5.433  48.906 -27.345  1.00  0.00     0.209 HD
ENDBRANCH  32  33
ENDBRANCH  28  32
BRANCH  29  35
HETATM   35  O7  UNL     1      -8.878  45.865 -26.060  1.00  0.00    -0.390 OA
HETATM   36  H48 UNL     1      -9.834  45.811 -25.847  1.00  0.00     0.210 HD
ENDBRANCH  29  35
BRANCH  30  37
HETATM   37  O8  UNL     1      -9.340  49.430 -26.594  1.00  0.00    -0.390 OA
HETATM   38  H50 UNL     1      -9.747  50.095 -26.007  1.00  0.00     0.210 HD
ENDBRANCH  30  37
BRANCH  31  39
HETATM   39  O9  UNL     1      -8.689  48.519 -23.418  1.00  0.00    -0.388 OA
HETATM   40  H52 UNL     1      -7.975  48.713 -22.784  1.00  0.00     0.210 HD
ENDBRANCH  31  39
ENDBRANCH  25  26
ENDBRANCH  21  25
BRANCH   1  41
HETATM   41  C8  UNL     1      -1.710  50.448 -15.065  1.00  0.00    -0.010 C 
HETATM   42  C9  UNL     1      -3.177  50.545 -14.610  1.00  0.00     0.010 C 
BRANCH  41  43
HETATM   43  C7  UNL     1      -0.853  51.390 -14.179  1.00  0.00     0.031 C 
BRANCH  43  44
HETATM   44  C6  UNL     1      -1.259  51.535 -12.738  1.00  0.00    -0.027 C 
HETATM   45  C5  UNL     1      -1.461  52.717 -12.132  1.00  0.00     0.006 C 
BRANCH  45  46
HETATM   46  C2  UNL     1      -1.969  52.910 -10.714  1.00  0.00     0.070 C 
HETATM   47  C3  UNL     1      -2.365  51.563 -10.091  1.00  0.00     0.050 C 
HETATM   48  C4  UNL     1      -3.218  53.805 -10.771  1.00  0.00     0.050 C 
BRANCH  46  49
HETATM   49  O1  UNL     1      -1.017  53.626  -9.908  1.00  0.00    -0.382 OA
HETATM   50  C1  UNL     1      -0.695  54.944 -10.343  1.00  0.00     0.202 C 
ENDBRANCH  46  49
ENDBRANCH  45  46
ENDBRANCH  43  44
ENDBRANCH  41  43
ENDBRANCH   1  41
TORSDOF 12
ENDMDL
MODEL 5
REMARK minimizedAffinity -9.49456692
REMARK CNNscore 0.200141162
REMARK CNNaffinity 7.02596521
REMARK  12 active torsions:
REMARK  status: ('A' for Active; 'I' for Inactive)
REMARK    1  A    between atoms: O1_2  and  C2_3 
REMARK    2  A    between atoms: C2_3  and  C5_6 
REMARK    3  A    between atoms: C6_7  and  C7_8 
REMARK    4  A    between atoms: C7_8  and  C8_9 
REMARK    5  A    between atoms: C8_9  and  C10_11 
REMARK    6  A    between atoms: C28_31  and  O4_32 
REMARK    7  A    between atoms: O4_32  and  C29_33 
REMARK    8  A    between atoms: C30_35  and  C31_36 
REMARK    9  A    between atoms: C31_36  and  O6_37 
REMARK   10  A    between atoms: C32_38  and  O7_39 
REMARK   11  A    between atoms: C33_40  and  O8_41 
REMARK   12  A    between atoms: C34_42  and  O9_43 
ROOT
HETATM    1  C10 UNL     1      -0.955  49.903 -21.204  1.00  0.00    -0.002 C 
HETATM    2  C11 UNL     1      -0.800  49.230 -19.803  1.00  0.00     0.006 C 
HETATM    3  C12 UNL     1      -2.138  48.536 -19.466  1.00  0.00     0.011 C 
HETATM    4  C13 UNL     1      -2.956  48.596 -20.769  1.00  0.00    -0.028 C 
HETATM    5  C14 UNL     1      -2.463  47.387 -21.635  1.00  0.00     0.016 C 
HETATM    6  C15 UNL     1      -4.503  48.550 -20.583  1.00  0.00     0.035 C 
HETATM    7  C16 UNL     1      -5.005  47.263 -19.959  1.00  0.00    -0.021 C 
HETATM    8  C17 UNL     1      -6.017  46.566 -20.501  1.00  0.00     0.009 C 
HETATM    9  C18 UNL     1      -6.673  46.990 -21.812  1.00  0.00     0.102 C 
HETATM   10  O2  UNL     1      -7.497  48.125 -21.479  1.00  0.00    -0.304 OA
HETATM   11  C19 UNL     1      -6.715  49.257 -21.451  1.00  0.00     0.270 C 
HETATM   12  O3  UNL     1      -7.116  50.345 -21.077  1.00  0.00    -0.264 OA
HETATM   13  C20 UNL     1      -5.288  48.907 -21.903  1.00  0.00     0.062 C 
HETATM   14  C21 UNL     1      -4.672  50.097 -22.683  1.00  0.00     0.022 C 
HETATM   15  C22 UNL     1      -3.133  50.171 -22.726  1.00  0.00     0.011 C 
HETATM   16  C23 UNL     1      -2.515  50.005 -21.328  1.00  0.00    -0.032 C 
HETATM   17  C24 UNL     1      -2.998  51.209 -20.451  1.00  0.00     0.016 C 
HETATM   18  C25 UNL     1      -5.618  47.638 -22.733  1.00  0.00     0.045 C 
HETATM   19  C26 UNL     1      -6.135  47.943 -24.153  1.00  0.00     0.012 C 
HETATM   20  C27 UNL     1      -6.836  46.747 -24.784  1.00  0.00     0.033 C 
HETATM   21  C28 UNL     1      -8.011  46.283 -23.905  1.00  0.00     0.136 C 
HETATM   22  C35 UNL     1      -7.512  45.848 -22.481  1.00  0.00     0.015 C 
HETATM   23  C36 UNL     1      -6.677  44.552 -22.622  1.00  0.00     0.021 C 
HETATM   24  C37 UNL     1      -8.751  45.492 -21.622  1.00  0.00     0.021 C 
ENDROOT
BRANCH  21  25
HETATM   25  O4  UNL     1      -8.972  47.338 -23.754  1.00  0.00    -0.352 OA
BRANCH  25  26
HETATM   26  C29 UNL     1      -9.889  47.486 -24.850  1.00  0.00     0.292 C 
HETATM   27  O5  UNL     1     -10.017  46.269 -25.568  1.00  0.00    -0.348 OA
HETATM   28  C30 UNL     1     -10.947  46.339 -26.668  1.00  0.00     0.179 C 
HETATM   29  C32 UNL     1     -11.293  47.767 -27.145  1.00  0.00     0.180 C 
HETATM   30  C33 UNL     1     -10.096  48.728 -27.066  1.00  0.00     0.183 C 
HETATM   31  C34 UNL     1      -9.268  48.544 -25.783  1.00  0.00     0.204 C 
BRANCH  28  32
HETATM   32  C31 UNL     1     -10.337  45.486 -27.786  1.00  0.00     0.198 C 
BRANCH  32  33
HETATM   33  O6  UNL     1      -8.913  45.588 -27.736  1.00  0.00    -0.398 OA
HETATM   34  H46 UNL     1      -8.739  46.546 -27.700  1.00  0.00     0.209 HD
ENDBRANCH  32  33
ENDBRANCH  28  32
BRANCH  29  35
HETATM   35  O7  UNL     1     -12.345  48.265 -26.303  1.00  0.00    -0.390 OA
HETATM   36  H48 UNL     1     -12.583  49.163 -26.620  1.00  0.00     0.210 HD
ENDBRANCH  29  35
BRANCH  30  37
HETATM   37  O8  UNL     1      -9.275  48.553 -28.225  1.00  0.00    -0.390 OA
HETATM   38  H50 UNL     1      -8.607  49.265 -28.220  1.00  0.00     0.210 HD
ENDBRANCH  30  37
BRANCH  31  39
HETATM   39  O9  UNL     1      -9.144  49.805 -25.102  1.00  0.00    -0.388 OA
HETATM   40  H52 UNL     1      -8.619  49.602 -24.305  1.00  0.00     0.210 HD
ENDBRANCH  31  39
ENDBRANCH  25  26
ENDBRANCH  21  25
BRANCH   1  41
HETATM   41  C8  UNL     1      -0.096  51.191 -21.400  1.00  0.00    -0.010 C 
HETATM   42  C9  UNL     1       0.002  52.014 -20.103  1.00  0.00     0.010 C 
BRANCH  41  43
HETATM   43  C7  UNL     1      -0.584  52.120 -22.542  1.00  0.00     0.031 C 
BRANCH  43  44
HETATM   44  C6  UNL     1      -0.063  51.839 -23.924  1.00  0.00    -0.027 C 
HETATM   45  C5  UNL     1      -0.190  52.686 -24.960  1.00  0.00     0.006 C 
BRANCH  45  46
HETATM   46  C2  UNL     1       0.407  52.491 -26.342  1.00  0.00     0.070 C 
HETATM   47  C3  UNL     1      -0.220  53.469 -27.348  1.00  0.00     0.050 C 
HETATM   48  C4  UNL     1       0.096  51.057 -26.800  1.00  0.00     0.050 C 
BRANCH  46  49
HETATM   49  O1  UNL     1       1.843  52.585 -26.313  1.00  0.00    -0.382 OA
HETATM   50  C1  UNL     1       2.553  51.367 -26.521  1.00  0.00     0.202 C 
ENDBRANCH  46  49
ENDBRANCH  45  46
ENDBRANCH  43  44
ENDBRANCH  41  43
ENDBRANCH   1  41
TORSDOF 12
ENDMDL
MODEL 6
REMARK minimizedAffinity -8.50598431
REMARK CNNscore 0.190033749
REMARK CNNaffinity 5.90422678
REMARK  12 active torsions:
REMARK  status: ('A' for Active; 'I' for Inactive)
REMARK    1  A    between atoms: O1_2  and  C2_3 
REMARK    2  A    between atoms: C2_3  and  C5_6 
REMARK    3  A    between atoms: C6_7  and  C7_8 
REMARK    4  A    between atoms: C7_8  and  C8_9 
REMARK    5  A    between atoms: C8_9  and  C10_11 
REMARK    6  A    between atoms: C28_31  and  O4_32 
REMARK    7  A    between atoms: O4_32  and  C29_33 
REMARK    8  A    between atoms: C30_35  and  C31_36 
REMARK    9  A    between atoms: C31_36  and  O6_37 
REMARK   10  A    between atoms: C32_38  and  O7_39 
REMARK   11  A    between atoms: C33_40  and  O8_41 
REMARK   12  A    between atoms: C34_42  and  O9_43 
ROOT
HETATM    1  C10 UNL     1      -7.724  46.758 -29.232  1.00  0.00    -0.002 C 
HETATM    2  C11 UNL     1      -6.938  45.563 -28.606  1.00  0.00     0.006 C 
HETATM    3  C12 UNL     1      -7.888  44.842 -27.623  1.00  0.00     0.011 C 
HETATM    4  C13 UNL     1      -9.273  45.464 -27.881  1.00  0.00    -0.028 C 
HETATM    5  C14 UNL     1      -9.856  44.703 -29.119  1.00  0.00     0.016 C 
HETATM    6  C15 UNL     1     -10.261  45.404 -26.676  1.00  0.00     0.035 C 
HETATM    7  C16 UNL     1     -10.627  43.994 -26.256  1.00  0.00    -0.021 C 
HETATM    8  C17 UNL     1     -11.904  43.622 -26.081  1.00  0.00     0.009 C 
HETATM    9  C18 UNL     1     -13.065  44.573 -26.361  1.00  0.00     0.102 C 
HETATM   10  O2  UNL     1     -13.076  45.500 -25.258  1.00  0.00    -0.304 OA
HETATM   11  C19 UNL     1     -12.148  46.489 -25.490  1.00  0.00     0.270 C 
HETATM   12  O3  UNL     1     -11.850  47.340 -24.671  1.00  0.00    -0.264 OA
HETATM   13  C20 UNL     1     -11.539  46.303 -26.889  1.00  0.00     0.062 C 
HETATM   14  C21 UNL     1     -11.222  47.684 -27.518  1.00  0.00     0.022 C 
HETATM   15  C22 UNL     1     -10.140  47.711 -28.615  1.00  0.00     0.011 C 
HETATM   16  C23 UNL     1      -8.870  46.961 -28.183  1.00  0.00    -0.032 C 
HETATM   17  C24 UNL     1      -8.274  47.714 -26.945  1.00  0.00     0.016 C 
HETATM   18  C25 UNL     1     -12.699  45.502 -27.537  1.00  0.00     0.045 C 
HETATM   19  C26 UNL     1     -13.868  46.384 -28.019  1.00  0.00     0.012 C 
HETATM   20  C27 UNL     1     -15.142  45.582 -28.255  1.00  0.00     0.033 C 
HETATM   21  C28 UNL     1     -15.559  44.842 -26.972  1.00  0.00     0.136 C 
HETATM   22  C35 UNL     1     -14.442  43.840 -26.509  1.00  0.00     0.015 C 
HETATM   23  C36 UNL     1     -14.352  42.686 -27.539  1.00  0.00     0.021 C 
HETATM   24  C37 UNL     1     -14.884  43.209 -25.165  1.00  0.00     0.021 C 
ENDROOT
BRANCH  21  25
HETATM   25  O4  UNL     1     -15.808  45.776 -25.912  1.00  0.00    -0.352 OA
BRANCH  25  26
HETATM   26  C29 UNL     1     -17.176  45.854 -25.479  1.00  0.00     0.292 C 
HETATM   27  O5  UNL     1     -17.288  45.529 -24.103  1.00  0.00    -0.348 OA
HETATM   28  C30 UNL     1     -18.635  45.615 -23.594  1.00  0.00     0.179 C 
HETATM   29  C32 UNL     1     -19.745  45.604 -24.669  1.00  0.00     0.180 C 
HETATM   30  C33 UNL     1     -19.412  44.690 -25.860  1.00  0.00     0.183 C 
HETATM   31  C34 UNL     1     -17.940  44.795 -26.298  1.00  0.00     0.204 C 
BRANCH  28  32
HETATM   32  C31 UNL     1     -18.781  44.459 -22.598  1.00  0.00     0.198 C 
BRANCH  32  33
HETATM   33  O6  UNL     1     -18.164  44.821 -21.361  1.00  0.00    -0.398 OA
HETATM   34  H46 UNL     1     -17.279  45.140 -21.614  1.00  0.00     0.209 HD
ENDBRANCH  32  33
ENDBRANCH  28  32
BRANCH  29  35
HETATM   35  O7  UNL     1     -19.904  46.949 -25.146  1.00  0.00    -0.390 OA
HETATM   36  H48 UNL     1     -20.624  46.948 -25.812  1.00  0.00     0.210 HD
ENDBRANCH  29  35
BRANCH  30  37
HETATM   37  O8  UNL     1     -19.741  43.338 -25.522  1.00  0.00    -0.390 OA
HETATM   38  H50 UNL     1     -19.653  42.805 -26.336  1.00  0.00     0.210 HD
ENDBRANCH  30  37
BRANCH  31  39
HETATM   39  O9  UNL     1     -17.875  45.102 -27.701  1.00  0.00    -0.388 OA
HETATM   40  H52 UNL     1     -16.921  45.159 -27.895  1.00  0.00     0.210 HD
ENDBRANCH  31  39
ENDBRANCH  25  26
ENDBRANCH  21  25
BRANCH   1  41
HETATM   41  C8  UNL     1      -6.835  47.979 -29.625  1.00  0.00    -0.010 C 
HETATM   42  C9  UNL     1      -7.184  48.512 -31.025  1.00  0.00     0.010 C 
BRANCH  41  43
HETATM   43  C7  UNL     1      -5.308  47.707 -29.563  1.00  0.00     0.031 C 
BRANCH  43  44
HETATM   44  C6  UNL     1      -4.620  47.955 -28.249  1.00  0.00    -0.027 C 
HETATM   45  C5  UNL     1      -4.195  49.163 -27.842  1.00  0.00     0.006 C 
BRANCH  45  46
HETATM   46  C2  UNL     1      -3.590  49.478 -26.486  1.00  0.00     0.070 C 
HETATM   47  C3  UNL     1      -2.264  48.726 -26.294  1.00  0.00     0.050 C 
HETATM   48  C4  UNL     1      -4.575  49.011 -25.402  1.00  0.00     0.050 C 
BRANCH  46  49
HETATM   49  O1  UNL     1      -3.445  50.897 -26.292  1.00  0.00    -0.382 OA
HETATM   50  C1  UNL     1      -2.640  51.580 -27.249  1.00  0.00     0.202 C 
ENDBRANCH  46  49
ENDBRANCH  45  46
ENDBRANCH  43  44
ENDBRANCH  41  43
ENDBRANCH   1  41
TORSDOF 12
ENDMDL
MODEL 7
REMARK minimizedAffinity -7.67018557
REMARK CNNscore 0.180781439
REMARK CNNaffinity 6.60494471
REMARK  12 active torsions:
REMARK  status: ('A' for Active; 'I' for Inactive)
REMARK    1  A    between atoms: O1_2  and  C2_3 
REMARK    2  A    between atoms: C2_3  and  C5_6 
REMARK    3  A    between atoms: C6_7  and  C7_8 
REMARK    4  A    between atoms: C7_8  and  C8_9 
REMARK    5  A    between atoms: C8_9  and  C10_11 
REMARK    6  A    between atoms: C28_31  and  O4_32 
REMARK    7  A    between atoms: O4_32  and  C29_33 
REMARK    8  A    between atoms: C30_35  and  C31_36 
REMARK    9  A    between atoms: C31_36  and  O6_37 
REMARK   10  A    between atoms: C32_38  and  O7_39 
REMARK   11  A    between atoms: C33_40  and  O8_41 
REMARK   12  A    between atoms: C34_42  and  O9_43 
ROOT
HETATM    1  C10 UNL     1      -1.419  51.477 -21.037  1.00  0.00    -0.002 C 
HETATM    2  C11 UNL     1      -2.556  52.123 -21.891  1.00  0.00     0.006 C 
HETATM    3  C12 UNL     1      -3.765  51.161 -21.866  1.00  0.00     0.011 C 
HETATM    4  C13 UNL     1      -3.411  50.106 -20.801  1.00  0.00    -0.028 C 
HETATM    5  C14 UNL     1      -3.797  50.747 -19.424  1.00  0.00     0.016 C 
HETATM    6  C15 UNL     1      -4.105  48.722 -20.983  1.00  0.00     0.035 C 
HETATM    7  C16 UNL     1      -5.616  48.778 -20.875  1.00  0.00    -0.021 C 
HETATM    8  C17 UNL     1      -6.297  47.935 -20.083  1.00  0.00     0.009 C 
HETATM    9  C18 UNL     1      -5.586  46.919 -19.193  1.00  0.00     0.102 C 
HETATM   10  O2  UNL     1      -5.133  45.880 -20.083  1.00  0.00    -0.304 OA
HETATM   11  C19 UNL     1      -3.948  46.269 -20.663  1.00  0.00     0.270 C 
HETATM   12  O3  UNL     1      -3.395  45.647 -21.553  1.00  0.00    -0.264 OA
HETATM   13  C20 UNL     1      -3.492  47.605 -20.054  1.00  0.00     0.062 C 
HETATM   14  C21 UNL     1      -1.944  47.652 -19.975  1.00  0.00     0.022 C 
HETATM   15  C22 UNL     1      -1.297  49.050 -19.931  1.00  0.00     0.011 C 
HETATM   16  C23 UNL     1      -1.855  49.971 -21.028  1.00  0.00    -0.032 C 
HETATM   17  C24 UNL     1      -1.473  49.343 -22.411  1.00  0.00     0.016 C 
HETATM   18  C25 UNL     1      -4.248  47.507 -18.703  1.00  0.00     0.045 C 
HETATM   19  C26 UNL     1      -3.531  46.633 -17.654  1.00  0.00     0.012 C 
HETATM   20  C27 UNL     1      -4.457  46.210 -16.521  1.00  0.00     0.033 C 
HETATM   21  C28 UNL     1      -5.673  45.446 -17.074  1.00  0.00     0.136 C 
HETATM   22  C35 UNL     1      -6.503  46.343 -18.059  1.00  0.00     0.015 C 
HETATM   23  C36 UNL     1      -7.172  47.482 -17.251  1.00  0.00     0.021 C 
HETATM   24  C37 UNL     1      -7.646  45.482 -18.652  1.00  0.00     0.021 C 
ENDROOT
BRANCH  21  25
HETATM   25  O4  UNL     1      -5.249  44.266 -17.771  1.00  0.00    -0.352 OA
BRANCH  25  26
HETATM   26  C29 UNL     1      -4.490  43.334 -16.983  1.00  0.00     0.292 C 
HETATM   27  O5  UNL     1      -3.232  43.073 -17.585  1.00  0.00    -0.348 OA
HETATM   28  C30 UNL     1      -2.405  42.165 -16.830  1.00  0.00     0.179 C 
HETATM   29  C32 UNL     1      -3.153  41.313 -15.779  1.00  0.00     0.180 C 
HETATM   30  C33 UNL     1      -4.559  40.895 -16.243  1.00  0.00     0.183 C 
HETATM   31  C34 UNL     1      -5.308  42.027 -16.967  1.00  0.00     0.204 C 
BRANCH  28  32
HETATM   32  C31 UNL     1      -1.679  41.299 -17.866  1.00  0.00     0.198 C 
BRANCH  32  33
HETATM   33  O6  UNL     1      -2.442  41.269 -19.074  1.00  0.00    -0.398 OA
HETATM   34  H46 UNL     1      -3.343  41.036 -18.787  1.00  0.00     0.209 HD
ENDBRANCH  32  33
ENDBRANCH  28  32
BRANCH  29  35
HETATM   35  O7  UNL     1      -3.274  42.101 -14.585  1.00  0.00    -0.390 OA
HETATM   36  H48 UNL     1      -3.727  41.554 -13.909  1.00  0.00     0.210 HD
ENDBRANCH  29  35
BRANCH  30  37
HETATM   37  O8  UNL     1      -4.453  39.743 -17.085  1.00  0.00    -0.390 OA
HETATM   38  H50 UNL     1      -5.359  39.417 -17.248  1.00  0.00     0.210 HD
ENDBRANCH  30  37
BRANCH  31  39
HETATM   39  O9  UNL     1      -6.584  42.241 -16.339  1.00  0.00    -0.388 OA
HETATM   40  H52 UNL     1      -6.987  42.971 -16.846  1.00  0.00     0.210 HD
ENDBRANCH  31  39
ENDBRANCH  25  26
ENDBRANCH  21  25
BRANCH   1  41
HETATM   41  C8  UNL     1       0.025  51.843 -21.502  1.00  0.00    -0.010 C 
HETATM   42  C9  UNL     1       0.811  52.573 -20.399  1.00  0.00     0.010 C 
BRANCH  41  43
HETATM   43  C7  UNL     1       0.085  52.692 -22.799  1.00  0.00     0.031 C 
BRANCH  43  44
HETATM   44  C6  UNL     1      -0.109  51.967 -24.102  1.00  0.00    -0.027 C 
HETATM   45  C5  UNL     1       0.359  52.409 -25.282  1.00  0.00     0.006 C 
BRANCH  45  46
HETATM   46  C2  UNL     1       0.277  51.664 -26.603  1.00  0.00     0.070 C 
HETATM   47  C3  UNL     1      -0.012  52.636 -27.758  1.00  0.00     0.050 C 
HETATM   48  C4  UNL     1      -0.881  50.657 -26.513  1.00  0.00     0.050 C 
BRANCH  46  49
HETATM   49  O1  UNL     1       1.458  50.876 -26.835  1.00  0.00    -0.382 OA
HETATM   50  C1  UNL     1       2.696  51.582 -26.813  1.00  0.00     0.202 C 
ENDBRANCH  46  49
ENDBRANCH  45  46
ENDBRANCH  43  44
ENDBRANCH  41  43
ENDBRANCH   1  41
TORSDOF 12
ENDMDL
MODEL 8
REMARK minimizedAffinity -8.48188782
REMARK CNNscore 0.179167822
REMARK CNNaffinity 6.76700258
REMARK  12 active torsions:
REMARK  status: ('A' for Active; 'I' for Inactive)
REMARK    1  A    between atoms: O1_2  and  C2_3 
REMARK    2  A    between atoms: C2_3  and  C5_6 
REMARK    3  A    between atoms: C6_7  and  C7_8 
REMARK    4  A    between atoms: C7_8  and  C8_9 
REMARK    5  A    between atoms: C8_9  and  C10_11 
REMARK    6  A    between atoms: C28_31  and  O4_32 
REMARK    7  A    between atoms: O4_32  and  C29_33 
REMARK    8  A    between atoms: C30_35  and  C31_36 
REMARK    9  A    between atoms: C31_36  and  O6_37 
REMARK   10  A    between atoms: C32_38  and  O7_39 
REMARK   11  A    between atoms: C33_40  and  O8_41 
REMARK   12  A    between atoms: C34_42  and  O9_43 
ROOT
HETATM    1  C10 UNL     1      -0.888  50.093 -20.316  1.00  0.00    -0.002 C 
HETATM    2  C11 UNL     1      -0.685  49.415 -18.924  1.00  0.00     0.006 C 
HETATM    3  C12 UNL     1      -1.981  48.648 -18.582  1.00  0.00     0.011 C 
HETATM    4  C13 UNL     1      -2.813  48.677 -19.877  1.00  0.00    -0.028 C 
HETATM    5  C14 UNL     1      -2.265  47.505 -20.760  1.00  0.00     0.016 C 
HETATM    6  C15 UNL     1      -4.354  48.548 -19.678  1.00  0.00     0.035 C 
HETATM    7  C16 UNL     1      -4.782  47.230 -19.064  1.00  0.00    -0.021 C 
HETATM    8  C17 UNL     1      -5.760  46.486 -19.604  1.00  0.00     0.009 C 
HETATM    9  C18 UNL     1      -6.449  46.888 -20.905  1.00  0.00     0.102 C 
HETATM   10  O2  UNL     1      -7.329  47.974 -20.553  1.00  0.00    -0.304 OA
HETATM   11  C19 UNL     1      -6.608  49.145 -20.520  1.00  0.00     0.270 C 
HETATM   12  O3  UNL     1      -7.062  50.207 -20.131  1.00  0.00    -0.264 OA
HETATM   13  C20 UNL     1      -5.169  48.876 -20.988  1.00  0.00     0.062 C 
HETATM   14  C21 UNL     1      -4.623  50.105 -21.760  1.00  0.00     0.022 C 
HETATM   15  C22 UNL     1      -3.091  50.260 -21.816  1.00  0.00     0.011 C 
HETATM   16  C23 UNL     1      -2.452  50.113 -20.425  1.00  0.00    -0.032 C 
HETATM   17  C24 UNL     1      -2.990  51.281 -19.532  1.00  0.00     0.016 C 
HETATM   18  C25 UNL     1      -5.439  47.599 -21.828  1.00  0.00     0.045 C 
HETATM   19  C26 UNL     1      -5.984  47.891 -23.240  1.00  0.00     0.012 C 
HETATM   20  C27 UNL     1      -6.627  46.666 -23.878  1.00  0.00     0.033 C 
HETATM   21  C28 UNL     1      -7.767  46.132 -22.993  1.00  0.00     0.136 C 
HETATM   22  C35 UNL     1      -7.233  45.709 -21.578  1.00  0.00     0.015 C 
HETATM   23  C36 UNL     1      -6.332  44.461 -21.740  1.00  0.00     0.021 C 
HETATM   24  C37 UNL     1      -8.444  45.280 -20.712  1.00  0.00     0.021 C 
ENDROOT
BRANCH  21  25
HETATM   25  O4  UNL     1      -8.781  47.133 -22.823  1.00  0.00    -0.352 OA
BRANCH  25  26
HETATM   26  C29 UNL     1      -9.983  46.915 -23.579  1.00  0.00     0.292 C 
HETATM   27  O5  UNL     1     -10.297  45.533 -23.641  1.00  0.00    -0.348 OA
HETATM   28  C30 UNL     1     -11.510  45.245 -24.364  1.00  0.00     0.179 C 
HETATM   29  C32 UNL     1     -12.006  46.376 -25.293  1.00  0.00     0.180 C 
HETATM   30  C33 UNL     1     -10.855  47.142 -25.965  1.00  0.00     0.183 C 
HETATM   31  C34 UNL     1      -9.682  47.414 -25.006  1.00  0.00     0.204 C 
BRANCH  28  32
HETATM   32  C31 UNL     1     -11.244  43.942 -25.128  1.00  0.00     0.198 C 
BRANCH  32  33
HETATM   33  O6  UNL     1     -12.485  43.396 -25.577  1.00  0.00    -0.398 OA
HETATM   34  H46 UNL     1     -13.050  43.391 -24.784  1.00  0.00     0.209 HD
ENDBRANCH  32  33
ENDBRANCH  28  32
BRANCH  29  35
HETATM   35  O7  UNL     1     -12.771  47.293 -24.495  1.00  0.00    -0.390 OA
HETATM   36  H48 UNL     1     -13.106  47.999 -25.087  1.00  0.00     0.210 HD
ENDBRANCH  29  35
BRANCH  30  37
HETATM   37  O8  UNL     1     -10.408  46.412 -27.112  1.00  0.00    -0.390 OA
HETATM   38  H50 UNL     1      -9.781  46.983 -27.595  1.00  0.00     0.210 HD
ENDBRANCH  30  37
BRANCH  31  39
HETATM   39  O9  UNL     1      -9.384  48.821 -24.994  1.00  0.00    -0.388 OA
HETATM   40  H52 UNL     1      -8.644  48.910 -24.365  1.00  0.00     0.210 HD
ENDBRANCH  31  39
ENDBRANCH  25  26
ENDBRANCH  21  25
BRANCH   1  41
HETATM   41  C8  UNL     1      -0.100  51.426 -20.506  1.00  0.00    -0.010 C 
HETATM   42  C9  UNL     1       0.058  52.189 -19.179  1.00  0.00     0.010 C 
BRANCH  41  43
HETATM   43  C7  UNL     1      -0.709  52.387 -21.561  1.00  0.00     0.031 C 
BRANCH  43  44
HETATM   44  C6  UNL     1      -0.220  52.250 -22.976  1.00  0.00    -0.027 C 
HETATM   45  C5  UNL     1      -1.015  51.956 -24.019  1.00  0.00     0.006 C 
BRANCH  45  46
HETATM   46  C2  UNL     1      -0.586  51.909 -25.475  1.00  0.00     0.070 C 
HETATM   47  C3  UNL     1      -1.121  50.641 -26.158  1.00  0.00     0.050 C 
HETATM   48  C4  UNL     1       0.950  51.874 -25.520  1.00  0.00     0.050 C 
BRANCH  46  49
HETATM   49  O1  UNL     1      -0.966  53.108 -26.173  1.00  0.00    -0.382 OA
HETATM   50  C1  UNL     1       0.056  53.733 -26.945  1.00  0.00     0.202 C 
ENDBRANCH  46  49
ENDBRANCH  45  46
ENDBRANCH  43  44
ENDBRANCH  41  43
ENDBRANCH   1  41
TORSDOF 12
ENDMDL
MODEL 9
REMARK minimizedAffinity -8.76538754
REMARK CNNscore 0.173485011
REMARK CNNaffinity 6.58582067
REMARK  12 active torsions:
REMARK  status: ('A' for Active; 'I' for Inactive)
REMARK    1  A    between atoms: O1_2  and  C2_3 
REMARK    2  A    between atoms: C2_3  and  C5_6 
REMARK    3  A    between atoms: C6_7  and  C7_8 
REMARK    4  A    between atoms: C7_8  and  C8_9 
REMARK    5  A    between atoms: C8_9  and  C10_11 
REMARK    6  A    between atoms: C28_31  and  O4_32 
REMARK    7  A    between atoms: O4_32  and  C29_33 
REMARK    8  A    between atoms: C30_35  and  C31_36 
REMARK    9  A    between atoms: C31_36  and  O6_37 
REMARK   10  A    between atoms: C32_38  and  O7_39 
REMARK   11  A    between atoms: C33_40  and  O8_41 
REMARK   12  A    between atoms: C34_42  and  O9_43 
ROOT
HETATM    1  C10 UNL     1      -1.549  51.098 -22.132  1.00  0.00    -0.002 C 
HETATM    2  C11 UNL     1      -1.662  50.557 -23.593  1.00  0.00     0.006 C 
HETATM    3  C12 UNL     1      -2.649  49.369 -23.578  1.00  0.00     0.011 C 
HETATM    4  C13 UNL     1      -3.283  49.398 -22.175  1.00  0.00    -0.028 C 
HETATM    5  C14 UNL     1      -4.439  50.452 -22.254  1.00  0.00     0.016 C 
HETATM    6  C15 UNL     1      -3.818  48.026 -21.661  1.00  0.00     0.035 C 
HETATM    7  C16 UNL     1      -4.944  47.456 -22.500  1.00  0.00    -0.021 C 
HETATM    8  C17 UNL     1      -6.084  47.018 -21.943  1.00  0.00     0.009 C 
HETATM    9  C18 UNL     1      -6.341  47.133 -20.443  1.00  0.00     0.102 C 
HETATM   10  O2  UNL     1      -5.530  46.108 -19.835  1.00  0.00    -0.304 OA
HETATM   11  C19 UNL     1      -4.244  46.575 -19.697  1.00  0.00     0.270 C 
HETATM   12  O3  UNL     1      -3.311  45.883 -19.328  1.00  0.00    -0.264 OA
HETATM   13  C20 UNL     1      -4.183  48.049 -20.126  1.00  0.00     0.062 C 
HETATM   14  C21 UNL     1      -3.149  48.813 -19.260  1.00  0.00     0.022 C 
HETATM   15  C22 UNL     1      -2.549  50.095 -19.869  1.00  0.00     0.011 C 
HETATM   16  C23 UNL     1      -2.051  49.864 -21.305  1.00  0.00    -0.032 C 
HETATM   17  C24 UNL     1      -0.892  48.813 -21.241  1.00  0.00     0.016 C 
HETATM   18  C25 UNL     1      -5.674  48.413 -19.900  1.00  0.00     0.045 C 
HETATM   19  C26 UNL     1      -6.020  48.719 -18.429  1.00  0.00     0.012 C 
HETATM   20  C27 UNL     1      -7.519  48.658 -18.161  1.00  0.00     0.033 C 
HETATM   21  C28 UNL     1      -8.079  47.275 -18.537  1.00  0.00     0.136 C 
HETATM   22  C35 UNL     1      -7.853  46.970 -20.061  1.00  0.00     0.015 C 
HETATM   23  C36 UNL     1      -8.744  47.923 -20.895  1.00  0.00     0.021 C 
HETATM   24  C37 UNL     1      -8.347  45.530 -20.345  1.00  0.00     0.021 C 
ENDROOT
BRANCH  21  25
HETATM   25  O4  UNL     1      -7.442  46.248 -17.763  1.00  0.00    -0.352 OA
BRANCH  25  26
HETATM   26  C29 UNL     1      -8.251  45.687 -16.717  1.00  0.00     0.292 C 
HETATM   27  O5  UNL     1      -9.619  45.667 -17.092  1.00  0.00    -0.348 OA
HETATM   28  C30 UNL     1     -10.486  45.089 -16.096  1.00  0.00     0.179 C 
HETATM   29  C32 UNL     1      -9.888  45.004 -14.673  1.00  0.00     0.180 C 
HETATM   30  C33 UNL     1      -8.991  46.206 -14.332  1.00  0.00     0.183 C 
HETATM   31  C34 UNL     1      -8.088  46.626 -15.505  1.00  0.00     0.204 C 
BRANCH  28  32
HETATM   32  C31 UNL     1     -11.777  45.915 -16.133  1.00  0.00     0.198 C 
BRANCH  32  33
HETATM   33  O6  UNL     1     -11.935  46.484 -17.434  1.00  0.00    -0.398 OA
HETATM   34  H46 UNL     1     -11.078  46.907 -17.621  1.00  0.00     0.209 HD
ENDBRANCH  32  33
ENDBRANCH  28  32
BRANCH  29  35
HETATM   35  O7  UNL     1      -9.103  43.803 -14.601  1.00  0.00    -0.390 OA
HETATM   36  H48 UNL     1      -8.742  43.736 -13.691  1.00  0.00     0.210 HD
ENDBRANCH  29  35
BRANCH  30  37
HETATM   37  O8  UNL     1      -9.810  47.300 -13.910  1.00  0.00    -0.390 OA
HETATM   38  H50 UNL     1      -9.215  47.995 -13.568  1.00  0.00     0.210 HD
ENDBRANCH  30  37
BRANCH  31  39
HETATM   39  O9  UNL     1      -6.717  46.656 -15.073  1.00  0.00    -0.388 OA
HETATM   40  H52 UNL     1      -6.215  46.920 -15.867  1.00  0.00     0.210 HD
ENDBRANCH  31  39
ENDBRANCH  25  26
ENDBRANCH  21  25
BRANCH   1  41
HETATM   41  C8  UNL     1      -0.165  51.728 -21.784  1.00  0.00    -0.010 C 
HETATM   42  C9  UNL     1      -0.218  52.532 -20.472  1.00  0.00     0.010 C 
BRANCH  41  43
HETATM   43  C7  UNL     1       0.427  52.633 -22.896  1.00  0.00     0.031 C 
BRANCH  43  44
HETATM   44  C6  UNL     1       0.103  52.270 -24.319  1.00  0.00    -0.027 C 
HETATM   45  C5  UNL     1       0.641  52.881 -25.389  1.00  0.00     0.006 C 
BRANCH  45  46
HETATM   46  C2  UNL     1       0.423  52.484 -26.838  1.00  0.00     0.070 C 
HETATM   47  C3  UNL     1      -0.270  53.615 -27.614  1.00  0.00     0.050 C 
HETATM   48  C4  UNL     1      -0.489  51.247 -26.863  1.00  0.00     0.050 C 
BRANCH  46  49
HETATM   49  O1  UNL     1       1.653  52.070 -27.459  1.00  0.00    -0.382 OA
HETATM   50  C1  UNL     1       2.628  51.494 -26.594  1.00  0.00     0.202 C 
ENDBRANCH  46  49
ENDBRANCH  45  46
ENDBRANCH  43  44
ENDBRANCH  41  43
ENDBRANCH   1  41
TORSDOF 12
ENDMDL
