MODEL 1
REMARK minimizedAffinity -8.24784184
REMARK CNNscore 0.607821345
REMARK CNNaffinity 6.63891029
REMARK  9 active torsions:
REMARK  status: ('A' for Active; 'I' for Inactive)
REMARK    1  A    between atoms: C2_2  and  C30_35 
REMARK    2  A    between atoms: C3_3  and  C4_4 
REMARK    3  A    between atoms: C4_4  and  O1_5 
REMARK    4  A    between atoms: C4_4  and  C5_6 
REMARK    5  A    between atoms: C5_6  and  C6_7 
REMARK    6  A    between atoms: C6_7  and  C8_9 
REMARK    7  A    between atoms: C10_11  and  O2_12 
REMARK    8  A    between atoms: C29_33  and  O5_34 
REMARK    9  A    between atoms: C30_35  and  O7_37 
ROOT
HETATM    1  C8  UNL     1      -8.465   6.364  14.237  1.00  0.00     0.001 C 
HETATM    2  C9  UNL     1      -8.836   5.220  13.245  1.00  0.00     0.038 C 
HETATM    3  C10 UNL     1      -7.516   4.731  12.626  1.00  0.00     0.132 C 
HETATM    4  C11 UNL     1      -6.437   5.169  13.646  1.00  0.00     0.017 C 
HETATM    5  C12 UNL     1      -6.460   4.179  14.860  1.00  0.00     0.023 C 
HETATM    6  C13 UNL     1      -4.980   5.240  13.201  1.00  0.00    -0.029 C 
HETATM    7  C14 UNL     1      -4.096   6.025  13.871  1.00  0.00     0.002 C 
HETATM    8  C15 UNL     1      -4.624   6.934  14.976  1.00  0.00     0.157 C 
HETATM    9  O3  UNL     1      -3.852   7.526  15.730  1.00  0.00    -0.293 OA
HETATM   10  C16 UNL     1      -6.130   7.129  15.168  1.00  0.00     0.094 C 
HETATM   11  C17 UNL     1      -6.944   6.621  13.975  1.00  0.00    -0.019 C 
HETATM   12  C18 UNL     1      -6.744   7.624  12.803  1.00  0.00     0.017 C 
HETATM   13  C19 UNL     1      -2.580   6.058  13.556  1.00  0.00    -0.008 C 
HETATM   14  C20 UNL     1      -2.306   7.424  12.882  1.00  0.00     0.021 C 
HETATM   15  C21 UNL     1      -1.712   5.955  14.853  1.00  0.00     0.022 C 
HETATM   16  C22 UNL     1      -0.357   5.268  14.700  1.00  0.00     0.080 C 
HETATM   17  C23 UNL     1       0.182   5.389  13.296  1.00  0.00     0.135 C 
HETATM   18  O4  UNL     1       1.295   5.872  13.083  1.00  0.00    -0.297 OA
HETATM   19  C24 UNL     1      -0.689   4.806  12.180  1.00  0.00     0.018 C 
HETATM   20  C25 UNL     1      -0.413   5.546  10.857  1.00  0.00     0.023 C 
HETATM   21  C26 UNL     1      -0.232   3.344  11.987  1.00  0.00     0.023 C 
HETATM   22  C27 UNL     1      -2.187   4.836  12.640  1.00  0.00     0.016 C 
HETATM   23  C28 UNL     1      -3.183   4.668  11.483  1.00  0.00     0.043 C 
HETATM   24  C29 UNL     1      -4.590   4.397  12.009  1.00  0.00     0.149 C 
ENDROOT
BRANCH   1  25
HETATM   25  C6  UNL     1      -9.522   7.510  14.286  1.00  0.00    -0.011 C 
HETATM   26  C7  UNL     1      -9.793   8.127  15.664  1.00  0.00     0.010 C 
BRANCH  25  27
HETATM   27  C5  UNL     1     -10.826   7.106  13.555  1.00  0.00     0.040 C 
BRANCH  27  28
HETATM   28  C4  UNL     1     -11.887   8.218  13.456  1.00  0.00     0.142 C 
BRANCH  28  29
HETATM   29  C3  UNL     1     -13.163   7.761  12.801  1.00  0.00     0.018 C 
HETATM   30  C2  UNL     1     -14.402   8.293  12.885  1.00  0.00     0.010 C 
HETATM   31  C1  UNL     1     -14.782   9.540  13.623  1.00  0.00     0.055 C 
BRANCH  30  32
HETATM   32  C30 UNL     1     -15.462   7.606  12.111  1.00  0.00     0.171 C 
HETATM   33  O6  UNL     1     -15.912   7.953  11.033  1.00  0.00    -0.646 OA
BRANCH  32  34
HETATM   34  O7  UNL     1     -15.924   6.511  12.737  1.00  0.00    -0.773 OA
HETATM   35  H44 UNL     1     -16.616   6.173  12.135  1.00  0.00     0.167 HD
ENDBRANCH  32  34
ENDBRANCH  30  32
ENDBRANCH  28  29
BRANCH  28  36
HETATM   36  O1  UNL     1     -11.349   9.309  12.714  1.00  0.00    -0.392 OA
HETATM   37  H6  UNL     1     -10.631   9.694  13.242  1.00  0.00     0.210 HD
ENDBRANCH  28  36
ENDBRANCH  27  28
ENDBRANCH  25  27
ENDBRANCH   1  25
BRANCH   3  38
HETATM   38  O2  UNL     1      -7.519   3.327  12.405  1.00  0.00    -0.394 OA
HETATM   39  H17 UNL     1      -8.324   3.114  11.896  1.00  0.00     0.210 HD
ENDBRANCH   3  38
BRANCH  24  40
HETATM   40  O5  UNL     1      -4.680   3.026  12.375  1.00  0.00    -0.391 OA
HETATM   41  H43 UNL     1      -5.638   2.820  12.429  1.00  0.00     0.210 HD
ENDBRANCH  24  40
TORSDOF 9
ENDMDL
MODEL 2
REMARK minimizedAffinity -8.06531334
REMARK CNNscore 0.585278213
REMARK CNNaffinity 7.05036306
REMARK  9 active torsions:
REMARK  status: ('A' for Active; 'I' for Inactive)
REMARK    1  A    between atoms: C2_2  and  C30_35 
REMARK    2  A    between atoms: C3_3  and  C4_4 
REMARK    3  A    between atoms: C4_4  and  O1_5 
REMARK    4  A    between atoms: C4_4  and  C5_6 
REMARK    5  A    between atoms: C5_6  and  C6_7 
REMARK    6  A    between atoms: C6_7  and  C8_9 
REMARK    7  A    between atoms: C10_11  and  O2_12 
REMARK    8  A    between atoms: C29_33  and  O5_34 
REMARK    9  A    between atoms: C30_35  and  O7_37 
ROOT
HETATM    1  C8  UNL     1       0.533   7.455  13.263  1.00  0.00     0.001 C 
HETATM    2  C9  UNL     1       0.537   8.015  14.718  1.00  0.00     0.038 C 
HETATM    3  C10 UNL     1      -0.886   7.816  15.267  1.00  0.00     0.132 C 
HETATM    4  C11 UNL     1      -1.474   6.685  14.389  1.00  0.00     0.017 C 
HETATM    5  C12 UNL     1      -0.887   5.315  14.873  1.00  0.00     0.023 C 
HETATM    6  C13 UNL     1      -2.987   6.491  14.344  1.00  0.00    -0.029 C 
HETATM    7  C14 UNL     1      -3.565   5.859  13.288  1.00  0.00     0.002 C 
HETATM    8  C15 UNL     1      -2.689   5.484  12.098  1.00  0.00     0.157 C 
HETATM    9  O3  UNL     1      -3.118   4.757  11.202  1.00  0.00    -0.293 OA
HETATM   10  C16 UNL     1      -1.254   6.007  11.993  1.00  0.00     0.094 C 
HETATM   11  C17 UNL     1      -0.974   7.150  12.973  1.00  0.00    -0.019 C 
HETATM   12  C18 UNL     1      -1.706   8.417  12.446  1.00  0.00     0.017 C 
HETATM   13  C19 UNL     1      -5.074   5.518  13.226  1.00  0.00    -0.008 C 
HETATM   14  C20 UNL     1      -5.691   6.472  12.175  1.00  0.00     0.021 C 
HETATM   15  C21 UNL     1      -5.320   4.042  12.770  1.00  0.00     0.022 C 
HETATM   16  C22 UNL     1      -6.569   3.367  13.332  1.00  0.00     0.080 C 
HETATM   17  C23 UNL     1      -7.646   4.366  13.673  1.00  0.00     0.135 C 
HETATM   18  O4  UNL     1      -8.777   4.269  13.195  1.00  0.00    -0.297 OA
HETATM   19  C24 UNL     1      -7.277   5.440  14.701  1.00  0.00     0.018 C 
HETATM   20  C25 UNL     1      -8.123   6.706  14.464  1.00  0.00     0.023 C 
HETATM   21  C26 UNL     1      -7.675   4.878  16.083  1.00  0.00     0.023 C 
HETATM   22  C27 UNL     1      -5.728   5.676  14.651  1.00  0.00     0.016 C 
HETATM   23  C28 UNL     1      -5.291   6.987  15.320  1.00  0.00     0.043 C 
HETATM   24  C29 UNL     1      -3.777   7.019  15.518  1.00  0.00     0.149 C 
ENDROOT
BRANCH   1  25
HETATM   25  C6  UNL     1       1.438   8.264  12.285  1.00  0.00    -0.011 C 
HETATM   26  C7  UNL     1       1.373   7.861  10.807  1.00  0.00     0.010 C 
BRANCH  25  27
HETATM   27  C5  UNL     1       2.893   8.356  12.806  1.00  0.00     0.040 C 
BRANCH  27  28
HETATM   28  C4  UNL     1       3.919   8.878  11.783  1.00  0.00     0.142 C 
BRANCH  28  29
HETATM   29  C3  UNL     1       5.133   7.995  11.661  1.00  0.00     0.018 C 
HETATM   30  C2  UNL     1       5.256   6.798  11.048  1.00  0.00     0.010 C 
HETATM   31  C1  UNL     1       4.192   6.086  10.270  1.00  0.00     0.055 C 
BRANCH  30  32
HETATM   32  C30 UNL     1       6.599   6.173  11.100  1.00  0.00     0.171 C 
HETATM   33  O6  UNL     1       7.634   6.709  11.452  1.00  0.00    -0.646 OA
BRANCH  32  34
HETATM   34  O7  UNL     1       6.583   4.894  10.689  1.00  0.00    -0.773 OA
HETATM   35  H44 UNL     1       7.519   4.616  10.758  1.00  0.00     0.167 HD
ENDBRANCH  32  34
ENDBRANCH  30  32
ENDBRANCH  28  29
BRANCH  28  36
HETATM   36  O1  UNL     1       4.333  10.186  12.165  1.00  0.00    -0.392 OA
HETATM   37  H6  UNL     1       3.565  10.773  12.071  1.00  0.00     0.210 HD
ENDBRANCH  28  36
ENDBRANCH  27  28
ENDBRANCH  25  27
ENDBRANCH   1  25
BRANCH   3  38
HETATM   38  O2  UNL     1      -0.882   7.487  16.650  1.00  0.00    -0.394 OA
HETATM   39  H17 UNL     1      -0.347   8.161  17.109  1.00  0.00     0.210 HD
ENDBRANCH   3  38
BRANCH  24  40
HETATM   40  O5  UNL     1      -3.454   6.246  16.667  1.00  0.00    -0.391 OA
HETATM   41  H43 UNL     1      -2.547   6.515  16.931  1.00  0.00     0.210 HD
ENDBRANCH  24  40
TORSDOF 9
ENDMDL
MODEL 3
REMARK minimizedAffinity -7.66372919
REMARK CNNscore 0.530337453
REMARK CNNaffinity 6.46917725
REMARK  9 active torsions:
REMARK  status: ('A' for Active; 'I' for Inactive)
REMARK    1  A    between atoms: C2_2  and  C30_35 
REMARK    2  A    between atoms: C3_3  and  C4_4 
REMARK    3  A    between atoms: C4_4  and  O1_5 
REMARK    4  A    between atoms: C4_4  and  C5_6 
REMARK    5  A    between atoms: C5_6  and  C6_7 
REMARK    6  A    between atoms: C6_7  and  C8_9 
REMARK    7  A    between atoms: C10_11  and  O2_12 
REMARK    8  A    between atoms: C29_33  and  O5_34 
REMARK    9  A    between atoms: C30_35  and  O7_37 
ROOT
HETATM    1  C8  UNL     1      -5.225 -10.996   4.646  1.00  0.00     0.001 C 
HETATM    2  C9  UNL     1      -6.423 -10.086   5.056  1.00  0.00     0.038 C 
HETATM    3  C10 UNL     1      -7.113  -9.655   3.750  1.00  0.00     0.132 C 
HETATM    4  C11 UNL     1      -6.684 -10.733   2.725  1.00  0.00     0.017 C 
HETATM    5  C12 UNL     1      -7.531 -12.028   2.972  1.00  0.00     0.023 C 
HETATM    6  C13 UNL     1      -6.816 -10.434   1.235  1.00  0.00    -0.029 C 
HETATM    7  C14 UNL     1      -6.062 -11.112   0.330  1.00  0.00     0.002 C 
HETATM    8  C15 UNL     1      -4.989 -12.064   0.848  1.00  0.00     0.157 C 
HETATM    9  O3  UNL     1      -4.404 -12.832   0.084  1.00  0.00    -0.293 OA
HETATM   10  C16 UNL     1      -4.616 -12.082   2.332  1.00  0.00     0.094 C 
HETATM   11  C17 UNL     1      -5.160 -10.867   3.088  1.00  0.00    -0.019 C 
HETATM   12  C18 UNL     1      -4.316  -9.630   2.668  1.00  0.00     0.017 C 
HETATM   13  C19 UNL     1      -6.224 -10.952  -1.201  1.00  0.00    -0.008 C 
HETATM   14  C20 UNL     1      -4.975 -10.180  -1.692  1.00  0.00     0.021 C 
HETATM   15  C21 UNL     1      -6.279 -12.334  -1.931  1.00  0.00     0.022 C 
HETATM   16  C22 UNL     1      -7.117 -12.387  -3.206  1.00  0.00     0.080 C 
HETATM   17  C23 UNL     1      -7.205 -11.041  -3.880  1.00  0.00     0.135 C 
HETATM   18  O4  UNL     1      -6.868 -10.896  -5.056  1.00  0.00    -0.297 OA
HETATM   19  C24 UNL     1      -7.810  -9.903  -3.052  1.00  0.00     0.018 C 
HETATM   20  C25 UNL     1      -7.249  -8.550  -3.531  1.00  0.00     0.023 C 
HETATM   21  C26 UNL     1      -9.323  -9.900  -3.352  1.00  0.00     0.023 C 
HETATM   22  C27 UNL     1      -7.571 -10.203  -1.532  1.00  0.00     0.016 C 
HETATM   23  C28 UNL     1      -7.756  -8.972  -0.633  1.00  0.00     0.043 C 
HETATM   24  C29 UNL     1      -7.820  -9.376   0.838  1.00  0.00     0.149 C 
ENDROOT
BRANCH   1  25
HETATM   25  C6  UNL     1      -3.976 -10.826   5.563  1.00  0.00    -0.011 C 
HETATM   26  C7  UNL     1      -3.416 -12.106   6.194  1.00  0.00     0.010 C 
BRANCH  25  27
HETATM   27  C5  UNL     1      -4.189  -9.701   6.605  1.00  0.00     0.040 C 
BRANCH  27  28
HETATM   28  C4  UNL     1      -3.478  -9.919   7.954  1.00  0.00     0.142 C 
BRANCH  28  29
HETATM   29  C3  UNL     1      -4.424  -9.932   9.125  1.00  0.00     0.018 C 
HETATM   30  C2  UNL     1      -4.179  -9.638  10.421  1.00  0.00     0.010 C 
HETATM   31  C1  UNL     1      -2.880  -9.156  10.990  1.00  0.00     0.055 C 
BRANCH  30  32
HETATM   32  C30 UNL     1      -5.334  -9.742  11.344  1.00  0.00     0.171 C 
HETATM   33  O6  UNL     1      -6.128  -8.859  11.612  1.00  0.00    -0.646 OA
BRANCH  32  34
HETATM   34  O7  UNL     1      -5.431 -10.959  11.905  1.00  0.00    -0.773 OA
HETATM   35  H44 UNL     1      -6.210 -10.883  12.492  1.00  0.00     0.167 HD
ENDBRANCH  32  34
ENDBRANCH  30  32
ENDBRANCH  28  29
BRANCH  28  36
HETATM   36  O1  UNL     1      -2.516  -8.886   8.145  1.00  0.00    -0.392 OA
HETATM   37  H6  UNL     1      -1.824  -9.006   7.474  1.00  0.00     0.210 HD
ENDBRANCH  28  36
ENDBRANCH  27  28
ENDBRANCH  25  27
ENDBRANCH   1  25
BRANCH   3  38
HETATM   38  O2  UNL     1      -8.524  -9.572   3.896  1.00  0.00    -0.394 OA
HETATM   39  H17 UNL     1      -8.705  -9.007   4.670  1.00  0.00     0.210 HD
ENDBRANCH   3  38
BRANCH  24  40
HETATM   40  O5  UNL     1      -9.126  -9.861   1.119  1.00  0.00    -0.391 OA
HETATM   41  H43 UNL     1      -9.222  -9.837   2.096  1.00  0.00     0.210 HD
ENDBRANCH  24  40
TORSDOF 9
ENDMDL
MODEL 4
REMARK minimizedAffinity -7.93478584
REMARK CNNscore 0.509415507
REMARK CNNaffinity 6.55602264
REMARK  9 active torsions:
REMARK  status: ('A' for Active; 'I' for Inactive)
REMARK    1  A    between atoms: C2_2  and  C30_35 
REMARK    2  A    between atoms: C3_3  and  C4_4 
REMARK    3  A    between atoms: C4_4  and  O1_5 
REMARK    4  A    between atoms: C4_4  and  C5_6 
REMARK    5  A    between atoms: C5_6  and  C6_7 
REMARK    6  A    between atoms: C6_7  and  C8_9 
REMARK    7  A    between atoms: C10_11  and  O2_12 
REMARK    8  A    between atoms: C29_33  and  O5_34 
REMARK    9  A    between atoms: C30_35  and  O7_37 
ROOT
HETATM    1  C8  UNL     1     -10.394   7.948  14.781  1.00  0.00     0.001 C 
HETATM    2  C9  UNL     1     -10.127   9.484  14.780  1.00  0.00     0.038 C 
HETATM    3  C10 UNL     1     -11.426  10.154  14.300  1.00  0.00     0.132 C 
HETATM    4  C11 UNL     1     -12.522   9.098  14.586  1.00  0.00     0.017 C 
HETATM    5  C12 UNL     1     -12.850   9.115  16.118  1.00  0.00     0.023 C 
HETATM    6  C13 UNL     1     -13.867   9.214  13.876  1.00  0.00    -0.029 C 
HETATM    7  C14 UNL     1     -14.660   8.120  13.729  1.00  0.00     0.002 C 
HETATM    8  C15 UNL     1     -14.112   6.763  14.157  1.00  0.00     0.157 C 
HETATM    9  O3  UNL     1     -14.845   5.776  14.214  1.00  0.00    -0.293 OA
HETATM   10  C16 UNL     1     -12.635   6.601  14.524  1.00  0.00     0.094 C 
HETATM   11  C17 UNL     1     -11.789   7.800  14.088  1.00  0.00    -0.019 C 
HETATM   12  C18 UNL     1     -11.636   7.734  12.541  1.00  0.00     0.017 C 
HETATM   13  C19 UNL     1     -16.087   8.180  13.130  1.00  0.00    -0.008 C 
HETATM   14  C20 UNL     1     -15.999   7.516  11.734  1.00  0.00     0.021 C 
HETATM   15  C21 UNL     1     -17.119   7.389  13.998  1.00  0.00     0.022 C 
HETATM   16  C22 UNL     1     -18.550   7.920  13.988  1.00  0.00     0.080 C 
HETATM   17  C23 UNL     1     -18.869   8.660  12.713  1.00  0.00     0.135 C 
HETATM   18  O4  UNL     1     -19.829   8.335  12.013  1.00  0.00    -0.297 OA
HETATM   19  C24 UNL     1     -17.991   9.874  12.393  1.00  0.00     0.018 C 
HETATM   20  C25 UNL     1     -17.943  10.100  10.870  1.00  0.00     0.023 C 
HETATM   21  C26 UNL     1     -18.695  11.099  13.014  1.00  0.00     0.023 C 
HETATM   22  C27 UNL     1     -16.588   9.673  13.063  1.00  0.00     0.016 C 
HETATM   23  C28 UNL     1     -15.503  10.598  12.492  1.00  0.00     0.043 C 
HETATM   24  C29 UNL     1     -14.256  10.584  13.373  1.00  0.00     0.149 C 
ENDROOT
BRANCH   1  25
HETATM   25  C6  UNL     1      -9.149   7.103  14.371  1.00  0.00    -0.011 C 
HETATM   26  C7  UNL     1      -9.295   6.245  13.109  1.00  0.00     0.010 C 
BRANCH  25  27
HETATM   27  C5  UNL     1      -8.594   6.297  15.571  1.00  0.00     0.040 C 
BRANCH  27  28
HETATM   28  C4  UNL     1      -7.247   5.595  15.316  1.00  0.00     0.142 C 
BRANCH  28  29
HETATM   29  C3  UNL     1      -7.366   4.394  14.416  1.00  0.00     0.018 C 
HETATM   30  C2  UNL     1      -6.569   4.013  13.395  1.00  0.00     0.010 C 
HETATM   31  C1  UNL     1      -5.307   4.690  12.955  1.00  0.00     0.055 C 
BRANCH  30  32
HETATM   32  C30 UNL     1      -6.955   2.765  12.695  1.00  0.00     0.171 C 
HETATM   33  O6  UNL     1      -7.983   2.133  12.857  1.00  0.00    -0.646 OA
BRANCH  32  34
HETATM   34  O7  UNL     1      -6.016   2.356  11.826  1.00  0.00    -0.773 OA
HETATM   35  H44 UNL     1      -6.387   1.529  11.455  1.00  0.00     0.167 HD
ENDBRANCH  32  34
ENDBRANCH  30  32
ENDBRANCH  28  29
BRANCH  28  36
HETATM   36  O1  UNL     1      -6.692   5.188  16.563  1.00  0.00    -0.392 OA
HETATM   37  H6  UNL     1      -6.467   5.992  17.058  1.00  0.00     0.210 HD
ENDBRANCH  28  36
ENDBRANCH  27  28
ENDBRANCH  25  27
ENDBRANCH   1  25
BRANCH   3  38
HETATM   38  O2  UNL     1     -11.668  11.386  14.968  1.00  0.00    -0.394 OA
HETATM   39  H17 UNL     1     -10.862  11.928  14.881  1.00  0.00     0.210 HD
ENDBRANCH   3  38
BRANCH  24  40
HETATM   40  O5  UNL     1     -14.484  11.431  14.492  1.00  0.00    -0.391 OA
HETATM   41  H43 UNL     1     -13.599  11.628  14.870  1.00  0.00     0.210 HD
ENDBRANCH  24  40
TORSDOF 9
ENDMDL
MODEL 5
REMARK minimizedAffinity -9.52285194
REMARK CNNscore 0.495701164
REMARK CNNaffinity 6.67722893
REMARK  9 active torsions:
REMARK  status: ('A' for Active; 'I' for Inactive)
REMARK    1  A    between atoms: C2_2  and  C30_35 
REMARK    2  A    between atoms: C3_3  and  C4_4 
REMARK    3  A    between atoms: C4_4  and  O1_5 
REMARK    4  A    between atoms: C4_4  and  C5_6 
REMARK    5  A    between atoms: C5_6  and  C6_7 
REMARK    6  A    between atoms: C6_7  and  C8_9 
REMARK    7  A    between atoms: C10_11  and  O2_12 
REMARK    8  A    between atoms: C29_33  and  O5_34 
REMARK    9  A    between atoms: C30_35  and  O7_37 
ROOT
HETATM    1  C8  UNL     1      -6.113   7.059  14.975  1.00  0.00     0.001 C 
HETATM    2  C9  UNL     1      -5.945   8.523  15.483  1.00  0.00     0.038 C 
HETATM    3  C10 UNL     1      -4.488   8.923  15.190  1.00  0.00     0.132 C 
HETATM    4  C11 UNL     1      -4.052   7.958  14.062  1.00  0.00     0.017 C 
HETATM    5  C12 UNL     1      -4.666   8.455  12.708  1.00  0.00     0.023 C 
HETATM    6  C13 UNL     1      -2.565   7.757  13.790  1.00  0.00    -0.029 C 
HETATM    7  C14 UNL     1      -2.128   6.632  13.166  1.00  0.00     0.002 C 
HETATM    8  C15 UNL     1      -3.135   5.522  12.881  1.00  0.00     0.157 C 
HETATM    9  O3  UNL     1      -2.835   4.568  12.164  1.00  0.00    -0.293 OA
HETATM   10  C16 UNL     1      -4.541   5.575  13.482  1.00  0.00     0.094 C 
HETATM   11  C17 UNL     1      -4.661   6.612  14.602  1.00  0.00    -0.019 C 
HETATM   12  C18 UNL     1      -3.914   6.054  15.847  1.00  0.00     0.017 C 
HETATM   13  C19 UNL     1      -0.653   6.410  12.748  1.00  0.00    -0.008 C 
HETATM   14  C20 UNL     1      -0.088   5.333  13.706  1.00  0.00     0.021 C 
HETATM   15  C21 UNL     1      -0.535   5.888  11.279  1.00  0.00     0.022 C 
HETATM   16  C22 UNL     1       0.723   6.303  10.519  1.00  0.00     0.080 C 
HETATM   17  C23 UNL     1       1.882   6.567  11.447  1.00  0.00     0.135 C 
HETATM   18  O4  UNL     1       2.954   5.977  11.308  1.00  0.00    -0.297 OA
HETATM   19  C24 UNL     1       1.675   7.658  12.502  1.00  0.00     0.018 C 
HETATM   20  C25 UNL     1       2.563   7.378  13.730  1.00  0.00     0.023 C 
HETATM   21  C26 UNL     1       2.173   8.976  11.872  1.00  0.00     0.023 C 
HETATM   22  C27 UNL     1       0.144   7.769  12.821  1.00  0.00     0.016 C 
HETATM   23  C28 UNL     1      -0.153   8.517  14.128  1.00  0.00     0.043 C 
HETATM   24  C29 UNL     1      -1.636   8.864  14.233  1.00  0.00     0.149 C 
ENDROOT
BRANCH   1  25
HETATM   25  C6  UNL     1      -7.062   6.199  15.866  1.00  0.00    -0.011 C 
HETATM   26  C7  UNL     1      -7.376   4.787  15.359  1.00  0.00     0.010 C 
BRANCH  25  27
HETATM   27  C5  UNL     1      -8.339   6.984  16.252  1.00  0.00     0.040 C 
BRANCH  27  28
HETATM   28  C4  UNL     1      -9.307   7.265  15.087  1.00  0.00     0.142 C 
BRANCH  28  29
HETATM   29  C3  UNL     1      -9.524   8.734  14.840  1.00  0.00     0.018 C 
HETATM   30  C2  UNL     1     -10.083   9.660  15.648  1.00  0.00     0.010 C 
HETATM   31  C1  UNL     1     -10.571   9.438  17.047  1.00  0.00     0.055 C 
BRANCH  30  32
HETATM   32  C30 UNL     1     -10.149  11.041  15.112  1.00  0.00     0.171 C 
HETATM   33  O6  UNL     1     -11.096  11.551  14.541  1.00  0.00    -0.646 OA
BRANCH  32  34
HETATM   34  O7  UNL     1      -9.006  11.719  15.306  1.00  0.00    -0.773 OA
HETATM   35  H44 UNL     1      -9.181  12.591  14.898  1.00  0.00     0.167 HD
ENDBRANCH  32  34
ENDBRANCH  30  32
ENDBRANCH  28  29
BRANCH  28  36
HETATM   36  O1  UNL     1     -10.562   6.651  15.368  1.00  0.00    -0.392 OA
HETATM   37  H6  UNL     1     -10.425   5.690  15.354  1.00  0.00     0.210 HD
ENDBRANCH  28  36
ENDBRANCH  27  28
ENDBRANCH  25  27
ENDBRANCH   1  25
BRANCH   3  38
HETATM   38  O2  UNL     1      -4.378  10.289  14.813  1.00  0.00    -0.394 OA
HETATM   39  H17 UNL     1      -4.827  10.819  15.498  1.00  0.00     0.210 HD
ENDBRANCH   3  38
BRANCH  24  40
HETATM   40  O5  UNL     1      -1.890  10.015  13.439  1.00  0.00    -0.391 OA
HETATM   41  H43 UNL     1      -2.750  10.375  13.745  1.00  0.00     0.210 HD
ENDBRANCH  24  40
TORSDOF 9
ENDMDL
MODEL 6
REMARK minimizedAffinity -9.35077095
REMARK CNNscore 0.494011819
REMARK CNNaffinity 6.67156076
REMARK  9 active torsions:
REMARK  status: ('A' for Active; 'I' for Inactive)
REMARK    1  A    between atoms: C2_2  and  C30_35 
REMARK    2  A    between atoms: C3_3  and  C4_4 
REMARK    3  A    between atoms: C4_4  and  O1_5 
REMARK    4  A    between atoms: C4_4  and  C5_6 
REMARK    5  A    between atoms: C5_6  and  C6_7 
REMARK    6  A    between atoms: C6_7  and  C8_9 
REMARK    7  A    between atoms: C10_11  and  O2_12 
REMARK    8  A    between atoms: C29_33  and  O5_34 
REMARK    9  A    between atoms: C30_35  and  O7_37 
ROOT
HETATM    1  C8  UNL     1      -5.734   7.297  14.302  1.00  0.00     0.001 C 
HETATM    2  C9  UNL     1      -5.689   8.718  14.943  1.00  0.00     0.038 C 
HETATM    3  C10 UNL     1      -4.219   9.168  14.908  1.00  0.00     0.132 C 
HETATM    4  C11 UNL     1      -3.588   8.307  13.787  1.00  0.00     0.017 C 
HETATM    5  C12 UNL     1      -4.006   8.902  12.399  1.00  0.00     0.023 C 
HETATM    6  C13 UNL     1      -2.071   8.157  13.731  1.00  0.00    -0.029 C 
HETATM    7  C14 UNL     1      -1.510   7.095  13.095  1.00  0.00     0.002 C 
HETATM    8  C15 UNL     1      -2.428   5.994  12.572  1.00  0.00     0.157 C 
HETATM    9  O3  UNL     1      -1.995   5.107  11.837  1.00  0.00    -0.293 OA
HETATM   10  C16 UNL     1      -3.909   5.971  12.954  1.00  0.00     0.094 C 
HETATM   11  C17 UNL     1      -4.229   6.910  14.121  1.00  0.00    -0.019 C 
HETATM   12  C18 UNL     1      -3.661   6.266  15.417  1.00  0.00     0.017 C 
HETATM   13  C19 UNL     1       0.016   6.936  12.890  1.00  0.00    -0.008 C 
HETATM   14  C20 UNL     1       0.464   5.795  13.836  1.00  0.00     0.021 C 
HETATM   15  C21 UNL     1       0.371   6.539  11.420  1.00  0.00     0.022 C 
HETATM   16  C22 UNL     1       1.715   7.039  10.896  1.00  0.00     0.080 C 
HETATM   17  C23 UNL     1       2.713   7.247  12.008  1.00  0.00     0.135 C 
HETATM   18  O4  UNL     1       3.811   6.691  11.989  1.00  0.00    -0.297 OA
HETATM   19  C24 UNL     1       2.315   8.244  13.101  1.00  0.00     0.018 C 
HETATM   20  C25 UNL     1       3.017   7.880  14.424  1.00  0.00     0.023 C 
HETATM   21  C26 UNL     1       2.861   9.618  12.659  1.00  0.00     0.023 C 
HETATM   22  C27 UNL     1       0.751   8.299  13.190  1.00  0.00     0.016 C 
HETATM   23  C28 UNL     1       0.238   8.931  14.491  1.00  0.00     0.043 C 
HETATM   24  C29 UNL     1      -1.255   9.241  14.396  1.00  0.00     0.149 C 
ENDROOT
BRANCH   1  25
HETATM   25  C6  UNL     1      -6.779   6.350  14.967  1.00  0.00    -0.011 C 
HETATM   26  C7  UNL     1      -6.226   5.312  15.952  1.00  0.00     0.010 C 
BRANCH  25  27
HETATM   27  C5  UNL     1      -7.720   5.718  13.913  1.00  0.00     0.040 C 
BRANCH  27  28
HETATM   28  C4  UNL     1      -7.522   4.208  13.686  1.00  0.00     0.142 C 
BRANCH  28  29
HETATM   29  C3  UNL     1      -6.454   3.898  12.670  1.00  0.00     0.018 C 
HETATM   30  C2  UNL     1      -6.152   2.719  12.085  1.00  0.00     0.010 C 
HETATM   31  C1  UNL     1      -6.880   1.423  12.274  1.00  0.00     0.055 C 
BRANCH  30  32
HETATM   32  C30 UNL     1      -5.034   2.740  11.112  1.00  0.00     0.171 C 
HETATM   33  O6  UNL     1      -3.862   2.513  11.351  1.00  0.00    -0.646 OA
BRANCH  32  34
HETATM   34  O7  UNL     1      -5.441   3.064   9.873  1.00  0.00    -0.773 OA
HETATM   35  H44 UNL     1      -4.616   3.056   9.348  1.00  0.00     0.167 HD
ENDBRANCH  32  34
ENDBRANCH  30  32
ENDBRANCH  28  29
BRANCH  28  36
HETATM   36  O1  UNL     1      -8.753   3.637  13.253  1.00  0.00    -0.392 OA
HETATM   37  H6  UNL     1      -9.378   3.699  13.993  1.00  0.00     0.210 HD
ENDBRANCH  28  36
ENDBRANCH  27  28
ENDBRANCH  25  27
ENDBRANCH   1  25
BRANCH   3  38
HETATM   38  O2  UNL     1      -4.095  10.562  14.660  1.00  0.00    -0.394 OA
HETATM   39  H17 UNL     1      -4.658  11.025  15.308  1.00  0.00     0.210 HD
ENDBRANCH   3  38
BRANCH  24  40
HETATM   40  O5  UNL     1      -1.421  10.448  13.664  1.00  0.00    -0.391 OA
HETATM   41  H43 UNL     1      -2.328  10.766  13.863  1.00  0.00     0.210 HD
ENDBRANCH  24  40
TORSDOF 9
ENDMDL
MODEL 7
REMARK minimizedAffinity -7.64000082
REMARK CNNscore 0.490529686
REMARK CNNaffinity 6.13636208
REMARK  9 active torsions:
REMARK  status: ('A' for Active; 'I' for Inactive)
REMARK    1  A    between atoms: C2_2  and  C30_35 
REMARK    2  A    between atoms: C3_3  and  C4_4 
REMARK    3  A    between atoms: C4_4  and  O1_5 
REMARK    4  A    between atoms: C4_4  and  C5_6 
REMARK    5  A    between atoms: C5_6  and  C6_7 
REMARK    6  A    between atoms: C6_7  and  C8_9 
REMARK    7  A    between atoms: C10_11  and  O2_12 
REMARK    8  A    between atoms: C29_33  and  O5_34 
REMARK    9  A    between atoms: C30_35  and  O7_37 
ROOT
HETATM    1  C8  UNL     1      -0.373   8.154  14.162  1.00  0.00     0.001 C 
HETATM    2  C9  UNL     1      -0.832   7.172  15.282  1.00  0.00     0.038 C 
HETATM    3  C10 UNL     1      -1.502   8.029  16.370  1.00  0.00     0.132 C 
HETATM    4  C11 UNL     1      -1.914   9.323  15.627  1.00  0.00     0.017 C 
HETATM    5  C12 UNL     1      -3.206   9.033  14.788  1.00  0.00     0.023 C 
HETATM    6  C13 UNL     1      -2.225  10.577  16.439  1.00  0.00    -0.029 C 
HETATM    7  C14 UNL     1      -2.139  11.805  15.862  1.00  0.00     0.002 C 
HETATM    8  C15 UNL     1      -1.590  11.904  14.443  1.00  0.00     0.157 C 
HETATM    9  O3  UNL     1      -1.658  12.958  13.812  1.00  0.00    -0.293 OA
HETATM   10  C16 UNL     1      -0.940  10.691  13.774  1.00  0.00     0.094 C 
HETATM   11  C17 UNL     1      -0.619   9.574  14.772  1.00  0.00    -0.019 C 
HETATM   12  C18 UNL     1       0.601  10.032  15.621  1.00  0.00     0.017 C 
HETATM   13  C19 UNL     1      -2.554  13.112  16.581  1.00  0.00    -0.008 C 
HETATM   14  C20 UNL     1      -1.241  13.870  16.895  1.00  0.00     0.021 C 
HETATM   15  C21 UNL     1      -3.452  14.018  15.676  1.00  0.00     0.022 C 
HETATM   16  C22 UNL     1      -4.478  14.884  16.403  1.00  0.00     0.080 C 
HETATM   17  C23 UNL     1      -4.045  15.213  17.810  1.00  0.00     0.135 C 
HETATM   18  O4  UNL     1      -3.966  16.380  18.193  1.00  0.00    -0.297 OA
HETATM   19  C24 UNL     1      -3.796  14.023  18.742  1.00  0.00     0.018 C 
HETATM   20  C25 UNL     1      -2.769  14.409  19.824  1.00  0.00     0.023 C 
HETATM   21  C26 UNL     1      -5.132  13.743  19.461  1.00  0.00     0.023 C 
HETATM   22  C27 UNL     1      -3.389  12.780  17.876  1.00  0.00     0.016 C 
HETATM   23  C28 UNL     1      -2.727  11.661  18.693  1.00  0.00     0.043 C 
HETATM   24  C29 UNL     1      -2.635  10.373  17.878  1.00  0.00     0.149 C 
ENDROOT
BRANCH   1  25
HETATM   25  C6  UNL     1       0.971   7.742  13.488  1.00  0.00    -0.011 C 
HETATM   26  C7  UNL     1       2.097   7.301  14.432  1.00  0.00     0.010 C 
BRANCH  25  27
HETATM   27  C5  UNL     1       1.441   8.806  12.468  1.00  0.00     0.040 C 
BRANCH  27  28
HETATM   28  C4  UNL     1       2.805   8.521  11.810  1.00  0.00     0.142 C 
BRANCH  28  29
HETATM   29  C3  UNL     1       2.878   7.161  11.168  1.00  0.00     0.018 C 
HETATM   30  C2  UNL     1       2.922   6.840   9.857  1.00  0.00     0.010 C 
HETATM   31  C1  UNL     1       2.976   7.802   8.710  1.00  0.00     0.055 C 
BRANCH  30  32
HETATM   32  C30 UNL     1       2.995   5.394   9.541  1.00  0.00     0.171 C 
HETATM   33  O6  UNL     1       3.451   4.896   8.527  1.00  0.00    -0.646 OA
BRANCH  32  34
HETATM   34  O7  UNL     1       2.473   4.631  10.515  1.00  0.00    -0.773 OA
HETATM   35  H44 UNL     1       2.569   3.719  10.174  1.00  0.00     0.167 HD
ENDBRANCH  32  34
ENDBRANCH  30  32
ENDBRANCH  28  29
BRANCH  28  36
HETATM   36  O1  UNL     1       3.828   8.624  12.797  1.00  0.00    -0.392 OA
HETATM   37  H6  UNL     1       3.872   9.554  13.073  1.00  0.00     0.210 HD
ENDBRANCH  28  36
ENDBRANCH  27  28
ENDBRANCH  25  27
ENDBRANCH   1  25
BRANCH   3  38
HETATM   38  O2  UNL     1      -2.609   7.365  16.965  1.00  0.00    -0.394 OA
HETATM   39  H17 UNL     1      -2.300   6.487  17.256  1.00  0.00     0.210 HD
ENDBRANCH   3  38
BRANCH  24  40
HETATM   40  O5  UNL     1      -3.903   9.731  17.902  1.00  0.00    -0.391 OA
HETATM   41  H43 UNL     1      -3.744   8.801  17.632  1.00  0.00     0.210 HD
ENDBRANCH  24  40
TORSDOF 9
ENDMDL
MODEL 8
REMARK minimizedAffinity -10.0916901
REMARK CNNscore 0.415056378
REMARK CNNaffinity 6.44751883
REMARK  9 active torsions:
REMARK  status: ('A' for Active; 'I' for Inactive)
REMARK    1  A    between atoms: C2_2  and  C30_35 
REMARK    2  A    between atoms: C3_3  and  C4_4 
REMARK    3  A    between atoms: C4_4  and  O1_5 
REMARK    4  A    between atoms: C4_4  and  C5_6 
REMARK    5  A    between atoms: C5_6  and  C6_7 
REMARK    6  A    between atoms: C6_7  and  C8_9 
REMARK    7  A    between atoms: C10_11  and  O2_12 
REMARK    8  A    between atoms: C29_33  and  O5_34 
REMARK    9  A    between atoms: C30_35  and  O7_37 
ROOT
HETATM    1  C8  UNL     1      -6.086   7.089  15.156  1.00  0.00     0.001 C 
HETATM    2  C9  UNL     1      -5.899   8.571  15.604  1.00  0.00     0.038 C 
HETATM    3  C10 UNL     1      -4.455   8.958  15.243  1.00  0.00     0.132 C 
HETATM    4  C11 UNL     1      -4.061   7.952  14.134  1.00  0.00     0.017 C 
HETATM    5  C12 UNL     1      -4.724   8.402  12.787  1.00  0.00     0.023 C 
HETATM    6  C13 UNL     1      -2.584   7.740  13.815  1.00  0.00    -0.029 C 
HETATM    7  C14 UNL     1      -2.171   6.592  13.216  1.00  0.00     0.002 C 
HETATM    8  C15 UNL     1      -3.187   5.475  13.008  1.00  0.00     0.157 C 
HETATM    9  O3  UNL     1      -2.915   4.495  12.316  1.00  0.00    -0.293 OA
HETATM   10  C16 UNL     1      -4.570   5.551  13.659  1.00  0.00     0.094 C 
HETATM   11  C17 UNL     1      -4.649   6.628  14.745  1.00  0.00    -0.019 C 
HETATM   12  C18 UNL     1      -3.856   6.114  15.980  1.00  0.00     0.017 C 
HETATM   13  C19 UNL     1      -0.713   6.354  12.752  1.00  0.00    -0.008 C 
HETATM   14  C20 UNL     1      -0.112   5.312  13.726  1.00  0.00     0.021 C 
HETATM   15  C21 UNL     1      -0.649   5.780  11.299  1.00  0.00     0.022 C 
HETATM   16  C22 UNL     1       0.580   6.166  10.479  1.00  0.00     0.080 C 
HETATM   17  C23 UNL     1       1.773   6.461  11.353  1.00  0.00     0.135 C 
HETATM   18  O4  UNL     1       2.839   5.865  11.196  1.00  0.00    -0.297 OA
HETATM   19  C24 UNL     1       1.605   7.590  12.375  1.00  0.00     0.018 C 
HETATM   20  C25 UNL     1       2.538   7.352  13.578  1.00  0.00     0.023 C 
HETATM   21  C26 UNL     1       2.079   8.884  11.680  1.00  0.00     0.023 C 
HETATM   22  C27 UNL     1       0.086   7.713  12.746  1.00  0.00     0.016 C 
HETATM   23  C28 UNL     1      -0.162   8.508  14.036  1.00  0.00     0.043 C 
HETATM   24  C29 UNL     1      -1.640   8.861  14.184  1.00  0.00     0.149 C 
ENDROOT
BRANCH   1  25
HETATM   25  C6  UNL     1      -7.001   6.264  16.111  1.00  0.00    -0.011 C 
HETATM   26  C7  UNL     1      -7.336   4.835  15.666  1.00  0.00     0.010 C 
BRANCH  25  27
HETATM   27  C5  UNL     1      -8.262   7.064  16.517  1.00  0.00     0.040 C 
BRANCH  27  28
HETATM   28  C4  UNL     1      -9.310   7.238  15.402  1.00  0.00     0.142 C 
BRANCH  28  29
HETATM   29  C3  UNL     1      -8.907   6.588  14.106  1.00  0.00     0.018 C 
HETATM   30  C2  UNL     1      -9.600   6.490  12.950  1.00  0.00     0.010 C 
HETATM   31  C1  UNL     1     -10.947   7.085  12.672  1.00  0.00     0.055 C 
BRANCH  30  32
HETATM   32  C30 UNL     1      -8.921   5.784  11.838  1.00  0.00     0.171 C 
HETATM   33  O6  UNL     1      -8.044   4.945  11.942  1.00  0.00    -0.646 OA
BRANCH  32  34
HETATM   34  O7  UNL     1      -9.367   6.179  10.635  1.00  0.00    -0.773 OA
HETATM   35  H44 UNL     1      -8.832   5.654  10.005  1.00  0.00     0.167 HD
ENDBRANCH  32  34
ENDBRANCH  30  32
ENDBRANCH  28  29
BRANCH  28  36
HETATM   36  O1  UNL     1      -9.524   8.629  15.178  1.00  0.00    -0.392 OA
HETATM   37  H6  UNL     1      -9.944   8.990  15.975  1.00  0.00     0.210 HD
ENDBRANCH  28  36
ENDBRANCH  27  28
ENDBRANCH  25  27
ENDBRANCH   1  25
BRANCH   3  38
HETATM   38  O2  UNL     1      -4.358  10.310  14.813  1.00  0.00    -0.394 OA
HETATM   39  H17 UNL     1      -4.782  10.864  15.494  1.00  0.00     0.210 HD
ENDBRANCH   3  38
BRANCH  24  40
HETATM   40  O5  UNL     1      -1.923   9.983  13.358  1.00  0.00    -0.391 OA
HETATM   41  H43 UNL     1      -2.771  10.355  13.683  1.00  0.00     0.210 HD
ENDBRANCH  24  40
TORSDOF 9
ENDMDL
MODEL 9
REMARK minimizedAffinity -7.2650671
REMARK CNNscore 0.411876589
REMARK CNNaffinity 6.0852623
REMARK  9 active torsions:
REMARK  status: ('A' for Active; 'I' for Inactive)
REMARK    1  A    between atoms: C2_2  and  C30_35 
REMARK    2  A    between atoms: C3_3  and  C4_4 
REMARK    3  A    between atoms: C4_4  and  O1_5 
REMARK    4  A    between atoms: C4_4  and  C5_6 
REMARK    5  A    between atoms: C5_6  and  C6_7 
REMARK    6  A    between atoms: C6_7  and  C8_9 
REMARK    7  A    between atoms: C10_11  and  O2_12 
REMARK    8  A    between atoms: C29_33  and  O5_34 
REMARK    9  A    between atoms: C30_35  and  O7_37 
ROOT
HETATM    1  C8  UNL     1       2.501  14.220   1.972  1.00  0.00     0.001 C 
HETATM    2  C9  UNL     1       2.779  14.132   3.504  1.00  0.00     0.038 C 
HETATM    3  C10 UNL     1       1.568  14.771   4.206  1.00  0.00     0.132 C 
HETATM    4  C11 UNL     1       0.433  14.680   3.156  1.00  0.00     0.017 C 
HETATM    5  C12 UNL     1      -0.112  13.211   3.130  1.00  0.00     0.023 C 
HETATM    6  C13 UNL     1      -0.794  15.572   3.312  1.00  0.00    -0.029 C 
HETATM    7  C14 UNL     1      -1.568  15.867   2.234  1.00  0.00     0.002 C 
HETATM    8  C15 UNL     1      -1.099  15.409   0.857  1.00  0.00     0.157 C 
HETATM    9  O3  UNL     1      -1.841  15.490  -0.121  1.00  0.00    -0.293 OA
HETATM   10  C16 UNL     1       0.308  14.840   0.664  1.00  0.00     0.094 C 
HETATM   11  C17 UNL     1       1.219  15.111   1.865  1.00  0.00    -0.019 C 
HETATM   12  C18 UNL     1       1.592  16.621   1.845  1.00  0.00     0.017 C 
HETATM   13  C19 UNL     1      -2.893  16.662   2.332  1.00  0.00    -0.008 C 
HETATM   14  C20 UNL     1      -2.612  18.052   1.711  1.00  0.00     0.021 C 
HETATM   15  C21 UNL     1      -4.047  15.977   1.528  1.00  0.00     0.022 C 
HETATM   16  C22 UNL     1      -5.457  16.175   2.079  1.00  0.00     0.080 C 
HETATM   17  C23 UNL     1      -5.582  17.458   2.862  1.00  0.00     0.135 C 
HETATM   18  O4  UNL     1      -6.434  18.298   2.573  1.00  0.00    -0.297 OA
HETATM   19  C24 UNL     1      -4.657  17.608   4.074  1.00  0.00     0.018 C 
HETATM   20  C25 UNL     1      -4.388  19.101   4.347  1.00  0.00     0.023 C 
HETATM   21  C26 UNL     1      -5.432  17.055   5.288  1.00  0.00     0.023 C 
HETATM   22  C27 UNL     1      -3.366  16.751   3.833  1.00  0.00     0.016 C 
HETATM   23  C28 UNL     1      -2.203  17.130   4.760  1.00  0.00     0.043 C 
HETATM   24  C29 UNL     1      -1.095  16.080   4.703  1.00  0.00     0.149 C 
ENDROOT
BRANCH   1  25
HETATM   25  C6  UNL     1       3.784  14.474   1.124  1.00  0.00    -0.011 C 
HETATM   26  C7  UNL     1       5.104  14.574   1.899  1.00  0.00     0.010 C 
BRANCH  25  27
HETATM   27  C5  UNL     1       3.587  15.655   0.142  1.00  0.00     0.040 C 
BRANCH  27  28
HETATM   28  C4  UNL     1       4.399  15.560  -1.163  1.00  0.00     0.142 C 
BRANCH  28  29
HETATM   29  C3  UNL     1       4.926  14.175  -1.431  1.00  0.00     0.018 C 
HETATM   30  C2  UNL     1       4.437  13.224  -2.256  1.00  0.00     0.010 C 
HETATM   31  C1  UNL     1       3.257  13.362  -3.169  1.00  0.00     0.055 C 
BRANCH  30  32
HETATM   32  C30 UNL     1       5.193  11.949  -2.304  1.00  0.00     0.171 C 
HETATM   33  O6  UNL     1       5.030  11.040  -3.098  1.00  0.00    -0.646 OA
BRANCH  32  34
HETATM   34  O7  UNL     1       6.118  11.868  -1.334  1.00  0.00    -0.773 OA
HETATM   35  H44 UNL     1       6.522  10.987  -1.471  1.00  0.00     0.167 HD
ENDBRANCH  32  34
ENDBRANCH  30  32
ENDBRANCH  28  29
BRANCH  28  36
HETATM   36  O1  UNL     1       5.494  16.468  -1.097  1.00  0.00    -0.392 OA
HETATM   37  H6  UNL     1       5.127  17.367  -1.095  1.00  0.00     0.210 HD
ENDBRANCH  28  36
ENDBRANCH  27  28
ENDBRANCH  25  27
ENDBRANCH   1  25
BRANCH   3  38
HETATM   38  O2  UNL     1       1.244  14.106   5.419  1.00  0.00    -0.394 OA
HETATM   39  H17 UNL     1       2.059  14.058   5.952  1.00  0.00     0.210 HD
ENDBRANCH   3  38
BRANCH  24  40
HETATM   40  O5  UNL     1      -1.473  14.978   5.517  1.00  0.00    -0.391 OA
HETATM   41  H43 UNL     1      -0.651  14.471   5.690  1.00  0.00     0.210 HD
ENDBRANCH  24  40
TORSDOF 9
ENDMDL
