MODEL 1
REMARK minimizedAffinity -8.74437714
REMARK CNNscore 0.724632621
REMARK CNNaffinity 7.18668413
REMARK  8 active torsions:
REMARK  status: ('A' for Active; 'I' for Inactive)
REMARK    1  A    between atoms: C4_4  and  C5_5 
REMARK    2  A    between atoms: C5_5  and  C6_6 
REMARK    3  A    between atoms: C6_6  and  C7_7 
REMARK    4  A    between atoms: C7_7  and  C9_9 
REMARK    5  A    between atoms: C22_22  and  O1_23 
REMARK    6  A    between atoms: C24_25  and  O2_26 
REMARK    7  A    between atoms: C25_27  and  C27_29 
REMARK    8  A    between atoms: C27_29  and  O4_31 
ROOT
HETATM    1  C9  UNL     1      -5.960   7.150  14.951  1.00  0.00    -0.002 C 
HETATM    2  C10 UNL     1      -5.674   8.539  15.559  1.00  0.00     0.007 C 
HETATM    3  C11 UNL     1      -4.223   8.909  15.157  1.00  0.00     0.015 C 
HETATM    4  C12 UNL     1      -3.858   7.937  14.016  1.00  0.00    -0.005 C 
HETATM    5  C13 UNL     1      -4.468   8.527  12.705  1.00  0.00     0.021 C 
HETATM    6  C14 UNL     1      -2.405   7.640  13.650  1.00  0.00    -0.000 C 
HETATM    7  C15 UNL     1      -2.033   6.427  13.159  1.00  0.00    -0.058 C 
HETATM    8  C16 UNL     1      -3.065   5.290  13.015  1.00  0.00     0.036 C 
HETATM    9  C17 UNL     1      -4.513   5.572  13.464  1.00  0.00     0.015 C 
HETATM   10  C18 UNL     1      -4.545   6.624  14.574  1.00  0.00    -0.028 C 
HETATM   11  C19 UNL     1      -3.804   6.045  15.819  1.00  0.00     0.016 C 
HETATM   12  C20 UNL     1      -0.554   6.070  12.801  1.00  0.00     0.011 C 
HETATM   13  C21 UNL     1       0.002   5.381  14.069  1.00  0.00     0.023 C 
HETATM   14  C22 UNL     1      -0.478   5.125  11.546  1.00  0.00     0.133 C 
HETATM   15  C23 UNL     1       0.829   5.144  10.743  1.00  0.00     0.065 C 
HETATM   16  C24 UNL     1       2.007   5.767  11.480  1.00  0.00     0.139 C 
HETATM   17  C25 UNL     1       1.719   7.209  11.983  1.00  0.00     0.072 C 
HETATM   18  C26 UNL     1       2.010   8.232  10.850  1.00  0.00     0.030 C 
HETATM   19  C28 UNL     1       0.213   7.382  12.433  1.00  0.00     0.029 C 
HETATM   20  C29 UNL     1       0.046   8.455  13.508  1.00  0.00     0.090 C 
HETATM   21  C30 UNL     1      -1.397   8.725  13.855  1.00  0.00     0.157 C 
HETATM   22  O5  UNL     1      -1.708   9.810  14.347  1.00  0.00    -0.293 OA
ENDROOT
BRANCH   1  23
HETATM   23  C7  UNL     1      -7.020   6.261  15.658  1.00  0.00    -0.014 C 
HETATM   24  C8  UNL     1      -7.451   5.125  14.712  1.00  0.00     0.010 C 
BRANCH  23  25
HETATM   25  C6  UNL     1      -8.250   6.873  16.370  1.00  0.00     0.008 C 
BRANCH  25  26
HETATM   26  C5  UNL     1      -9.101   7.958  15.696  1.00  0.00     0.028 C 
BRANCH  26  27
HETATM   27  C4  UNL     1     -10.066   7.450  14.662  1.00  0.00    -0.025 C 
HETATM   28  C2  UNL     1     -10.949   8.163  13.931  1.00  0.00    -0.091 C 
HETATM   29  C1  UNL     1     -11.838   7.482  12.922  1.00  0.00     0.042 C 
HETATM   30  C3  UNL     1     -11.159   9.651  14.022  1.00  0.00     0.042 C 
ENDBRANCH  26  27
ENDBRANCH  25  26
ENDBRANCH  23  25
ENDBRANCH   1  23
BRANCH  14  31
HETATM   31  O1  UNL     1      -0.776   3.764  11.891  1.00  0.00    -0.394 OA
HETATM   32  H35 UNL     1      -0.001   3.370  12.319  1.00  0.00     0.210 HD
ENDBRANCH  14  31
BRANCH  17  33
HETATM   33  C27 UNL     1       2.679   7.455  13.153  1.00  0.00     0.151 C 
HETATM   34  O3  UNL     1       2.352   7.750  14.290  1.00  0.00    -0.649 OA
BRANCH  33  35
HETATM   35  O4  UNL     1       3.984   7.401  12.827  1.00  0.00    -0.776 OA
HETATM   36  H43 UNL     1       4.471   7.610  13.655  1.00  0.00     0.167 HD
ENDBRANCH  33  35
ENDBRANCH  17  33
BRANCH  16  37
HETATM   37  O2  UNL     1       3.134   5.735  10.595  1.00  0.00    -0.394 OA
HETATM   38  H39 UNL     1       3.933   5.607  11.133  1.00  0.00     0.210 HD
ENDBRANCH  16  37
TORSDOF 8
ENDMDL
MODEL 2
REMARK minimizedAffinity -6.90831423
REMARK CNNscore 0.632309377
REMARK CNNaffinity 6.85192871
REMARK  8 active torsions:
REMARK  status: ('A' for Active; 'I' for Inactive)
REMARK    1  A    between atoms: C4_4  and  C5_5 
REMARK    2  A    between atoms: C5_5  and  C6_6 
REMARK    3  A    between atoms: C6_6  and  C7_7 
REMARK    4  A    between atoms: C7_7  and  C9_9 
REMARK    5  A    between atoms: C22_22  and  O1_23 
REMARK    6  A    between atoms: C24_25  and  O2_26 
REMARK    7  A    between atoms: C25_27  and  C27_29 
REMARK    8  A    between atoms: C27_29  and  O4_31 
ROOT
HETATM    1  C9  UNL     1     -11.420  16.130   2.522  1.00  0.00    -0.002 C 
HETATM    2  C10 UNL     1     -10.268  16.539   1.581  1.00  0.00     0.007 C 
HETATM    3  C11 UNL     1     -10.467  15.746   0.264  1.00  0.00     0.015 C 
HETATM    4  C12 UNL     1     -11.918  15.222   0.322  1.00  0.00    -0.005 C 
HETATM    5  C13 UNL     1     -12.841  16.394  -0.138  1.00  0.00     0.021 C 
HETATM    6  C14 UNL     1     -12.376  14.034  -0.522  1.00  0.00    -0.000 C 
HETATM    7  C15 UNL     1     -13.345  13.186  -0.083  1.00  0.00    -0.058 C 
HETATM    8  C16 UNL     1     -13.971  13.368   1.315  1.00  0.00     0.036 C 
HETATM    9  C17 UNL     1     -13.444  14.521   2.194  1.00  0.00     0.015 C 
HETATM   10  C18 UNL     1     -11.987  14.842   1.858  1.00  0.00    -0.028 C 
HETATM   11  C19 UNL     1     -11.117  13.594   2.204  1.00  0.00     0.016 C 
HETATM   12  C20 UNL     1     -13.821  11.941  -0.899  1.00  0.00     0.011 C 
HETATM   13  C21 UNL     1     -12.979  10.766  -0.351  1.00  0.00     0.023 C 
HETATM   14  C22 UNL     1     -15.362  11.687  -0.714  1.00  0.00     0.133 C 
HETATM   15  C23 UNL     1     -16.076  10.914  -1.830  1.00  0.00     0.065 C 
HETATM   16  C24 UNL     1     -15.140  10.161  -2.766  1.00  0.00     0.139 C 
HETATM   17  C25 UNL     1     -14.060  11.072  -3.413  1.00  0.00     0.072 C 
HETATM   18  C26 UNL     1     -14.635  11.750  -4.687  1.00  0.00     0.030 C 
HETATM   19  C28 UNL     1     -13.581  12.207  -2.421  1.00  0.00     0.029 C 
HETATM   20  C29 UNL     1     -12.146  12.654  -2.698  1.00  0.00     0.090 C 
HETATM   21  C30 UNL     1     -11.718  13.824  -1.848  1.00  0.00     0.157 C 
HETATM   22  O5  UNL     1     -10.802  14.551  -2.237  1.00  0.00    -0.293 OA
ENDROOT
BRANCH   1  23
HETATM   23  C7  UNL     1     -11.171  16.240   4.052  1.00  0.00    -0.014 C 
HETATM   24  C8  UNL     1     -11.732  17.578   4.568  1.00  0.00     0.010 C 
BRANCH  23  25
HETATM   25  C6  UNL     1      -9.783  15.954   4.673  1.00  0.00     0.008 C 
BRANCH  25  26
HETATM   26  C5  UNL     1      -9.400  16.508   6.052  1.00  0.00     0.028 C 
BRANCH  26  27
HETATM   27  C4  UNL     1      -8.057  17.179   6.110  1.00  0.00    -0.025 C 
HETATM   28  C2  UNL     1      -7.528  17.888   7.130  1.00  0.00    -0.091 C 
HETATM   29  C1  UNL     1      -6.148  18.484   7.017  1.00  0.00     0.042 C 
HETATM   30  C3  UNL     1      -8.209  18.170   8.443  1.00  0.00     0.042 C 
ENDBRANCH  26  27
ENDBRANCH  25  26
ENDBRANCH  23  25
ENDBRANCH   1  23
BRANCH  14  31
HETATM   31  O1  UNL     1     -15.644  11.040   0.536  1.00  0.00    -0.394 OA
HETATM   32  H35 UNL     1     -15.430  10.098   0.458  1.00  0.00     0.210 HD
ENDBRANCH  14  31
BRANCH  17  33
HETATM   33  C27 UNL     1     -12.899  10.149  -3.803  1.00  0.00     0.151 C 
HETATM   34  O3  UNL     1     -12.133  10.327  -4.736  1.00  0.00    -0.649 OA
BRANCH  33  35
HETATM   35  O4  UNL     1     -12.807   9.024  -3.070  1.00  0.00    -0.776 OA
HETATM   36  H43 UNL     1     -12.052   8.523  -3.450  1.00  0.00     0.167 HD
ENDBRANCH  33  35
ENDBRANCH  17  33
BRANCH  16  37
HETATM   37  O2  UNL     1     -15.950   9.520  -3.760  1.00  0.00    -0.394 OA
HETATM   38  H39 UNL     1     -15.521   8.682  -4.000  1.00  0.00     0.210 HD
ENDBRANCH  16  37
TORSDOF 8
ENDMDL
MODEL 3
REMARK minimizedAffinity -7.19082785
REMARK CNNscore 0.611865699
REMARK CNNaffinity 6.3912673
REMARK  8 active torsions:
REMARK  status: ('A' for Active; 'I' for Inactive)
REMARK    1  A    between atoms: C4_4  and  C5_5 
REMARK    2  A    between atoms: C5_5  and  C6_6 
REMARK    3  A    between atoms: C6_6  and  C7_7 
REMARK    4  A    between atoms: C7_7  and  C9_9 
REMARK    5  A    between atoms: C22_22  and  O1_23 
REMARK    6  A    between atoms: C24_25  and  O2_26 
REMARK    7  A    between atoms: C25_27  and  C27_29 
REMARK    8  A    between atoms: C27_29  and  O4_31 
ROOT
HETATM    1  C9  UNL     1      -3.718  13.206  18.501  1.00  0.00    -0.002 C 
HETATM    2  C10 UNL     1      -2.408  13.494  19.264  1.00  0.00     0.007 C 
HETATM    3  C11 UNL     1      -1.293  12.687  18.552  1.00  0.00     0.015 C 
HETATM    4  C12 UNL     1      -1.891  12.287  17.186  1.00  0.00    -0.005 C 
HETATM    5  C13 UNL     1      -1.727  13.520  16.242  1.00  0.00     0.021 C 
HETATM    6  C14 UNL     1      -1.330  11.121  16.376  1.00  0.00    -0.000 C 
HETATM    7  C15 UNL     1      -2.129  10.367  15.572  1.00  0.00    -0.058 C 
HETATM    8  C16 UNL     1      -3.646  10.636  15.504  1.00  0.00     0.036 C 
HETATM    9  C17 UNL     1      -4.217  11.763  16.388  1.00  0.00     0.015 C 
HETATM   10  C18 UNL     1      -3.369  11.953  17.646  1.00  0.00    -0.028 C 
HETATM   11  C19 UNL     1      -3.449  10.647  18.495  1.00  0.00     0.016 C 
HETATM   12  C20 UNL     1      -1.603   9.146  14.751  1.00  0.00     0.011 C 
HETATM   13  C21 UNL     1      -1.878   7.919  15.651  1.00  0.00     0.023 C 
HETATM   14  C22 UNL     1      -2.338   9.026  13.365  1.00  0.00     0.133 C 
HETATM   15  C23 UNL     1      -1.591   8.288  12.247  1.00  0.00     0.065 C 
HETATM   16  C24 UNL     1      -0.425   7.435  12.731  1.00  0.00     0.139 C 
HETATM   17  C25 UNL     1       0.611   8.237  13.567  1.00  0.00     0.072 C 
HETATM   18  C26 UNL     1       1.633   8.927  12.622  1.00  0.00     0.030 C 
HETATM   19  C28 UNL     1      -0.083   9.353  14.446  1.00  0.00     0.029 C 
HETATM   20  C29 UNL     1       0.709   9.671  15.714  1.00  0.00     0.090 C 
HETATM   21  C30 UNL     1       0.131  10.823  16.498  1.00  0.00     0.157 C 
HETATM   22  O5  UNL     1       0.858  11.462  17.260  1.00  0.00    -0.293 OA
ENDROOT
BRANCH   1  23
HETATM   23  C7  UNL     1      -5.051  13.334  19.288  1.00  0.00    -0.014 C 
HETATM   24  C8  UNL     1      -6.071  14.124  18.448  1.00  0.00     0.010 C 
BRANCH  23  25
HETATM   25  C6  UNL     1      -5.083  13.799  20.764  1.00  0.00     0.008 C 
BRANCH  25  26
HETATM   26  C5  UNL     1      -5.964  13.092  21.802  1.00  0.00     0.028 C 
BRANCH  26  27
HETATM   27  C4  UNL     1      -6.532  13.991  22.863  1.00  0.00    -0.025 C 
HETATM   28  C2  UNL     1      -7.687  13.840  23.545  1.00  0.00    -0.091 C 
HETATM   29  C1  UNL     1      -8.097  14.842  24.593  1.00  0.00     0.042 C 
HETATM   30  C3  UNL     1      -8.672  12.715  23.360  1.00  0.00     0.042 C 
ENDBRANCH  26  27
ENDBRANCH  25  26
ENDBRANCH  23  25
ENDBRANCH   1  23
BRANCH  14  31
HETATM   31  O1  UNL     1      -3.638   8.436  13.507  1.00  0.00    -0.394 OA
HETATM   32  H35 UNL     1      -3.539   7.478  13.613  1.00  0.00     0.210 HD
ENDBRANCH  14  31
BRANCH  17  33
HETATM   33  C27 UNL     1       1.339   7.211  14.445  1.00  0.00     0.151 C 
HETATM   34  O3  UNL     1       2.447   7.354  14.935  1.00  0.00    -0.649 OA
BRANCH  33  35
HETATM   35  O4  UNL     1       0.690   6.041  14.594  1.00  0.00    -0.776 OA
HETATM   36  H43 UNL     1       1.283   5.480  15.142  1.00  0.00     0.167 HD
ENDBRANCH  33  35
ENDBRANCH  17  33
BRANCH  16  37
HETATM   37  O2  UNL     1       0.180   6.839  11.577  1.00  0.00    -0.394 OA
HETATM   38  H39 UNL     1       0.512   5.962  11.833  1.00  0.00     0.210 HD
ENDBRANCH  16  37
TORSDOF 8
ENDMDL
MODEL 4
REMARK minimizedAffinity -9.31992531
REMARK CNNscore 0.586613536
REMARK CNNaffinity 7.12991285
REMARK  8 active torsions:
REMARK  status: ('A' for Active; 'I' for Inactive)
REMARK    1  A    between atoms: C4_4  and  C5_5 
REMARK    2  A    between atoms: C5_5  and  C6_6 
REMARK    3  A    between atoms: C6_6  and  C7_7 
REMARK    4  A    between atoms: C7_7  and  C9_9 
REMARK    5  A    between atoms: C22_22  and  O1_23 
REMARK    6  A    between atoms: C24_25  and  O2_26 
REMARK    7  A    between atoms: C25_27  and  C27_29 
REMARK    8  A    between atoms: C27_29  and  O4_31 
ROOT
HETATM    1  C9  UNL     1      -6.040   7.151  14.437  1.00  0.00    -0.002 C 
HETATM    2  C10 UNL     1      -5.833   8.510  15.138  1.00  0.00     0.007 C 
HETATM    3  C11 UNL     1      -4.351   8.904  14.913  1.00  0.00     0.015 C 
HETATM    4  C12 UNL     1      -3.856   7.989  13.772  1.00  0.00    -0.005 C 
HETATM    5  C13 UNL     1      -4.328   8.640  12.433  1.00  0.00     0.021 C 
HETATM    6  C14 UNL     1      -2.371   7.715  13.550  1.00  0.00    -0.000 C 
HETATM    7  C15 UNL     1      -1.937   6.528  13.045  1.00  0.00    -0.058 C 
HETATM    8  C16 UNL     1      -2.938   5.396  12.736  1.00  0.00     0.036 C 
HETATM    9  C17 UNL     1      -4.429   5.652  13.040  1.00  0.00     0.015 C 
HETATM   10  C18 UNL     1      -4.588   6.648  14.190  1.00  0.00    -0.028 C 
HETATM   11  C19 UNL     1      -3.981   6.013  15.478  1.00  0.00     0.016 C 
HETATM   12  C20 UNL     1      -0.425   6.194  12.832  1.00  0.00     0.011 C 
HETATM   13  C21 UNL     1      -0.003   5.447  14.118  1.00  0.00     0.023 C 
HETATM   14  C22 UNL     1      -0.207   5.312  11.549  1.00  0.00     0.133 C 
HETATM   15  C23 UNL     1       1.178   5.374  10.892  1.00  0.00     0.065 C 
HETATM   16  C24 UNL     1       2.265   5.965  11.782  1.00  0.00     0.139 C 
HETATM   17  C25 UNL     1       1.912   7.379  12.319  1.00  0.00     0.072 C 
HETATM   18  C26 UNL     1       2.314   8.457  11.274  1.00  0.00     0.030 C 
HETATM   19  C28 UNL     1       0.365   7.526  12.611  1.00  0.00     0.029 C 
HETATM   20  C29 UNL     1       0.075   8.545  13.713  1.00  0.00     0.090 C 
HETATM   21  C30 UNL     1      -1.399   8.792  13.915  1.00  0.00     0.157 C 
HETATM   22  O5  UNL     1      -1.771   9.852  14.422  1.00  0.00    -0.293 OA
ENDROOT
BRANCH   1  23
HETATM   23  C7  UNL     1      -7.163   6.225  14.982  1.00  0.00    -0.014 C 
HETATM   24  C8  UNL     1      -7.002   6.065  16.505  1.00  0.00     0.010 C 
BRANCH  23  25
HETATM   25  C6  UNL     1      -7.486   4.864  14.321  1.00  0.00     0.008 C 
BRANCH  25  26
HETATM   26  C5  UNL     1      -7.119   4.583  12.858  1.00  0.00     0.028 C 
BRANCH  26  27
HETATM   27  C4  UNL     1      -6.838   3.141  12.544  1.00  0.00    -0.025 C 
HETATM   28  C2  UNL     1      -6.086   2.642  11.541  1.00  0.00    -0.091 C 
HETATM   29  C1  UNL     1      -5.902   1.155  11.384  1.00  0.00     0.042 C 
HETATM   30  C3  UNL     1      -5.372   3.458  10.495  1.00  0.00     0.042 C 
ENDBRANCH  26  27
ENDBRANCH  25  26
ENDBRANCH  23  25
ENDBRANCH   1  23
BRANCH  14  31
HETATM   31  O1  UNL     1      -0.529   3.935  11.794  1.00  0.00    -0.394 OA
HETATM   32  H35 UNL     1       0.199   3.523  12.284  1.00  0.00     0.210 HD
ENDBRANCH  14  31
BRANCH  17  33
HETATM   33  C27 UNL     1       2.739   7.571  13.596  1.00  0.00     0.151 C 
HETATM   34  O3  UNL     1       2.291   7.825  14.701  1.00  0.00    -0.649 OA
BRANCH  33  35
HETATM   35  O4  UNL     1       4.072   7.520  13.413  1.00  0.00    -0.776 OA
HETATM   36  H43 UNL     1       4.466   7.692  14.297  1.00  0.00     0.167 HD
ENDBRANCH  33  35
ENDBRANCH  17  33
BRANCH  16  37
HETATM   37  O2  UNL     1       3.481   5.980  11.023  1.00  0.00    -0.394 OA
HETATM   38  H39 UNL     1       4.218   5.828  11.637  1.00  0.00     0.210 HD
ENDBRANCH  16  37
TORSDOF 8
ENDMDL
MODEL 5
REMARK minimizedAffinity -7.34537935
REMARK CNNscore 0.546090007
REMARK CNNaffinity 6.01767588
REMARK  8 active torsions:
REMARK  status: ('A' for Active; 'I' for Inactive)
REMARK    1  A    between atoms: C4_4  and  C5_5 
REMARK    2  A    between atoms: C5_5  and  C6_6 
REMARK    3  A    between atoms: C6_6  and  C7_7 
REMARK    4  A    between atoms: C7_7  and  C9_9 
REMARK    5  A    between atoms: C22_22  and  O1_23 
REMARK    6  A    between atoms: C24_25  and  O2_26 
REMARK    7  A    between atoms: C25_27  and  C27_29 
REMARK    8  A    between atoms: C27_29  and  O4_31 
ROOT
HETATM    1  C9  UNL     1     -17.684   3.167  14.049  1.00  0.00    -0.002 C 
HETATM    2  C10 UNL     1     -17.745   3.125  15.591  1.00  0.00     0.007 C 
HETATM    3  C11 UNL     1     -17.079   1.794  16.025  1.00  0.00     0.015 C 
HETATM    4  C12 UNL     1     -16.303   1.304  14.784  1.00  0.00    -0.005 C 
HETATM    5  C13 UNL     1     -14.949   2.081  14.761  1.00  0.00     0.021 C 
HETATM    6  C14 UNL     1     -15.897  -0.158  14.618  1.00  0.00    -0.000 C 
HETATM    7  C15 UNL     1     -15.809  -0.733  13.387  1.00  0.00    -0.058 C 
HETATM    8  C16 UNL     1     -16.180   0.066  12.121  1.00  0.00     0.036 C 
HETATM    9  C17 UNL     1     -16.669   1.518  12.305  1.00  0.00     0.015 C 
HETATM   10  C18 UNL     1     -17.350   1.697  13.662  1.00  0.00    -0.028 C 
HETATM   11  C19 UNL     1     -18.625   0.798  13.694  1.00  0.00     0.016 C 
HETATM   12  C20 UNL     1     -15.429  -2.234  13.173  1.00  0.00     0.011 C 
HETATM   13  C21 UNL     1     -16.783  -2.974  13.082  1.00  0.00     0.023 C 
HETATM   14  C22 UNL     1     -14.571  -2.428  11.870  1.00  0.00     0.133 C 
HETATM   15  C23 UNL     1     -13.665  -3.666  11.815  1.00  0.00     0.065 C 
HETATM   16  C24 UNL     1     -14.007  -4.736  12.843  1.00  0.00     0.139 C 
HETATM   17  C25 UNL     1     -14.018  -4.200  14.302  1.00  0.00     0.072 C 
HETATM   18  C26 UNL     1     -12.579  -4.232  14.887  1.00  0.00     0.030 C 
HETATM   19  C28 UNL     1     -14.550  -2.713  14.375  1.00  0.00     0.029 C 
HETATM   20  C29 UNL     1     -15.208  -2.396  15.718  1.00  0.00     0.090 C 
HETATM   21  C30 UNL     1     -15.604  -0.947  15.854  1.00  0.00     0.157 C 
HETATM   22  O5  UNL     1     -15.729  -0.456  16.977  1.00  0.00    -0.293 OA
ENDROOT
BRANCH   1  23
HETATM   23  C7  UNL     1     -18.767   3.999  13.310  1.00  0.00    -0.014 C 
HETATM   24  C8  UNL     1     -19.387   3.151  12.184  1.00  0.00     0.010 C 
BRANCH  23  25
HETATM   25  C6  UNL     1     -18.490   5.440  12.818  1.00  0.00     0.008 C 
BRANCH  25  26
HETATM   26  C5  UNL     1     -17.057   5.942  12.594  1.00  0.00     0.028 C 
BRANCH  26  27
HETATM   27  C4  UNL     1     -16.243   6.104  13.846  1.00  0.00    -0.025 C 
HETATM   28  C2  UNL     1     -14.986   6.580  13.961  1.00  0.00    -0.091 C 
HETATM   29  C1  UNL     1     -14.325   6.685  15.312  1.00  0.00     0.042 C 
HETATM   30  C3  UNL     1     -14.118   7.041  12.821  1.00  0.00     0.042 C 
ENDBRANCH  26  27
ENDBRANCH  25  26
ENDBRANCH  23  25
ENDBRANCH   1  23
BRANCH  14  31
HETATM   31  O1  UNL     1     -15.390  -2.416  10.692  1.00  0.00    -0.394 OA
HETATM   32  H35 UNL     1     -15.835  -3.273  10.608  1.00  0.00     0.210 HD
ENDBRANCH  14  31
BRANCH  17  33
HETATM   33  C27 UNL     1     -14.917  -5.152  15.101  1.00  0.00     0.151 C 
HETATM   34  O3  UNL     1     -14.867  -5.330  16.307  1.00  0.00    -0.649 OA
BRANCH  33  35
HETATM   35  O4  UNL     1     -15.763  -5.884  14.353  1.00  0.00    -0.776 OA
HETATM   36  H43 UNL     1     -16.241  -6.463  14.987  1.00  0.00     0.167 HD
ENDBRANCH  33  35
ENDBRANCH  17  33
BRANCH  16  37
HETATM   37  O2  UNL     1     -13.063  -5.803  12.683  1.00  0.00    -0.394 OA
HETATM   38  H39 UNL     1     -13.518  -6.637  12.887  1.00  0.00     0.210 HD
ENDBRANCH  16  37
TORSDOF 8
ENDMDL
MODEL 6
REMARK minimizedAffinity -9.0111084
REMARK CNNscore 0.458465904
REMARK CNNaffinity 6.87915993
REMARK  8 active torsions:
REMARK  status: ('A' for Active; 'I' for Inactive)
REMARK    1  A    between atoms: C4_4  and  C5_5 
REMARK    2  A    between atoms: C5_5  and  C6_6 
REMARK    3  A    between atoms: C6_6  and  C7_7 
REMARK    4  A    between atoms: C7_7  and  C9_9 
REMARK    5  A    between atoms: C22_22  and  O1_23 
REMARK    6  A    between atoms: C24_25  and  O2_26 
REMARK    7  A    between atoms: C25_27  and  C27_29 
REMARK    8  A    between atoms: C27_29  and  O4_31 
ROOT
HETATM    1  C9  UNL     1      -4.143   6.705  14.535  1.00  0.00    -0.002 C 
HETATM    2  C10 UNL     1      -4.538   5.448  13.732  1.00  0.00     0.007 C 
HETATM    3  C11 UNL     1      -3.353   5.137  12.783  1.00  0.00     0.015 C 
HETATM    4  C12 UNL     1      -2.165   5.955  13.335  1.00  0.00    -0.005 C 
HETATM    5  C13 UNL     1      -1.557   5.130  14.513  1.00  0.00     0.021 C 
HETATM    6  C14 UNL     1      -0.961   6.306  12.465  1.00  0.00    -0.000 C 
HETATM    7  C15 UNL     1      -0.262   7.458  12.656  1.00  0.00    -0.058 C 
HETATM    8  C16 UNL     1      -0.708   8.477  13.724  1.00  0.00     0.036 C 
HETATM    9  C17 UNL     1      -1.975   8.152  14.542  1.00  0.00     0.015 C 
HETATM   10  C18 UNL     1      -2.937   7.278  13.736  1.00  0.00    -0.028 C 
HETATM   11  C19 UNL     1      -3.414   8.091  12.493  1.00  0.00     0.016 C 
HETATM   12  C20 UNL     1       0.957   7.872  11.769  1.00  0.00     0.011 C 
HETATM   13  C21 UNL     1       0.355   8.782  10.674  1.00  0.00     0.023 C 
HETATM   14  C22 UNL     1       2.052   8.623  12.612  1.00  0.00     0.133 C 
HETATM   15  C23 UNL     1       3.488   8.586  12.072  1.00  0.00     0.065 C 
HETATM   16  C24 UNL     1       3.595   8.173  10.609  1.00  0.00     0.139 C 
HETATM   17  C25 UNL     1       2.923   6.804  10.311  1.00  0.00     0.072 C 
HETATM   18  C26 UNL     1       3.919   5.650  10.611  1.00  0.00     0.030 C 
HETATM   19  C28 UNL     1       1.628   6.583  11.191  1.00  0.00     0.029 C 
HETATM   20  C29 UNL     1       0.609   5.672  10.508  1.00  0.00     0.090 C 
HETATM   21  C30 UNL     1      -0.573   5.345  11.386  1.00  0.00     0.157 C 
HETATM   22  O5  UNL     1      -1.226   4.324  11.167  1.00  0.00    -0.293 OA
ENDROOT
BRANCH   1  23
HETATM   23  C7  UNL     1      -5.290   7.604  15.074  1.00  0.00    -0.014 C 
HETATM   24  C8  UNL     1      -4.690   8.819  15.805  1.00  0.00     0.010 C 
BRANCH  23  25
HETATM   25  C6  UNL     1      -6.476   7.016  15.875  1.00  0.00     0.008 C 
BRANCH  25  26
HETATM   26  C5  UNL     1      -7.332   5.876  15.307  1.00  0.00     0.028 C 
BRANCH  26  27
HETATM   27  C4  UNL     1      -7.976   6.173  13.982  1.00  0.00    -0.025 C 
HETATM   28  C2  UNL     1      -8.220   5.316  12.969  1.00  0.00    -0.091 C 
HETATM   29  C1  UNL     1      -8.893   5.790  11.706  1.00  0.00     0.042 C 
HETATM   30  C3  UNL     1      -7.869   3.852  12.959  1.00  0.00     0.042 C 
ENDBRANCH  26  27
ENDBRANCH  25  26
ENDBRANCH  23  25
ENDBRANCH   1  23
BRANCH  14  31
HETATM   31  O1  UNL     1       1.691   9.992  12.845  1.00  0.00    -0.394 OA
HETATM   32  H35 UNL     1       1.863  10.505  12.040  1.00  0.00     0.210 HD
ENDBRANCH  14  31
BRANCH  17  33
HETATM   33  C27 UNL     1       2.583   6.811   8.815  1.00  0.00     0.151 C 
HETATM   34  O3  UNL     1       2.438   5.822   8.116  1.00  0.00    -0.649 OA
BRANCH  33  35
HETATM   35  O4  UNL     1       2.525   8.036   8.260  1.00  0.00    -0.776 OA
HETATM   36  H43 UNL     1       2.337   7.884   7.307  1.00  0.00     0.167 HD
ENDBRANCH  33  35
ENDBRANCH  17  33
BRANCH  16  37
HETATM   37  O2  UNL     1       4.986   8.161  10.267  1.00  0.00    -0.394 OA
HETATM   38  H39 UNL     1       5.068   8.430   9.336  1.00  0.00     0.210 HD
ENDBRANCH  16  37
TORSDOF 8
ENDMDL
MODEL 7
REMARK minimizedAffinity -8.95082855
REMARK CNNscore 0.441383958
REMARK CNNaffinity 6.74534035
REMARK  8 active torsions:
REMARK  status: ('A' for Active; 'I' for Inactive)
REMARK    1  A    between atoms: C4_4  and  C5_5 
REMARK    2  A    between atoms: C5_5  and  C6_6 
REMARK    3  A    between atoms: C6_6  and  C7_7 
REMARK    4  A    between atoms: C7_7  and  C9_9 
REMARK    5  A    between atoms: C22_22  and  O1_23 
REMARK    6  A    between atoms: C24_25  and  O2_26 
REMARK    7  A    between atoms: C25_27  and  C27_29 
REMARK    8  A    between atoms: C27_29  and  O4_31 
ROOT
HETATM    1  C9  UNL     1       0.708   5.631  11.895  1.00  0.00    -0.002 C 
HETATM    2  C10 UNL     1       0.651   4.118  11.596  1.00  0.00     0.007 C 
HETATM    3  C11 UNL     1      -0.818   3.677  11.818  1.00  0.00     0.015 C 
HETATM    4  C12 UNL     1      -1.636   4.986  11.841  1.00  0.00    -0.005 C 
HETATM    5  C13 UNL     1      -1.886   5.389  10.353  1.00  0.00     0.021 C 
HETATM    6  C14 UNL     1      -3.019   5.057  12.483  1.00  0.00    -0.000 C 
HETATM    7  C15 UNL     1      -3.470   6.199  13.070  1.00  0.00    -0.058 C 
HETATM    8  C16 UNL     1      -2.565   7.444  13.157  1.00  0.00     0.036 C 
HETATM    9  C17 UNL     1      -1.138   7.339  12.578  1.00  0.00     0.015 C 
HETATM   10  C18 UNL     1      -0.626   5.900  12.649  1.00  0.00    -0.028 C 
HETATM   11  C19 UNL     1      -0.521   5.490  14.151  1.00  0.00     0.016 C 
HETATM   12  C20 UNL     1      -4.865   6.306  13.767  1.00  0.00     0.011 C 
HETATM   13  C21 UNL     1      -4.581   6.017  15.260  1.00  0.00     0.023 C 
HETATM   14  C22 UNL     1      -5.503   7.728  13.561  1.00  0.00     0.133 C 
HETATM   15  C23 UNL     1      -7.031   7.823  13.664  1.00  0.00     0.065 C 
HETATM   16  C24 UNL     1      -7.688   6.624  14.336  1.00  0.00     0.139 C 
HETATM   17  C25 UNL     1      -7.325   5.272  13.661  1.00  0.00     0.072 C 
HETATM   18  C26 UNL     1      -8.280   5.006  12.464  1.00  0.00     0.030 C 
HETATM   19  C28 UNL     1      -5.839   5.268  13.119  1.00  0.00     0.029 C 
HETATM   20  C29 UNL     1      -5.234   3.865  13.090  1.00  0.00     0.090 C 
HETATM   21  C30 UNL     1      -3.866   3.825  12.456  1.00  0.00     0.157 C 
HETATM   22  O5  UNL     1      -3.453   2.768  11.975  1.00  0.00    -0.293 OA
ENDROOT
BRANCH   1  23
HETATM   23  C7  UNL     1       2.067   6.220  12.366  1.00  0.00    -0.014 C 
HETATM   24  C8  UNL     1       1.828   7.187  13.540  1.00  0.00     0.010 C 
BRANCH  23  25
HETATM   25  C6  UNL     1       3.085   6.816  11.365  1.00  0.00     0.008 C 
BRANCH  25  26
HETATM   26  C5  UNL     1       2.670   7.190   9.936  1.00  0.00     0.028 C 
BRANCH  26  27
HETATM   27  C4  UNL     1       2.945   6.134   8.904  1.00  0.00    -0.025 C 
HETATM   28  C2  UNL     1       2.625   6.153   7.593  1.00  0.00    -0.091 C 
HETATM   29  C1  UNL     1       2.994   5.000   6.695  1.00  0.00     0.042 C 
HETATM   30  C3  UNL     1       1.891   7.263   6.888  1.00  0.00     0.042 C 
ENDBRANCH  26  27
ENDBRANCH  25  26
ENDBRANCH  23  25
ENDBRANCH   1  23
BRANCH  14  31
HETATM   31  O1  UNL     1      -4.928   8.698  14.449  1.00  0.00    -0.394 OA
HETATM   32  H35 UNL     1      -5.309   8.581  15.332  1.00  0.00     0.210 HD
ENDBRANCH  14  31
BRANCH  17  33
HETATM   33  C27 UNL     1      -7.529   4.192  14.729  1.00  0.00     0.151 C 
HETATM   34  O3  UNL     1      -7.557   2.989  14.527  1.00  0.00    -0.649 OA
BRANCH  33  35
HETATM   35  O4  UNL     1      -7.770   4.666  15.966  1.00  0.00    -0.776 OA
HETATM   36  H43 UNL     1      -7.913   3.872  16.529  1.00  0.00     0.167 HD
ENDBRANCH  33  35
ENDBRANCH  17  33
BRANCH  16  37
HETATM   37  O2  UNL     1      -9.103   6.851  14.330  1.00  0.00    -0.394 OA
HETATM   38  H39 UNL     1      -9.472   6.455  15.138  1.00  0.00     0.210 HD
ENDBRANCH  16  37
TORSDOF 8
ENDMDL
MODEL 8
REMARK minimizedAffinity -7.12550592
REMARK CNNscore 0.395430148
REMARK CNNaffinity 5.68729448
REMARK  8 active torsions:
REMARK  status: ('A' for Active; 'I' for Inactive)
REMARK    1  A    between atoms: C4_4  and  C5_5 
REMARK    2  A    between atoms: C5_5  and  C6_6 
REMARK    3  A    between atoms: C6_6  and  C7_7 
REMARK    4  A    between atoms: C7_7  and  C9_9 
REMARK    5  A    between atoms: C22_22  and  O1_23 
REMARK    6  A    between atoms: C24_25  and  O2_26 
REMARK    7  A    between atoms: C25_27  and  C27_29 
REMARK    8  A    between atoms: C27_29  and  O4_31 
ROOT
HETATM    1  C9  UNL     1       0.727  11.874  18.942  1.00  0.00    -0.002 C 
HETATM    2  C10 UNL     1       0.466  10.939  20.141  1.00  0.00     0.007 C 
HETATM    3  C11 UNL     1       1.736  10.991  21.029  1.00  0.00     0.015 C 
HETATM    4  C12 UNL     1       2.515  12.235  20.551  1.00  0.00    -0.005 C 
HETATM    5  C13 UNL     1       1.865  13.471  21.249  1.00  0.00     0.021 C 
HETATM    6  C14 UNL     1       4.009  12.398  20.820  1.00  0.00    -0.000 C 
HETATM    7  C15 UNL     1       4.816  13.068  19.953  1.00  0.00    -0.058 C 
HETATM    8  C16 UNL     1       4.249  13.633  18.634  1.00  0.00     0.036 C 
HETATM    9  C17 UNL     1       2.756  13.393  18.332  1.00  0.00     0.015 C 
HETATM   10  C18 UNL     1       2.266  12.104  18.992  1.00  0.00    -0.028 C 
HETATM   11  C19 UNL     1       3.039  10.904  18.363  1.00  0.00     0.016 C 
HETATM   12  C20 UNL     1       6.354  13.231  20.172  1.00  0.00     0.011 C 
HETATM   13  C21 UNL     1       6.990  12.065  19.379  1.00  0.00     0.023 C 
HETATM   14  C22 UNL     1       6.863  14.628  19.661  1.00  0.00     0.133 C 
HETATM   15  C23 UNL     1       8.155  15.167  20.290  1.00  0.00     0.065 C 
HETATM   16  C24 UNL     1       8.977  14.118  21.026  1.00  0.00     0.139 C 
HETATM   17  C25 UNL     1       8.170  13.372  22.125  1.00  0.00     0.072 C 
HETATM   18  C26 UNL     1       8.201  14.187  23.448  1.00  0.00     0.030 C 
HETATM   19  C28 UNL     1       6.660  13.165  21.705  1.00  0.00     0.029 C 
HETATM   20  C29 UNL     1       6.040  11.928  22.353  1.00  0.00     0.090 C 
HETATM   21  C30 UNL     1       4.565  11.789  22.068  1.00  0.00     0.157 C 
HETATM   22  O5  UNL     1       3.859  11.134  22.836  1.00  0.00    -0.293 OA
ENDROOT
BRANCH   1  23
HETATM   23  C7  UNL     1      -0.029  11.574  17.619  1.00  0.00    -0.014 C 
HETATM   24  C8  UNL     1      -1.091  12.662  17.376  1.00  0.00     0.010 C 
BRANCH  23  25
HETATM   25  C6  UNL     1      -0.605  10.171  17.312  1.00  0.00     0.008 C 
BRANCH  25  26
HETATM   26  C5  UNL     1      -1.741   9.983  16.297  1.00  0.00     0.028 C 
BRANCH  26  27
HETATM   27  C4  UNL     1      -2.192   8.561  16.113  1.00  0.00    -0.025 C 
HETATM   28  C2  UNL     1      -3.364   8.123  15.607  1.00  0.00    -0.091 C 
HETATM   29  C1  UNL     1      -3.644   6.647  15.485  1.00  0.00     0.042 C 
HETATM   30  C3  UNL     1      -4.492   8.999  15.129  1.00  0.00     0.042 C 
ENDBRANCH  26  27
ENDBRANCH  25  26
ENDBRANCH  23  25
ENDBRANCH   1  23
BRANCH  14  31
HETATM   31  O1  UNL     1       7.014  14.644  18.234  1.00  0.00    -0.394 OA
HETATM   32  H35 UNL     1       7.834  14.184  17.998  1.00  0.00     0.210 HD
ENDBRANCH  14  31
BRANCH  17  33
HETATM   33  C27 UNL     1       8.877  12.027  22.336  1.00  0.00     0.151 C 
HETATM   34  O3  UNL     1       8.870  11.376  23.367  1.00  0.00    -0.649 OA
BRANCH  33  35
HETATM   35  O4  UNL     1       9.615  11.612  21.290  1.00  0.00    -0.776 OA
HETATM   36  H43 UNL     1      10.030  10.769  21.579  1.00  0.00     0.167 HD
ENDBRANCH  33  35
ENDBRANCH  17  33
BRANCH  16  37
HETATM   37  O2  UNL     1      10.125  14.778  21.574  1.00  0.00    -0.394 OA
HETATM   38  H39 UNL     1      10.866  14.150  21.560  1.00  0.00     0.210 HD
ENDBRANCH  16  37
TORSDOF 8
ENDMDL
MODEL 9
REMARK minimizedAffinity -8.45277405
REMARK CNNscore 0.391185164
REMARK CNNaffinity 6.43565893
REMARK  8 active torsions:
REMARK  status: ('A' for Active; 'I' for Inactive)
REMARK    1  A    between atoms: C4_4  and  C5_5 
REMARK    2  A    between atoms: C5_5  and  C6_6 
REMARK    3  A    between atoms: C6_6  and  C7_7 
REMARK    4  A    between atoms: C7_7  and  C9_9 
REMARK    5  A    between atoms: C22_22  and  O1_23 
REMARK    6  A    between atoms: C24_25  and  O2_26 
REMARK    7  A    between atoms: C25_27  and  C27_29 
REMARK    8  A    between atoms: C27_29  and  O4_31 
ROOT
HETATM    1  C9  UNL     1      -5.228   6.682  13.527  1.00  0.00    -0.002 C 
HETATM    2  C10 UNL     1      -5.865   7.940  14.153  1.00  0.00     0.007 C 
HETATM    3  C11 UNL     1      -4.695   8.845  14.617  1.00  0.00     0.015 C 
HETATM    4  C12 UNL     1      -3.445   8.293  13.900  1.00  0.00    -0.005 C 
HETATM    5  C13 UNL     1      -3.452   8.888  12.456  1.00  0.00     0.021 C 
HETATM    6  C14 UNL     1      -2.035   8.577  14.413  1.00  0.00    -0.000 C 
HETATM    7  C15 UNL     1      -1.027   7.679  14.246  1.00  0.00    -0.058 C 
HETATM    8  C16 UNL     1      -1.296   6.313  13.582  1.00  0.00     0.036 C 
HETATM    9  C17 UNL     1      -2.742   6.001  13.141  1.00  0.00     0.015 C 
HETATM   10  C18 UNL     1      -3.752   6.743  14.016  1.00  0.00    -0.028 C 
HETATM   11  C19 UNL     1      -3.616   6.216  15.478  1.00  0.00     0.016 C 
HETATM   12  C20 UNL     1       0.422   7.915  14.783  1.00  0.00     0.011 C 
HETATM   13  C21 UNL     1       0.448   7.219  16.164  1.00  0.00     0.023 C 
HETATM   14  C22 UNL     1       1.501   7.313  13.809  1.00  0.00     0.133 C 
HETATM   15  C23 UNL     1       2.906   7.925  13.869  1.00  0.00     0.065 C 
HETATM   16  C24 UNL     1       3.175   8.751  15.121  1.00  0.00     0.139 C 
HETATM   17  C25 UNL     1       2.136   9.885  15.338  1.00  0.00     0.072 C 
HETATM   18  C26 UNL     1       2.554  11.146  14.532  1.00  0.00     0.030 C 
HETATM   19  C28 UNL     1       0.690   9.453  14.868  1.00  0.00     0.029 C 
HETATM   20  C29 UNL     1      -0.413  10.178  15.639  1.00  0.00     0.090 C 
HETATM   21  C30 UNL     1      -1.795   9.875  15.115  1.00  0.00     0.157 C 
HETATM   22  O5  UNL     1      -2.709  10.676  15.321  1.00  0.00    -0.293 OA
ENDROOT
BRANCH   1  23
HETATM   23  C7  UNL     1      -6.059   5.369  13.547  1.00  0.00    -0.014 C 
HETATM   24  C8  UNL     1      -5.282   4.257  12.819  1.00  0.00     0.010 C 
BRANCH  23  25
HETATM   25  C6  UNL     1      -7.553   5.347  13.141  1.00  0.00     0.008 C 
BRANCH  25  26
HETATM   26  C5  UNL     1      -8.629   5.977  14.035  1.00  0.00     0.028 C 
BRANCH  26  27
HETATM   27  C4  UNL     1      -9.818   6.525  13.298  1.00  0.00    -0.025 C 
HETATM   28  C2  UNL     1     -10.687   7.470  13.714  1.00  0.00    -0.091 C 
HETATM   29  C1  UNL     1     -11.825   7.910  12.829  1.00  0.00     0.042 C 
HETATM   30  C3  UNL     1     -10.645   8.171  15.046  1.00  0.00     0.042 C 
ENDBRANCH  26  27
ENDBRANCH  25  26
ENDBRANCH  23  25
ENDBRANCH   1  23
BRANCH  14  31
HETATM   31  O1  UNL     1       1.619   5.892  13.966  1.00  0.00    -0.394 OA
HETATM   32  H35 UNL     1       2.137   5.705  14.764  1.00  0.00     0.210 HD
ENDBRANCH  14  31
BRANCH  17  33
HETATM   33  C27 UNL     1       2.160  10.206  16.838  1.00  0.00     0.151 C 
HETATM   34  O3  UNL     1       2.253   9.388  17.738  1.00  0.00    -0.649 OA
BRANCH  33  35
HETATM   35  O4  UNL     1       1.983  11.507  17.135  1.00  0.00    -0.776 OA
HETATM   36  H43 UNL     1       1.987  11.555  18.117  1.00  0.00     0.167 HD
ENDBRANCH  33  35
ENDBRANCH  17  33
BRANCH  16  37
HETATM   37  O2  UNL     1       4.507   9.271  15.014  1.00  0.00    -0.394 OA
HETATM   38  H39 UNL     1       4.882   9.316  15.910  1.00  0.00     0.210 HD
ENDBRANCH  16  37
TORSDOF 8
ENDMDL
