MODEL 1
REMARK minimizedAffinity -8.48905754
REMARK CNNscore 0.730208457
REMARK CNNaffinity 6.64178324
REMARK  11 active torsions:
REMARK  status: ('A' for Active; 'I' for Inactive)
REMARK    1  A    between atoms: C2_2  and  O2_4 
REMARK    2  A    between atoms: O2_4  and  C3_5 
REMARK    3  A    between atoms: C4_6  and  O3_7 
REMARK    4  A    between atoms: O3_7  and  C5_8 
REMARK    5  A    between atoms: C15_18  and  C16_19 
REMARK    6  A    between atoms: C20_23  and  C21_24 
REMARK    7  A    between atoms: C21_24  and  O4_27 
REMARK    8  A    between atoms: C24_29  and  O6_30 
REMARK    9  A    between atoms: C30_36  and  O7_37 
REMARK   10  A    between atoms: C36_44  and  O9_45 
REMARK   11  A    between atoms: C37_46  and  O10_47 
ROOT
HETATM    1  C5  UNL     1       7.623  56.751  -6.088  1.00  0.00     0.133 C 
HETATM    2  C6  UNL     1       7.915  55.410  -6.767  1.00  0.00     0.034 C 
HETATM    3  C7  UNL     1       6.997  55.168  -7.956  1.00  0.00     0.013 C 
HETATM    4  C8  UNL     1       5.536  55.260  -7.535  1.00  0.00    -0.025 A 
HETATM    5  C9  UNL     1       4.921  53.998  -6.989  1.00  0.00     0.021 A 
HETATM    6  C10 UNL     1       4.436  54.506  -8.338  1.00  0.00    -0.027 A 
HETATM    7  C11 UNL     1       4.879  53.721  -9.579  1.00  0.00     0.011 C 
HETATM    8  C12 UNL     1       3.822  52.913 -10.354  1.00  0.00     0.011 C 
HETATM    9  C13 UNL     1       2.383  53.116  -9.878  1.00  0.00    -0.028 C 
HETATM   10  C14 UNL     1       2.164  52.212  -8.636  1.00  0.00     0.016 C 
HETATM   11  C15 UNL     1       1.259  52.853 -10.936  1.00  0.00     0.057 C 
HETATM   12  C24 UNL     1       0.064  53.708 -10.409  1.00  0.00     0.126 C 
HETATM   13  C25 UNL     1       0.652  54.733  -9.416  1.00  0.00     0.042 C 
HETATM   14  C26 UNL     1       2.184  54.653  -9.591  1.00  0.00    -0.029 C 
HETATM   15  C27 UNL     1       2.551  55.590 -10.786  1.00  0.00     0.016 C 
HETATM   16  C28 UNL     1       2.992  55.057  -8.327  1.00  0.00     0.006 C 
HETATM   17  C29 UNL     1       2.967  56.559  -8.038  1.00  0.00     0.038 C 
HETATM   18  C30 UNL     1       3.706  56.895  -6.742  1.00  0.00     0.124 C 
HETATM   19  C31 UNL     1       5.220  56.639  -6.912  1.00  0.00     0.034 C 
HETATM   20  C32 UNL     1       6.127  56.906  -5.647  1.00  0.00    -0.015 C 
HETATM   21  C33 UNL     1       5.951  58.349  -5.107  1.00  0.00     0.018 C 
HETATM   22  C34 UNL     1       5.792  55.962  -4.471  1.00  0.00     0.018 C 
ENDROOT
BRANCH   1  23
HETATM   23  O3  UNL     1       8.479  56.853  -4.942  1.00  0.00    -0.352 OA
BRANCH  23  24
HETATM   24  C4  UNL     1       9.869  56.916  -5.277  1.00  0.00     0.292 C 
HETATM   25  C3  UNL     1      10.480  58.153  -4.575  1.00  0.00     0.218 C 
HETATM   26  C37 UNL     1      11.946  57.870  -4.258  1.00  0.00     0.183 C 
HETATM   27  C36 UNL     1      12.053  56.665  -3.309  1.00  0.00     0.173 C 
HETATM   28  C35 UNL     1      10.947  55.637  -3.580  1.00  0.00     0.205 C 
HETATM   29  O8  UNL     1      10.533  55.687  -4.947  1.00  0.00    -0.356 OA
BRANCH  25  30
HETATM   30  O2  UNL     1      10.395  59.276  -5.487  1.00  0.00    -0.309 OA
BRANCH  30  31
HETATM   31  C2  UNL     1       9.582  60.299  -5.119  1.00  0.00     0.255 C 
HETATM   32  C1  UNL     1       9.697  61.422  -6.107  1.00  0.00     0.126 C 
HETATM   33  O1  UNL     1       8.826  60.314  -4.157  1.00  0.00    -0.266 OA
ENDBRANCH  30  31
ENDBRANCH  25  30
BRANCH  26  34
HETATM   34  O10 UNL     1      12.572  59.006  -3.644  1.00  0.00    -0.390 OA
HETATM   35  H60 UNL     1      13.506  58.751  -3.517  1.00  0.00     0.210 HD
ENDBRANCH  26  34
BRANCH  27  36
HETATM   36  O9  UNL     1      13.361  56.098  -3.492  1.00  0.00    -0.391 OA
HETATM   37  H58 UNL     1      13.426  55.316  -2.915  1.00  0.00     0.210 HD
ENDBRANCH  27  36
ENDBRANCH  23  24
ENDBRANCH   1  23
BRANCH  18  38
HETATM   38  O7  UNL     1       3.464  58.283  -6.490  1.00  0.00    -0.395 OA
HETATM   39  H47 UNL     1       2.510  58.387  -6.327  1.00  0.00     0.210 HD
ENDBRANCH  18  38
BRANCH  11  40
HETATM   40  C16 UNL     1       0.937  51.444 -11.509  1.00  0.00     0.065 C 
HETATM   41  C17 UNL     1      -0.021  50.545 -10.713  1.00  0.00     0.046 C 
HETATM   42  C18 UNL     1       2.211  50.660 -11.853  1.00  0.00     0.041 C 
HETATM   43  C19 UNL     1       1.828  49.871 -13.083  1.00  0.00     0.038 C 
HETATM   44  C20 UNL     1       0.850  50.790 -13.804  1.00  0.00     0.156 C 
HETATM   45  O5  UNL     1       0.301  51.670 -12.797  1.00  0.00    -0.372 OA
BRANCH  44  46
HETATM   46  C21 UNL     1       1.451  51.634 -14.966  1.00  0.00     0.076 C 
HETATM   47  C22 UNL     1       1.000  51.086 -16.329  1.00  0.00     0.048 C 
HETATM   48  C23 UNL     1       2.983  51.645 -14.900  1.00  0.00     0.048 C 
BRANCH  46  49
HETATM   49  O4  UNL     1       1.014  52.997 -14.862  1.00  0.00    -0.388 OA
HETATM   50  H35 UNL     1       1.082  53.399 -15.743  1.00  0.00     0.210 HD
ENDBRANCH  46  49
ENDBRANCH  44  46
ENDBRANCH  11  40
BRANCH  12  51
HETATM   51  O6  UNL     1      -0.935  52.969  -9.728  1.00  0.00    -0.395 OA
HETATM   52  H37 UNL     1      -1.710  53.548  -9.627  1.00  0.00     0.210 HD
ENDBRANCH  12  51
TORSDOF 11
ENDMDL
MODEL 2
REMARK minimizedAffinity -10.7746258
REMARK CNNscore 0.710380256
REMARK CNNaffinity 7.95391655
REMARK  11 active torsions:
REMARK  status: ('A' for Active; 'I' for Inactive)
REMARK    1  A    between atoms: C2_2  and  O2_4 
REMARK    2  A    between atoms: O2_4  and  C3_5 
REMARK    3  A    between atoms: C4_6  and  O3_7 
REMARK    4  A    between atoms: O3_7  and  C5_8 
REMARK    5  A    between atoms: C15_18  and  C16_19 
REMARK    6  A    between atoms: C20_23  and  C21_24 
REMARK    7  A    between atoms: C21_24  and  O4_27 
REMARK    8  A    between atoms: C24_29  and  O6_30 
REMARK    9  A    between atoms: C30_36  and  O7_37 
REMARK   10  A    between atoms: C36_44  and  O9_45 
REMARK   11  A    between atoms: C37_46  and  O10_47 
ROOT
HETATM    1  C5  UNL     1      -1.064  50.493 -22.294  1.00  0.00     0.133 C 
HETATM    2  C6  UNL     1      -0.468  51.708 -21.579  1.00  0.00     0.034 C 
HETATM    3  C7  UNL     1       0.115  51.335 -20.224  1.00  0.00     0.013 C 
HETATM    4  C8  UNL     1      -0.935  50.653 -19.356  1.00  0.00    -0.025 A 
HETATM    5  C9  UNL     1      -1.831  51.564 -18.558  1.00  0.00     0.021 A 
HETATM    6  C10 UNL     1      -0.829  50.703 -17.804  1.00  0.00    -0.027 A 
HETATM    7  C11 UNL     1       0.388  51.418 -17.202  1.00  0.00     0.011 C 
HETATM    8  C12 UNL     1       0.485  51.539 -15.670  1.00  0.00     0.011 C 
HETATM    9  C13 UNL     1      -0.592  50.777 -14.896  1.00  0.00    -0.028 C 
HETATM   10  C14 UNL     1      -1.873  51.650 -14.885  1.00  0.00     0.016 C 
HETATM   11  C15 UNL     1      -0.224  50.348 -13.436  1.00  0.00     0.057 C 
HETATM   12  C24 UNL     1      -1.164  49.130 -13.173  1.00  0.00     0.126 C 
HETATM   13  C25 UNL     1      -1.651  48.636 -14.551  1.00  0.00     0.042 C 
HETATM   14  C26 UNL     1      -0.781  49.375 -15.591  1.00  0.00    -0.029 C 
HETATM   15  C27 UNL     1       0.532  48.546 -15.752  1.00  0.00     0.016 C 
HETATM   16  C28 UNL     1      -1.466  49.566 -16.973  1.00  0.00     0.006 C 
HETATM   17  C29 UNL     1      -1.579  48.275 -17.784  1.00  0.00     0.038 C 
HETATM   18  C30 UNL     1      -2.330  48.499 -19.098  1.00  0.00     0.124 C 
HETATM   19  C31 UNL     1      -1.491  49.385 -20.046  1.00  0.00     0.034 C 
HETATM   20  C32 UNL     1      -2.142  49.742 -21.439  1.00  0.00    -0.015 C 
HETATM   21  C33 UNL     1      -2.552  48.470 -22.225  1.00  0.00     0.018 C 
HETATM   22  C34 UNL     1      -3.425  50.589 -21.291  1.00  0.00     0.018 C 
ENDROOT
BRANCH   1  23
HETATM   23  O3  UNL     1      -1.653  50.955 -23.518  1.00  0.00    -0.352 OA
BRANCH  23  24
HETATM   24  C4  UNL     1      -0.745  50.937 -24.625  1.00  0.00     0.292 C 
HETATM   25  C3  UNL     1      -1.575  50.919 -25.931  1.00  0.00     0.218 C 
HETATM   26  C37 UNL     1      -0.791  51.633 -27.027  1.00  0.00     0.183 C 
HETATM   27  C36 UNL     1      -0.542  53.096 -26.626  1.00  0.00     0.173 C 
HETATM   28  C35 UNL     1      -0.356  53.237 -25.109  1.00  0.00     0.205 C 
HETATM   29  O8  UNL     1       0.176  52.035 -24.550  1.00  0.00    -0.356 OA
BRANCH  25  30
HETATM   30  O2  UNL     1      -1.783  49.537 -26.313  1.00  0.00    -0.309 OA
BRANCH  30  31
HETATM   31  C2  UNL     1      -3.007  49.219 -26.810  1.00  0.00     0.255 C 
HETATM   32  C1  UNL     1      -3.853  48.613 -25.730  1.00  0.00     0.126 C 
HETATM   33  O1  UNL     1      -3.401  49.425 -27.950  1.00  0.00    -0.266 OA
ENDBRANCH  30  31
ENDBRANCH  25  30
BRANCH  26  34
HETATM   34  O10 UNL     1      -1.501  51.605 -28.275  1.00  0.00    -0.390 OA
HETATM   35  H60 UNL     1      -0.912  52.043 -28.919  1.00  0.00     0.210 HD
ENDBRANCH  26  34
BRANCH  27  36
HETATM   36  O9  UNL     1       0.618  53.542 -27.346  1.00  0.00    -0.391 OA
HETATM   37  H58 UNL     1       0.800  54.459 -27.074  1.00  0.00     0.210 HD
ENDBRANCH  27  36
ENDBRANCH  23  24
ENDBRANCH   1  23
BRANCH  18  38
HETATM   38  O7  UNL     1      -2.524  47.204 -19.676  1.00  0.00    -0.395 OA
HETATM   39  H47 UNL     1      -3.108  46.704 -19.078  1.00  0.00     0.210 HD
ENDBRANCH  18  38
BRANCH  11  40
HETATM   40  C16 UNL     1      -0.016  51.360 -12.274  1.00  0.00     0.065 C 
HETATM   41  C17 UNL     1       1.375  51.992 -12.110  1.00  0.00     0.046 C 
HETATM   42  C18 UNL     1      -0.484  50.791 -10.928  1.00  0.00     0.041 C 
HETATM   43  C19 UNL     1      -1.045  51.993 -10.204  1.00  0.00     0.038 C 
HETATM   44  C20 UNL     1      -1.631  52.842 -11.325  1.00  0.00     0.156 C 
HETATM   45  O5  UNL     1      -0.930  52.461 -12.532  1.00  0.00    -0.372 OA
BRANCH  44  46
HETATM   46  C21 UNL     1      -3.166  52.701 -11.545  1.00  0.00     0.076 C 
HETATM   47  C22 UNL     1      -3.935  53.726 -10.698  1.00  0.00     0.048 C 
HETATM   48  C23 UNL     1      -3.642  51.287 -11.194  1.00  0.00     0.048 C 
BRANCH  46  49
HETATM   49  O4  UNL     1      -3.488  52.925 -12.925  1.00  0.00    -0.388 OA
HETATM   50  H35 UNL     1      -4.420  53.191 -12.973  1.00  0.00     0.210 HD
ENDBRANCH  46  49
ENDBRANCH  44  46
ENDBRANCH  11  40
BRANCH  12  51
HETATM   51  O6  UNL     1      -2.306  49.425 -12.389  1.00  0.00    -0.395 OA
HETATM   52  H37 UNL     1      -2.703  48.579 -12.119  1.00  0.00     0.210 HD
ENDBRANCH  12  51
TORSDOF 11
ENDMDL
MODEL 3
REMARK minimizedAffinity -8.41847324
REMARK CNNscore 0.652394235
REMARK CNNaffinity 6.43370581
REMARK  11 active torsions:
REMARK  status: ('A' for Active; 'I' for Inactive)
REMARK    1  A    between atoms: C2_2  and  O2_4 
REMARK    2  A    between atoms: O2_4  and  C3_5 
REMARK    3  A    between atoms: C4_6  and  O3_7 
REMARK    4  A    between atoms: O3_7  and  C5_8 
REMARK    5  A    between atoms: C15_18  and  C16_19 
REMARK    6  A    between atoms: C20_23  and  C21_24 
REMARK    7  A    between atoms: C21_24  and  O4_27 
REMARK    8  A    between atoms: C24_29  and  O6_30 
REMARK    9  A    between atoms: C30_36  and  O7_37 
REMARK   10  A    between atoms: C36_44  and  O9_45 
REMARK   11  A    between atoms: C37_46  and  O10_47 
ROOT
HETATM    1  C5  UNL     1       7.518  56.885  -6.004  1.00  0.00     0.133 C 
HETATM    2  C6  UNL     1       7.813  55.593  -6.773  1.00  0.00     0.034 C 
HETATM    3  C7  UNL     1       6.877  55.419  -7.960  1.00  0.00     0.013 C 
HETATM    4  C8  UNL     1       5.423  55.465  -7.510  1.00  0.00    -0.025 A 
HETATM    5  C9  UNL     1       4.831  54.163  -7.037  1.00  0.00     0.021 A 
HETATM    6  C10 UNL     1       4.317  54.751  -8.341  1.00  0.00    -0.027 A 
HETATM    7  C11 UNL     1       4.747  54.054  -9.638  1.00  0.00     0.011 C 
HETATM    8  C12 UNL     1       3.686  53.285 -10.446  1.00  0.00     0.011 C 
HETATM    9  C13 UNL     1       2.253  53.440  -9.933  1.00  0.00    -0.028 C 
HETATM   10  C14 UNL     1       2.065  52.455  -8.750  1.00  0.00     0.016 C 
HETATM   11  C15 UNL     1       1.114  53.232 -10.987  1.00  0.00     0.057 C 
HETATM   12  C24 UNL     1      -0.081  54.036 -10.386  1.00  0.00     0.126 C 
HETATM   13  C25 UNL     1       0.513  55.002  -9.339  1.00  0.00     0.042 C 
HETATM   14  C26 UNL     1       2.042  54.952  -9.545  1.00  0.00    -0.029 C 
HETATM   15  C27 UNL     1       2.378  55.969 -10.682  1.00  0.00     0.016 C 
HETATM   16  C28 UNL     1       2.867  55.283  -8.270  1.00  0.00     0.006 C 
HETATM   17  C29 UNL     1       2.831  56.763  -7.884  1.00  0.00     0.038 C 
HETATM   18  C30 UNL     1       3.589  57.023  -6.581  1.00  0.00     0.124 C 
HETATM   19  C31 UNL     1       5.103  56.797  -6.793  1.00  0.00     0.034 C 
HETATM   20  C32 UNL     1       6.028  56.992  -5.529  1.00  0.00    -0.015 C 
HETATM   21  C33 UNL     1       5.846  58.396  -4.893  1.00  0.00     0.018 C 
HETATM   22  C34 UNL     1       5.724  55.971  -4.411  1.00  0.00     0.018 C 
ENDROOT
BRANCH   1  23
HETATM   23  O3  UNL     1       8.393  56.922  -4.868  1.00  0.00    -0.352 OA
BRANCH  23  24
HETATM   24  C4  UNL     1       9.770  57.091  -5.219  1.00  0.00     0.292 C 
HETATM   25  C3  UNL     1      10.255  58.441  -4.638  1.00  0.00     0.218 C 
HETATM   26  C37 UNL     1      11.741  58.335  -4.308  1.00  0.00     0.183 C 
HETATM   27  C36 UNL     1      11.967  57.238  -3.255  1.00  0.00     0.173 C 
HETATM   28  C35 UNL     1      10.968  56.085  -3.422  1.00  0.00     0.205 C 
HETATM   29  O8  UNL     1      10.552  55.969  -4.784  1.00  0.00    -0.356 OA
BRANCH  25  30
HETATM   30  O2  UNL     1      10.060  59.463  -5.646  1.00  0.00    -0.309 OA
BRANCH  30  31
HETATM   31  C2  UNL     1       9.353  60.561  -5.273  1.00  0.00     0.255 C 
HETATM   32  C1  UNL     1       9.910  61.779  -5.948  1.00  0.00     0.126 C 
HETATM   33  O1  UNL     1       8.379  60.578  -4.533  1.00  0.00    -0.266 OA
ENDBRANCH  30  31
ENDBRANCH  25  30
BRANCH  26  34
HETATM   34  O10 UNL     1      12.251  59.579  -3.805  1.00  0.00    -0.390 OA
HETATM   35  H60 UNL     1      13.205  59.430  -3.663  1.00  0.00     0.210 HD
ENDBRANCH  26  34
BRANCH  27  36
HETATM   36  O9  UNL     1      13.324  56.789  -3.396  1.00  0.00    -0.391 OA
HETATM   37  H58 UNL     1      13.466  56.073  -2.751  1.00  0.00     0.210 HD
ENDBRANCH  27  36
ENDBRANCH  23  24
ENDBRANCH   1  23
BRANCH  18  38
HETATM   38  O7  UNL     1       3.336  58.389  -6.236  1.00  0.00    -0.395 OA
HETATM   39  H47 UNL     1       2.384  58.471  -6.051  1.00  0.00     0.210 HD
ENDBRANCH  18  38
BRANCH  11  40
HETATM   40  C16 UNL     1       0.797  51.859 -11.646  1.00  0.00     0.065 C 
HETATM   41  C17 UNL     1       1.701  50.667 -11.294  1.00  0.00     0.046 C 
HETATM   42  C18 UNL     1       0.665  51.972 -13.171  1.00  0.00     0.041 C 
HETATM   43  C19 UNL     1      -0.413  50.972 -13.514  1.00  0.00     0.038 C 
HETATM   44  C20 UNL     1      -1.338  51.017 -12.305  1.00  0.00     0.156 C 
HETATM   45  O5  UNL     1      -0.539  51.499 -11.200  1.00  0.00    -0.372 OA
BRANCH  44  46
HETATM   46  C21 UNL     1      -2.607  51.906 -12.459  1.00  0.00     0.076 C 
HETATM   47  C22 UNL     1      -3.703  51.468 -11.475  1.00  0.00     0.048 C 
HETATM   48  C23 UNL     1      -3.150  51.842 -13.891  1.00  0.00     0.048 C 
BRANCH  46  49
HETATM   49  O4  UNL     1      -2.283  53.278 -12.190  1.00  0.00    -0.388 OA
HETATM   50  H35 UNL     1      -3.102  53.732 -11.935  1.00  0.00     0.210 HD
ENDBRANCH  46  49
ENDBRANCH  44  46
ENDBRANCH  11  40
BRANCH  12  51
HETATM   51  O6  UNL     1      -1.061  53.243  -9.739  1.00  0.00    -0.395 OA
HETATM   52  H37 UNL     1      -1.840  53.806  -9.587  1.00  0.00     0.210 HD
ENDBRANCH  12  51
TORSDOF 11
ENDMDL
MODEL 4
REMARK minimizedAffinity -9.85874748
REMARK CNNscore 0.647266209
REMARK CNNaffinity 7.85293436
REMARK  11 active torsions:
REMARK  status: ('A' for Active; 'I' for Inactive)
REMARK    1  A    between atoms: C2_2  and  O2_4 
REMARK    2  A    between atoms: O2_4  and  C3_5 
REMARK    3  A    between atoms: C4_6  and  O3_7 
REMARK    4  A    between atoms: O3_7  and  C5_8 
REMARK    5  A    between atoms: C15_18  and  C16_19 
REMARK    6  A    between atoms: C20_23  and  C21_24 
REMARK    7  A    between atoms: C21_24  and  O4_27 
REMARK    8  A    between atoms: C24_29  and  O6_30 
REMARK    9  A    between atoms: C30_36  and  O7_37 
REMARK   10  A    between atoms: C36_44  and  O9_45 
REMARK   11  A    between atoms: C37_46  and  O10_47 
ROOT
HETATM    1  C5  UNL     1      -0.903  50.943 -22.139  1.00  0.00     0.133 C 
HETATM    2  C6  UNL     1      -0.492  52.133 -21.266  1.00  0.00     0.034 C 
HETATM    3  C7  UNL     1       0.028  51.683 -19.909  1.00  0.00     0.013 C 
HETATM    4  C8  UNL     1      -1.003  50.816 -19.198  1.00  0.00    -0.025 A 
HETATM    5  C9  UNL     1      -2.046  51.547 -18.394  1.00  0.00     0.021 A 
HETATM    6  C10 UNL     1      -1.014  50.718 -17.644  1.00  0.00    -0.027 A 
HETATM    7  C11 UNL     1       0.073  51.484 -16.880  1.00  0.00     0.011 C 
HETATM    8  C12 UNL     1       0.047  51.458 -15.341  1.00  0.00     0.011 C 
HETATM    9  C13 UNL     1      -0.996  50.518 -14.733  1.00  0.00    -0.028 C 
HETATM   10  C14 UNL     1      -2.361  51.255 -14.744  1.00  0.00     0.016 C 
HETATM   11  C15 UNL     1      -0.690  49.982 -13.295  1.00  0.00     0.057 C 
HETATM   12  C24 UNL     1      -1.511  48.656 -13.224  1.00  0.00     0.126 C 
HETATM   13  C25 UNL     1      -1.843  48.259 -14.678  1.00  0.00     0.042 C 
HETATM   14  C26 UNL     1      -0.985  49.183 -15.570  1.00  0.00    -0.029 C 
HETATM   15  C27 UNL     1       0.418  48.508 -15.699  1.00  0.00     0.016 C 
HETATM   16  C28 UNL     1      -1.584  49.445 -16.979  1.00  0.00     0.006 C 
HETATM   17  C29 UNL     1      -1.500  48.237 -17.914  1.00  0.00     0.038 C 
HETATM   18  C30 UNL     1      -2.175  48.519 -19.258  1.00  0.00     0.124 C 
HETATM   19  C31 UNL     1      -1.369  49.576 -20.046  1.00  0.00     0.034 C 
HETATM   20  C32 UNL     1      -1.953  50.006 -21.448  1.00  0.00    -0.015 C 
HETATM   21  C33 UNL     1      -2.168  48.786 -22.382  1.00  0.00     0.018 C 
HETATM   22  C34 UNL     1      -3.327  50.703 -21.327  1.00  0.00     0.018 C 
ENDROOT
BRANCH   1  23
HETATM   23  O3  UNL     1      -1.448  51.467 -23.358  1.00  0.00    -0.352 OA
BRANCH  23  24
HETATM   24  C4  UNL     1      -0.647  51.175 -24.507  1.00  0.00     0.292 C 
HETATM   25  C3  UNL     1      -1.561  51.211 -25.756  1.00  0.00     0.218 C 
HETATM   26  C37 UNL     1      -0.739  51.659 -26.960  1.00  0.00     0.183 C 
HETATM   27  C36 UNL     1      -0.184  53.072 -26.719  1.00  0.00     0.173 C 
HETATM   28  C35 UNL     1       0.140  53.302 -25.237  1.00  0.00     0.205 C 
HETATM   29  O8  UNL     1       0.471  52.071 -24.593  1.00  0.00    -0.356 OA
BRANCH  25  30
HETATM   30  O2  UNL     1      -2.060  49.870 -25.988  1.00  0.00    -0.309 OA
BRANCH  30  31
HETATM   31  C2  UNL     1      -3.385  49.667 -25.773  1.00  0.00     0.255 C 
HETATM   32  C1  UNL     1      -3.819  48.393 -26.435  1.00  0.00     0.126 C 
HETATM   33  O1  UNL     1      -4.128  50.376 -25.108  1.00  0.00    -0.266 OA
ENDBRANCH  30  31
ENDBRANCH  25  30
BRANCH  26  34
HETATM   34  O10 UNL     1      -1.534  51.667 -28.156  1.00  0.00    -0.390 OA
HETATM   35  H60 UNL     1      -0.921  51.923 -28.873  1.00  0.00     0.210 HD
ENDBRANCH  26  34
BRANCH  27  36
HETATM   36  O9  UNL     1       0.983  53.216 -27.545  1.00  0.00    -0.391 OA
HETATM   37  H58 UNL     1       1.357  54.099 -27.376  1.00  0.00     0.210 HD
ENDBRANCH  27  36
ENDBRANCH  23  24
ENDBRANCH   1  23
BRANCH  18  38
HETATM   38  O7  UNL     1      -2.188  47.276 -19.969  1.00  0.00    -0.395 OA
HETATM   39  H47 UNL     1      -2.756  46.663 -19.471  1.00  0.00     0.210 HD
ENDBRANCH  18  38
BRANCH  11  40
HETATM   40  C16 UNL     1      -0.675  50.886 -12.029  1.00  0.00     0.065 C 
HETATM   41  C17 UNL     1      -1.796  50.694 -10.995  1.00  0.00     0.046 C 
HETATM   42  C18 UNL     1      -0.557  52.373 -12.389  1.00  0.00     0.041 C 
HETATM   43  C19 UNL     1       0.286  52.947 -11.275  1.00  0.00     0.038 C 
HETATM   44  C20 UNL     1       1.227  51.804 -10.916  1.00  0.00     0.156 C 
HETATM   45  O5  UNL     1       0.568  50.588 -11.337  1.00  0.00    -0.372 OA
BRANCH  44  46
HETATM   46  C21 UNL     1       2.647  51.876 -11.550  1.00  0.00     0.076 C 
HETATM   47  C22 UNL     1       3.174  50.468 -11.869  1.00  0.00     0.048 C 
HETATM   48  C23 UNL     1       3.629  52.590 -10.615  1.00  0.00     0.048 C 
BRANCH  46  49
HETATM   49  O4  UNL     1       2.604  52.627 -12.772  1.00  0.00    -0.388 OA
HETATM   50  H35 UNL     1       3.364  52.360 -13.312  1.00  0.00     0.210 HD
ENDBRANCH  46  49
ENDBRANCH  44  46
ENDBRANCH  11  40
BRANCH  12  51
HETATM   51  O6  UNL     1      -2.732  48.755 -12.512  1.00  0.00    -0.395 OA
HETATM   52  H37 UNL     1      -3.054  47.851 -12.356  1.00  0.00     0.210 HD
ENDBRANCH  12  51
TORSDOF 11
ENDMDL
MODEL 5
REMARK minimizedAffinity -8.4586916
REMARK CNNscore 0.546484172
REMARK CNNaffinity 7.04279947
REMARK  11 active torsions:
REMARK  status: ('A' for Active; 'I' for Inactive)
REMARK    1  A    between atoms: C2_2  and  O2_4 
REMARK    2  A    between atoms: O2_4  and  C3_5 
REMARK    3  A    between atoms: C4_6  and  O3_7 
REMARK    4  A    between atoms: O3_7  and  C5_8 
REMARK    5  A    between atoms: C15_18  and  C16_19 
REMARK    6  A    between atoms: C20_23  and  C21_24 
REMARK    7  A    between atoms: C21_24  and  O4_27 
REMARK    8  A    between atoms: C24_29  and  O6_30 
REMARK    9  A    between atoms: C30_36  and  O7_37 
REMARK   10  A    between atoms: C36_44  and  O9_45 
REMARK   11  A    between atoms: C37_46  and  O10_47 
ROOT
HETATM    1  C5  UNL     1       1.599  49.940 -14.212  1.00  0.00     0.133 C 
HETATM    2  C6  UNL     1       0.451  48.946 -14.408  1.00  0.00     0.034 C 
HETATM    3  C7  UNL     1       0.159  48.707 -15.883  1.00  0.00     0.013 C 
HETATM    4  C8  UNL     1      -0.131  50.022 -16.594  1.00  0.00    -0.025 A 
HETATM    5  C9  UNL     1      -1.556  50.508 -16.539  1.00  0.00     0.021 A 
HETATM    6  C10 UNL     1      -1.007  50.047 -17.880  1.00  0.00    -0.027 A 
HETATM    7  C11 UNL     1      -1.515  48.702 -18.415  1.00  0.00     0.011 C 
HETATM    8  C12 UNL     1      -2.436  48.702 -19.649  1.00  0.00     0.011 C 
HETATM    9  C13 UNL     1      -2.620  50.068 -20.312  1.00  0.00    -0.028 C 
HETATM   10  C14 UNL     1      -3.695  50.844 -19.507  1.00  0.00     0.016 C 
HETATM   11  C15 UNL     1      -2.995  50.055 -21.832  1.00  0.00     0.057 C 
HETATM   12  C24 UNL     1      -2.501  51.448 -22.335  1.00  0.00     0.126 C 
HETATM   13  C25 UNL     1      -1.500  51.972 -21.283  1.00  0.00     0.042 C 
HETATM   14  C26 UNL     1      -1.214  50.778 -20.347  1.00  0.00    -0.029 C 
HETATM   15  C27 UNL     1      -0.079  49.941 -21.018  1.00  0.00     0.016 C 
HETATM   16  C28 UNL     1      -0.798  51.184 -18.906  1.00  0.00     0.006 C 
HETATM   17  C29 UNL     1       0.613  51.768 -18.817  1.00  0.00     0.038 C 
HETATM   18  C30 UNL     1       0.944  52.225 -17.395  1.00  0.00     0.124 C 
HETATM   19  C31 UNL     1       1.056  51.004 -16.456  1.00  0.00     0.034 C 
HETATM   20  C32 UNL     1       1.361  51.308 -14.937  1.00  0.00    -0.015 C 
HETATM   21  C33 UNL     1       2.651  52.153 -14.767  1.00  0.00     0.018 C 
HETATM   22  C34 UNL     1       0.229  52.109 -14.256  1.00  0.00     0.018 C 
ENDROOT
BRANCH   1  23
HETATM   23  O3  UNL     1       1.748  50.157 -12.802  1.00  0.00    -0.352 OA
BRANCH  23  24
HETATM   24  C4  UNL     1       2.883  49.488 -12.242  1.00  0.00     0.292 C 
HETATM   25  C3  UNL     1       2.518  49.033 -10.809  1.00  0.00     0.218 C 
HETATM   26  C37 UNL     1       3.291  47.759 -10.481  1.00  0.00     0.183 C 
HETATM   27  C36 UNL     1       2.902  46.642 -11.464  1.00  0.00     0.173 C 
HETATM   28  C35 UNL     1       2.588  47.206 -12.857  1.00  0.00     0.205 C 
HETATM   29  O8  UNL     1       3.314  48.414 -13.090  1.00  0.00    -0.356 OA
BRANCH  25  30
HETATM   30  O2  UNL     1       2.910  50.081  -9.889  1.00  0.00    -0.309 OA
BRANCH  30  31
HETATM   31  C2  UNL     1       4.216  50.454  -9.910  1.00  0.00     0.255 C 
HETATM   32  C1  UNL     1       4.319  51.931 -10.149  1.00  0.00     0.126 C 
HETATM   33  O1  UNL     1       5.180  49.725  -9.723  1.00  0.00    -0.266 OA
ENDBRANCH  30  31
ENDBRANCH  25  30
BRANCH  26  34
HETATM   34  O10 UNL     1       3.020  47.318  -9.142  1.00  0.00    -0.390 OA
HETATM   35  H60 UNL     1       3.582  46.531  -9.009  1.00  0.00     0.210 HD
ENDBRANCH  26  34
BRANCH  27  36
HETATM   36  O9  UNL     1       3.996  45.712 -11.503  1.00  0.00    -0.391 OA
HETATM   37  H58 UNL     1       3.769  45.016 -12.146  1.00  0.00     0.210 HD
ENDBRANCH  27  36
ENDBRANCH  23  24
ENDBRANCH   1  23
BRANCH  18  38
HETATM   38  O7  UNL     1       2.201  52.905 -17.475  1.00  0.00    -0.395 OA
HETATM   39  H47 UNL     1       2.069  53.699 -18.022  1.00  0.00     0.210 HD
ENDBRANCH  18  38
BRANCH  11  40
HETATM   40  C16 UNL     1      -4.359  49.539 -22.372  1.00  0.00     0.065 C 
HETATM   41  C17 UNL     1      -4.891  50.147 -23.679  1.00  0.00     0.046 C 
HETATM   42  C18 UNL     1      -5.456  49.587 -21.299  1.00  0.00     0.041 C 
HETATM   43  C19 UNL     1      -6.302  48.371 -21.594  1.00  0.00     0.038 C 
HETATM   44  C20 UNL     1      -5.295  47.357 -22.121  1.00  0.00     0.156 C 
HETATM   45  O5  UNL     1      -4.178  48.121 -22.631  1.00  0.00    -0.372 OA
BRANCH  44  46
HETATM   46  C21 UNL     1      -4.785  46.313 -21.084  1.00  0.00     0.076 C 
HETATM   47  C22 UNL     1      -5.225  46.696 -19.662  1.00  0.00     0.048 C 
HETATM   48  C23 UNL     1      -3.258  46.194 -21.133  1.00  0.00     0.048 C 
BRANCH  46  49
HETATM   49  O4  UNL     1      -5.320  45.017 -21.386  1.00  0.00    -0.388 OA
HETATM   50  H35 UNL     1      -5.303  44.490 -20.571  1.00  0.00     0.210 HD
ENDBRANCH  46  49
ENDBRANCH  44  46
ENDBRANCH  11  40
BRANCH  12  51
HETATM   51  O6  UNL     1      -3.522  52.419 -22.484  1.00  0.00    -0.395 OA
HETATM   52  H37 UNL     1      -3.147  53.163 -22.985  1.00  0.00     0.210 HD
ENDBRANCH  12  51
TORSDOF 11
ENDMDL
MODEL 6
REMARK minimizedAffinity -8.71362782
REMARK CNNscore 0.527556479
REMARK CNNaffinity 7.23011923
REMARK  11 active torsions:
REMARK  status: ('A' for Active; 'I' for Inactive)
REMARK    1  A    between atoms: C2_2  and  O2_4 
REMARK    2  A    between atoms: O2_4  and  C3_5 
REMARK    3  A    between atoms: C4_6  and  O3_7 
REMARK    4  A    between atoms: O3_7  and  C5_8 
REMARK    5  A    between atoms: C15_18  and  C16_19 
REMARK    6  A    between atoms: C20_23  and  C21_24 
REMARK    7  A    between atoms: C21_24  and  O4_27 
REMARK    8  A    between atoms: C24_29  and  O6_30 
REMARK    9  A    between atoms: C30_36  and  O7_37 
REMARK   10  A    between atoms: C36_44  and  O9_45 
REMARK   11  A    between atoms: C37_46  and  O10_47 
ROOT
HETATM    1  C5  UNL     1      -8.008  46.509 -19.263  1.00  0.00     0.133 C 
HETATM    2  C6  UNL     1      -8.016  46.798 -20.768  1.00  0.00     0.034 C 
HETATM    3  C7  UNL     1      -6.608  46.991 -21.312  1.00  0.00     0.013 C 
HETATM    4  C8  UNL     1      -5.884  48.093 -20.550  1.00  0.00    -0.025 A 
HETATM    5  C9  UNL     1      -6.111  49.500 -21.038  1.00  0.00     0.021 A 
HETATM    6  C10 UNL     1      -4.730  48.891 -21.224  1.00  0.00    -0.027 A 
HETATM    7  C11 UNL     1      -4.332  48.488 -22.650  1.00  0.00     0.011 C 
HETATM    8  C12 UNL     1      -3.237  49.302 -23.364  1.00  0.00     0.011 C 
HETATM    9  C13 UNL     1      -2.543  50.349 -22.492  1.00  0.00    -0.028 C 
HETATM   10  C14 UNL     1      -3.451  51.606 -22.449  1.00  0.00     0.016 C 
HETATM   11  C15 UNL     1      -1.091  50.752 -22.916  1.00  0.00     0.057 C 
HETATM   12  C24 UNL     1      -0.462  51.276 -21.587  1.00  0.00     0.126 C 
HETATM   13  C25 UNL     1      -1.341  50.742 -20.436  1.00  0.00     0.042 C 
HETATM   14  C26 UNL     1      -2.284  49.701 -21.079  1.00  0.00    -0.029 C 
HETATM   15  C27 UNL     1      -1.502  48.349 -21.117  1.00  0.00     0.016 C 
HETATM   16  C28 UNL     1      -3.634  49.518 -20.333  1.00  0.00     0.006 C 
HETATM   17  C29 UNL     1      -3.502  48.778 -19.000  1.00  0.00     0.038 C 
HETATM   18  C30 UNL     1      -4.843  48.695 -18.268  1.00  0.00     0.124 C 
HETATM   19  C31 UNL     1      -5.813  47.772 -19.038  1.00  0.00     0.034 C 
HETATM   20  C32 UNL     1      -7.260  47.606 -18.430  1.00  0.00    -0.015 C 
HETATM   21  C33 UNL     1      -7.214  47.116 -16.959  1.00  0.00     0.018 C 
HETATM   22  C34 UNL     1      -8.052  48.932 -18.417  1.00  0.00     0.018 C 
ENDROOT
BRANCH   1  23
HETATM   23  O3  UNL     1      -9.373  46.419 -18.832  1.00  0.00    -0.352 OA
BRANCH  23  24
HETATM   24  C4  UNL     1     -10.316  46.624 -19.889  1.00  0.00     0.292 C 
HETATM   25  C3  UNL     1     -11.218  45.370 -19.983  1.00  0.00     0.218 C 
HETATM   26  C37 UNL     1     -12.599  45.787 -20.479  1.00  0.00     0.183 C 
HETATM   27  C36 UNL     1     -13.235  46.775 -19.488  1.00  0.00     0.173 C 
HETATM   28  C35 UNL     1     -12.176  47.669 -18.829  1.00  0.00     0.205 C 
HETATM   29  O8  UNL     1     -11.051  47.841 -19.691  1.00  0.00    -0.356 OA
BRANCH  25  30
HETATM   30  O2  UNL     1     -10.621  44.456 -20.937  1.00  0.00    -0.309 OA
BRANCH  30  31
HETATM   31  C2  UNL     1     -10.016  43.353 -20.428  1.00  0.00     0.255 C 
HETATM   32  C1  UNL     1     -10.995  42.219 -20.361  1.00  0.00     0.126 C 
HETATM   33  O1  UNL     1      -8.839  43.257 -20.106  1.00  0.00    -0.266 OA
ENDBRANCH  30  31
ENDBRANCH  25  30
BRANCH  26  34
HETATM   34  O10 UNL     1     -13.462  44.650 -20.626  1.00  0.00    -0.390 OA
HETATM   35  H60 UNL     1     -14.300  45.004 -20.983  1.00  0.00     0.210 HD
ENDBRANCH  26  34
BRANCH  27  36
HETATM   36  O9  UNL     1     -14.200  47.548 -20.221  1.00  0.00    -0.391 OA
HETATM   37  H58 UNL     1     -14.587  48.196 -19.605  1.00  0.00     0.210 HD
ENDBRANCH  27  36
ENDBRANCH  23  24
ENDBRANCH   1  23
BRANCH  18  38
HETATM   38  O7  UNL     1      -4.561  48.147 -16.976  1.00  0.00    -0.395 OA
HETATM   39  H47 UNL     1      -4.000  48.789 -16.504  1.00  0.00     0.210 HD
ENDBRANCH  18  38
BRANCH  11  40
HETATM   40  C16 UNL     1      -0.767  51.533 -24.221  1.00  0.00     0.065 C 
HETATM   41  C17 UNL     1       0.630  52.159 -24.356  1.00  0.00     0.046 C 
HETATM   42  C18 UNL     1      -1.836  52.587 -24.539  1.00  0.00     0.041 C 
HETATM   43  C19 UNL     1      -1.910  52.582 -26.048  1.00  0.00     0.038 C 
HETATM   44  C20 UNL     1      -1.626  51.130 -26.412  1.00  0.00     0.156 C 
HETATM   45  O5  UNL     1      -0.884  50.571 -25.305  1.00  0.00    -0.372 OA
BRANCH  44  46
HETATM   46  C21 UNL     1      -2.878  50.251 -26.701  1.00  0.00     0.076 C 
HETATM   47  C22 UNL     1      -2.594  48.775 -26.378  1.00  0.00     0.048 C 
HETATM   48  C23 UNL     1      -3.313  50.379 -28.165  1.00  0.00     0.048 C 
BRANCH  46  49
HETATM   49  O4  UNL     1      -3.981  50.684 -25.892  1.00  0.00    -0.388 OA
HETATM   50  H35 UNL     1      -4.599  49.940 -25.808  1.00  0.00     0.210 HD
ENDBRANCH  46  49
ENDBRANCH  44  46
ENDBRANCH  11  40
BRANCH  12  51
HETATM   51  O6  UNL     1      -0.409  52.687 -21.474  1.00  0.00    -0.395 OA
HETATM   52  H37 UNL     1       0.172  52.899 -20.724  1.00  0.00     0.210 HD
ENDBRANCH  12  51
TORSDOF 11
ENDMDL
MODEL 7
REMARK minimizedAffinity -8.46495914
REMARK CNNscore 0.523506582
REMARK CNNaffinity 7.02563429
REMARK  11 active torsions:
REMARK  status: ('A' for Active; 'I' for Inactive)
REMARK    1  A    between atoms: C2_2  and  O2_4 
REMARK    2  A    between atoms: O2_4  and  C3_5 
REMARK    3  A    between atoms: C4_6  and  O3_7 
REMARK    4  A    between atoms: O3_7  and  C5_8 
REMARK    5  A    between atoms: C15_18  and  C16_19 
REMARK    6  A    between atoms: C20_23  and  C21_24 
REMARK    7  A    between atoms: C21_24  and  O4_27 
REMARK    8  A    between atoms: C24_29  and  O6_30 
REMARK    9  A    between atoms: C30_36  and  O7_37 
REMARK   10  A    between atoms: C36_44  and  O9_45 
REMARK   11  A    between atoms: C37_46  and  O10_47 
ROOT
HETATM    1  C5  UNL     1       1.488  49.985 -14.444  1.00  0.00     0.133 C 
HETATM    2  C6  UNL     1       0.348  48.976 -14.616  1.00  0.00     0.034 C 
HETATM    3  C7  UNL     1       0.039  48.720 -16.084  1.00  0.00     0.013 C 
HETATM    4  C8  UNL     1      -0.275  50.025 -16.803  1.00  0.00    -0.025 A 
HETATM    5  C9  UNL     1      -1.704  50.495 -16.734  1.00  0.00     0.021 A 
HETATM    6  C10 UNL     1      -1.168  50.027 -18.078  1.00  0.00    -0.027 A 
HETATM    7  C11 UNL     1      -1.668  48.671 -18.593  1.00  0.00     0.011 C 
HETATM    8  C12 UNL     1      -2.606  48.649 -19.814  1.00  0.00     0.011 C 
HETATM    9  C13 UNL     1      -2.814  50.007 -20.488  1.00  0.00    -0.028 C 
HETATM   10  C14 UNL     1      -3.887  50.778 -19.677  1.00  0.00     0.016 C 
HETATM   11  C15 UNL     1      -3.209  49.974 -22.003  1.00  0.00     0.057 C 
HETATM   12  C24 UNL     1      -2.737  51.367 -22.526  1.00  0.00     0.126 C 
HETATM   13  C25 UNL     1      -1.728  51.913 -21.493  1.00  0.00     0.042 C 
HETATM   14  C26 UNL     1      -1.416  50.732 -20.549  1.00  0.00    -0.029 C 
HETATM   15  C27 UNL     1      -0.281  49.900 -21.227  1.00  0.00     0.016 C 
HETATM   16  C28 UNL     1      -0.986  51.156 -19.118  1.00  0.00     0.006 C 
HETATM   17  C29 UNL     1       0.420  51.756 -19.053  1.00  0.00     0.038 C 
HETATM   18  C30 UNL     1       0.764  52.231 -17.640  1.00  0.00     0.124 C 
HETATM   19  C31 UNL     1       0.902  51.021 -16.691  1.00  0.00     0.034 C 
HETATM   20  C32 UNL     1       1.224  51.344 -15.179  1.00  0.00    -0.015 C 
HETATM   21  C33 UNL     1       2.507  52.204 -15.034  1.00  0.00     0.018 C 
HETATM   22  C34 UNL     1       0.092  52.139 -14.491  1.00  0.00     0.018 C 
ENDROOT
BRANCH   1  23
HETATM   23  O3  UNL     1       1.652  50.218 -13.038  1.00  0.00    -0.352 OA
BRANCH  23  24
HETATM   24  C4  UNL     1       1.568  49.024 -12.253  1.00  0.00     0.292 C 
HETATM   25  C3  UNL     1       3.006  48.566 -11.913  1.00  0.00     0.218 C 
HETATM   26  C37 UNL     1       2.994  47.852 -10.565  1.00  0.00     0.183 C 
HETATM   27  C36 UNL     1       2.514  48.814  -9.466  1.00  0.00     0.173 C 
HETATM   28  C35 UNL     1       1.470  49.802 -10.003  1.00  0.00     0.205 C 
HETATM   29  O8  UNL     1       0.746  49.230 -11.094  1.00  0.00    -0.356 OA
BRANCH  25  30
HETATM   30  O2  UNL     1       3.440  47.641 -12.941  1.00  0.00    -0.309 OA
BRANCH  30  31
HETATM   31  C2  UNL     1       2.712  46.504 -13.084  1.00  0.00     0.255 C 
HETATM   32  C1  UNL     1       2.460  46.240 -14.539  1.00  0.00     0.126 C 
HETATM   33  O1  UNL     1       2.342  45.763 -12.184  1.00  0.00    -0.266 OA
ENDBRANCH  30  31
ENDBRANCH  25  30
BRANCH  26  34
HETATM   34  O10 UNL     1       4.302  47.367 -10.223  1.00  0.00    -0.390 OA
HETATM   35  H60 UNL     1       4.190  46.894  -9.376  1.00  0.00     0.210 HD
ENDBRANCH  26  34
BRANCH  27  36
HETATM   36  O9  UNL     1       1.985  48.009  -8.400  1.00  0.00    -0.391 OA
HETATM   37  H58 UNL     1       1.652  48.613  -7.712  1.00  0.00     0.210 HD
ENDBRANCH  27  36
ENDBRANCH  23  24
ENDBRANCH   1  23
BRANCH  18  38
HETATM   38  O7  UNL     1       2.013  52.924 -17.744  1.00  0.00    -0.395 OA
HETATM   39  H47 UNL     1       1.864  53.711 -18.297  1.00  0.00     0.210 HD
ENDBRANCH  18  38
BRANCH  11  40
HETATM   40  C16 UNL     1      -4.574  49.438 -22.520  1.00  0.00     0.065 C 
HETATM   41  C17 UNL     1      -5.114  50.002 -23.843  1.00  0.00     0.046 C 
HETATM   42  C18 UNL     1      -5.665  49.518 -21.444  1.00  0.00     0.041 C 
HETATM   43  C19 UNL     1      -6.510  48.291 -21.695  1.00  0.00     0.038 C 
HETATM   44  C20 UNL     1      -5.503  47.263 -22.194  1.00  0.00     0.156 C 
HETATM   45  O5  UNL     1      -4.390  48.012 -22.734  1.00  0.00    -0.372 OA
BRANCH  44  46
HETATM   46  C21 UNL     1      -4.985  46.254 -21.127  1.00  0.00     0.076 C 
HETATM   47  C22 UNL     1      -5.409  46.688 -19.715  1.00  0.00     0.048 C 
HETATM   48  C23 UNL     1      -3.459  46.127 -21.187  1.00  0.00     0.048 C 
BRANCH  46  49
HETATM   49  O4  UNL     1      -5.528  44.950 -21.378  1.00  0.00    -0.388 OA
HETATM   50  H35 UNL     1      -5.503  44.452 -20.545  1.00  0.00     0.210 HD
ENDBRANCH  46  49
ENDBRANCH  44  46
ENDBRANCH  11  40
BRANCH  12  51
HETATM   51  O6  UNL     1      -3.770  52.325 -22.671  1.00  0.00    -0.395 OA
HETATM   52  H37 UNL     1      -3.411  53.069 -23.184  1.00  0.00     0.210 HD
ENDBRANCH  12  51
TORSDOF 11
ENDMDL
MODEL 8
REMARK minimizedAffinity -8.04498577
REMARK CNNscore 0.499946773
REMARK CNNaffinity 6.94825602
REMARK  11 active torsions:
REMARK  status: ('A' for Active; 'I' for Inactive)
REMARK    1  A    between atoms: C2_2  and  O2_4 
REMARK    2  A    between atoms: O2_4  and  C3_5 
REMARK    3  A    between atoms: C4_6  and  O3_7 
REMARK    4  A    between atoms: O3_7  and  C5_8 
REMARK    5  A    between atoms: C15_18  and  C16_19 
REMARK    6  A    between atoms: C20_23  and  C21_24 
REMARK    7  A    between atoms: C21_24  and  O4_27 
REMARK    8  A    between atoms: C24_29  and  O6_30 
REMARK    9  A    between atoms: C30_36  and  O7_37 
REMARK   10  A    between atoms: C36_44  and  O9_45 
REMARK   11  A    between atoms: C37_46  and  O10_47 
ROOT
HETATM    1  C5  UNL     1      -4.969  43.711 -17.788  1.00  0.00     0.133 C 
HETATM    2  C6  UNL     1      -3.599  43.798 -18.469  1.00  0.00     0.034 C 
HETATM    3  C7  UNL     1      -3.175  45.241 -18.697  1.00  0.00     0.013 C 
HETATM    4  C8  UNL     1      -4.230  45.992 -19.498  1.00  0.00    -0.025 A 
HETATM    5  C9  UNL     1      -4.134  45.878 -20.997  1.00  0.00     0.021 A 
HETATM    6  C10 UNL     1      -3.836  47.227 -20.360  1.00  0.00    -0.027 A 
HETATM    7  C11 UNL     1      -2.368  47.672 -20.326  1.00  0.00     0.011 C 
HETATM    8  C12 UNL     1      -1.937  48.850 -21.219  1.00  0.00     0.011 C 
HETATM    9  C13 UNL     1      -3.083  49.561 -21.941  1.00  0.00    -0.028 C 
HETATM   10  C14 UNL     1      -3.435  48.732 -23.203  1.00  0.00     0.016 C 
HETATM   11  C15 UNL     1      -2.832  51.056 -22.335  1.00  0.00     0.057 C 
HETATM   12  C24 UNL     1      -4.273  51.647 -22.436  1.00  0.00     0.126 C 
HETATM   13  C25 UNL     1      -5.207  50.677 -21.680  1.00  0.00     0.042 C 
HETATM   14  C26 UNL     1      -4.276  49.707 -20.921  1.00  0.00    -0.029 C 
HETATM   15  C27 UNL     1      -3.898  50.404 -19.575  1.00  0.00     0.016 C 
HETATM   16  C28 UNL     1      -4.900  48.312 -20.644  1.00  0.00     0.006 C 
HETATM   17  C29 UNL     1      -5.985  48.328 -19.567  1.00  0.00     0.038 C 
HETATM   18  C30 UNL     1      -6.623  46.949 -19.389  1.00  0.00     0.124 C 
HETATM   19  C31 UNL     1      -5.600  45.965 -18.780  1.00  0.00     0.034 C 
HETATM   20  C32 UNL     1      -6.092  44.481 -18.563  1.00  0.00    -0.015 C 
HETATM   21  C33 UNL     1      -7.376  44.421 -17.695  1.00  0.00     0.018 C 
HETATM   22  C34 UNL     1      -6.437  43.773 -19.892  1.00  0.00     0.018 C 
ENDROOT
BRANCH   1  23
HETATM   23  O3  UNL     1      -5.314  42.322 -17.686  1.00  0.00    -0.352 OA
BRANCH  23  24
HETATM   24  C4  UNL     1      -4.353  41.453 -18.293  1.00  0.00     0.292 C 
HETATM   25  C3  UNL     1      -3.867  40.446 -17.223  1.00  0.00     0.218 C 
HETATM   26  C37 UNL     1      -3.497  39.134 -17.908  1.00  0.00     0.183 C 
HETATM   27  C36 UNL     1      -4.730  38.544 -18.613  1.00  0.00     0.173 C 
HETATM   28  C35 UNL     1      -5.648  39.648 -19.155  1.00  0.00     0.205 C 
HETATM   29  O8  UNL     1      -4.897  40.824 -19.463  1.00  0.00    -0.356 OA
BRANCH  25  30
HETATM   30  O2  UNL     1      -2.692  41.000 -16.582  1.00  0.00    -0.309 OA
BRANCH  30  31
HETATM   31  C2  UNL     1      -1.577  41.116 -17.349  1.00  0.00     0.255 C 
HETATM   32  C1  UNL     1      -0.380  41.349 -16.476  1.00  0.00     0.126 C 
HETATM   33  O1  UNL     1      -1.521  41.007 -18.567  1.00  0.00    -0.266 OA
ENDBRANCH  30  31
ENDBRANCH  25  30
BRANCH  26  34
HETATM   34  O10 UNL     1      -2.998  38.177 -16.961  1.00  0.00    -0.390 OA
HETATM   35  H60 UNL     1      -2.750  37.394 -17.489  1.00  0.00     0.210 HD
ENDBRANCH  26  34
BRANCH  27  36
HETATM   36  O9  UNL     1      -4.249  37.690 -19.663  1.00  0.00    -0.391 OA
HETATM   37  H58 UNL     1      -5.025  37.335 -20.133  1.00  0.00     0.210 HD
ENDBRANCH  27  36
ENDBRANCH  23  24
ENDBRANCH   1  23
BRANCH  18  38
HETATM   38  O7  UNL     1      -7.727  47.130 -18.496  1.00  0.00    -0.395 OA
HETATM   39  H47 UNL     1      -8.373  47.704 -18.944  1.00  0.00     0.210 HD
ENDBRANCH  18  38
BRANCH  11  40
HETATM   40  C16 UNL     1      -1.799  51.494 -23.411  1.00  0.00     0.065 C 
HETATM   41  C17 UNL     1      -0.368  51.811 -22.948  1.00  0.00     0.046 C 
HETATM   42  C18 UNL     1      -2.326  52.648 -24.275  1.00  0.00     0.041 C 
HETATM   43  C19 UNL     1      -1.752  52.364 -25.644  1.00  0.00     0.038 C 
HETATM   44  C20 UNL     1      -1.719  50.843 -25.707  1.00  0.00     0.156 C 
HETATM   45  O5  UNL     1      -1.685  50.380 -24.337  1.00  0.00    -0.372 OA
BRANCH  44  46
HETATM   46  C21 UNL     1      -2.909  50.174 -26.456  1.00  0.00     0.076 C 
HETATM   47  C22 UNL     1      -2.726  48.649 -26.520  1.00  0.00     0.048 C 
HETATM   48  C23 UNL     1      -3.046  50.733 -27.877  1.00  0.00     0.048 C 
BRANCH  46  49
HETATM   49  O4  UNL     1      -4.140  50.450 -25.772  1.00  0.00    -0.388 OA
HETATM   50  H35 UNL     1      -4.778  49.761 -26.017  1.00  0.00     0.210 HD
ENDBRANCH  46  49
ENDBRANCH  44  46
ENDBRANCH  11  40
BRANCH  12  51
HETATM   51  O6  UNL     1      -4.766  51.781 -23.757  1.00  0.00    -0.395 OA
HETATM   52  H37 UNL     1      -5.564  52.334 -23.718  1.00  0.00     0.210 HD
ENDBRANCH  12  51
TORSDOF 11
ENDMDL
MODEL 9
REMARK minimizedAffinity -8.52854633
REMARK CNNscore 0.467737824
REMARK CNNaffinity 6.4111557
REMARK  11 active torsions:
REMARK  status: ('A' for Active; 'I' for Inactive)
REMARK    1  A    between atoms: C2_2  and  O2_4 
REMARK    2  A    between atoms: O2_4  and  C3_5 
REMARK    3  A    between atoms: C4_6  and  O3_7 
REMARK    4  A    between atoms: O3_7  and  C5_8 
REMARK    5  A    between atoms: C15_18  and  C16_19 
REMARK    6  A    between atoms: C20_23  and  C21_24 
REMARK    7  A    between atoms: C21_24  and  O4_27 
REMARK    8  A    between atoms: C24_29  and  O6_30 
REMARK    9  A    between atoms: C30_36  and  O7_37 
REMARK   10  A    between atoms: C36_44  and  O9_45 
REMARK   11  A    between atoms: C37_46  and  O10_47 
ROOT
HETATM    1  C5  UNL     1     -17.059  44.271 -23.954  1.00  0.00     0.133 C 
HETATM    2  C6  UNL     1     -16.961  43.652 -25.352  1.00  0.00     0.034 C 
HETATM    3  C7  UNL     1     -15.528  43.644 -25.865  1.00  0.00     0.013 C 
HETATM    4  C8  UNL     1     -14.944  45.051 -25.850  1.00  0.00    -0.025 A 
HETATM    5  C9  UNL     1     -15.222  45.899 -27.063  1.00  0.00     0.021 A 
HETATM    6  C10 UNL     1     -13.792  45.437 -26.823  1.00  0.00    -0.027 A 
HETATM    7  C11 UNL     1     -13.251  44.339 -27.748  1.00  0.00     0.011 C 
HETATM    8  C12 UNL     1     -12.156  44.710 -28.765  1.00  0.00     0.011 C 
HETATM    9  C13 UNL     1     -11.608  46.132 -28.629  1.00  0.00    -0.028 C 
HETATM   10  C14 UNL     1     -12.597  47.090 -29.343  1.00  0.00     0.016 C 
HETATM   11  C15 UNL     1     -10.156  46.368 -29.163  1.00  0.00     0.057 C 
HETATM   12  C24 UNL     1      -9.676  47.614 -28.355  1.00  0.00     0.126 C 
HETATM   13  C25 UNL     1     -10.611  47.742 -27.134  1.00  0.00     0.042 C 
HETATM   14  C26 UNL     1     -11.426  46.431 -27.093  1.00  0.00    -0.029 C 
HETATM   15  C27 UNL     1     -10.557  45.384 -26.325  1.00  0.00     0.016 C 
HETATM   16  C28 UNL     1     -12.819  46.568 -26.419  1.00  0.00     0.006 C 
HETATM   17  C29 UNL     1     -12.751  46.733 -24.900  1.00  0.00     0.038 C 
HETATM   18  C30 UNL     1     -14.139  46.944 -24.294  1.00  0.00     0.124 C 
HETATM   19  C31 UNL     1     -14.979  45.654 -24.426  1.00  0.00     0.034 C 
HETATM   20  C32 UNL     1     -16.458  45.716 -23.877  1.00  0.00    -0.015 C 
HETATM   21  C33 UNL     1     -16.502  46.156 -22.390  1.00  0.00     0.018 C 
HETATM   22  C34 UNL     1     -17.333  46.726 -24.651  1.00  0.00     0.018 C 
ENDROOT
BRANCH   1  23
HETATM   23  O3  UNL     1     -18.447  44.303 -23.591  1.00  0.00    -0.352 OA
BRANCH  23  24
HETATM   24  C4  UNL     1     -18.841  43.203 -22.765  1.00  0.00     0.292 C 
HETATM   25  C3  UNL     1     -19.772  43.743 -21.652  1.00  0.00     0.218 C 
HETATM   26  C37 UNL     1     -20.766  42.653 -21.264  1.00  0.00     0.183 C 
HETATM   27  C36 UNL     1     -21.626  42.271 -22.479  1.00  0.00     0.173 C 
HETATM   28  C35 UNL     1     -20.829  42.377 -23.786  1.00  0.00     0.205 C 
HETATM   29  O8  UNL     1     -19.437  42.160 -23.550  1.00  0.00    -0.356 OA
BRANCH  25  30
HETATM   30  O2  UNL     1     -18.954  44.078 -20.504  1.00  0.00    -0.309 OA
BRANCH  30  31
HETATM   31  C2  UNL     1     -19.424  45.054 -19.685  1.00  0.00     0.255 C 
HETATM   32  C1  UNL     1     -18.966  46.395 -20.176  1.00  0.00     0.126 C 
HETATM   33  O1  UNL     1     -20.149  44.896 -18.712  1.00  0.00    -0.266 OA
ENDBRANCH  30  31
ENDBRANCH  25  30
BRANCH  26  34
HETATM   34  O10 UNL     1     -21.626  43.091 -20.201  1.00  0.00    -0.390 OA
HETATM   35  H60 UNL     1     -22.194  42.323 -19.994  1.00  0.00     0.210 HD
ENDBRANCH  26  34
BRANCH  27  36
HETATM   36  O9  UNL     1     -22.103  40.934 -22.257  1.00  0.00    -0.391 OA
HETATM   37  H58 UNL     1     -22.626  40.673 -23.037  1.00  0.00     0.210 HD
ENDBRANCH  27  36
ENDBRANCH  23  24
ENDBRANCH   1  23
BRANCH  18  38
HETATM   38  O7  UNL     1     -13.931  47.259 -22.913  1.00  0.00    -0.395 OA
HETATM   39  H47 UNL     1     -13.456  48.108 -22.877  1.00  0.00     0.210 HD
ENDBRANCH  18  38
BRANCH  11  40
HETATM   40  C16 UNL     1      -9.775  46.298 -30.669  1.00  0.00     0.065 C 
HETATM   41  C17 UNL     1     -10.910  46.382 -31.702  1.00  0.00     0.046 C 
HETATM   42  C18 UNL     1      -8.886  45.086 -30.980  1.00  0.00     0.041 C 
HETATM   43  C19 UNL     1      -7.954  45.590 -32.057  1.00  0.00     0.038 C 
HETATM   44  C20 UNL     1      -7.761  47.058 -31.701  1.00  0.00     0.156 C 
HETATM   45  O5  UNL     1      -8.916  47.443 -30.920  1.00  0.00    -0.372 OA
BRANCH  44  46
HETATM   46  C21 UNL     1      -6.461  47.395 -30.912  1.00  0.00     0.076 C 
HETATM   47  C22 UNL     1      -5.214  47.055 -31.745  1.00  0.00     0.048 C 
HETATM   48  C23 UNL     1      -6.413  46.632 -29.584  1.00  0.00     0.048 C 
BRANCH  46  49
HETATM   49  O4  UNL     1      -6.424  48.794 -30.598  1.00  0.00    -0.388 OA
HETATM   50  H35 UNL     1      -5.497  49.042 -30.451  1.00  0.00     0.210 HD
ENDBRANCH  46  49
ENDBRANCH  44  46
ENDBRANCH  11  40
BRANCH  12  51
HETATM   51  O6  UNL     1      -9.726  48.836 -29.070  1.00  0.00    -0.395 OA
HETATM   52  H37 UNL     1      -9.225  49.495 -28.560  1.00  0.00     0.210 HD
ENDBRANCH  12  51
TORSDOF 11
ENDMDL
