MODEL 1
REMARK minimizedAffinity -8.45057583
REMARK CNNscore 0.563451529
REMARK CNNaffinity 7.10999298
REMARK  14 active torsions:
REMARK  status: ('A' for Active; 'I' for Inactive)
REMARK    1  A    between atoms: C19_21  and  O3_22 
REMARK    2  A    between atoms: C19_21  and  C20_23 
REMARK    3  A    between atoms: C20_23  and  C21_25 
REMARK    4  A    between atoms: C21_25  and  O5_26 
REMARK    5  A    between atoms: O5_26  and  C22_27 
REMARK    6  A    between atoms: C22_27  and  C23_29 
REMARK    7  A    between atoms: C23_29  and  C24_30 
REMARK    8  A    between atoms: C24_30  and  C25_31 
REMARK       I    between atoms: C25_31  and  N1_33 
REMARK    9  A    between atoms: N1_33  and  C26_34 
REMARK   10  A    between atoms: C26_34  and  C27_35 
REMARK   11  A    between atoms: C26_34  and  C30_40 
REMARK   12  A    between atoms: C27_35  and  C28_36 
REMARK   13  A    between atoms: C28_36  and  C29_37 
REMARK       I    between atoms: C29_37  and  N2_38 
REMARK   14  A    between atoms: C30_40  and  O10_42 
ROOT
HETATM    1  C20 UNL     1       1.087   7.372  13.537  1.00  0.00     0.185 C 
HETATM    2  O4  UNL     1       2.150   6.893  13.943  1.00  0.00    -0.292 OA
ENDROOT
BRANCH   1   3
HETATM    3  C19 UNL     1      -0.290   6.915  14.101  1.00  0.00     0.128 C 
HETATM    4  C14 UNL     1      -1.184   6.140  13.078  1.00  0.00     0.005 C 
HETATM    5  C13 UNL     1      -0.943   4.629  12.971  1.00  0.00     0.091 C 
HETATM    6  C15 UNL     1      -1.072   6.769  11.663  1.00  0.00     0.019 C 
HETATM    7  C16 UNL     1      -2.580   6.332  13.729  1.00  0.00     0.002 C 
HETATM    8  C12 UNL     1      -2.070   3.969  12.186  1.00  0.00     0.133 C 
HETATM    9  C11 UNL     1      -3.508   4.232  12.680  1.00  0.00     0.072 C 
HETATM   10  O2  UNL     1      -1.793   3.207  11.263  1.00  0.00    -0.297 OA
HETATM   11  C2  UNL     1      -4.649   3.549  11.840  1.00  0.00    -0.009 C 
HETATM   12  C10 UNL     1      -3.729   5.760  12.883  1.00  0.00     0.003 C 
HETATM   13  C1  UNL     1      -4.635   3.988  10.358  1.00  0.00     0.021 C 
HETATM   14  C3  UNL     1      -4.480   2.002  11.929  1.00  0.00     0.022 C 
HETATM   15  C7  UNL     1      -6.012   3.953  12.434  1.00  0.00    -0.067 C 
HETATM   16  C4  UNL     1      -5.716   1.221  11.502  1.00  0.00     0.084 C 
HETATM   17  C5  UNL     1      -6.907   1.653  12.314  1.00  0.00     0.149 C 
HETATM   18  O1  UNL     1      -7.815   0.885  12.619  1.00  0.00    -0.293 OA
HETATM   19  C6  UNL     1      -7.008   3.083  12.683  1.00  0.00     0.053 C 
HETATM   20  C8  UNL     1      -6.223   5.421  12.722  1.00  0.00     0.035 C 
HETATM   21  C9  UNL     1      -5.088   6.009  13.550  1.00  0.00     0.010 C 
HETATM   22  C17 UNL     1      -2.615   7.815  14.060  1.00  0.00     0.009 C 
HETATM   23  C18 UNL     1      -1.172   8.144  14.484  1.00  0.00     0.047 C 
BRANCH   3  24
HETATM   24  O3  UNL     1      -0.162   6.151  15.305  1.00  0.00    -0.381 OA
HETATM   25  H25 UNL     1       0.455   5.417  15.137  1.00  0.00     0.211 HD
ENDBRANCH   3  24
ENDBRANCH   1   3
BRANCH   1  26
HETATM   26  C21 UNL     1       1.108   8.561  12.576  1.00  0.00     0.260 C 
BRANCH  26  27
HETATM   27  O5  UNL     1       2.097   8.485  11.549  1.00  0.00    -0.314 OA
BRANCH  27  28
HETATM   28  C22 UNL     1       1.612   8.111  10.329  1.00  0.00     0.259 C 
HETATM   29  O6  UNL     1       0.756   8.721   9.708  1.00  0.00    -0.265 OA
BRANCH  28  30
HETATM   30  C23 UNL     1       2.357   6.915   9.778  1.00  0.00     0.120 C 
BRANCH  30  31
HETATM   31  C24 UNL     1       3.089   6.090  10.832  1.00  0.00     0.112 C 
BRANCH  31  32
HETATM   32  C25 UNL     1       4.501   6.591  11.064  1.00  0.00     0.218 C 
HETATM   33  O7  UNL     1       5.410   6.445  10.257  1.00  0.00    -0.274 OA
HETATM   34  N1  UNL     1       4.661   7.220  12.273  1.00  0.00    -0.347 N 
HETATM   35  H32 UNL     1       3.943   7.143  12.987  1.00  0.00     0.163 HD
BRANCH  34  36
HETATM   36  C26 UNL     1       5.959   7.737  12.717  1.00  0.00     0.182 C 
BRANCH  36  37
HETATM   37  C27 UNL     1       6.453   7.025  13.982  1.00  0.00     0.045 C 
BRANCH  37  38
HETATM   38  C28 UNL     1       7.650   7.712  14.645  1.00  0.00     0.105 C 
BRANCH  38  39
HETATM   39  C29 UNL     1       7.243   8.485  15.882  1.00  0.00     0.215 C 
HETATM   40  N2  UNL     1       8.245   8.638  16.796  1.00  0.00    -0.370 N 
HETATM   41  H38 UNL     1       9.215   8.474  16.567  1.00  0.00     0.159 HD
HETATM   42  H39 UNL     1       8.038   9.209  17.607  1.00  0.00     0.159 HD
HETATM   43  O8  UNL     1       6.129   8.947  16.084  1.00  0.00    -0.274 OA
ENDBRANCH  38  39
ENDBRANCH  37  38
ENDBRANCH  36  37
BRANCH  36  44
HETATM   44  C30 UNL     1       6.991   7.636  11.588  1.00  0.00     0.163 C 
HETATM   45  O9  UNL     1       7.767   6.715  11.387  1.00  0.00    -0.648 OA
BRANCH  44  46
HETATM   46  O10 UNL     1       6.975   8.698  10.746  1.00  0.00    -0.775 OA
HETATM   47  H40 UNL     1       7.693   8.493  10.109  1.00  0.00     0.167 HD
ENDBRANCH  44  46
ENDBRANCH  36  44
ENDBRANCH  34  36
ENDBRANCH  31  32
ENDBRANCH  30  31
ENDBRANCH  28  30
ENDBRANCH  27  28
ENDBRANCH  26  27
ENDBRANCH   1  26
TORSDOF 14
ENDMDL
MODEL 2
REMARK minimizedAffinity -7.98959112
REMARK CNNscore 0.562109828
REMARK CNNaffinity 7.03569031
REMARK  14 active torsions:
REMARK  status: ('A' for Active; 'I' for Inactive)
REMARK    1  A    between atoms: C19_21  and  O3_22 
REMARK    2  A    between atoms: C19_21  and  C20_23 
REMARK    3  A    between atoms: C20_23  and  C21_25 
REMARK    4  A    between atoms: C21_25  and  O5_26 
REMARK    5  A    between atoms: O5_26  and  C22_27 
REMARK    6  A    between atoms: C22_27  and  C23_29 
REMARK    7  A    between atoms: C23_29  and  C24_30 
REMARK    8  A    between atoms: C24_30  and  C25_31 
REMARK       I    between atoms: C25_31  and  N1_33 
REMARK    9  A    between atoms: N1_33  and  C26_34 
REMARK   10  A    between atoms: C26_34  and  C27_35 
REMARK   11  A    between atoms: C26_34  and  C30_40 
REMARK   12  A    between atoms: C27_35  and  C28_36 
REMARK   13  A    between atoms: C28_36  and  C29_37 
REMARK       I    between atoms: C29_37  and  N2_38 
REMARK   14  A    between atoms: C30_40  and  O10_42 
ROOT
HETATM    1  C20 UNL     1       2.093   6.318  12.073  1.00  0.00     0.185 C 
HETATM    2  O4  UNL     1       2.551   5.487  11.283  1.00  0.00    -0.292 OA
ENDROOT
BRANCH   1   3
HETATM    3  C19 UNL     1       0.788   6.053  12.879  1.00  0.00     0.128 C 
HETATM    4  C14 UNL     1      -0.380   5.438  12.040  1.00  0.00     0.005 C 
HETATM    5  C13 UNL     1      -0.386   3.911  11.898  1.00  0.00     0.091 C 
HETATM    6  C15 UNL     1      -0.434   6.075  10.624  1.00  0.00     0.019 C 
HETATM    7  C16 UNL     1      -1.592   5.815  12.931  1.00  0.00     0.002 C 
HETATM    8  C12 UNL     1      -1.720   3.438  11.333  1.00  0.00     0.133 C 
HETATM    9  C11 UNL     1      -2.991   3.896  12.079  1.00  0.00     0.072 C 
HETATM   10  O2  UNL     1      -1.729   2.664  10.379  1.00  0.00    -0.297 OA
HETATM   11  C2  UNL     1      -4.352   3.404  11.463  1.00  0.00    -0.009 C 
HETATM   12  C10 UNL     1      -2.946   5.435  12.311  1.00  0.00     0.003 C 
HETATM   13  C1  UNL     1      -4.542   3.869  10.000  1.00  0.00     0.021 C 
HETATM   14  C3  UNL     1      -4.398   1.847  11.527  1.00  0.00     0.022 C 
HETATM   15  C7  UNL     1      -5.511   3.988  12.292  1.00  0.00    -0.067 C 
HETATM   16  C4  UNL     1      -5.792   1.263  11.335  1.00  0.00     0.084 C 
HETATM   17  C5  UNL     1      -6.741   1.845  12.347  1.00  0.00     0.149 C 
HETATM   18  O1  UNL     1      -7.682   1.210  12.816  1.00  0.00    -0.293 OA
HETATM   19  C6  UNL     1      -6.563   3.266  12.722  1.00  0.00     0.053 C 
HETATM   20  C8  UNL     1      -5.451   5.465  12.606  1.00  0.00     0.035 C 
HETATM   21  C9  UNL     1      -4.111   5.863  13.212  1.00  0.00     0.010 C 
HETATM   22  C17 UNL     1      -1.349   7.281  13.257  1.00  0.00     0.009 C 
HETATM   23  C18 UNL     1       0.179   7.387  13.410  1.00  0.00     0.047 C 
BRANCH   3  24
HETATM   24  O3  UNL     1       1.018   5.252  14.044  1.00  0.00    -0.381 OA
HETATM   25  H25 UNL     1       1.480   4.440  13.770  1.00  0.00     0.211 HD
ENDBRANCH   3  24
ENDBRANCH   1   3
BRANCH   1  26
HETATM   26  C21 UNL     1       2.898   7.574  12.405  1.00  0.00     0.260 C 
BRANCH  26  27
HETATM   27  O5  UNL     1       3.284   8.356  11.275  1.00  0.00    -0.314 OA
BRANCH  27  28
HETATM   28  C22 UNL     1       4.343   9.187  11.502  1.00  0.00     0.259 C 
HETATM   29  O6  UNL     1       4.413   9.982  12.425  1.00  0.00    -0.265 OA
BRANCH  28  30
HETATM   30  C23 UNL     1       5.481   8.911  10.544  1.00  0.00     0.120 C 
BRANCH  30  31
HETATM   31  C24 UNL     1       6.429   7.804  10.995  1.00  0.00     0.112 C 
BRANCH  31  32
HETATM   32  C25 UNL     1       7.108   8.140  12.307  1.00  0.00     0.218 C 
HETATM   33  O7  UNL     1       8.151   8.775  12.384  1.00  0.00    -0.274 OA
HETATM   34  N1  UNL     1       6.440   7.653  13.404  1.00  0.00    -0.347 N 
HETATM   35  H32 UNL     1       5.699   6.970  13.287  1.00  0.00     0.163 HD
BRANCH  34  36
HETATM   36  C26 UNL     1       6.951   7.825  14.767  1.00  0.00     0.182 C 
BRANCH  36  37
HETATM   37  C27 UNL     1       8.475   7.666  14.827  1.00  0.00     0.045 C 
BRANCH  37  38
HETATM   38  C28 UNL     1       9.126   8.425  15.987  1.00  0.00     0.105 C 
BRANCH  38  39
HETATM   39  C29 UNL     1       9.881   9.647  15.509  1.00  0.00     0.215 C 
HETATM   40  N2  UNL     1      10.983   9.360  14.755  1.00  0.00    -0.370 N 
HETATM   41  H38 UNL     1      11.138   8.447  14.352  1.00  0.00     0.159 HD
HETATM   42  H39 UNL     1      11.478  10.148  14.354  1.00  0.00     0.159 HD
HETATM   43  O8  UNL     1       9.567  10.804  15.751  1.00  0.00    -0.274 OA
ENDBRANCH  38  39
ENDBRANCH  37  38
ENDBRANCH  36  37
BRANCH  36  44
HETATM   44  C30 UNL     1       6.516   9.180  15.337  1.00  0.00     0.163 C 
HETATM   45  O9  UNL     1       6.070   9.394  16.453  1.00  0.00    -0.648 OA
BRANCH  44  46
HETATM   46  O10 UNL     1       6.691  10.210  14.474  1.00  0.00    -0.775 OA
HETATM   47  H40 UNL     1       6.350  10.984  14.973  1.00  0.00     0.167 HD
ENDBRANCH  44  46
ENDBRANCH  36  44
ENDBRANCH  34  36
ENDBRANCH  31  32
ENDBRANCH  30  31
ENDBRANCH  28  30
ENDBRANCH  27  28
ENDBRANCH  26  27
ENDBRANCH   1  26
TORSDOF 14
ENDMDL
MODEL 3
REMARK minimizedAffinity -9.28566456
REMARK CNNscore 0.478060395
REMARK CNNaffinity 7.28717947
REMARK  14 active torsions:
REMARK  status: ('A' for Active; 'I' for Inactive)
REMARK    1  A    between atoms: C19_21  and  O3_22 
REMARK    2  A    between atoms: C19_21  and  C20_23 
REMARK    3  A    between atoms: C20_23  and  C21_25 
REMARK    4  A    between atoms: C21_25  and  O5_26 
REMARK    5  A    between atoms: O5_26  and  C22_27 
REMARK    6  A    between atoms: C22_27  and  C23_29 
REMARK    7  A    between atoms: C23_29  and  C24_30 
REMARK    8  A    between atoms: C24_30  and  C25_31 
REMARK       I    between atoms: C25_31  and  N1_33 
REMARK    9  A    between atoms: N1_33  and  C26_34 
REMARK   10  A    between atoms: C26_34  and  C27_35 
REMARK   11  A    between atoms: C26_34  and  C30_40 
REMARK   12  A    between atoms: C27_35  and  C28_36 
REMARK   13  A    between atoms: C28_36  and  C29_37 
REMARK       I    between atoms: C29_37  and  N2_38 
REMARK   14  A    between atoms: C30_40  and  O10_42 
ROOT
HETATM    1  C20 UNL     1      -0.464   6.622  13.694  1.00  0.00     0.185 C 
HETATM    2  O4  UNL     1      -0.340   6.574  14.921  1.00  0.00    -0.292 OA
ENDROOT
BRANCH   1   3
HETATM    3  C19 UNL     1      -1.853   6.503  13.001  1.00  0.00     0.128 C 
HETATM    4  C14 UNL     1      -3.073   6.647  13.969  1.00  0.00     0.005 C 
HETATM    5  C13 UNL     1      -3.553   8.076  14.252  1.00  0.00     0.091 C 
HETATM    6  C15 UNL     1      -2.793   5.933  15.319  1.00  0.00     0.019 C 
HETATM    7  C16 UNL     1      -4.179   5.958  13.125  1.00  0.00     0.002 C 
HETATM    8  C12 UNL     1      -4.910   8.050  14.944  1.00  0.00     0.133 C 
HETATM    9  C11 UNL     1      -6.032   7.256  14.242  1.00  0.00     0.072 C 
HETATM   10  O2  UNL     1      -5.078   8.713  15.965  1.00  0.00    -0.297 OA
HETATM   11  C2  UNL     1      -7.417   7.236  14.988  1.00  0.00    -0.009 C 
HETATM   12  C10 UNL     1      -5.521   5.835  13.864  1.00  0.00     0.003 C 
HETATM   13  C1  UNL     1      -7.314   6.637  16.410  1.00  0.00     0.021 C 
HETATM   14  C3  UNL     1      -7.962   8.695  15.073  1.00  0.00     0.022 C 
HETATM   15  C7  UNL     1      -8.400   6.365  14.184  1.00  0.00    -0.067 C 
HETATM   16  C4  UNL     1      -9.445   8.779  15.408  1.00  0.00     0.084 C 
HETATM   17  C5  UNL     1     -10.247   7.990  14.409  1.00  0.00     0.149 C 
HETATM   18  O1  UNL     1     -11.380   8.316  14.063  1.00  0.00    -0.293 OA
HETATM   19  C6  UNL     1      -9.662   6.733  13.892  1.00  0.00     0.053 C 
HETATM   20  C8  UNL     1      -7.901   5.013  13.730  1.00  0.00     0.035 C 
HETATM   21  C9  UNL     1      -6.566   5.113  13.004  1.00  0.00     0.010 C 
HETATM   22  C17 UNL     1      -3.512   4.676  12.649  1.00  0.00     0.009 C 
HETATM   23  C18 UNL     1      -2.050   5.082  12.388  1.00  0.00     0.047 C 
BRANCH   3  24
HETATM   24  O3  UNL     1      -1.997   7.412  11.905  1.00  0.00    -0.381 OA
HETATM   25  H25 UNL     1      -1.795   8.310  12.223  1.00  0.00     0.211 HD
ENDBRANCH   3  24
ENDBRANCH   1   3
BRANCH   1  26
HETATM   26  C21 UNL     1       0.743   6.972  12.823  1.00  0.00     0.260 C 
BRANCH  26  27
HETATM   27  O5  UNL     1       1.603   5.873  12.520  1.00  0.00    -0.314 OA
BRANCH  27  28
HETATM   28  C22 UNL     1       1.388   5.313  11.294  1.00  0.00     0.259 C 
HETATM   29  O6  UNL     1       1.230   4.119  11.098  1.00  0.00    -0.265 OA
BRANCH  28  30
HETATM   30  C23 UNL     1       1.239   6.368  10.220  1.00  0.00     0.120 C 
BRANCH  30  31
HETATM   31  C24 UNL     1       2.295   6.300   9.121  1.00  0.00     0.112 C 
BRANCH  31  32
HETATM   32  C25 UNL     1       3.456   7.235   9.392  1.00  0.00     0.218 C 
HETATM   33  O7  UNL     1       3.582   8.328   8.857  1.00  0.00    -0.274 OA
HETATM   34  N1  UNL     1       4.359   6.729  10.295  1.00  0.00    -0.347 N 
HETATM   35  H32 UNL     1       4.323   5.750  10.558  1.00  0.00     0.163 HD
BRANCH  34  36
HETATM   36  C26 UNL     1       5.581   7.452  10.662  1.00  0.00     0.182 C 
BRANCH  36  37
HETATM   37  C27 UNL     1       5.333   8.444  11.805  1.00  0.00     0.045 C 
BRANCH  37  38
HETATM   38  C28 UNL     1       4.604   7.829  13.004  1.00  0.00     0.105 C 
BRANCH  38  39
HETATM   39  C29 UNL     1       5.422   7.929  14.274  1.00  0.00     0.215 C 
HETATM   40  N2  UNL     1       6.206   6.838  14.517  1.00  0.00    -0.370 N 
HETATM   41  H38 UNL     1       6.409   6.150  13.806  1.00  0.00     0.159 HD
HETATM   42  H39 UNL     1       6.824   6.891  15.318  1.00  0.00     0.159 HD
HETATM   43  O8  UNL     1       5.412   8.882  15.040  1.00  0.00    -0.274 OA
ENDBRANCH  38  39
ENDBRANCH  37  38
ENDBRANCH  36  37
BRANCH  36  44
HETATM   44  C30 UNL     1       6.701   6.468  11.019  1.00  0.00     0.163 C 
HETATM   45  O9  UNL     1       7.734   6.721  11.618  1.00  0.00    -0.648 OA
BRANCH  44  46
HETATM   46  O10 UNL     1       6.448   5.197  10.623  1.00  0.00    -0.775 OA
HETATM   47  H40 UNL     1       7.254   4.709  10.900  1.00  0.00     0.167 HD
ENDBRANCH  44  46
ENDBRANCH  36  44
ENDBRANCH  34  36
ENDBRANCH  31  32
ENDBRANCH  30  31
ENDBRANCH  28  30
ENDBRANCH  27  28
ENDBRANCH  26  27
ENDBRANCH   1  26
TORSDOF 14
ENDMDL
MODEL 4
REMARK minimizedAffinity -8.16773796
REMARK CNNscore 0.442898005
REMARK CNNaffinity 7.27825356
REMARK  14 active torsions:
REMARK  status: ('A' for Active; 'I' for Inactive)
REMARK    1  A    between atoms: C19_21  and  O3_22 
REMARK    2  A    between atoms: C19_21  and  C20_23 
REMARK    3  A    between atoms: C20_23  and  C21_25 
REMARK    4  A    between atoms: C21_25  and  O5_26 
REMARK    5  A    between atoms: O5_26  and  C22_27 
REMARK    6  A    between atoms: C22_27  and  C23_29 
REMARK    7  A    between atoms: C23_29  and  C24_30 
REMARK    8  A    between atoms: C24_30  and  C25_31 
REMARK       I    between atoms: C25_31  and  N1_33 
REMARK    9  A    between atoms: N1_33  and  C26_34 
REMARK   10  A    between atoms: C26_34  and  C27_35 
REMARK   11  A    between atoms: C26_34  and  C30_40 
REMARK   12  A    between atoms: C27_35  and  C28_36 
REMARK   13  A    between atoms: C28_36  and  C29_37 
REMARK       I    between atoms: C29_37  and  N2_38 
REMARK   14  A    between atoms: C30_40  and  O10_42 
ROOT
HETATM    1  C20 UNL     1       2.007   8.896  14.235  1.00  0.00     0.185 C 
HETATM    2  O4  UNL     1       3.167   9.039  14.633  1.00  0.00    -0.292 OA
ENDROOT
BRANCH   1   3
HETATM    3  C19 UNL     1       0.805   8.801  15.219  1.00  0.00     0.128 C 
HETATM    4  C14 UNL     1      -0.581   8.574  14.529  1.00  0.00     0.005 C 
HETATM    5  C13 UNL     1      -0.961   7.119  14.227  1.00  0.00     0.091 C 
HETATM    6  C15 UNL     1      -0.686   9.403  13.220  1.00  0.00     0.019 C 
HETATM    7  C16 UNL     1      -1.533   9.068  15.650  1.00  0.00     0.002 C 
HETATM    8  C12 UNL     1      -2.434   7.026  13.851  1.00  0.00     0.133 C 
HETATM    9  C11 UNL     1      -3.446   7.631  14.847  1.00  0.00     0.072 C 
HETATM   10  O2  UNL     1      -2.758   6.415  12.834  1.00  0.00    -0.297 OA
HETATM   11  C2  UNL     1      -4.957   7.532  14.423  1.00  0.00    -0.009 C 
HETATM   12  C10 UNL     1      -3.013   9.076  15.232  1.00  0.00     0.003 C 
HETATM   13  C1  UNL     1      -5.239   8.230  13.073  1.00  0.00     0.021 C 
HETATM   14  C3  UNL     1      -5.354   6.027  14.326  1.00  0.00     0.022 C 
HETATM   15  C7  UNL     1      -5.819   8.223  15.496  1.00  0.00    -0.067 C 
HETATM   16  C4  UNL     1      -6.857   5.785  14.313  1.00  0.00     0.084 C 
HETATM   17  C5  UNL     1      -7.492   6.405  15.529  1.00  0.00     0.149 C 
HETATM   18  O1  UNL     1      -8.478   5.923  16.080  1.00  0.00    -0.293 OA
HETATM   19  C6  UNL     1      -6.938   7.687  16.018  1.00  0.00     0.053 C 
HETATM   20  C8  UNL     1      -5.374   9.593  15.951  1.00  0.00     0.035 C 
HETATM   21  C9  UNL     1      -3.907   9.608  16.359  1.00  0.00     0.010 C 
HETATM   22  C17 UNL     1      -0.913  10.387  16.084  1.00  0.00     0.009 C 
HETATM   23  C18 UNL     1       0.604  10.144  15.986  1.00  0.00     0.047 C 
BRANCH   3  24
HETATM   24  O3  UNL     1       1.005   7.811  16.234  1.00  0.00    -0.381 OA
HETATM   25  H25 UNL     1       1.223   6.968  15.800  1.00  0.00     0.211 HD
ENDBRANCH   3  24
ENDBRANCH   1   3
BRANCH   1  26
HETATM   26  C21 UNL     1       1.704   8.976  12.739  1.00  0.00     0.260 C 
BRANCH  26  27
HETATM   27  O5  UNL     1       1.835   7.742  12.032  1.00  0.00    -0.314 OA
BRANCH  27  28
HETATM   28  C22 UNL     1       1.202   7.717  10.823  1.00  0.00     0.259 C 
HETATM   29  O6  UNL     1       0.957   8.706  10.151  1.00  0.00    -0.265 OA
BRANCH  28  30
HETATM   30  C23 UNL     1       0.957   6.301  10.354  1.00  0.00     0.120 C 
BRANCH  30  31
HETATM   31  C24 UNL     1       1.449   5.225  11.317  1.00  0.00     0.112 C 
BRANCH  31  32
HETATM   32  C25 UNL     1       0.301   4.475  11.963  1.00  0.00     0.218 C 
HETATM   33  O7  UNL     1       0.104   4.453  13.171  1.00  0.00    -0.274 OA
HETATM   34  N1  UNL     1      -0.494   3.815  11.058  1.00  0.00    -0.347 N 
HETATM   35  H32 UNL     1      -0.183   3.696  10.099  1.00  0.00     0.163 HD
BRANCH  34  36
HETATM   36  C26 UNL     1      -1.631   2.990  11.476  1.00  0.00     0.182 C 
BRANCH  36  37
HETATM   37  C27 UNL     1      -2.959   3.540  10.943  1.00  0.00     0.045 C 
BRANCH  37  38
HETATM   38  C28 UNL     1      -4.086   3.535  11.980  1.00  0.00     0.105 C 
BRANCH  38  39
HETATM   39  C29 UNL     1      -5.419   3.164  11.364  1.00  0.00     0.215 C 
HETATM   40  N2  UNL     1      -5.317   2.381  10.250  1.00  0.00    -0.370 N 
HETATM   41  H38 UNL     1      -4.465   1.895  10.008  1.00  0.00     0.159 HD
HETATM   42  H39 UNL     1      -6.185   2.050   9.846  1.00  0.00     0.159 HD
HETATM   43  O8  UNL     1      -6.510   3.513  11.792  1.00  0.00    -0.274 OA
ENDBRANCH  38  39
ENDBRANCH  37  38
ENDBRANCH  36  37
BRANCH  36  44
HETATM   44  C30 UNL     1      -1.424   1.533  11.046  1.00  0.00     0.163 C 
HETATM   45  O9  UNL     1      -0.371   1.008  10.723  1.00  0.00    -0.648 OA
BRANCH  44  46
HETATM   46  O10 UNL     1      -2.562   0.797  11.071  1.00  0.00    -0.775 OA
HETATM   47  H40 UNL     1      -2.269  -0.084  10.753  1.00  0.00     0.167 HD
ENDBRANCH  44  46
ENDBRANCH  36  44
ENDBRANCH  34  36
ENDBRANCH  31  32
ENDBRANCH  30  31
ENDBRANCH  28  30
ENDBRANCH  27  28
ENDBRANCH  26  27
ENDBRANCH   1  26
TORSDOF 14
ENDMDL
MODEL 5
REMARK minimizedAffinity -8.97574806
REMARK CNNscore 0.430226535
REMARK CNNaffinity 6.90721464
REMARK  14 active torsions:
REMARK  status: ('A' for Active; 'I' for Inactive)
REMARK    1  A    between atoms: C19_21  and  O3_22 
REMARK    2  A    between atoms: C19_21  and  C20_23 
REMARK    3  A    between atoms: C20_23  and  C21_25 
REMARK    4  A    between atoms: C21_25  and  O5_26 
REMARK    5  A    between atoms: O5_26  and  C22_27 
REMARK    6  A    between atoms: C22_27  and  C23_29 
REMARK    7  A    between atoms: C23_29  and  C24_30 
REMARK    8  A    between atoms: C24_30  and  C25_31 
REMARK       I    between atoms: C25_31  and  N1_33 
REMARK    9  A    between atoms: N1_33  and  C26_34 
REMARK   10  A    between atoms: C26_34  and  C27_35 
REMARK   11  A    between atoms: C26_34  and  C30_40 
REMARK   12  A    between atoms: C27_35  and  C28_36 
REMARK   13  A    between atoms: C28_36  and  C29_37 
REMARK       I    between atoms: C29_37  and  N2_38 
REMARK   14  A    between atoms: C30_40  and  O10_42 
ROOT
HETATM    1  C20 UNL     1       0.628   6.597  12.836  1.00  0.00     0.185 C 
HETATM    2  O4  UNL     1       1.217   5.836  13.609  1.00  0.00    -0.292 OA
ENDROOT
BRANCH   1   3
HETATM    3  C19 UNL     1      -0.749   6.230  12.210  1.00  0.00     0.128 C 
HETATM    4  C14 UNL     1      -1.947   6.261  13.215  1.00  0.00     0.005 C 
HETATM    5  C13 UNL     1      -2.623   7.621  13.427  1.00  0.00     0.091 C 
HETATM    6  C15 UNL     1      -1.522   5.689  14.595  1.00  0.00     0.019 C 
HETATM    7  C16 UNL     1      -2.964   5.362  12.463  1.00  0.00     0.002 C 
HETATM    8  C12 UNL     1      -3.939   7.446  14.174  1.00  0.00     0.133 C 
HETATM    9  C11 UNL     1      -4.953   6.451  13.570  1.00  0.00     0.072 C 
HETATM   10  O2  UNL     1      -4.172   8.146  15.157  1.00  0.00    -0.297 OA
HETATM   11  C2  UNL     1      -6.296   6.281  14.371  1.00  0.00    -0.009 C 
HETATM   12  C10 UNL     1      -4.249   5.096  13.262  1.00  0.00     0.003 C 
HETATM   13  C1  UNL     1      -6.062   5.802  15.823  1.00  0.00     0.021 C 
HETATM   14  C3  UNL     1      -7.047   7.647  14.387  1.00  0.00     0.022 C 
HETATM   15  C7  UNL     1      -7.164   5.223  13.665  1.00  0.00    -0.067 C 
HETATM   16  C4  UNL     1      -8.516   7.538  14.775  1.00  0.00     0.084 C 
HETATM   17  C5  UNL     1      -9.223   6.575  13.862  1.00  0.00     0.149 C 
HETATM   18  O1  UNL     1     -10.402   6.707  13.543  1.00  0.00    -0.293 OA
HETATM   19  C6  UNL     1      -8.475   5.383  13.403  1.00  0.00     0.053 C 
HETATM   20  C8  UNL     1      -6.486   3.930  13.278  1.00  0.00     0.035 C 
HETATM   21  C9  UNL     1      -5.203   4.173  12.493  1.00  0.00     0.010 C 
HETATM   22  C17 UNL     1      -2.130   4.162  12.042  1.00  0.00     0.009 C 
HETATM   23  C18 UNL     1      -0.754   4.757  11.696  1.00  0.00     0.047 C 
BRANCH   3  24
HETATM   24  O3  UNL     1      -1.060   7.031  11.064  1.00  0.00    -0.381 OA
HETATM   25  H25 UNL     1      -0.983   7.968  11.317  1.00  0.00     0.211 HD
ENDBRANCH   3  24
ENDBRANCH   1   3
BRANCH   1  26
HETATM   26  C21 UNL     1       1.167   8.008  12.603  1.00  0.00     0.260 C 
BRANCH  26  27
HETATM   27  O5  UNL     1       2.343   8.076  11.795  1.00  0.00    -0.314 OA
BRANCH  27  28
HETATM   28  C22 UNL     1       2.104   8.034  10.452  1.00  0.00     0.259 C 
HETATM   29  O6  UNL     1       1.144   8.553   9.903  1.00  0.00    -0.265 OA
BRANCH  28  30
HETATM   30  C23 UNL     1       3.243   7.375   9.706  1.00  0.00     0.120 C 
BRANCH  30  31
HETATM   31  C24 UNL     1       4.096   6.441  10.558  1.00  0.00     0.112 C 
BRANCH  31  32
HETATM   32  C25 UNL     1       5.420   7.073  10.940  1.00  0.00     0.218 C 
HETATM   33  O7  UNL     1       6.490   6.749  10.443  1.00  0.00    -0.274 OA
HETATM   34  N1  UNL     1       5.299   8.042  11.905  1.00  0.00    -0.347 N 
HETATM   35  H32 UNL     1       4.434   8.137  12.427  1.00  0.00     0.163 HD
BRANCH  34  36
HETATM   36  C26 UNL     1       6.463   8.745  12.452  1.00  0.00     0.182 C 
BRANCH  36  37
HETATM   37  C27 UNL     1       7.606   7.779  12.788  1.00  0.00     0.045 C 
BRANCH  37  38
HETATM   38  C28 UNL     1       8.037   7.825  14.257  1.00  0.00     0.105 C 
BRANCH  38  39
HETATM   39  C29 UNL     1       9.535   7.997  14.400  1.00  0.00     0.215 C 
HETATM   40  N2  UNL     1       9.968   8.039  15.694  1.00  0.00    -0.370 N 
HETATM   41  H38 UNL     1       9.390   7.739  16.467  1.00  0.00     0.159 HD
HETATM   42  H39 UNL     1      10.970   8.082  15.838  1.00  0.00     0.159 HD
HETATM   43  O8  UNL     1      10.321   8.093  13.469  1.00  0.00    -0.274 OA
ENDBRANCH  38  39
ENDBRANCH  37  38
ENDBRANCH  36  37
BRANCH  36  44
HETATM   44  C30 UNL     1       6.932   9.839  11.487  1.00  0.00     0.163 C 
HETATM   45  O9  UNL     1       6.269  10.380  10.616  1.00  0.00    -0.648 OA
BRANCH  44  46
HETATM   46  O10 UNL     1       8.218  10.220  11.687  1.00  0.00    -0.775 OA
HETATM   47  H40 UNL     1       8.365  10.895  10.988  1.00  0.00     0.167 HD
ENDBRANCH  44  46
ENDBRANCH  36  44
ENDBRANCH  34  36
ENDBRANCH  31  32
ENDBRANCH  30  31
ENDBRANCH  28  30
ENDBRANCH  27  28
ENDBRANCH  26  27
ENDBRANCH   1  26
TORSDOF 14
ENDMDL
MODEL 6
REMARK minimizedAffinity -7.54298306
REMARK CNNscore 0.38934356
REMARK CNNaffinity 6.34271622
REMARK  14 active torsions:
REMARK  status: ('A' for Active; 'I' for Inactive)
REMARK    1  A    between atoms: C19_21  and  O3_22 
REMARK    2  A    between atoms: C19_21  and  C20_23 
REMARK    3  A    between atoms: C20_23  and  C21_25 
REMARK    4  A    between atoms: C21_25  and  O5_26 
REMARK    5  A    between atoms: O5_26  and  C22_27 
REMARK    6  A    between atoms: C22_27  and  C23_29 
REMARK    7  A    between atoms: C23_29  and  C24_30 
REMARK    8  A    between atoms: C24_30  and  C25_31 
REMARK       I    between atoms: C25_31  and  N1_33 
REMARK    9  A    between atoms: N1_33  and  C26_34 
REMARK   10  A    between atoms: C26_34  and  C27_35 
REMARK   11  A    between atoms: C26_34  and  C30_40 
REMARK   12  A    between atoms: C27_35  and  C28_36 
REMARK   13  A    between atoms: C28_36  and  C29_37 
REMARK       I    between atoms: C29_37  and  N2_38 
REMARK   14  A    between atoms: C30_40  and  O10_42 
ROOT
HETATM    1  C20 UNL     1      -1.403  11.558  18.641  1.00  0.00     0.185 C 
HETATM    2  O4  UNL     1      -1.224  12.741  18.335  1.00  0.00    -0.292 OA
ENDROOT
BRANCH   1   3
HETATM    3  C19 UNL     1      -2.635  10.754  18.133  1.00  0.00     0.128 C 
HETATM    4  C14 UNL     1      -2.356   9.870  16.873  1.00  0.00     0.005 C 
HETATM    5  C13 UNL     1      -1.792   8.468  17.136  1.00  0.00     0.091 C 
HETATM    6  C15 UNL     1      -1.421  10.610  15.877  1.00  0.00     0.019 C 
HETATM    7  C16 UNL     1      -3.801   9.684  16.339  1.00  0.00     0.002 C 
HETATM    8  C12 UNL     1      -1.863   7.624  15.870  1.00  0.00     0.133 C 
HETATM    9  C11 UNL     1      -3.242   7.509  15.187  1.00  0.00     0.072 C 
HETATM   10  O2  UNL     1      -0.862   7.016  15.495  1.00  0.00    -0.297 OA
HETATM   11  C2  UNL     1      -3.279   6.644  13.874  1.00  0.00    -0.009 C 
HETATM   12  C10 UNL     1      -3.864   8.925  15.004  1.00  0.00     0.003 C 
HETATM   13  C1  UNL     1      -2.323   7.182  12.785  1.00  0.00     0.021 C 
HETATM   14  C3  UNL     1      -2.893   5.175  14.230  1.00  0.00     0.022 C 
HETATM   15  C7  UNL     1      -4.708   6.676  13.300  1.00  0.00    -0.067 C 
HETATM   16  C4  UNL     1      -3.264   4.163  13.155  1.00  0.00     0.084 C 
HETATM   17  C5  UNL     1      -4.735   4.246  12.851  1.00  0.00     0.149 C 
HETATM   18  O1  UNL     1      -5.401   3.268  12.521  1.00  0.00    -0.293 OA
HETATM   19  C6  UNL     1      -5.371   5.583  12.880  1.00  0.00     0.053 C 
HETATM   20  C8  UNL     1      -5.370   8.030  13.189  1.00  0.00     0.035 C 
HETATM   21  C9  UNL     1      -5.308   8.802  14.501  1.00  0.00     0.010 C 
HETATM   22  C17 UNL     1      -4.377  11.091  16.382  1.00  0.00     0.009 C 
HETATM   23  C18 UNL     1      -3.767  11.713  17.651  1.00  0.00     0.047 C 
BRANCH   3  24
HETATM   24  O3  UNL     1      -3.229   9.954  19.161  1.00  0.00    -0.381 OA
HETATM   25  H25 UNL     1      -2.533   9.398  19.555  1.00  0.00     0.211 HD
ENDBRANCH   3  24
ENDBRANCH   1   3
BRANCH   1  26
HETATM   26  C21 UNL     1      -0.316  10.799  19.402  1.00  0.00     0.260 C 
BRANCH  26  27
HETATM   27  O5  UNL     1       0.789  11.597  19.826  1.00  0.00    -0.314 OA
BRANCH  27  28
HETATM   28  C22 UNL     1       1.878  10.879  20.229  1.00  0.00     0.259 C 
HETATM   29  O6  UNL     1       2.369   9.956  19.600  1.00  0.00    -0.265 OA
BRANCH  28  30
HETATM   30  C23 UNL     1       2.485  11.453  21.491  1.00  0.00     0.120 C 
BRANCH  30  31
HETATM   31  C24 UNL     1       3.946  11.073  21.714  1.00  0.00     0.112 C 
BRANCH  31  32
HETATM   32  C25 UNL     1       4.893  12.023  21.009  1.00  0.00     0.218 C 
HETATM   33  O7  UNL     1       4.671  13.220  20.873  1.00  0.00    -0.274 OA
HETATM   34  N1  UNL     1       6.022  11.407  20.530  1.00  0.00    -0.347 N 
HETATM   35  H32 UNL     1       6.072  10.394  20.488  1.00  0.00     0.163 HD
BRANCH  34  36
HETATM   36  C26 UNL     1       7.046  12.135  19.774  1.00  0.00     0.182 C 
BRANCH  36  37
HETATM   37  C27 UNL     1       8.372  12.213  20.540  1.00  0.00     0.045 C 
BRANCH  37  38
HETATM   38  C28 UNL     1       8.548  13.512  21.333  1.00  0.00     0.105 C 
BRANCH  38  39
HETATM   39  C29 UNL     1       8.316  13.304  22.814  1.00  0.00     0.215 C 
HETATM   40  N2  UNL     1       7.011  13.433  23.195  1.00  0.00    -0.370 N 
HETATM   41  H38 UNL     1       6.251  13.420  22.530  1.00  0.00     0.159 HD
HETATM   42  H39 UNL     1       6.798  13.233  24.165  1.00  0.00     0.159 HD
HETATM   43  O8  UNL     1       9.188  13.044  23.631  1.00  0.00    -0.274 OA
ENDBRANCH  38  39
ENDBRANCH  37  38
ENDBRANCH  36  37
BRANCH  36  44
HETATM   44  C30 UNL     1       7.244  11.503  18.392  1.00  0.00     0.163 C 
HETATM   45  O9  UNL     1       7.446  12.091  17.341  1.00  0.00    -0.648 OA
BRANCH  44  46
HETATM   46  O10 UNL     1       7.205  10.149  18.408  1.00  0.00    -0.775 OA
HETATM   47  H40 UNL     1       7.322   9.908  17.463  1.00  0.00     0.167 HD
ENDBRANCH  44  46
ENDBRANCH  36  44
ENDBRANCH  34  36
ENDBRANCH  31  32
ENDBRANCH  30  31
ENDBRANCH  28  30
ENDBRANCH  27  28
ENDBRANCH  26  27
ENDBRANCH   1  26
TORSDOF 14
ENDMDL
MODEL 7
REMARK minimizedAffinity -8.38672352
REMARK CNNscore 0.386840105
REMARK CNNaffinity 6.17973471
REMARK  14 active torsions:
REMARK  status: ('A' for Active; 'I' for Inactive)
REMARK    1  A    between atoms: C19_21  and  O3_22 
REMARK    2  A    between atoms: C19_21  and  C20_23 
REMARK    3  A    between atoms: C20_23  and  C21_25 
REMARK    4  A    between atoms: C21_25  and  O5_26 
REMARK    5  A    between atoms: O5_26  and  C22_27 
REMARK    6  A    between atoms: C22_27  and  C23_29 
REMARK    7  A    between atoms: C23_29  and  C24_30 
REMARK    8  A    between atoms: C24_30  and  C25_31 
REMARK       I    between atoms: C25_31  and  N1_33 
REMARK    9  A    between atoms: N1_33  and  C26_34 
REMARK   10  A    between atoms: C26_34  and  C27_35 
REMARK   11  A    between atoms: C26_34  and  C30_40 
REMARK   12  A    between atoms: C27_35  and  C28_36 
REMARK   13  A    between atoms: C28_36  and  C29_37 
REMARK       I    between atoms: C29_37  and  N2_38 
REMARK   14  A    between atoms: C30_40  and  O10_42 
ROOT
HETATM    1  C20 UNL     1       2.217   9.292  15.304  1.00  0.00     0.185 C 
HETATM    2  O4  UNL     1       3.345   8.935  14.953  1.00  0.00    -0.292 OA
ENDROOT
BRANCH   1   3
HETATM    3  C19 UNL     1       1.065   8.270  15.532  1.00  0.00     0.128 C 
HETATM    4  C14 UNL     1       0.599   7.520  14.241  1.00  0.00     0.005 C 
HETATM    5  C13 UNL     1       1.385   6.258  13.866  1.00  0.00     0.091 C 
HETATM    6  C15 UNL     1       0.581   8.483  13.022  1.00  0.00     0.019 C 
HETATM    7  C16 UNL     1      -0.815   7.059  14.683  1.00  0.00     0.002 C 
HETATM    8  C12 UNL     1       0.644   5.474  12.790  1.00  0.00     0.133 C 
HETATM    9  C11 UNL     1      -0.824   5.102  13.088  1.00  0.00     0.072 C 
HETATM   10  O2  UNL     1       1.251   5.107  11.787  1.00  0.00    -0.297 OA
HETATM   11  C2  UNL     1      -1.566   4.306  11.953  1.00  0.00    -0.009 C 
HETATM   12  C10 UNL     1      -1.605   6.363  13.563  1.00  0.00     0.003 C 
HETATM   13  C1  UNL     1      -1.601   5.080  10.615  1.00  0.00     0.021 C 
HETATM   14  C3  UNL     1      -0.848   2.938  11.747  1.00  0.00     0.022 C 
HETATM   15  C7  UNL     1      -3.023   4.063  12.389  1.00  0.00    -0.067 C 
HETATM   16  C4  UNL     1      -1.675   1.918  10.975  1.00  0.00     0.084 C 
HETATM   17  C5  UNL     1      -2.999   1.704  11.655  1.00  0.00     0.149 C 
HETATM   18  O1  UNL     1      -3.583   0.623  11.645  1.00  0.00    -0.293 OA
HETATM   19  C6  UNL     1      -3.647   2.874  12.290  1.00  0.00     0.053 C 
HETATM   20  C8  UNL     1      -3.781   5.252  12.934  1.00  0.00     0.035 C 
HETATM   21  C9  UNL     1      -3.008   5.961  14.038  1.00  0.00     0.010 C 
HETATM   22  C17 UNL     1      -1.417   8.310  15.302  1.00  0.00     0.009 C 
HETATM   23  C18 UNL     1      -0.233   8.990  16.012  1.00  0.00     0.047 C 
BRANCH   3  24
HETATM   24  O3  UNL     1       1.372   7.319  16.558  1.00  0.00    -0.381 OA
HETATM   25  H25 UNL     1       2.226   6.904  16.344  1.00  0.00     0.211 HD
ENDBRANCH   3  24
ENDBRANCH   1   3
BRANCH   1  26
HETATM   26  C21 UNL     1       1.968  10.750  15.690  1.00  0.00     0.260 C 
BRANCH  26  27
HETATM   27  O5  UNL     1       2.631  11.178  16.880  1.00  0.00    -0.314 OA
BRANCH  27  28
HETATM   28  C22 UNL     1       2.021  10.785  18.036  1.00  0.00     0.259 C 
HETATM   29  O6  UNL     1       2.313   9.780  18.665  1.00  0.00    -0.265 OA
BRANCH  28  30
HETATM   30  C23 UNL     1       1.022  11.815  18.515  1.00  0.00     0.120 C 
BRANCH  30  31
HETATM   31  C24 UNL     1       0.627  11.673  19.981  1.00  0.00     0.112 C 
BRANCH  31  32
HETATM   32  C25 UNL     1       1.720  12.159  20.912  1.00  0.00     0.218 C 
HETATM   33  O7  UNL     1       1.692  13.243  21.479  1.00  0.00    -0.274 OA
HETATM   34  N1  UNL     1       2.752  11.263  21.051  1.00  0.00    -0.347 N 
HETATM   35  H32 UNL     1       2.831  10.475  20.416  1.00  0.00     0.163 HD
BRANCH  34  36
HETATM   36  C26 UNL     1       3.933  11.556  21.868  1.00  0.00     0.182 C 
BRANCH  36  37
HETATM   37  C27 UNL     1       4.063  10.586  23.048  1.00  0.00     0.045 C 
BRANCH  37  38
HETATM   38  C28 UNL     1       3.938   9.112  22.649  1.00  0.00     0.105 C 
BRANCH  38  39
HETATM   39  C29 UNL     1       2.605   8.526  23.063  1.00  0.00     0.215 C 
HETATM   40  N2  UNL     1       2.219   8.865  24.328  1.00  0.00    -0.370 N 
HETATM   41  H38 UNL     1       2.649   9.623  24.839  1.00  0.00     0.159 HD
HETATM   42  H39 UNL     1       1.300   8.555  24.622  1.00  0.00     0.159 HD
HETATM   43  O8  UNL     1       1.906   7.810  22.361  1.00  0.00    -0.274 OA
ENDBRANCH  38  39
ENDBRANCH  37  38
ENDBRANCH  36  37
BRANCH  36  44
HETATM   44  C30 UNL     1       5.199  11.546  21.004  1.00  0.00     0.163 C 
HETATM   45  O9  UNL     1       6.298  11.980  21.312  1.00  0.00    -0.648 OA
BRANCH  44  46
HETATM   46  O10 UNL     1       5.023  10.959  19.795  1.00  0.00    -0.775 OA
HETATM   47  H40 UNL     1       5.902  11.054  19.367  1.00  0.00     0.167 HD
ENDBRANCH  44  46
ENDBRANCH  36  44
ENDBRANCH  34  36
ENDBRANCH  31  32
ENDBRANCH  30  31
ENDBRANCH  28  30
ENDBRANCH  27  28
ENDBRANCH  26  27
ENDBRANCH   1  26
TORSDOF 14
ENDMDL
MODEL 8
REMARK minimizedAffinity -9.46119595
REMARK CNNscore 0.352299392
REMARK CNNaffinity 6.66564417
REMARK  14 active torsions:
REMARK  status: ('A' for Active; 'I' for Inactive)
REMARK    1  A    between atoms: C19_21  and  O3_22 
REMARK    2  A    between atoms: C19_21  and  C20_23 
REMARK    3  A    between atoms: C20_23  and  C21_25 
REMARK    4  A    between atoms: C21_25  and  O5_26 
REMARK    5  A    between atoms: O5_26  and  C22_27 
REMARK    6  A    between atoms: C22_27  and  C23_29 
REMARK    7  A    between atoms: C23_29  and  C24_30 
REMARK    8  A    between atoms: C24_30  and  C25_31 
REMARK       I    between atoms: C25_31  and  N1_33 
REMARK    9  A    between atoms: N1_33  and  C26_34 
REMARK   10  A    between atoms: C26_34  and  C27_35 
REMARK   11  A    between atoms: C26_34  and  C30_40 
REMARK   12  A    between atoms: C27_35  and  C28_36 
REMARK   13  A    between atoms: C28_36  and  C29_37 
REMARK       I    between atoms: C29_37  and  N2_38 
REMARK   14  A    between atoms: C30_40  and  O10_42 
ROOT
HETATM    1  C20 UNL     1       1.256   7.243  12.648  1.00  0.00     0.185 C 
HETATM    2  O4  UNL     1       1.288   7.760  13.769  1.00  0.00    -0.292 OA
ENDROOT
BRANCH   1   3
HETATM    3  C19 UNL     1      -0.072   6.735  12.014  1.00  0.00     0.128 C 
HETATM    4  C14 UNL     1      -1.276   6.655  13.008  1.00  0.00     0.005 C 
HETATM    5  C13 UNL     1      -2.086   7.943  13.202  1.00  0.00     0.091 C 
HETATM    6  C15 UNL     1      -0.809   6.140  14.397  1.00  0.00     0.019 C 
HETATM    7  C16 UNL     1      -2.191   5.653  12.256  1.00  0.00     0.002 C 
HETATM    8  C12 UNL     1      -3.385   7.643  13.939  1.00  0.00     0.133 C 
HETATM    9  C11 UNL     1      -4.289   6.547  13.336  1.00  0.00     0.072 C 
HETATM   10  O2  UNL     1      -3.695   8.325  14.914  1.00  0.00    -0.297 OA
HETATM   11  C2  UNL     1      -5.616   6.251  14.128  1.00  0.00    -0.009 C 
HETATM   12  C10 UNL     1      -3.451   5.267  13.047  1.00  0.00     0.003 C 
HETATM   13  C1  UNL     1      -5.349   5.810  15.585  1.00  0.00     0.021 C 
HETATM   14  C3  UNL     1      -6.500   7.536  14.124  1.00  0.00     0.022 C 
HETATM   15  C7  UNL     1      -6.368   5.107  13.423  1.00  0.00    -0.067 C 
HETATM   16  C4  UNL     1      -7.954   7.285  14.501  1.00  0.00     0.084 C 
HETATM   17  C5  UNL     1      -8.553   6.248  13.591  1.00  0.00     0.149 C 
HETATM   18  O1  UNL     1      -9.736   6.260  13.260  1.00  0.00    -0.293 OA
HETATM   19  C6  UNL     1      -7.685   5.133  13.148  1.00  0.00     0.053 C 
HETATM   20  C8  UNL     1      -5.560   3.884  13.054  1.00  0.00     0.035 C 
HETATM   21  C9  UNL     1      -4.301   4.248  12.278  1.00  0.00     0.010 C 
HETATM   22  C17 UNL     1      -1.239   4.538  11.853  1.00  0.00     0.009 C 
HETATM   23  C18 UNL     1       0.075   5.265  11.514  1.00  0.00     0.047 C 
BRANCH   3  24
HETATM   24  O3  UNL     1      -0.450   7.492  10.858  1.00  0.00    -0.381 OA
HETATM   25  H25 UNL     1      -0.469   8.434  11.103  1.00  0.00     0.211 HD
ENDBRANCH   3  24
ENDBRANCH   1   3
BRANCH   1  26
HETATM   26  C21 UNL     1       2.513   7.241  11.778  1.00  0.00     0.260 C 
BRANCH  26  27
HETATM   27  O5  UNL     1       2.289   6.936  10.401  1.00  0.00    -0.314 OA
BRANCH  27  28
HETATM   28  C22 UNL     1       3.403   6.524   9.728  1.00  0.00     0.259 C 
HETATM   29  O6  UNL     1       3.390   5.801   8.745  1.00  0.00    -0.265 OA
BRANCH  28  30
HETATM   30  C23 UNL     1       4.654   7.180  10.271  1.00  0.00     0.120 C 
BRANCH  30  31
HETATM   31  C24 UNL     1       5.663   6.207  10.872  1.00  0.00     0.112 C 
BRANCH  31  32
HETATM   32  C25 UNL     1       6.518   6.864  11.938  1.00  0.00     0.218 C 
HETATM   33  O7  UNL     1       7.560   7.458  11.696  1.00  0.00    -0.274 OA
HETATM   34  N1  UNL     1       6.010   6.719  13.206  1.00  0.00    -0.347 N 
HETATM   35  H32 UNL     1       5.261   6.057  13.382  1.00  0.00     0.163 HD
BRANCH  34  36
HETATM   36  C26 UNL     1       6.705   7.238  14.387  1.00  0.00     0.182 C 
BRANCH  36  37
HETATM   37  C27 UNL     1       7.854   8.178  14.004  1.00  0.00     0.045 C 
BRANCH  37  38
HETATM   38  C28 UNL     1       9.197   7.795  14.635  1.00  0.00     0.105 C 
BRANCH  38  39
HETATM   39  C29 UNL     1       9.343   8.356  16.034  1.00  0.00     0.215 C 
HETATM   40  N2  UNL     1       9.935   9.585  16.080  1.00  0.00    -0.370 N 
HETATM   41  H38 UNL     1      10.037  10.166  15.260  1.00  0.00     0.159 HD
HETATM   42  H39 UNL     1       9.989  10.030  16.989  1.00  0.00     0.159 HD
HETATM   43  O8  UNL     1       8.978   7.793  17.056  1.00  0.00    -0.274 OA
ENDBRANCH  38  39
ENDBRANCH  37  38
ENDBRANCH  36  37
BRANCH  36  44
HETATM   44  C30 UNL     1       5.716   7.932  15.331  1.00  0.00     0.163 C 
HETATM   45  O9  UNL     1       5.865   9.012  15.881  1.00  0.00    -0.648 OA
BRANCH  44  46
HETATM   46  O10 UNL     1       4.567   7.237  15.513  1.00  0.00    -0.775 OA
HETATM   47  H40 UNL     1       4.064   7.794  16.147  1.00  0.00     0.167 HD
ENDBRANCH  44  46
ENDBRANCH  36  44
ENDBRANCH  34  36
ENDBRANCH  31  32
ENDBRANCH  30  31
ENDBRANCH  28  30
ENDBRANCH  27  28
ENDBRANCH  26  27
ENDBRANCH   1  26
TORSDOF 14
ENDMDL
MODEL 9
REMARK minimizedAffinity -8.57296085
REMARK CNNscore 0.267232358
REMARK CNNaffinity 6.55529976
REMARK  14 active torsions:
REMARK  status: ('A' for Active; 'I' for Inactive)
REMARK    1  A    between atoms: C19_21  and  O3_22 
REMARK    2  A    between atoms: C19_21  and  C20_23 
REMARK    3  A    between atoms: C20_23  and  C21_25 
REMARK    4  A    between atoms: C21_25  and  O5_26 
REMARK    5  A    between atoms: O5_26  and  C22_27 
REMARK    6  A    between atoms: C22_27  and  C23_29 
REMARK    7  A    between atoms: C23_29  and  C24_30 
REMARK    8  A    between atoms: C24_30  and  C25_31 
REMARK       I    between atoms: C25_31  and  N1_33 
REMARK    9  A    between atoms: N1_33  and  C26_34 
REMARK   10  A    between atoms: C26_34  and  C27_35 
REMARK   11  A    between atoms: C26_34  and  C30_40 
REMARK   12  A    between atoms: C27_35  and  C28_36 
REMARK   13  A    between atoms: C28_36  and  C29_37 
REMARK       I    between atoms: C29_37  and  N2_38 
REMARK   14  A    between atoms: C30_40  and  O10_42 
ROOT
HETATM    1  C20 UNL     1      -0.015  10.206  15.198  1.00  0.00     0.185 C 
HETATM    2  O4  UNL     1       0.416  11.334  14.941  1.00  0.00    -0.292 OA
ENDROOT
BRANCH   1   3
HETATM    3  C19 UNL     1      -0.769   9.353  14.137  1.00  0.00     0.128 C 
HETATM    4  C14 UNL     1      -2.050   8.635  14.674  1.00  0.00     0.005 C 
HETATM    5  C13 UNL     1      -3.347   9.453  14.657  1.00  0.00     0.091 C 
HETATM    6  C15 UNL     1      -1.816   8.094  16.111  1.00  0.00     0.019 C 
HETATM    7  C16 UNL     1      -2.207   7.514  13.612  1.00  0.00     0.002 C 
HETATM    8  C12 UNL     1      -4.546   8.547  14.908  1.00  0.00     0.133 C 
HETATM    9  C11 UNL     1      -4.695   7.318  13.987  1.00  0.00     0.072 C 
HETATM   10  O2  UNL     1      -5.373   8.866  15.761  1.00  0.00    -0.297 OA
HETATM   11  C2  UNL     1      -5.934   6.395  14.281  1.00  0.00    -0.009 C 
HETATM   12  C10 UNL     1      -3.350   6.536  13.924  1.00  0.00     0.003 C 
HETATM   13  C1  UNL     1      -5.922   5.832  15.721  1.00  0.00     0.021 C 
HETATM   14  C3  UNL     1      -7.239   7.219  14.053  1.00  0.00     0.022 C 
HETATM   15  C7  UNL     1      -5.903   5.199  13.311  1.00  0.00    -0.067 C 
HETATM   16  C4  UNL     1      -8.491   6.363  13.917  1.00  0.00     0.084 C 
HETATM   17  C5  UNL     1      -8.316   5.361  12.808  1.00  0.00     0.149 C 
HETATM   18  O1  UNL     1      -9.250   4.978  12.108  1.00  0.00    -0.293 OA
HETATM   19  C6  UNL     1      -6.974   4.767  12.620  1.00  0.00     0.053 C 
HETATM   20  C8  UNL     1      -4.586   4.472  13.166  1.00  0.00     0.035 C 
HETATM   21  C9  UNL     1      -3.438   5.427  12.867  1.00  0.00     0.010 C 
HETATM   22  C17 UNL     1      -0.802   6.946  13.489  1.00  0.00     0.009 C 
HETATM   23  C18 UNL     1       0.118   8.170  13.638  1.00  0.00     0.047 C 
BRANCH   3  24
HETATM   24  O3  UNL     1      -1.094  10.103  12.962  1.00  0.00    -0.381 OA
HETATM   25  H25 UNL     1      -1.577  10.904  13.234  1.00  0.00     0.211 HD
ENDBRANCH   3  24
ENDBRANCH   1   3
BRANCH   1  26
HETATM   26  C21 UNL     1       0.334   9.546  16.532  1.00  0.00     0.260 C 
BRANCH  26  27
HETATM   27  O5  UNL     1       1.358   8.554  16.462  1.00  0.00    -0.314 OA
BRANCH  27  28
HETATM   28  C22 UNL     1       2.625   9.059  16.405  1.00  0.00     0.259 C 
HETATM   29  O6  UNL     1       3.065   9.910  17.161  1.00  0.00    -0.265 OA
BRANCH  28  30
HETATM   30  C23 UNL     1       3.464   8.339  15.372  1.00  0.00     0.120 C 
BRANCH  30  31
HETATM   31  C24 UNL     1       4.409   9.245  14.588  1.00  0.00     0.112 C 
BRANCH  31  32
HETATM   32  C25 UNL     1       4.660   8.724  13.187  1.00  0.00     0.218 C 
HETATM   33  O7  UNL     1       4.463   9.386  12.176  1.00  0.00    -0.274 OA
HETATM   34  N1  UNL     1       5.123   7.432  13.163  1.00  0.00    -0.347 N 
HETATM   35  H32 UNL     1       5.081   6.860  14.001  1.00  0.00     0.163 HD
BRANCH  34  36
HETATM   36  C26 UNL     1       5.384   6.721  11.908  1.00  0.00     0.182 C 
BRANCH  36  37
HETATM   37  C27 UNL     1       4.342   7.059  10.835  1.00  0.00     0.045 C 
BRANCH  37  38
HETATM   38  C28 UNL     1       3.267   5.981  10.663  1.00  0.00     0.105 C 
BRANCH  38  39
HETATM   39  C29 UNL     1       3.504   5.140   9.426  1.00  0.00     0.215 C 
HETATM   40  N2  UNL     1       4.524   4.242   9.553  1.00  0.00    -0.370 N 
HETATM   41  H38 UNL     1       4.914   3.991  10.451  1.00  0.00     0.159 HD
HETATM   42  H39 UNL     1       4.672   3.609   8.776  1.00  0.00     0.159 HD
HETATM   43  O8  UNL     1       2.863   5.225   8.388  1.00  0.00    -0.274 OA
ENDBRANCH  38  39
ENDBRANCH  37  38
ENDBRANCH  36  37
BRANCH  36  44
HETATM   44  C30 UNL     1       6.804   7.015  11.409  1.00  0.00     0.163 C 
HETATM   45  O9  UNL     1       7.215   6.903  10.265  1.00  0.00    -0.648 OA
BRANCH  44  46
HETATM   46  O10 UNL     1       7.634   7.465  12.381  1.00  0.00    -0.775 OA
HETATM   47  H40 UNL     1       8.489   7.581  11.913  1.00  0.00     0.167 HD
ENDBRANCH  44  46
ENDBRANCH  36  44
ENDBRANCH  34  36
ENDBRANCH  31  32
ENDBRANCH  30  31
ENDBRANCH  28  30
ENDBRANCH  27  28
ENDBRANCH  26  27
ENDBRANCH   1  26
TORSDOF 14
ENDMDL
