MODEL 1
REMARK minimizedAffinity -10.0390215
REMARK CNNscore 0.591821074
REMARK CNNaffinity 7.08745623
REMARK  11 active torsions:
REMARK  status: ('A' for Active; 'I' for Inactive)
REMARK    1  A    between atoms: C12_13  and  O2_14 
REMARK    2  A    between atoms: C19_21  and  O3_22 
REMARK    3  A    between atoms: C19_21  and  C20_23 
REMARK    4  A    between atoms: C20_23  and  C21_25 
REMARK    5  A    between atoms: C21_25  and  O5_26 
REMARK    6  A    between atoms: O5_26  and  C22_27 
REMARK    7  A    between atoms: C22_27  and  C23_29 
REMARK    8  A    between atoms: C23_29  and  C24_30 
REMARK    9  A    between atoms: C24_30  and  C25_31 
REMARK       I    between atoms: C25_31  and  N1_33 
REMARK   10  A    between atoms: N1_33  and  C26_34 
REMARK   11  A    between atoms: C26_34  and  C27_35 
ROOT
HETATM    1  C1  UNL     1       4.097   6.877   9.717  1.00  0.00     0.020 C 
HETATM    2  C2  UNL     1       2.841   6.036   9.387  1.00  0.00    -0.014 C 
HETATM    3  C3  UNL     1       3.207   4.524   9.445  1.00  0.00     0.022 C 
HETATM    4  C4  UNL     1       4.091   4.062   8.291  1.00  0.00     0.084 C 
HETATM    5  C5  UNL     1       3.467   4.415   6.965  1.00  0.00     0.149 C 
HETATM    6  O1  UNL     1       3.661   3.756   5.947  1.00  0.00    -0.293 OA
HETATM    7  C6  UNL     1       2.667   5.657   6.879  1.00  0.00     0.053 C 
HETATM    8  C7  UNL     1       2.420   6.418   7.960  1.00  0.00    -0.068 C 
HETATM    9  C8  UNL     1       1.736   7.754   7.786  1.00  0.00     0.035 C 
HETATM   10  C9  UNL     1       0.554   7.904   8.728  1.00  0.00     0.010 C 
HETATM   11  C10 UNL     1       0.964   7.682  10.192  1.00  0.00    -0.002 C 
HETATM   12  C11 UNL     1       1.619   6.276  10.365  1.00  0.00     0.031 C 
HETATM   13  C12 UNL     1       1.861   5.888  11.861  1.00  0.00     0.124 C 
HETATM   14  C13 UNL     1       0.696   6.233  12.819  1.00  0.00     0.045 C 
HETATM   15  C14 UNL     1       0.093   7.642  12.615  1.00  0.00     0.001 C 
HETATM   16  C15 UNL     1       1.079   8.732  13.097  1.00  0.00     0.019 C 
HETATM   17  C16 UNL     1      -0.260   7.772  11.116  1.00  0.00     0.002 C 
HETATM   18  C17 UNL     1      -1.133   9.018  11.055  1.00  0.00     0.009 C 
HETATM   19  C18 UNL     1      -1.909   9.029  12.392  1.00  0.00     0.047 C 
HETATM   20  C19 UNL     1      -1.316   7.895  13.255  1.00  0.00     0.128 C 
ENDROOT
BRANCH  20  21
HETATM   21  O3  UNL     1      -2.160   6.746  13.040  1.00  0.00    -0.381 OA
HETATM   22  H27 UNL     1      -1.912   6.092  13.728  1.00  0.00     0.211 HD
ENDBRANCH  20  21
BRANCH  20  23
HETATM   23  C20 UNL     1      -1.314   8.086  14.787  1.00  0.00     0.185 C 
HETATM   24  O4  UNL     1      -0.380   8.705  15.311  1.00  0.00    -0.292 OA
BRANCH  23  25
HETATM   25  C21 UNL     1      -2.401   7.449  15.646  1.00  0.00     0.260 C 
BRANCH  25  26
HETATM   26  O5  UNL     1      -3.692   8.040  15.526  1.00  0.00    -0.314 OA
BRANCH  26  27
HETATM   27  C22 UNL     1      -4.695   7.167  15.232  1.00  0.00     0.259 C 
HETATM   28  O6  UNL     1      -4.514   6.018  14.868  1.00  0.00    -0.265 OA
BRANCH  27  29
HETATM   29  C23 UNL     1      -6.057   7.742  15.548  1.00  0.00     0.120 C 
BRANCH  29  30
HETATM   30  C24 UNL     1      -7.033   6.737  16.146  1.00  0.00     0.112 C 
BRANCH  30  31
HETATM   31  C25 UNL     1      -7.878   6.142  15.043  1.00  0.00     0.218 C 
HETATM   32  O7  UNL     1      -9.041   6.499  14.862  1.00  0.00    -0.274 OA
HETATM   33  N1  UNL     1      -7.260   5.138  14.331  1.00  0.00    -0.357 N 
HETATM   34  H34 UNL     1      -6.422   4.720  14.715  1.00  0.00     0.162 HD
BRANCH  33  35
HETATM   35  C26 UNL     1      -8.007   4.348  13.376  1.00  0.00     0.162 C 
BRANCH  35  36
HETATM   36  C27 UNL     1      -7.112   3.369  12.673  1.00  0.00    -0.025 A 
HETATM   37  C28 UNL     1      -5.855   3.746  12.188  1.00  0.00     0.011 A 
HETATM   38  C29 UNL     1      -5.073   2.820  11.500  1.00  0.00     0.018 A 
HETATM   39  C30 UNL     1      -5.574   1.542  11.316  1.00  0.00     0.087 A 
HETATM   40  N2  UNL     1      -6.782   1.139  11.775  1.00  0.00    -0.375 N 
HETATM   41  C31 UNL     1      -7.516   2.057  12.446  1.00  0.00     0.096 A 
ATOM     42  H2  UNL     1      -7.123   0.189  11.623  1.00  0.00     0.164 HD
ENDBRANCH  35  36
ENDBRANCH  33  35
ENDBRANCH  30  31
ENDBRANCH  29  30
ENDBRANCH  27  29
ENDBRANCH  26  27
ENDBRANCH  25  26
ENDBRANCH  23  25
ENDBRANCH  20  23
BRANCH  13  43
HETATM   43  O2  UNL     1       3.073   6.398  12.389  1.00  0.00    -0.395 OA
HETATM   44  H16 UNL     1       3.158   7.335  12.159  1.00  0.00     0.210 HD
ENDBRANCH  13  43
TORSDOF 11
ENDMDL
MODEL 2
REMARK minimizedAffinity -8.67120934
REMARK CNNscore 0.518323362
REMARK CNNaffinity 6.68776703
REMARK  11 active torsions:
REMARK  status: ('A' for Active; 'I' for Inactive)
REMARK    1  A    between atoms: C12_13  and  O2_14 
REMARK    2  A    between atoms: C19_21  and  O3_22 
REMARK    3  A    between atoms: C19_21  and  C20_23 
REMARK    4  A    between atoms: C20_23  and  C21_25 
REMARK    5  A    between atoms: C21_25  and  O5_26 
REMARK    6  A    between atoms: O5_26  and  C22_27 
REMARK    7  A    between atoms: C22_27  and  C23_29 
REMARK    8  A    between atoms: C23_29  and  C24_30 
REMARK    9  A    between atoms: C24_30  and  C25_31 
REMARK       I    between atoms: C25_31  and  N1_33 
REMARK   10  A    between atoms: N1_33  and  C26_34 
REMARK   11  A    between atoms: C26_34  and  C27_35 
ROOT
HETATM    1  C1  UNL     1      -5.854   5.911  15.835  1.00  0.00     0.020 C 
HETATM    2  C2  UNL     1      -5.927   6.590  14.447  1.00  0.00    -0.014 C 
HETATM    3  C3  UNL     1      -7.117   7.595  14.431  1.00  0.00     0.022 C 
HETATM    4  C4  UNL     1      -8.487   6.925  14.421  1.00  0.00     0.084 C 
HETATM    5  C5  UNL     1      -8.594   5.945  13.281  1.00  0.00     0.149 C 
HETATM    6  O1  UNL     1      -9.663   5.675  12.739  1.00  0.00    -0.293 OA
HETATM    7  C6  UNL     1      -7.373   5.218  12.869  1.00  0.00     0.053 C 
HETATM    8  C7  UNL     1      -6.174   5.472  13.424  1.00  0.00    -0.068 C 
HETATM    9  C8  UNL     1      -4.995   4.592  13.080  1.00  0.00     0.035 C 
HETATM   10  C9  UNL     1      -3.787   5.412  12.662  1.00  0.00     0.010 C 
HETATM   11  C10 UNL     1      -3.408   6.447  13.734  1.00  0.00    -0.002 C 
HETATM   12  C11 UNL     1      -4.619   7.383  14.038  1.00  0.00     0.031 C 
HETATM   13  C12 UNL     1      -4.246   8.596  14.953  1.00  0.00     0.124 C 
HETATM   14  C13 UNL     1      -2.907   9.288  14.603  1.00  0.00     0.045 C 
HETATM   15  C14 UNL     1      -1.737   8.315  14.325  1.00  0.00     0.001 C 
HETATM   16  C15 UNL     1      -1.275   7.631  15.632  1.00  0.00     0.019 C 
HETATM   17  C16 UNL     1      -2.227   7.307  13.260  1.00  0.00     0.002 C 
HETATM   18  C17 UNL     1      -0.952   6.613  12.802  1.00  0.00     0.009 C 
HETATM   19  C18 UNL     1       0.149   7.695  12.896  1.00  0.00     0.047 C 
HETATM   20  C19 UNL     1      -0.493   8.918  13.584  1.00  0.00     0.128 C 
ENDROOT
BRANCH  20  21
HETATM   21  O3  UNL     1      -0.935   9.788  12.522  1.00  0.00    -0.381 OA
HETATM   22  H27 UNL     1      -1.158  10.644  12.946  1.00  0.00     0.211 HD
ENDBRANCH  20  21
BRANCH  20  23
HETATM   23  C20 UNL     1       0.417   9.810  14.455  1.00  0.00     0.185 C 
HETATM   24  O4  UNL     1       1.567   9.428  14.706  1.00  0.00    -0.292 OA
BRANCH  23  25
HETATM   25  C21 UNL     1      -0.121  11.100  15.064  1.00  0.00     0.260 C 
BRANCH  25  26
HETATM   26  O5  UNL     1       0.627  11.609  16.164  1.00  0.00    -0.314 OA
BRANCH  26  27
HETATM   27  C22 UNL     1       0.172  11.227  17.390  1.00  0.00     0.259 C 
HETATM   28  O6  UNL     1      -0.866  10.617  17.572  1.00  0.00    -0.265 OA
BRANCH  27  29
HETATM   29  C23 UNL     1       1.175  11.522  18.483  1.00  0.00     0.120 C 
BRANCH  29  30
HETATM   30  C24 UNL     1       0.782  10.979  19.850  1.00  0.00     0.112 C 
BRANCH  30  31
HETATM   31  C25 UNL     1       2.018  10.496  20.573  1.00  0.00     0.218 C 
HETATM   32  O7  UNL     1       2.620   9.487  20.211  1.00  0.00    -0.274 OA
HETATM   33  N1  UNL     1       2.349  11.233  21.688  1.00  0.00    -0.357 N 
HETATM   34  H34 UNL     1       1.658  11.866  22.072  1.00  0.00     0.162 HD
BRANCH  33  35
HETATM   35  C26 UNL     1       3.390  10.780  22.586  1.00  0.00     0.162 C 
BRANCH  35  36
HETATM   36  C27 UNL     1       4.434  11.842  22.777  1.00  0.00    -0.025 A 
HETATM   37  C28 UNL     1       4.114  13.202  22.708  1.00  0.00     0.011 A 
HETATM   38  C29 UNL     1       5.120  14.157  22.844  1.00  0.00     0.018 A 
HETATM   39  C30 UNL     1       6.419  13.721  23.044  1.00  0.00     0.087 A 
HETATM   40  N2  UNL     1       6.767  12.415  23.122  1.00  0.00    -0.375 N 
HETATM   41  C31 UNL     1       5.768  11.510  22.993  1.00  0.00     0.096 A 
ATOM     42  H2  UNL     1       7.734  12.126  23.271  1.00  0.00     0.164 HD
ENDBRANCH  35  36
ENDBRANCH  33  35
ENDBRANCH  30  31
ENDBRANCH  29  30
ENDBRANCH  27  29
ENDBRANCH  26  27
ENDBRANCH  25  26
ENDBRANCH  23  25
ENDBRANCH  20  23
BRANCH  13  43
HETATM   43  O2  UNL     1      -4.273   8.292  16.336  1.00  0.00    -0.395 OA
HETATM   44  H16 UNL     1      -3.801   7.461  16.494  1.00  0.00     0.210 HD
ENDBRANCH  13  43
TORSDOF 11
ENDMDL
MODEL 3
REMARK minimizedAffinity -9.60410213
REMARK CNNscore 0.454918802
REMARK CNNaffinity 6.9703331
REMARK  11 active torsions:
REMARK  status: ('A' for Active; 'I' for Inactive)
REMARK    1  A    between atoms: C12_13  and  O2_14 
REMARK    2  A    between atoms: C19_21  and  O3_22 
REMARK    3  A    between atoms: C19_21  and  C20_23 
REMARK    4  A    between atoms: C20_23  and  C21_25 
REMARK    5  A    between atoms: C21_25  and  O5_26 
REMARK    6  A    between atoms: O5_26  and  C22_27 
REMARK    7  A    between atoms: C22_27  and  C23_29 
REMARK    8  A    between atoms: C23_29  and  C24_30 
REMARK    9  A    between atoms: C24_30  and  C25_31 
REMARK       I    between atoms: C25_31  and  N1_33 
REMARK   10  A    between atoms: N1_33  and  C26_34 
REMARK   11  A    between atoms: C26_34  and  C27_35 
ROOT
HETATM    1  C1  UNL     1      -6.352   5.619  15.896  1.00  0.00     0.020 C 
HETATM    2  C2  UNL     1      -6.404   6.207  14.466  1.00  0.00    -0.014 C 
HETATM    3  C3  UNL     1      -7.134   7.582  14.505  1.00  0.00     0.022 C 
HETATM    4  C4  UNL     1      -8.635   7.474  14.752  1.00  0.00     0.084 C 
HETATM    5  C5  UNL     1      -9.277   6.551  13.749  1.00  0.00     0.149 C 
HETATM    6  O1  UNL     1     -10.445   6.674  13.390  1.00  0.00    -0.293 OA
HETATM    7  C6  UNL     1      -8.488   5.400  13.255  1.00  0.00     0.053 C 
HETATM    8  C7  UNL     1      -7.205   5.214  13.612  1.00  0.00    -0.068 C 
HETATM    9  C8  UNL     1      -6.499   3.941  13.207  1.00  0.00     0.035 C 
HETATM   10  C9  UNL     1      -5.163   4.228  12.543  1.00  0.00     0.010 C 
HETATM   11  C10 UNL     1      -4.263   5.097  13.436  1.00  0.00    -0.002 C 
HETATM   12  C11 UNL     1      -4.985   6.432  13.800  1.00  0.00     0.031 C 
HETATM   13  C12 UNL     1      -4.052   7.461  14.520  1.00  0.00     0.124 C 
HETATM   14  C13 UNL     1      -2.632   7.583  13.919  1.00  0.00     0.045 C 
HETATM   15  C14 UNL     1      -1.956   6.231  13.591  1.00  0.00     0.001 C 
HETATM   16  C15 UNL     1      -1.563   5.488  14.888  1.00  0.00     0.019 C 
HETATM   17  C16 UNL     1      -2.947   5.429  12.716  1.00  0.00     0.002 C 
HETATM   18  C17 UNL     1      -2.105   4.287  12.167  1.00  0.00     0.009 C 
HETATM   19  C18 UNL     1      -0.688   4.880  11.993  1.00  0.00     0.047 C 
HETATM   20  C19 UNL     1      -0.720   6.287  12.627  1.00  0.00     0.128 C 
ENDROOT
BRANCH  20  21
HETATM   21  O3  UNL     1      -0.986   7.206  11.548  1.00  0.00    -0.381 OA
HETATM   22  H27 UNL     1      -0.811   8.104  11.904  1.00  0.00     0.211 HD
ENDBRANCH  20  21
BRANCH  20  23
HETATM   23  C20 UNL     1       0.583   6.816  13.265  1.00  0.00     0.185 C 
HETATM   24  O4  UNL     1       0.549   7.245  14.425  1.00  0.00    -0.292 OA
BRANCH  23  25
HETATM   25  C21 UNL     1       1.869   6.886  12.450  1.00  0.00     0.260 C 
BRANCH  25  26
HETATM   26  O5  UNL     1       1.718   6.630  11.056  1.00  0.00    -0.314 OA
BRANCH  26  27
HETATM   27  C22 UNL     1       2.723   5.900  10.498  1.00  0.00     0.259 C 
HETATM   28  O6  UNL     1       2.593   4.758  10.092  1.00  0.00    -0.265 OA
BRANCH  27  29
HETATM   29  C23 UNL     1       3.979   6.720  10.308  1.00  0.00     0.120 C 
BRANCH  29  30
HETATM   30  C24 UNL     1       5.198   6.167  11.034  1.00  0.00     0.112 C 
BRANCH  30  31
HETATM   31  C25 UNL     1       6.257   7.240  11.128  1.00  0.00     0.218 C 
HETATM   32  O7  UNL     1       7.276   7.199  10.441  1.00  0.00    -0.274 OA
HETATM   33  N1  UNL     1       6.010   8.201  12.084  1.00  0.00    -0.357 N 
HETATM   34  H34 UNL     1       5.303   8.014  12.785  1.00  0.00     0.162 HD
BRANCH  33  35
HETATM   35  C26 UNL     1       7.021   9.180  12.419  1.00  0.00     0.162 C 
BRANCH  35  36
HETATM   36  C27 UNL     1       7.823   8.738  13.610  1.00  0.00    -0.025 A 
HETATM   37  C28 UNL     1       9.216   8.863  13.639  1.00  0.00     0.011 A 
HETATM   38  C29 UNL     1       9.929   8.397  14.742  1.00  0.00     0.018 A 
HETATM   39  C30 UNL     1       9.225   7.819  15.785  1.00  0.00     0.087 A 
HETATM   40  N2  UNL     1       7.878   7.686  15.795  1.00  0.00    -0.375 N 
HETATM   41  C31 UNL     1       7.211   8.153  14.713  1.00  0.00     0.096 A 
ATOM     42  H2  UNL     1       7.389   7.255  16.580  1.00  0.00     0.164 HD
ENDBRANCH  35  36
ENDBRANCH  33  35
ENDBRANCH  30  31
ENDBRANCH  29  30
ENDBRANCH  27  29
ENDBRANCH  26  27
ENDBRANCH  25  26
ENDBRANCH  23  25
ENDBRANCH  20  23
BRANCH  13  43
HETATM   43  O2  UNL     1      -3.957   7.257  15.919  1.00  0.00    -0.395 OA
HETATM   44  H16 UNL     1      -3.798   6.318  16.100  1.00  0.00     0.210 HD
ENDBRANCH  13  43
TORSDOF 11
ENDMDL
MODEL 4
REMARK minimizedAffinity -9.12849426
REMARK CNNscore 0.43783161
REMARK CNNaffinity 6.75456476
REMARK  11 active torsions:
REMARK  status: ('A' for Active; 'I' for Inactive)
REMARK    1  A    between atoms: C12_13  and  O2_14 
REMARK    2  A    between atoms: C19_21  and  O3_22 
REMARK    3  A    between atoms: C19_21  and  C20_23 
REMARK    4  A    between atoms: C20_23  and  C21_25 
REMARK    5  A    between atoms: C21_25  and  O5_26 
REMARK    6  A    between atoms: O5_26  and  C22_27 
REMARK    7  A    between atoms: C22_27  and  C23_29 
REMARK    8  A    between atoms: C23_29  and  C24_30 
REMARK    9  A    between atoms: C24_30  and  C25_31 
REMARK       I    between atoms: C25_31  and  N1_33 
REMARK   10  A    between atoms: N1_33  and  C26_34 
REMARK   11  A    between atoms: C26_34  and  C27_35 
ROOT
HETATM    1  C1  UNL     1       4.187   6.962   9.540  1.00  0.00     0.020 C 
HETATM    2  C2  UNL     1       2.942   6.070   9.321  1.00  0.00    -0.014 C 
HETATM    3  C3  UNL     1       3.357   4.574   9.442  1.00  0.00     0.022 C 
HETATM    4  C4  UNL     1       4.196   4.072   8.271  1.00  0.00     0.084 C 
HETATM    5  C5  UNL     1       3.498   4.334   6.962  1.00  0.00     0.149 C 
HETATM    6  O1  UNL     1       3.662   3.624   5.972  1.00  0.00    -0.293 OA
HETATM    7  C6  UNL     1       2.657   5.546   6.849  1.00  0.00     0.053 C 
HETATM    8  C7  UNL     1       2.440   6.359   7.898  1.00  0.00    -0.068 C 
HETATM    9  C8  UNL     1       1.709   7.664   7.687  1.00  0.00     0.035 C 
HETATM   10  C9  UNL     1       0.569   7.834   8.678  1.00  0.00     0.010 C 
HETATM   11  C10 UNL     1       1.058   7.705  10.130  1.00  0.00    -0.002 C 
HETATM   12  C11 UNL     1       1.763   6.329  10.345  1.00  0.00     0.031 C 
HETATM   13  C12 UNL     1       2.090   6.033  11.846  1.00  0.00     0.124 C 
HETATM   14  C13 UNL     1       0.964   6.398  12.842  1.00  0.00     0.045 C 
HETATM   15  C14 UNL     1       0.309   7.777  12.592  1.00  0.00     0.001 C 
HETATM   16  C15 UNL     1       1.284   8.918  12.963  1.00  0.00     0.019 C 
HETATM   17  C16 UNL     1      -0.121   7.813  11.108  1.00  0.00     0.002 C 
HETATM   18  C17 UNL     1      -1.034   9.028  11.023  1.00  0.00     0.009 C 
HETATM   19  C18 UNL     1      -1.743   9.093  12.395  1.00  0.00     0.047 C 
HETATM   20  C19 UNL     1      -1.075   8.026  13.288  1.00  0.00     0.128 C 
ENDROOT
BRANCH  20  21
HETATM   21  O3  UNL     1      -1.893   6.844  13.179  1.00  0.00    -0.381 OA
HETATM   22  H27 UNL     1      -1.591   6.236  13.888  1.00  0.00     0.211 HD
ENDBRANCH  20  21
BRANCH  20  23
HETATM   23  C20 UNL     1      -1.003   8.302  14.805  1.00  0.00     0.185 C 
HETATM   24  O4  UNL     1      -1.057   7.347  15.590  1.00  0.00    -0.292 OA
BRANCH  23  25
HETATM   25  C21 UNL     1      -0.952   9.734  15.327  1.00  0.00     0.260 C 
BRANCH  25  26
HETATM   26  O5  UNL     1      -2.180  10.452  15.247  1.00  0.00    -0.314 OA
BRANCH  26  27
HETATM   27  C22 UNL     1      -2.886  10.509  16.410  1.00  0.00     0.259 C 
HETATM   28  O6  UNL     1      -2.488  11.056  17.424  1.00  0.00    -0.265 OA
BRANCH  27  29
HETATM   29  C23 UNL     1      -4.279   9.941  16.255  1.00  0.00     0.120 C 
BRANCH  29  30
HETATM   30  C24 UNL     1      -4.318   8.551  15.634  1.00  0.00     0.112 C 
BRANCH  30  31
HETATM   31  C25 UNL     1      -5.755   8.110  15.479  1.00  0.00     0.218 C 
HETATM   32  O7  UNL     1      -6.612   8.864  15.022  1.00  0.00    -0.274 OA
HETATM   33  N1  UNL     1      -6.016   6.845  15.955  1.00  0.00    -0.357 N 
HETATM   34  H34 UNL     1      -5.332   6.404  16.559  1.00  0.00     0.162 HD
BRANCH  33  35
HETATM   35  C26 UNL     1      -7.377   6.362  16.050  1.00  0.00     0.162 C 
BRANCH  35  36
HETATM   36  C27 UNL     1      -7.730   5.513  14.862  1.00  0.00    -0.025 A 
HETATM   37  C28 UNL     1      -7.309   4.183  14.763  1.00  0.00     0.011 A 
HETATM   38  C29 UNL     1      -7.617   3.443  13.624  1.00  0.00     0.018 A 
HETATM   39  C30 UNL     1      -8.336   4.058  12.613  1.00  0.00     0.087 A 
HETATM   40  N2  UNL     1      -8.765   5.341  12.674  1.00  0.00    -0.375 N 
HETATM   41  C31 UNL     1      -8.458   6.033  13.796  1.00  0.00     0.096 A 
ATOM     42  H2  UNL     1      -9.295   5.765  11.912  1.00  0.00     0.164 HD
ENDBRANCH  35  36
ENDBRANCH  33  35
ENDBRANCH  30  31
ENDBRANCH  29  30
ENDBRANCH  27  29
ENDBRANCH  26  27
ENDBRANCH  25  26
ENDBRANCH  23  25
ENDBRANCH  20  23
BRANCH  13  43
HETATM   43  O2  UNL     1       3.311   6.604  12.284  1.00  0.00    -0.395 OA
HETATM   44  H16 UNL     1       3.356   7.530  11.998  1.00  0.00     0.210 HD
ENDBRANCH  13  43
TORSDOF 11
ENDMDL
MODEL 5
REMARK minimizedAffinity -10.1369009
REMARK CNNscore 0.422270715
REMARK CNNaffinity 7.22489548
REMARK  11 active torsions:
REMARK  status: ('A' for Active; 'I' for Inactive)
REMARK    1  A    between atoms: C12_13  and  O2_14 
REMARK    2  A    between atoms: C19_21  and  O3_22 
REMARK    3  A    between atoms: C19_21  and  C20_23 
REMARK    4  A    between atoms: C20_23  and  C21_25 
REMARK    5  A    between atoms: C21_25  and  O5_26 
REMARK    6  A    between atoms: O5_26  and  C22_27 
REMARK    7  A    between atoms: C22_27  and  C23_29 
REMARK    8  A    between atoms: C23_29  and  C24_30 
REMARK    9  A    between atoms: C24_30  and  C25_31 
REMARK       I    between atoms: C25_31  and  N1_33 
REMARK   10  A    between atoms: N1_33  and  C26_34 
REMARK   11  A    between atoms: C26_34  and  C27_35 
ROOT
HETATM    1  C1  UNL     1       0.351   7.751   9.874  1.00  0.00     0.020 C 
HETATM    2  C2  UNL     1       1.096   7.424  11.190  1.00  0.00    -0.014 C 
HETATM    3  C3  UNL     1       2.270   8.429  11.377  1.00  0.00     0.022 C 
HETATM    4  C4  UNL     1       3.428   8.209  10.407  1.00  0.00     0.084 C 
HETATM    5  C5  UNL     1       3.920   6.787  10.477  1.00  0.00     0.149 C 
HETATM    6  O1  UNL     1       5.083   6.477  10.231  1.00  0.00    -0.293 OA
HETATM    7  C6  UNL     1       2.935   5.720  10.761  1.00  0.00     0.053 C 
HETATM    8  C7  UNL     1       1.648   5.998  11.038  1.00  0.00    -0.068 C 
HETATM    9  C8  UNL     1       0.654   4.867  11.162  1.00  0.00     0.035 C 
HETATM   10  C9  UNL     1      -0.154   4.970  12.444  1.00  0.00     0.010 C 
HETATM   11  C10 UNL     1      -0.854   6.334  12.563  1.00  0.00    -0.002 C 
HETATM   12  C11 UNL     1       0.192   7.490  12.488  1.00  0.00     0.031 C 
HETATM   13  C12 UNL     1      -0.415   8.893  12.822  1.00  0.00     0.124 C 
HETATM   14  C13 UNL     1      -1.384   8.912  14.028  1.00  0.00     0.045 C 
HETATM   15  C14 UNL     1      -2.408   7.754  14.046  1.00  0.00     0.001 C 
HETATM   16  C15 UNL     1      -3.466   7.944  12.934  1.00  0.00     0.019 C 
HETATM   17  C16 UNL     1      -1.610   6.438  13.896  1.00  0.00     0.002 C 
HETATM   18  C17 UNL     1      -2.620   5.357  14.253  1.00  0.00     0.009 C 
HETATM   19  C18 UNL     1      -3.530   5.997  15.326  1.00  0.00     0.047 C 
HETATM   20  C19 UNL     1      -3.130   7.485  15.412  1.00  0.00     0.128 C 
ENDROOT
BRANCH  20  21
HETATM   21  O3  UNL     1      -2.179   7.582  16.492  1.00  0.00    -0.381 OA
HETATM   22  H27 UNL     1      -2.075   8.540  16.679  1.00  0.00     0.211 HD
ENDBRANCH  20  21
BRANCH  20  23
HETATM   23  C20 UNL     1      -4.231   8.503  15.781  1.00  0.00     0.185 C 
HETATM   24  O4  UNL     1      -3.927   9.492  16.460  1.00  0.00    -0.292 OA
BRANCH  23  25
HETATM   25  C21 UNL     1      -5.682   8.248  15.386  1.00  0.00     0.260 C 
BRANCH  25  26
HETATM   26  O5  UNL     1      -6.001   6.890  15.098  1.00  0.00    -0.314 OA
BRANCH  26  27
HETATM   27  C22 UNL     1      -7.015   6.372  15.846  1.00  0.00     0.259 C 
HETATM   28  O6  UNL     1      -7.390   6.840  16.906  1.00  0.00    -0.265 OA
BRANCH  27  29
HETATM   29  C23 UNL     1      -7.715   5.234  15.137  1.00  0.00     0.120 C 
BRANCH  29  30
HETATM   30  C24 UNL     1      -7.857   5.431  13.634  1.00  0.00     0.112 C 
BRANCH  30  31
HETATM   31  C25 UNL     1      -7.686   4.103  12.934  1.00  0.00     0.218 C 
HETATM   32  O7  UNL     1      -8.608   3.293  12.859  1.00  0.00    -0.274 OA
HETATM   33  N1  UNL     1      -6.411   3.866  12.469  1.00  0.00    -0.357 N 
HETATM   34  H34 UNL     1      -5.656   4.449  12.809  1.00  0.00     0.162 HD
BRANCH  33  35
HETATM   35  C26 UNL     1      -6.049   2.564  11.950  1.00  0.00     0.162 C 
BRANCH  35  36
HETATM   36  C27 UNL     1      -4.616   2.545  11.500  1.00  0.00    -0.025 A 
HETATM   37  C28 UNL     1      -4.043   3.638  10.840  1.00  0.00     0.011 A 
HETATM   38  C29 UNL     1      -2.725   3.563  10.397  1.00  0.00     0.018 A 
HETATM   39  C30 UNL     1      -2.017   2.395  10.627  1.00  0.00     0.087 A 
HETATM   40  N2  UNL     1      -2.535   1.321  11.267  1.00  0.00    -0.375 N 
HETATM   41  C31 UNL     1      -3.816   1.424  11.693  1.00  0.00     0.096 A 
ATOM     42  H2  UNL     1      -1.986   0.474  11.422  1.00  0.00     0.164 HD
ENDBRANCH  35  36
ENDBRANCH  33  35
ENDBRANCH  30  31
ENDBRANCH  29  30
ENDBRANCH  27  29
ENDBRANCH  26  27
ENDBRANCH  25  26
ENDBRANCH  23  25
ENDBRANCH  20  23
BRANCH  13  43
HETATM   43  O2  UNL     1      -1.030   9.523  11.711  1.00  0.00    -0.395 OA
HETATM   44  H16 UNL     1      -1.608   8.890  11.259  1.00  0.00     0.210 HD
ENDBRANCH  13  43
TORSDOF 11
ENDMDL
MODEL 6
REMARK minimizedAffinity -8.46149445
REMARK CNNscore 0.388220847
REMARK CNNaffinity 6.26037645
REMARK  11 active torsions:
REMARK  status: ('A' for Active; 'I' for Inactive)
REMARK    1  A    between atoms: C12_13  and  O2_14 
REMARK    2  A    between atoms: C19_21  and  O3_22 
REMARK    3  A    between atoms: C19_21  and  C20_23 
REMARK    4  A    between atoms: C20_23  and  C21_25 
REMARK    5  A    between atoms: C21_25  and  O5_26 
REMARK    6  A    between atoms: O5_26  and  C22_27 
REMARK    7  A    between atoms: C22_27  and  C23_29 
REMARK    8  A    between atoms: C23_29  and  C24_30 
REMARK    9  A    between atoms: C24_30  and  C25_31 
REMARK       I    between atoms: C25_31  and  N1_33 
REMARK   10  A    between atoms: N1_33  and  C26_34 
REMARK   11  A    between atoms: C26_34  and  C27_35 
ROOT
HETATM    1  C1  UNL     1      -2.617   7.654  12.562  1.00  0.00     0.020 C 
HETATM    2  C2  UNL     1      -3.226   7.045  13.847  1.00  0.00    -0.014 C 
HETATM    3  C3  UNL     1      -2.678   5.600  14.039  1.00  0.00     0.022 C 
HETATM    4  C4  UNL     1      -3.231   4.594  13.035  1.00  0.00     0.084 C 
HETATM    5  C5  UNL     1      -4.738   4.604  13.045  1.00  0.00     0.149 C 
HETATM    6  O1  UNL     1      -5.408   3.614  12.761  1.00  0.00    -0.293 OA
HETATM    7  C6  UNL     1      -5.426   5.886  13.317  1.00  0.00     0.053 C 
HETATM    8  C7  UNL     1      -4.747   7.002  13.634  1.00  0.00    -0.068 C 
HETATM    9  C8  UNL     1      -5.487   8.315  13.744  1.00  0.00     0.035 C 
HETATM   10  C9  UNL     1      -5.170   9.028  15.048  1.00  0.00     0.010 C 
HETATM   11  C10 UNL     1      -3.657   9.231  15.230  1.00  0.00    -0.002 C 
HETATM   12  C11 UNL     1      -2.914   7.860  15.168  1.00  0.00     0.031 C 
HETATM   13  C12 UNL     1      -1.404   7.960  15.563  1.00  0.00     0.124 C 
HETATM   14  C13 UNL     1      -1.111   8.852  16.792  1.00  0.00     0.045 C 
HETATM   15  C14 UNL     1      -1.861  10.205  16.797  1.00  0.00     0.001 C 
HETATM   16  C15 UNL     1      -1.286  11.151  15.718  1.00  0.00     0.019 C 
HETATM   17  C16 UNL     1      -3.360   9.893  16.584  1.00  0.00     0.002 C 
HETATM   18  C17 UNL     1      -4.056  11.201  16.928  1.00  0.00     0.009 C 
HETATM   19  C18 UNL     1      -3.193  11.833  18.045  1.00  0.00     0.047 C 
HETATM   20  C19 UNL     1      -1.928  10.959  18.171  1.00  0.00     0.128 C 
ENDROOT
BRANCH  20  21
HETATM   21  O3  UNL     1      -2.196  10.017  19.229  1.00  0.00    -0.381 OA
HETATM   22  H27 UNL     1      -1.336   9.597  19.446  1.00  0.00     0.211 HD
ENDBRANCH  20  21
BRANCH  20  23
HETATM   23  C20 UNL     1      -0.617  11.652  18.600  1.00  0.00     0.185 C 
HETATM   24  O4  UNL     1      -0.579  12.888  18.639  1.00  0.00    -0.292 OA
BRANCH  23  25
HETATM   25  C21 UNL     1       0.634  10.828  18.887  1.00  0.00     0.260 C 
BRANCH  25  26
HETATM   26  O5  UNL     1       1.043  10.805  20.252  1.00  0.00    -0.314 OA
BRANCH  26  27
HETATM   27  C22 UNL     1       2.181  10.098  20.494  1.00  0.00     0.259 C 
HETATM   28  O6  UNL     1       3.145  10.080  19.749  1.00  0.00    -0.265 OA
BRANCH  27  29
HETATM   29  C23 UNL     1       2.167   9.454  21.863  1.00  0.00     0.120 C 
BRANCH  29  30
HETATM   30  C24 UNL     1       3.513   9.479  22.575  1.00  0.00     0.112 C 
BRANCH  30  31
HETATM   31  C25 UNL     1       3.820  10.890  23.020  1.00  0.00     0.218 C 
HETATM   32  O7  UNL     1       2.936  11.642  23.426  1.00  0.00    -0.274 OA
HETATM   33  N1  UNL     1       5.136  11.263  22.859  1.00  0.00    -0.357 N 
HETATM   34  H34 UNL     1       5.732  10.693  22.271  1.00  0.00     0.162 HD
BRANCH  33  35
HETATM   35  C26 UNL     1       5.539  12.638  23.060  1.00  0.00     0.162 C 
BRANCH  35  36
HETATM   36  C27 UNL     1       6.956  12.853  22.609  1.00  0.00    -0.025 A 
HETATM   37  C28 UNL     1       8.012  12.097  23.129  1.00  0.00     0.011 A 
HETATM   38  C29 UNL     1       9.317  12.359  22.720  1.00  0.00     0.018 A 
HETATM   39  C30 UNL     1       9.528  13.373  21.800  1.00  0.00     0.087 A 
HETATM   40  N2  UNL     1       8.533  14.122  21.271  1.00  0.00    -0.375 N 
HETATM   41  C31 UNL     1       7.274  13.840  21.682  1.00  0.00     0.096 A 
ATOM     42  H2  UNL     1       8.722  14.862  20.594  1.00  0.00     0.164 HD
ENDBRANCH  35  36
ENDBRANCH  33  35
ENDBRANCH  30  31
ENDBRANCH  29  30
ENDBRANCH  27  29
ENDBRANCH  26  27
ENDBRANCH  25  26
ENDBRANCH  23  25
ENDBRANCH  20  23
BRANCH  13  43
HETATM   43  O2  UNL     1      -0.561   8.342  14.490  1.00  0.00    -0.395 OA
HETATM   44  H16 UNL     1      -0.946   9.104  14.031  1.00  0.00     0.210 HD
ENDBRANCH  13  43
TORSDOF 11
ENDMDL
MODEL 7
REMARK minimizedAffinity -9.62350082
REMARK CNNscore 0.374225318
REMARK CNNaffinity 7.32479906
REMARK  11 active torsions:
REMARK  status: ('A' for Active; 'I' for Inactive)
REMARK    1  A    between atoms: C12_13  and  O2_14 
REMARK    2  A    between atoms: C19_21  and  O3_22 
REMARK    3  A    between atoms: C19_21  and  C20_23 
REMARK    4  A    between atoms: C20_23  and  C21_25 
REMARK    5  A    between atoms: C21_25  and  O5_26 
REMARK    6  A    between atoms: O5_26  and  C22_27 
REMARK    7  A    between atoms: C22_27  and  C23_29 
REMARK    8  A    between atoms: C23_29  and  C24_30 
REMARK    9  A    between atoms: C24_30  and  C25_31 
REMARK       I    between atoms: C25_31  and  N1_33 
REMARK   10  A    between atoms: N1_33  and  C26_34 
REMARK   11  A    between atoms: C26_34  and  C27_35 
ROOT
HETATM    1  C1  UNL     1      -6.832   5.988  16.146  1.00  0.00     0.020 C 
HETATM    2  C2  UNL     1      -6.921   6.635  14.743  1.00  0.00    -0.014 C 
HETATM    3  C3  UNL     1      -7.553   8.052  14.872  1.00  0.00     0.022 C 
HETATM    4  C4  UNL     1      -9.042   8.034  15.201  1.00  0.00     0.084 C 
HETATM    5  C5  UNL     1      -9.799   7.195  14.204  1.00  0.00     0.149 C 
HETATM    6  O1  UNL     1     -10.975   7.409  13.917  1.00  0.00    -0.293 OA
HETATM    7  C6  UNL     1      -9.119   6.016  13.624  1.00  0.00     0.053 C 
HETATM    8  C7  UNL     1      -7.833   5.731  13.901  1.00  0.00    -0.068 C 
HETATM    9  C8  UNL     1      -7.239   4.431  13.411  1.00  0.00     0.035 C 
HETATM   10  C9  UNL     1      -5.925   4.656  12.683  1.00  0.00     0.010 C 
HETATM   11  C10 UNL     1      -4.920   5.428  13.554  1.00  0.00    -0.002 C 
HETATM   12  C11 UNL     1      -5.529   6.792  14.005  1.00  0.00     0.031 C 
HETATM   13  C12 UNL     1      -4.490   7.728  14.708  1.00  0.00     0.124 C 
HETATM   14  C13 UNL     1      -3.100   7.780  14.031  1.00  0.00     0.045 C 
HETATM   15  C14 UNL     1      -2.537   6.400  13.617  1.00  0.00     0.001 C 
HETATM   16  C15 UNL     1      -2.125   5.582  14.863  1.00  0.00     0.019 C 
HETATM   17  C16 UNL     1      -3.626   5.700  12.772  1.00  0.00     0.002 C 
HETATM   18  C17 UNL     1      -2.894   4.527  12.135  1.00  0.00     0.009 C 
HETATM   19  C18 UNL     1      -1.452   5.033  11.902  1.00  0.00     0.047 C 
HETATM   20  C19 UNL     1      -1.354   6.413  12.587  1.00  0.00     0.128 C 
ENDROOT
BRANCH  20  21
HETATM   21  O3  UNL     1      -1.616   7.389  11.558  1.00  0.00    -0.381 OA
HETATM   22  H27 UNL     1      -1.361   8.258  11.935  1.00  0.00     0.211 HD
ENDBRANCH  20  21
BRANCH  20  23
HETATM   23  C20 UNL     1       0.014   6.829  13.168  1.00  0.00     0.185 C 
HETATM   24  O4  UNL     1       0.139   7.960  13.653  1.00  0.00    -0.292 OA
BRANCH  23  25
HETATM   25  C21 UNL     1       1.213   5.891  13.069  1.00  0.00     0.260 C 
BRANCH  25  26
HETATM   26  O5  UNL     1       2.132   6.192  12.023  1.00  0.00    -0.314 OA
BRANCH  26  27
HETATM   27  C22 UNL     1       1.864   5.582  10.835  1.00  0.00     0.259 C 
HETATM   28  O6  UNL     1       1.907   4.377  10.662  1.00  0.00    -0.265 OA
BRANCH  27  29
HETATM   29  C23 UNL     1       1.368   6.562   9.795  1.00  0.00     0.120 C 
BRANCH  29  30
HETATM   30  C24 UNL     1       2.290   6.712   8.592  1.00  0.00     0.112 C 
BRANCH  30  31
HETATM   31  C25 UNL     1       3.251   7.852   8.836  1.00  0.00     0.218 C 
HETATM   32  O7  UNL     1       3.364   8.779   8.036  1.00  0.00    -0.274 OA
HETATM   33  N1  UNL     1       4.018   7.717   9.972  1.00  0.00    -0.357 N 
HETATM   34  H34 UNL     1       4.063   6.809  10.419  1.00  0.00     0.162 HD
BRANCH  33  35
HETATM   35  C26 UNL     1       5.111   8.629  10.233  1.00  0.00     0.162 C 
BRANCH  35  36
HETATM   36  C27 UNL     1       5.800   8.286  11.523  1.00  0.00    -0.025 A 
HETATM   37  C28 UNL     1       6.673   9.183  12.146  1.00  0.00     0.011 A 
HETATM   38  C29 UNL     1       7.329   8.809  13.317  1.00  0.00     0.018 A 
HETATM   39  C30 UNL     1       7.093   7.544  13.830  1.00  0.00     0.087 A 
HETATM   40  N2  UNL     1       6.251   6.651  13.259  1.00  0.00    -0.375 N 
HETATM   41  C31 UNL     1       5.622   7.045  12.126  1.00  0.00     0.096 A 
ATOM     42  H2  UNL     1       6.098   5.727  13.662  1.00  0.00     0.164 HD
ENDBRANCH  35  36
ENDBRANCH  33  35
ENDBRANCH  30  31
ENDBRANCH  29  30
ENDBRANCH  27  29
ENDBRANCH  26  27
ENDBRANCH  25  26
ENDBRANCH  23  25
ENDBRANCH  20  23
BRANCH  13  43
HETATM   43  O2  UNL     1      -4.333   7.463  16.091  1.00  0.00    -0.395 OA
HETATM   44  H16 UNL     1      -4.229   6.509  16.228  1.00  0.00     0.210 HD
ENDBRANCH  13  43
TORSDOF 11
ENDMDL
MODEL 8
REMARK minimizedAffinity -8.25808811
REMARK CNNscore 0.349528342
REMARK CNNaffinity 6.51275778
REMARK  11 active torsions:
REMARK  status: ('A' for Active; 'I' for Inactive)
REMARK    1  A    between atoms: C12_13  and  O2_14 
REMARK    2  A    between atoms: C19_21  and  O3_22 
REMARK    3  A    between atoms: C19_21  and  C20_23 
REMARK    4  A    between atoms: C20_23  and  C21_25 
REMARK    5  A    between atoms: C21_25  and  O5_26 
REMARK    6  A    between atoms: O5_26  and  C22_27 
REMARK    7  A    between atoms: C22_27  and  C23_29 
REMARK    8  A    between atoms: C23_29  and  C24_30 
REMARK    9  A    between atoms: C24_30  and  C25_31 
REMARK       I    between atoms: C25_31  and  N1_33 
REMARK   10  A    between atoms: N1_33  and  C26_34 
REMARK   11  A    between atoms: C26_34  and  C27_35 
ROOT
HETATM    1  C1  UNL     1       0.195   8.477  10.581  1.00  0.00     0.020 C 
HETATM    2  C2  UNL     1       0.651   7.694  11.835  1.00  0.00    -0.014 C 
HETATM    3  C3  UNL     1       1.825   8.457  12.516  1.00  0.00     0.022 C 
HETATM    4  C4  UNL     1       3.133   8.397  11.733  1.00  0.00     0.084 C 
HETATM    5  C5  UNL     1       3.515   6.969  11.439  1.00  0.00     0.149 C 
HETATM    6  O1  UNL     1       4.683   6.612  11.306  1.00  0.00    -0.293 OA
HETATM    7  C6  UNL     1       2.430   5.989  11.212  1.00  0.00     0.053 C 
HETATM    8  C7  UNL     1       1.134   6.322  11.344  1.00  0.00    -0.068 C 
HETATM    9  C8  UNL     1       0.068   5.328  10.945  1.00  0.00     0.035 C 
HETATM   10  C9  UNL     1      -0.966   5.145  12.043  1.00  0.00     0.010 C 
HETATM   11  C10 UNL     1      -1.591   6.486  12.461  1.00  0.00    -0.002 C 
HETATM   12  C11 UNL     1      -0.483   7.482  12.921  1.00  0.00     0.031 C 
HETATM   13  C12 UNL     1      -1.056   8.787  13.567  1.00  0.00     0.124 C 
HETATM   14  C13 UNL     1      -2.236   8.565  14.542  1.00  0.00     0.045 C 
HETATM   15  C14 UNL     1      -3.314   7.580  14.031  1.00  0.00     0.001 C 
HETATM   16  C15 UNL     1      -4.123   8.210  12.873  1.00  0.00     0.019 C 
HETATM   17  C16 UNL     1      -2.583   6.283  13.616  1.00  0.00     0.002 C 
HETATM   18  C17 UNL     1      -3.706   5.270  13.448  1.00  0.00     0.009 C 
HETATM   19  C18 UNL     1      -4.767   5.669  14.500  1.00  0.00     0.047 C 
HETATM   20  C19 UNL     1      -4.301   7.009  15.107  1.00  0.00     0.128 C 
ENDROOT
BRANCH  20  21
HETATM   21  O3  UNL     1      -3.573   6.674  16.306  1.00  0.00    -0.381 OA
HETATM   22  H27 UNL     1      -3.449   7.516  16.795  1.00  0.00     0.211 HD
ENDBRANCH  20  21
BRANCH  20  23
HETATM   23  C20 UNL     1      -5.389   7.996  15.585  1.00  0.00     0.185 C 
HETATM   24  O4  UNL     1      -5.060   9.153  15.876  1.00  0.00    -0.292 OA
BRANCH  23  25
HETATM   25  C21 UNL     1      -6.827   7.527  15.776  1.00  0.00     0.260 C 
BRANCH  25  26
HETATM   26  O5  UNL     1      -7.757   8.018  14.815  1.00  0.00    -0.314 OA
BRANCH  26  27
HETATM   27  C22 UNL     1      -8.695   8.871  15.312  1.00  0.00     0.259 C 
HETATM   28  O6  UNL     1      -8.646  10.082  15.197  1.00  0.00    -0.265 OA
BRANCH  27  29
HETATM   29  C23 UNL     1      -9.878   8.131  15.897  1.00  0.00     0.120 C 
BRANCH  29  30
HETATM   30  C24 UNL     1     -11.215   8.500  15.267  1.00  0.00     0.112 C 
BRANCH  30  31
HETATM   31  C25 UNL     1     -11.896   9.548  16.115  1.00  0.00     0.218 C 
HETATM   32  O7  UNL     1     -12.955  10.067  15.767  1.00  0.00    -0.274 OA
HETATM   33  N1  UNL     1     -11.197   9.909  17.245  1.00  0.00    -0.357 N 
HETATM   34  H34 UNL     1     -10.221   9.645  17.315  1.00  0.00     0.162 HD
BRANCH  33  35
HETATM   35  C26 UNL     1     -11.628  11.032  18.050  1.00  0.00     0.162 C 
BRANCH  35  36
HETATM   36  C27 UNL     1     -11.379  10.774  19.509  1.00  0.00    -0.025 A 
HETATM   37  C28 UNL     1     -10.770  11.733  20.326  1.00  0.00     0.011 A 
HETATM   38  C29 UNL     1     -10.514  11.438  21.664  1.00  0.00     0.018 A 
HETATM   39  C30 UNL     1     -10.874  10.190  22.144  1.00  0.00     0.087 A 
HETATM   40  N2  UNL     1     -11.469   9.240  21.386  1.00  0.00    -0.375 N 
HETATM   41  C31 UNL     1     -11.712   9.556  20.092  1.00  0.00     0.096 A 
ATOM     42  H2  UNL     1     -11.723   8.329  21.770  1.00  0.00     0.164 HD
ENDBRANCH  35  36
ENDBRANCH  33  35
ENDBRANCH  30  31
ENDBRANCH  29  30
ENDBRANCH  27  29
ENDBRANCH  26  27
ENDBRANCH  25  26
ENDBRANCH  23  25
ENDBRANCH  20  23
BRANCH  13  43
HETATM   43  O2  UNL     1      -1.405   9.782  12.621  1.00  0.00    -0.395 OA
HETATM   44  H16 UNL     1      -1.922   9.381  11.906  1.00  0.00     0.210 HD
ENDBRANCH  13  43
TORSDOF 11
ENDMDL
MODEL 9
REMARK minimizedAffinity -7.91128349
REMARK CNNscore 0.327989101
REMARK CNNaffinity 6.67798805
REMARK  11 active torsions:
REMARK  status: ('A' for Active; 'I' for Inactive)
REMARK    1  A    between atoms: C12_13  and  O2_14 
REMARK    2  A    between atoms: C19_21  and  O3_22 
REMARK    3  A    between atoms: C19_21  and  C20_23 
REMARK    4  A    between atoms: C20_23  and  C21_25 
REMARK    5  A    between atoms: C21_25  and  O5_26 
REMARK    6  A    between atoms: O5_26  and  C22_27 
REMARK    7  A    between atoms: C22_27  and  C23_29 
REMARK    8  A    between atoms: C23_29  and  C24_30 
REMARK    9  A    between atoms: C24_30  and  C25_31 
REMARK       I    between atoms: C25_31  and  N1_33 
REMARK   10  A    between atoms: N1_33  and  C26_34 
REMARK   11  A    between atoms: C26_34  and  C27_35 
ROOT
HETATM    1  C1  UNL     1      -7.793   5.304  15.795  1.00  0.00     0.020 C 
HETATM    2  C2  UNL     1      -7.626   6.092  14.475  1.00  0.00    -0.014 C 
HETATM    3  C3  UNL     1      -7.910   5.144  13.273  1.00  0.00     0.022 C 
HETATM    4  C4  UNL     1      -6.824   4.098  13.044  1.00  0.00     0.084 C 
HETATM    5  C5  UNL     1      -5.473   4.752  12.906  1.00  0.00     0.149 C 
HETATM    6  O1  UNL     1      -4.566   4.261  12.239  1.00  0.00    -0.293 OA
HETATM    7  C6  UNL     1      -5.212   5.984  13.683  1.00  0.00     0.053 C 
HETATM    8  C7  UNL     1      -6.166   6.568  14.430  1.00  0.00    -0.068 C 
HETATM    9  C8  UNL     1      -5.801   7.729  15.326  1.00  0.00     0.035 C 
HETATM   10  C9  UNL     1      -6.733   8.910  15.118  1.00  0.00     0.010 C 
HETATM   11  C10 UNL     1      -8.205   8.510  15.307  1.00  0.00    -0.002 C 
HETATM   12  C11 UNL     1      -8.581   7.348  14.337  1.00  0.00     0.031 C 
HETATM   13  C12 UNL     1     -10.113   7.035  14.314  1.00  0.00     0.124 C 
HETATM   14  C13 UNL     1     -11.031   8.280  14.291  1.00  0.00     0.045 C 
HETATM   15  C14 UNL     1     -10.623   9.396  15.281  1.00  0.00     0.001 C 
HETATM   16  C15 UNL     1     -10.907   8.962  16.738  1.00  0.00     0.019 C 
HETATM   17  C16 UNL     1      -9.129   9.705  15.027  1.00  0.00     0.002 C 
HETATM   18  C17 UNL     1      -8.894  11.006  15.781  1.00  0.00     0.009 C 
HETATM   19  C18 UNL     1     -10.229  11.778  15.675  1.00  0.00     0.047 C 
HETATM   20  C19 UNL     1     -11.245  10.813  15.028  1.00  0.00     0.128 C 
ENDROOT
BRANCH  20  21
HETATM   21  O3  UNL     1     -11.231  11.105  13.616  1.00  0.00    -0.381 OA
HETATM   22  H27 UNL     1     -12.007  10.642  13.234  1.00  0.00     0.211 HD
ENDBRANCH  20  21
BRANCH  20  23
HETATM   23  C20 UNL     1     -12.728  10.957  15.432  1.00  0.00     0.185 C 
HETATM   24  O4  UNL     1     -13.013  11.076  16.631  1.00  0.00    -0.292 OA
BRANCH  23  25
HETATM   25  C21 UNL     1     -13.828  10.867  14.379  1.00  0.00     0.260 C 
BRANCH  25  26
HETATM   26  O5  UNL     1     -14.289   9.550  14.096  1.00  0.00    -0.314 OA
BRANCH  26  27
HETATM   27  C22 UNL     1     -14.065   9.129  12.820  1.00  0.00     0.259 C 
HETATM   28  O6  UNL     1     -13.551   9.816  11.955  1.00  0.00    -0.265 OA
BRANCH  27  29
HETATM   29  C23 UNL     1     -14.394   7.663  12.642  1.00  0.00     0.120 C 
BRANCH  29  30
HETATM   30  C24 UNL     1     -15.855   7.391  12.308  1.00  0.00     0.112 C 
BRANCH  30  31
HETATM   31  C25 UNL     1     -16.502   6.648  13.453  1.00  0.00     0.218 C 
HETATM   32  O7  UNL     1     -16.511   7.108  14.594  1.00  0.00    -0.274 OA
HETATM   33  N1  UNL     1     -16.999   5.408  13.119  1.00  0.00    -0.357 N 
HETATM   34  H34 UNL     1     -16.709   4.992  12.242  1.00  0.00     0.162 HD
BRANCH  33  35
HETATM   35  C26 UNL     1     -17.472   4.505  14.145  1.00  0.00     0.162 C 
BRANCH  35  36
HETATM   36  C27 UNL     1     -16.770   3.180  14.061  1.00  0.00    -0.025 A 
HETATM   37  C28 UNL     1     -15.661   2.888  14.863  1.00  0.00     0.011 A 
HETATM   38  C29 UNL     1     -15.008   1.665  14.721  1.00  0.00     0.018 A 
HETATM   39  C30 UNL     1     -15.484   0.770  13.778  1.00  0.00     0.087 A 
HETATM   40  N2  UNL     1     -16.555   1.014  12.988  1.00  0.00    -0.375 N 
HETATM   41  C31 UNL     1     -17.174   2.207  13.153  1.00  0.00     0.096 A 
ATOM     42  H2  UNL     1     -16.881   0.332  12.303  1.00  0.00     0.164 HD
ENDBRANCH  35  36
ENDBRANCH  33  35
ENDBRANCH  30  31
ENDBRANCH  29  30
ENDBRANCH  27  29
ENDBRANCH  26  27
ENDBRANCH  25  26
ENDBRANCH  23  25
ENDBRANCH  20  23
BRANCH  13  43
HETATM   43  O2  UNL     1     -10.529   6.161  15.348  1.00  0.00    -0.395 OA
HETATM   44  H16 UNL     1     -10.154   6.455  16.192  1.00  0.00     0.210 HD
ENDBRANCH  13  43
TORSDOF 11
ENDMDL
