MODEL 1
REMARK minimizedAffinity -8.2293663
REMARK CNNscore 0.479699671
REMARK CNNaffinity 7.30358315
REMARK  9 active torsions:
REMARK  status: ('A' for Active; 'I' for Inactive)
REMARK       I    between atoms: N1_1  and  C1_2 
REMARK       I    between atoms: C1_2  and  N2_3 
REMARK    1  A    between atoms: N3_4  and  C2_6 
REMARK    2  A    between atoms: C2_6  and  C3_7 
REMARK    3  A    between atoms: C3_7  and  C4_8 
REMARK    4  A    between atoms: C4_8  and  C5_9 
REMARK    5  A    between atoms: C5_9  and  O1_10 
REMARK    6  A    between atoms: C14_20  and  S1_21 
REMARK    7  A    between atoms: C23_33  and  C24_34 
REMARK    8  A    between atoms: C24_34  and  O6_35 
REMARK    9  A    between atoms: C30_41  and  O7_42 
ROOT
HETATM    1  C2  UNL     1      -8.926  46.049 -31.032  1.00  0.00     0.170 C 
HETATM    2  O2  UNL     1      -9.997  46.182 -32.047  1.00  0.00    -0.316 OA
HETATM    3  C6  UNL     1     -10.206  45.119 -32.881  1.00  0.00     0.072 C 
HETATM    4  C7  UNL     1     -10.758  43.926 -32.429  1.00  0.00     0.037 C 
HETATM    5  C8  UNL     1     -10.700  42.797 -33.244  1.00  0.00     0.010 C 
HETATM    6  C9  UNL     1     -10.102  42.861 -34.511  1.00  0.00    -0.058 C 
HETATM    7  C10 UNL     1      -9.697  44.106 -35.009  1.00  0.00     0.010 C 
HETATM    8  C11 UNL     1      -9.774  45.241 -34.202  1.00  0.00     0.037 C 
HETATM    9  C12 UNL     1      -9.806  41.596 -35.279  1.00  0.00     0.040 C 
HETATM   10  C13 UNL     1      -8.373  41.071 -35.051  1.00  0.00     0.029 C 
HETATM   11  C14 UNL     1      -8.004  40.595 -33.623  1.00  0.00     0.152 C 
HETATM   12  C15 UNL     1      -6.461  40.350 -33.416  1.00  0.00     0.107 C 
HETATM   13  C16 UNL     1      -5.793  39.656 -34.589  1.00  0.00     0.001 C 
HETATM   14  C17 UNL     1      -4.829  40.249 -35.316  1.00  0.00    -0.036 C 
HETATM   15  C18 UNL     1      -4.569  41.706 -35.144  1.00  0.00     0.133 C 
HETATM   16  C19 UNL     1      -4.275  41.881 -33.673  1.00  0.00     0.015 C 
HETATM   17  C20 UNL     1      -2.967  41.125 -33.290  1.00  0.00     0.039 C 
HETATM   18  C21 UNL     1      -2.709  39.639 -33.720  1.00  0.00     0.123 C 
HETATM   19  C22 UNL     1      -1.372  39.249 -33.016  1.00  0.00     0.039 C 
HETATM   20  C23 UNL     1      -0.722  37.885 -33.347  1.00  0.00     0.023 C 
HETATM   21  C25 UNL     1      -1.636  36.691 -33.012  1.00  0.00     0.101 C 
HETATM   22  C26 UNL     1      -2.582  36.509 -34.110  1.00  0.00    -0.101 C 
HETATM   23  C27 UNL     1      -3.263  36.605 -35.091  1.00  0.00    -0.066 C 
HETATM   24  C28 UNL     1      -3.974  36.901 -36.286  1.00  0.00     0.029 A 
HETATM   25  C29 UNL     1      -4.483  35.818 -37.019  1.00  0.00     0.057 A 
HETATM   26  C30 UNL     1      -5.209  36.040 -38.181  1.00  0.00     0.067 A 
HETATM   27  C31 UNL     1      -5.425  37.329 -38.642  1.00  0.00     0.037 A 
HETATM   28  C32 UNL     1      -4.909  38.407 -37.920  1.00  0.00     0.014 A 
HETATM   29  C33 UNL     1      -4.167  38.222 -36.726  1.00  0.00    -0.006 A 
HETATM   30  C34 UNL     1      -3.719  39.496 -35.997  1.00  0.00     0.186 C 
HETATM   31  O8  UNL     1      -2.541  39.452 -35.146  1.00  0.00    -0.371 OA
HETATM   32  C35 UNL     1      -5.547  41.516 -32.813  1.00  0.00     0.046 C 
HETATM   33  C36 UNL     1      -6.307  42.743 -32.303  1.00  0.00    -0.052 A 
HETATM   34  C37 UNL     1      -6.338  43.966 -32.981  1.00  0.00     0.008 A 
HETATM   35  C38 UNL     1      -7.096  45.039 -32.499  1.00  0.00     0.012 A 
HETATM   36  C39 UNL     1      -7.918  44.906 -31.365  1.00  0.00    -0.003 A 
HETATM   37  C40 UNL     1      -7.841  43.698 -30.653  1.00  0.00     0.012 A 
HETATM   38  C41 UNL     1      -7.039  42.642 -31.109  1.00  0.00     0.008 A 
HETATM   39 NA1  UNL     1      -6.294  41.820 -33.204  1.00  0.00    -0.237 Na
ENDROOT
BRANCH   1  40
HETATM   40  N3  UNL     1      -8.200  47.338 -30.909  1.00  0.00    -0.336 N 
HETATM   41  C1  UNL     1      -8.729  48.459 -30.619  1.00  0.00     0.124 C 
HETATM   42  N1  UNL     1      -7.936  49.556 -30.567  1.00  0.00    -0.279 NA
HETATM   43  N2  UNL     1      -9.992  48.821 -30.318  1.00  0.00    -0.279 NA
HETATM   44  H1  UNL     1      -6.961  49.273 -30.613  1.00  0.00     0.126 HD
HETATM   45  H2  UNL     1      -8.108  50.099 -29.729  1.00  0.00     0.126 HD
HETATM   46  H3  UNL     1     -10.700  48.104 -30.423  1.00  0.00     0.126 HD
HETATM   47  H4  UNL     1     -10.275  49.694 -30.754  1.00  0.00     0.126 HD
ATOM     48  H3  UNL     1      -7.193  47.325 -31.071  1.00  0.00     0.165 HD
ENDBRANCH   1  40
BRANCH   1  49
HETATM   49  C3  UNL     1      -9.696  45.848 -29.681  1.00  0.00     0.069 C 
BRANCH  49  50
HETATM   50  C4  UNL     1     -11.187  45.483 -29.785  1.00  0.00     0.031 C 
BRANCH  50  51
HETATM   51  C5  UNL     1     -12.130  46.304 -28.920  1.00  0.00     0.164 C 
BRANCH  51  52
HETATM   52  O1  UNL     1     -13.256  46.708 -29.702  1.00  0.00    -0.401 OA
HETATM   53  H11 UNL     1     -12.904  47.252 -30.428  1.00  0.00     0.209 HD
ENDBRANCH  51  52
ENDBRANCH  50  51
ENDBRANCH  49  50
ENDBRANCH   1  49
BRANCH  11  54
HETATM   54  S1  UNL     1      -8.920  39.086 -33.142  1.00  0.00     0.108 S 
HETATM   55  O3  UNL     1      -8.031  38.383 -32.221  1.00  0.00    -0.595 OA
HETATM   56  O4  UNL     1      -9.109  38.376 -34.407  1.00  0.00    -0.595 OA
HETATM   57  O5  UNL     1     -10.146  39.590 -32.529  1.00  0.00    -0.595 OA
ENDBRANCH  11  54
BRANCH  20  58
HETATM   58  C24 UNL     1       0.613  37.746 -32.600  1.00  0.00     0.169 C 
BRANCH  58  59
HETATM   59  O6  UNL     1       0.856  36.395 -32.229  1.00  0.00    -0.400 OA
HETATM   60  H34 UNL     1       1.678  36.387 -31.711  1.00  0.00     0.209 HD
ENDBRANCH  58  59
ENDBRANCH  20  58
BRANCH  26  61
HETATM   61  O7  UNL     1      -5.707  34.959 -38.846  1.00  0.00    -0.361 OA
HETATM   62  H38 UNL     1      -6.425  35.275 -39.422  1.00  0.00     0.217 HD
ENDBRANCH  26  61
TORSDOF 9
ENDMDL
MODEL 2
REMARK minimizedAffinity -7.65672922
REMARK CNNscore 0.368142158
REMARK CNNaffinity 6.99341249
REMARK  9 active torsions:
REMARK  status: ('A' for Active; 'I' for Inactive)
REMARK       I    between atoms: N1_1  and  C1_2 
REMARK       I    between atoms: C1_2  and  N2_3 
REMARK    1  A    between atoms: N3_4  and  C2_6 
REMARK    2  A    between atoms: C2_6  and  C3_7 
REMARK    3  A    between atoms: C3_7  and  C4_8 
REMARK    4  A    between atoms: C4_8  and  C5_9 
REMARK    5  A    between atoms: C5_9  and  O1_10 
REMARK    6  A    between atoms: C14_20  and  S1_21 
REMARK    7  A    between atoms: C23_33  and  C24_34 
REMARK    8  A    between atoms: C24_34  and  O6_35 
REMARK    9  A    between atoms: C30_41  and  O7_42 
ROOT
HETATM    1  C2  UNL     1     -10.080  46.422 -29.637  1.00  0.00     0.170 C 
HETATM    2  O2  UNL     1      -9.996  47.398 -30.749  1.00  0.00    -0.316 OA
HETATM    3  C6  UNL     1     -10.017  46.901 -32.023  1.00  0.00     0.072 C 
HETATM    4  C7  UNL     1     -11.162  46.341 -32.577  1.00  0.00     0.037 C 
HETATM    5  C8  UNL     1     -11.058  45.613 -33.761  1.00  0.00     0.010 C 
HETATM    6  C9  UNL     1      -9.818  45.454 -34.396  1.00  0.00    -0.058 C 
HETATM    7  C10 UNL     1      -8.710  46.157 -33.909  1.00  0.00     0.010 C 
HETATM    8  C11 UNL     1      -8.817  46.904 -32.735  1.00  0.00     0.037 C 
HETATM    9  C12 UNL     1      -9.660  44.460 -35.521  1.00  0.00     0.040 C 
HETATM   10  C13 UNL     1      -9.162  43.080 -35.043  1.00  0.00     0.029 C 
HETATM   11  C14 UNL     1     -10.096  42.265 -34.112  1.00  0.00     0.152 C 
HETATM   12  C15 UNL     1      -9.398  41.016 -33.451  1.00  0.00     0.107 C 
HETATM   13  C16 UNL     1      -8.499  40.247 -34.404  1.00  0.00     0.001 C 
HETATM   14  C17 UNL     1      -7.172  40.140 -34.204  1.00  0.00    -0.036 C 
HETATM   15  C18 UNL     1      -6.512  40.991 -33.175  1.00  0.00     0.133 C 
HETATM   16  C19 UNL     1      -7.243  40.690 -31.888  1.00  0.00     0.015 C 
HETATM   17  C20 UNL     1      -7.023  39.203 -31.477  1.00  0.00     0.039 C 
HETATM   18  C21 UNL     1      -7.208  38.023 -32.493  1.00  0.00     0.123 C 
HETATM   19  C22 UNL     1      -7.030  36.730 -31.636  1.00  0.00     0.039 C 
HETATM   20  C23 UNL     1      -6.990  35.359 -32.350  1.00  0.00     0.023 C 
HETATM   21  C25 UNL     1      -8.278  35.059 -33.141  1.00  0.00     0.101 C 
HETATM   22  C26 UNL     1      -8.197  35.736 -34.432  1.00  0.00    -0.101 C 
HETATM   23  C27 UNL     1      -7.913  36.417 -35.376  1.00  0.00    -0.066 C 
HETATM   24  C28 UNL     1      -7.422  37.296 -36.380  1.00  0.00     0.029 A 
HETATM   25  C29 UNL     1      -7.700  36.971 -37.715  1.00  0.00     0.057 A 
HETATM   26  C30 UNL     1      -7.270  37.801 -38.742  1.00  0.00     0.067 A 
HETATM   27  C31 UNL     1      -6.547  38.950 -38.463  1.00  0.00     0.037 A 
HETATM   28  C32 UNL     1      -6.258  39.269 -37.135  1.00  0.00     0.014 A 
HETATM   29  C33 UNL     1      -6.684  38.449 -36.059  1.00  0.00    -0.006 A 
HETATM   30  C34 UNL     1      -6.359  38.954 -34.646  1.00  0.00     0.186 C 
HETATM   31  O8  UNL     1      -6.229  37.996 -33.559  1.00  0.00    -0.371 OA
HETATM   32  C35 UNL     1      -8.750  41.149 -31.995  1.00  0.00     0.046 C 
HETATM   33  C36 UNL     1      -9.034  42.468 -31.273  1.00  0.00    -0.052 A 
HETATM   34  C37 UNL     1      -8.080  43.478 -31.109  1.00  0.00     0.008 A 
HETATM   35  C38 UNL     1      -8.411  44.689 -30.490  1.00  0.00     0.012 A 
HETATM   36  C39 UNL     1      -9.728  44.970 -30.083  1.00  0.00    -0.003 A 
HETATM   37  C40 UNL     1     -10.669  43.934 -30.194  1.00  0.00     0.012 A 
HETATM   38  C41 UNL     1     -10.323  42.702 -30.765  1.00  0.00     0.008 A 
HETATM   39 NA1  UNL     1      -8.814  41.932 -32.425  1.00  0.00    -0.237 Na
ENDROOT
BRANCH   1  40
HETATM   40  N3  UNL     1      -9.173  46.846 -28.541  1.00  0.00    -0.336 N 
HETATM   41  C1  UNL     1      -8.610  47.983 -28.445  1.00  0.00     0.124 C 
HETATM   42  N1  UNL     1      -7.787  48.213 -27.395  1.00  0.00    -0.279 NA
HETATM   43  N2  UNL     1      -8.665  49.095 -29.206  1.00  0.00    -0.279 NA
HETATM   44  H1  UNL     1      -7.877  47.457 -26.721  1.00  0.00     0.126 HD
HETATM   45  H2  UNL     1      -7.988  49.104 -26.955  1.00  0.00     0.126 HD
HETATM   46  H3  UNL     1      -9.171  49.014 -30.080  1.00  0.00     0.126 HD
HETATM   47  H4  UNL     1      -7.761  49.539 -29.336  1.00  0.00     0.126 HD
ATOM     48  H3  UNL     1      -8.986  46.168 -27.802  1.00  0.00     0.165 HD
ENDBRANCH   1  40
BRANCH   1  49
HETATM   49  C3  UNL     1     -11.539  46.586 -29.089  1.00  0.00     0.069 C 
BRANCH  49  50
HETATM   50  C4  UNL     1     -12.037  48.025 -28.869  1.00  0.00     0.031 C 
BRANCH  50  51
HETATM   51  C5  UNL     1     -12.581  48.331 -27.483  1.00  0.00     0.164 C 
BRANCH  51  52
HETATM   52  O1  UNL     1     -11.622  49.105 -26.759  1.00  0.00    -0.401 OA
HETATM   53  H11 UNL     1     -10.820  48.556 -26.695  1.00  0.00     0.209 HD
ENDBRANCH  51  52
ENDBRANCH  50  51
ENDBRANCH  49  50
ENDBRANCH   1  49
BRANCH  11  54
HETATM   54  S1  UNL     1     -11.615  41.717 -34.970  1.00  0.00     0.108 S 
HETATM   55  O3  UNL     1     -12.562  42.816 -34.797  1.00  0.00    -0.595 OA
HETATM   56  O4  UNL     1     -12.006  40.507 -34.248  1.00  0.00    -0.595 OA
HETATM   57  O5  UNL     1     -11.191  41.501 -36.351  1.00  0.00    -0.595 OA
ENDBRANCH  11  54
BRANCH  20  58
HETATM   58  C24 UNL     1      -6.735  34.243 -31.326  1.00  0.00     0.169 C 
BRANCH  58  59
HETATM   59  O6  UNL     1      -7.347  34.543 -30.077  1.00  0.00    -0.400 OA
HETATM   60  H34 UNL     1      -7.096  33.833 -29.461  1.00  0.00     0.209 HD
ENDBRANCH  58  59
ENDBRANCH  20  58
BRANCH  26  61
HETATM   61  O7  UNL     1      -7.587  37.460 -40.024  1.00  0.00    -0.361 OA
HETATM   62  H38 UNL     1      -7.504  38.261 -40.568  1.00  0.00     0.217 HD
ENDBRANCH  26  61
TORSDOF 9
ENDMDL
MODEL 3
REMARK minimizedAffinity -9.47868347
REMARK CNNscore 0.311312884
REMARK CNNaffinity 7.11835337
REMARK  9 active torsions:
REMARK  status: ('A' for Active; 'I' for Inactive)
REMARK       I    between atoms: N1_1  and  C1_2 
REMARK       I    between atoms: C1_2  and  N2_3 
REMARK    1  A    between atoms: N3_4  and  C2_6 
REMARK    2  A    between atoms: C2_6  and  C3_7 
REMARK    3  A    between atoms: C3_7  and  C4_8 
REMARK    4  A    between atoms: C4_8  and  C5_9 
REMARK    5  A    between atoms: C5_9  and  O1_10 
REMARK    6  A    between atoms: C14_20  and  S1_21 
REMARK    7  A    between atoms: C23_33  and  C24_34 
REMARK    8  A    between atoms: C24_34  and  O6_35 
REMARK    9  A    between atoms: C30_41  and  O7_42 
ROOT
HETATM    1  C2  UNL     1      -7.518  47.702 -31.066  1.00  0.00     0.170 C 
HETATM    2  O2  UNL     1      -8.509  48.025 -32.119  1.00  0.00    -0.316 OA
HETATM    3  C6  UNL     1      -8.944  46.995 -32.907  1.00  0.00     0.072 C 
HETATM    4  C7  UNL     1      -9.766  45.987 -32.416  1.00  0.00     0.037 C 
HETATM    5  C8  UNL     1      -9.955  44.834 -33.175  1.00  0.00     0.010 C 
HETATM    6  C9  UNL     1      -9.335  44.691 -34.425  1.00  0.00    -0.058 C 
HETATM    7  C10 UNL     1      -8.643  45.780 -34.968  1.00  0.00     0.010 C 
HETATM    8  C11 UNL     1      -8.471  46.944 -34.219  1.00  0.00     0.037 C 
HETATM    9  C12 UNL     1      -9.326  43.352 -35.122  1.00  0.00     0.040 C 
HETATM   10  C13 UNL     1      -8.058  42.525 -34.825  1.00  0.00     0.029 C 
HETATM   11  C14 UNL     1      -7.837  42.052 -33.366  1.00  0.00     0.152 C 
HETATM   12  C15 UNL     1      -6.397  41.470 -33.100  1.00  0.00     0.107 C 
HETATM   13  C16 UNL     1      -5.886  40.579 -34.218  1.00  0.00     0.001 C 
HETATM   14  C17 UNL     1      -4.797  40.894 -34.942  1.00  0.00    -0.036 C 
HETATM   15  C18 UNL     1      -4.210  42.260 -34.831  1.00  0.00     0.133 C 
HETATM   16  C19 UNL     1      -3.910  42.440 -33.362  1.00  0.00     0.015 C 
HETATM   17  C20 UNL     1      -2.822  41.424 -32.904  1.00  0.00     0.039 C 
HETATM   18  C21 UNL     1      -2.907  39.898 -33.255  1.00  0.00     0.123 C 
HETATM   19  C22 UNL     1      -1.710  39.248 -32.492  1.00  0.00     0.039 C 
HETATM   20  C23 UNL     1      -1.388  37.755 -32.738  1.00  0.00     0.023 C 
HETATM   21  C25 UNL     1      -2.560  36.824 -32.375  1.00  0.00     0.101 C 
HETATM   22  C26 UNL     1      -3.501  36.806 -33.491  1.00  0.00    -0.101 C 
HETATM   23  C27 UNL     1      -4.123  37.005 -34.497  1.00  0.00    -0.066 C 
HETATM   24  C28 UNL     1      -4.724  37.392 -35.725  1.00  0.00     0.029 A 
HETATM   25  C29 UNL     1      -5.455  36.419 -36.421  1.00  0.00     0.057 A 
HETATM   26  C30 UNL     1      -6.088  36.740 -37.614  1.00  0.00     0.067 A 
HETATM   27  C31 UNL     1      -5.991  38.017 -38.143  1.00  0.00     0.037 A 
HETATM   28  C32 UNL     1      -5.252  38.984 -37.458  1.00  0.00     0.014 A 
HETATM   29  C33 UNL     1      -4.597  38.697 -36.234  1.00  0.00    -0.006 A 
HETATM   30  C34 UNL     1      -3.879  39.871 -35.553  1.00  0.00     0.186 C 
HETATM   31  O8  UNL     1      -2.759  39.602 -34.664  1.00  0.00    -0.371 OA
HETATM   32  C35 UNL     1      -5.249  42.424 -32.525  1.00  0.00     0.046 C 
HETATM   33  C36 UNL     1      -5.714  43.819 -32.098  1.00  0.00    -0.052 A 
HETATM   34  C37 UNL     1      -5.447  44.978 -32.834  1.00  0.00     0.008 A 
HETATM   35  C38 UNL     1      -5.945  46.221 -32.427  1.00  0.00     0.012 A 
HETATM   36  C39 UNL     1      -6.797  46.341 -31.313  1.00  0.00    -0.003 A 
HETATM   37  C40 UNL     1      -7.015  45.188 -30.543  1.00  0.00     0.012 A 
HETATM   38  C41 UNL     1      -6.471  43.953 -30.923  1.00  0.00     0.008 A 
HETATM   39 NA1  UNL     1      -5.897  42.871 -32.953  1.00  0.00    -0.237 Na
ENDROOT
BRANCH   1  40
HETATM   40  N3  UNL     1      -6.515  48.794 -30.982  1.00  0.00    -0.336 N 
HETATM   41  C1  UNL     1      -5.370  48.706 -30.434  1.00  0.00     0.124 C 
HETATM   42  N1  UNL     1      -4.573  49.801 -30.415  1.00  0.00    -0.279 NA
HETATM   43  N2  UNL     1      -4.722  47.687 -29.834  1.00  0.00    -0.279 NA
HETATM   44  H1  UNL     1      -4.968  50.518 -31.017  1.00  0.00     0.126 HD
HETATM   45  H2  UNL     1      -3.629  49.577 -30.706  1.00  0.00     0.126 HD
HETATM   46  H3  UNL     1      -5.257  46.838 -29.694  1.00  0.00     0.126 HD
HETATM   47  H4  UNL     1      -4.231  47.964 -28.990  1.00  0.00     0.126 HD
ATOM     48  H3  UNL     1      -6.766  49.691 -31.399  1.00  0.00     0.165 HD
ENDBRANCH   1  40
BRANCH   1  49
HETATM   49  C3  UNL     1      -8.339  47.757 -29.732  1.00  0.00     0.069 C 
BRANCH  49  50
HETATM   50  C4  UNL     1      -7.536  47.669 -28.423  1.00  0.00     0.031 C 
BRANCH  50  51
HETATM   51  C5  UNL     1      -8.286  48.064 -27.160  1.00  0.00     0.164 C 
BRANCH  51  52
HETATM   52  O1  UNL     1      -9.139  49.174 -27.446  1.00  0.00    -0.401 OA
HETATM   53  H11 UNL     1      -8.557  49.899 -27.734  1.00  0.00     0.209 HD
ENDBRANCH  51  52
ENDBRANCH  50  51
ENDBRANCH  49  50
ENDBRANCH   1  49
BRANCH  11  54
HETATM   54  S1  UNL     1      -9.086  40.824 -32.843  1.00  0.00     0.108 S 
HETATM   55  O3  UNL     1      -9.387  40.055 -34.048  1.00  0.00    -0.595 OA
HETATM   56  O4  UNL     1     -10.212  41.642 -32.392  1.00  0.00    -0.595 OA
HETATM   57  O5  UNL     1      -8.421  40.058 -31.792  1.00  0.00    -0.595 OA
ENDBRANCH  11  54
BRANCH  20  58
HETATM   58  C24 UNL     1      -0.136  37.353 -31.945  1.00  0.00     0.169 C 
BRANCH  58  59
HETATM   59  O6  UNL     1       1.044  37.858 -32.558  1.00  0.00    -0.400 OA
HETATM   60  H34 UNL     1       1.797  37.518 -32.045  1.00  0.00     0.209 HD
ENDBRANCH  58  59
ENDBRANCH  20  58
BRANCH  26  61
HETATM   61  O7  UNL     1      -6.811  35.769 -38.243  1.00  0.00    -0.361 OA
HETATM   62  H38 UNL     1      -7.424  36.211 -38.854  1.00  0.00     0.217 HD
ENDBRANCH  26  61
TORSDOF 9
ENDMDL
MODEL 4
REMARK minimizedAffinity -7.65218544
REMARK CNNscore 0.253021538
REMARK CNNaffinity 7.23239279
REMARK  9 active torsions:
REMARK  status: ('A' for Active; 'I' for Inactive)
REMARK       I    between atoms: N1_1  and  C1_2 
REMARK       I    between atoms: C1_2  and  N2_3 
REMARK    1  A    between atoms: N3_4  and  C2_6 
REMARK    2  A    between atoms: C2_6  and  C3_7 
REMARK    3  A    between atoms: C3_7  and  C4_8 
REMARK    4  A    between atoms: C4_8  and  C5_9 
REMARK    5  A    between atoms: C5_9  and  O1_10 
REMARK    6  A    between atoms: C14_20  and  S1_21 
REMARK    7  A    between atoms: C23_33  and  C24_34 
REMARK    8  A    between atoms: C24_34  and  O6_35 
REMARK    9  A    between atoms: C30_41  and  O7_42 
ROOT
HETATM    1  C2  UNL     1       6.716  57.534  -4.630  1.00  0.00     0.170 C 
HETATM    2  O2  UNL     1       5.741  58.483  -4.044  1.00  0.00    -0.316 OA
HETATM    3  C6  UNL     1       4.415  58.171  -4.159  1.00  0.00     0.072 C 
HETATM    4  C7  UNL     1       3.841  57.119  -3.455  1.00  0.00     0.037 C 
HETATM    5  C8  UNL     1       2.568  56.678  -3.809  1.00  0.00     0.010 C 
HETATM    6  C9  UNL     1       1.864  57.292  -4.855  1.00  0.00    -0.058 C 
HETATM    7  C10 UNL     1       2.393  58.448  -5.442  1.00  0.00     0.010 C 
HETATM    8  C11 UNL     1       3.658  58.904  -5.074  1.00  0.00     0.037 C 
HETATM    9  C12 UNL     1       0.611  56.657  -5.407  1.00  0.00     0.040 C 
HETATM   10  C13 UNL     1       0.879  55.753  -6.628  1.00  0.00     0.029 C 
HETATM   11  C14 UNL     1       1.732  54.479  -6.403  1.00  0.00     0.152 C 
HETATM   12  C15 UNL     1       2.190  53.779  -7.738  1.00  0.00     0.107 C 
HETATM   13  C16 UNL     1       1.106  53.727  -8.800  1.00  0.00     0.001 C 
HETATM   14  C17 UNL     1       1.232  54.359  -9.981  1.00  0.00    -0.036 C 
HETATM   15  C18 UNL     1       2.336  55.341 -10.176  1.00  0.00     0.133 C 
HETATM   16  C19 UNL     1       3.602  54.573  -9.876  1.00  0.00     0.015 C 
HETATM   17  C20 UNL     1       3.801  53.431 -10.917  1.00  0.00     0.039 C 
HETATM   18  C21 UNL     1       2.646  52.442 -11.298  1.00  0.00     0.123 C 
HETATM   19  C22 UNL     1       3.315  51.399 -12.248  1.00  0.00     0.039 C 
HETATM   20  C23 UNL     1       2.423  50.350 -12.953  1.00  0.00     0.023 C 
HETATM   21  C25 UNL     1       1.656  49.454 -11.962  1.00  0.00     0.101 C 
HETATM   22  C26 UNL     1       0.464  50.170 -11.517  1.00  0.00    -0.101 C 
HETATM   23  C27 UNL     1      -0.392  50.973 -11.276  1.00  0.00    -0.066 C 
HETATM   24  C28 UNL     1      -1.290  52.060 -11.092  1.00  0.00     0.029 A 
HETATM   25  C29 UNL     1      -2.644  51.752 -10.892  1.00  0.00     0.057 A 
HETATM   26  C30 UNL     1      -3.568  52.766 -10.682  1.00  0.00     0.067 A 
HETATM   27  C31 UNL     1      -3.171  54.094 -10.683  1.00  0.00     0.037 A 
HETATM   28  C32 UNL     1      -1.825  54.403 -10.894  1.00  0.00     0.014 A 
HETATM   29  C33 UNL     1      -0.851  53.395 -11.108  1.00  0.00    -0.006 A 
HETATM   30  C34 UNL     1       0.601  53.871 -11.256  1.00  0.00     0.186 C 
HETATM   31  O8  UNL     1       1.544  53.057 -12.008  1.00  0.00    -0.371 OA
HETATM   32  C35 UNL     1       3.622  54.122  -8.363  1.00  0.00     0.046 C 
HETATM   33  C36 UNL     1       4.525  54.991  -7.484  1.00  0.00    -0.052 A 
HETATM   34  C37 UNL     1       4.780  56.342  -7.740  1.00  0.00     0.008 A 
HETATM   35  C38 UNL     1       5.569  57.105  -6.871  1.00  0.00     0.012 A 
HETATM   36  C39 UNL     1       6.066  56.568  -5.669  1.00  0.00    -0.003 A 
HETATM   37  C40 UNL     1       5.860  55.198  -5.443  1.00  0.00     0.012 A 
HETATM   38  C41 UNL     1       5.115  54.423  -6.342  1.00  0.00     0.008 A 
HETATM   39 NA1  UNL     1       3.304  54.771  -7.833  1.00  0.00    -0.237 Na
ENDROOT
BRANCH   1  40
HETATM   40  N3  UNL     1       7.819  58.293  -5.271  1.00  0.00    -0.336 N 
HETATM   41  C1  UNL     1       8.255  59.427  -4.890  1.00  0.00     0.124 C 
HETATM   42  N1  UNL     1       9.255  60.008  -5.594  1.00  0.00    -0.279 NA
HETATM   43  N2  UNL     1       7.926  60.230  -3.858  1.00  0.00    -0.279 NA
HETATM   44  H1  UNL     1       9.634  59.340  -6.260  1.00  0.00     0.126 HD
HETATM   45  H2  UNL     1       9.987  60.352  -4.984  1.00  0.00     0.126 HD
HETATM   46  H3  UNL     1       7.118  59.952  -3.314  1.00  0.00     0.126 HD
HETATM   47  H4  UNL     1       7.888  61.213  -4.110  1.00  0.00     0.126 HD
ATOM     48  H3  UNL     1       8.265  57.871  -6.086  1.00  0.00     0.165 HD
ENDBRANCH   1  40
BRANCH   1  49
HETATM   49  C3  UNL     1       7.344  56.809  -3.391  1.00  0.00     0.069 C 
BRANCH  49  50
HETATM   50  C4  UNL     1       8.757  56.226  -3.575  1.00  0.00     0.031 C 
BRANCH  50  51
HETATM   51  C5  UNL     1       9.845  56.850  -2.715  1.00  0.00     0.164 C 
BRANCH  51  52
HETATM   52  O1  UNL     1      10.981  57.141  -3.530  1.00  0.00    -0.401 OA
HETATM   53  H11 UNL     1      11.283  56.290  -3.893  1.00  0.00     0.209 HD
ENDBRANCH  51  52
ENDBRANCH  50  51
ENDBRANCH  49  50
ENDBRANCH   1  49
BRANCH  11  54
HETATM   54  S1  UNL     1       0.876  53.255  -5.347  1.00  0.00     0.108 S 
HETATM   55  O3  UNL     1      -0.546  53.465  -5.605  1.00  0.00    -0.595 OA
HETATM   56  O4  UNL     1       1.272  53.628  -3.989  1.00  0.00    -0.595 OA
HETATM   57  O5  UNL     1       1.386  51.965  -5.805  1.00  0.00    -0.595 OA
ENDBRANCH  11  54
BRANCH  20  58
HETATM   58  C24 UNL     1       3.278  49.481 -13.889  1.00  0.00     0.169 C 
BRANCH  58  59
HETATM   59  O6  UNL     1       4.661  49.594 -13.573  1.00  0.00    -0.400 OA
HETATM   60  H34 UNL     1       5.146  49.074 -14.236  1.00  0.00     0.209 HD
ENDBRANCH  58  59
ENDBRANCH  20  58
BRANCH  26  61
HETATM   61  O7  UNL     1      -4.869  52.419 -10.465  1.00  0.00    -0.361 OA
HETATM   62  H38 UNL     1      -5.305  53.174 -10.035  1.00  0.00     0.217 HD
ENDBRANCH  26  61
TORSDOF 9
ENDMDL
MODEL 5
REMARK minimizedAffinity -9.01350689
REMARK CNNscore 0.237857968
REMARK CNNaffinity 6.37706232
REMARK  9 active torsions:
REMARK  status: ('A' for Active; 'I' for Inactive)
REMARK       I    between atoms: N1_1  and  C1_2 
REMARK       I    between atoms: C1_2  and  N2_3 
REMARK    1  A    between atoms: N3_4  and  C2_6 
REMARK    2  A    between atoms: C2_6  and  C3_7 
REMARK    3  A    between atoms: C3_7  and  C4_8 
REMARK    4  A    between atoms: C4_8  and  C5_9 
REMARK    5  A    between atoms: C5_9  and  O1_10 
REMARK    6  A    between atoms: C14_20  and  S1_21 
REMARK    7  A    between atoms: C23_33  and  C24_34 
REMARK    8  A    between atoms: C24_34  and  O6_35 
REMARK    9  A    between atoms: C30_41  and  O7_42 
ROOT
HETATM    1  C2  UNL     1      -6.359  45.888 -30.825  1.00  0.00     0.170 C 
HETATM    2  O2  UNL     1      -6.996  46.783 -31.820  1.00  0.00    -0.316 OA
HETATM    3  C6  UNL     1      -8.242  47.262 -31.525  1.00  0.00     0.072 C 
HETATM    4  C7  UNL     1      -8.453  48.200 -30.521  1.00  0.00     0.037 C 
HETATM    5  C8  UNL     1      -9.752  48.448 -30.084  1.00  0.00     0.010 C 
HETATM    6  C9  UNL     1     -10.840  47.771 -30.654  1.00  0.00    -0.058 C 
HETATM    7  C10 UNL     1     -10.621  46.952 -31.769  1.00  0.00     0.010 C 
HETATM    8  C11 UNL     1      -9.323  46.719 -32.221  1.00  0.00     0.037 C 
HETATM    9  C12 UNL     1     -12.204  47.843 -30.012  1.00  0.00     0.040 C 
HETATM   10  C13 UNL     1     -12.477  46.675 -29.041  1.00  0.00     0.029 C 
HETATM   11  C14 UNL     1     -11.601  46.584 -27.766  1.00  0.00     0.152 C 
HETATM   12  C15 UNL     1     -11.752  45.221 -26.990  1.00  0.00     0.107 C 
HETATM   13  C16 UNL     1     -13.186  44.729 -26.901  1.00  0.00     0.001 C 
HETATM   14  C17 UNL     1     -13.581  43.574 -27.468  1.00  0.00    -0.036 C 
HETATM   15  C18 UNL     1     -12.673  42.873 -28.420  1.00  0.00     0.133 C 
HETATM   16  C19 UNL     1     -11.396  42.646 -27.647  1.00  0.00     0.015 C 
HETATM   17  C20 UNL     1     -11.653  41.683 -26.450  1.00  0.00     0.039 C 
HETATM   18  C21 UNL     1     -12.853  41.886 -25.462  1.00  0.00     0.123 C 
HETATM   19  C22 UNL     1     -12.647  40.799 -24.359  1.00  0.00     0.039 C 
HETATM   20  C23 UNL     1     -13.747  40.601 -23.290  1.00  0.00     0.023 C 
HETATM   21  C25 UNL     1     -14.011  41.872 -22.461  1.00  0.00     0.101 C 
HETATM   22  C26 UNL     1     -14.903  42.744 -23.219  1.00  0.00    -0.101 C 
HETATM   23  C27 UNL     1     -15.580  43.284 -24.047  1.00  0.00    -0.066 C 
HETATM   24  C28 UNL     1     -16.320  43.774 -25.157  1.00  0.00     0.029 A 
HETATM   25  C29 UNL     1     -17.456  44.549 -24.884  1.00  0.00     0.057 A 
HETATM   26  C30 UNL     1     -18.209  45.079 -25.923  1.00  0.00     0.067 A 
HETATM   27  C31 UNL     1     -17.860  44.836 -27.242  1.00  0.00     0.037 A 
HETATM   28  C32 UNL     1     -16.736  44.054 -27.516  1.00  0.00     0.014 A 
HETATM   29  C33 UNL     1     -15.939  43.500 -26.483  1.00  0.00    -0.006 A 
HETATM   30  C34 UNL     1     -14.693  42.719 -26.925  1.00  0.00     0.186 C 
HETATM   31  O8  UNL     1     -14.156  41.683 -26.058  1.00  0.00    -0.371 OA
HETATM   32  C35 UNL     1     -10.727  44.027 -27.276  1.00  0.00     0.046 C 
HETATM   33  C36 UNL     1      -9.541  44.387 -28.174  1.00  0.00    -0.052 A 
HETATM   34  C37 UNL     1      -9.430  43.973 -29.506  1.00  0.00     0.008 A 
HETATM   35  C38 UNL     1      -8.351  44.380 -30.299  1.00  0.00     0.012 A 
HETATM   36  C39 UNL     1      -7.384  45.281 -29.818  1.00  0.00    -0.003 A 
HETATM   37  C40 UNL     1      -7.464  45.648 -28.465  1.00  0.00     0.012 A 
HETATM   38  C41 UNL     1      -8.517  45.197 -27.657  1.00  0.00     0.008 A 
HETATM   39 NA1  UNL     1     -10.793  44.606 -27.957  1.00  0.00    -0.237 Na
ENDROOT
BRANCH   1  40
HETATM   40  N3  UNL     1      -5.641  44.797 -31.531  1.00  0.00    -0.336 N 
HETATM   41  C1  UNL     1      -4.970  44.928 -32.604  1.00  0.00     0.124 C 
HETATM   42  N1  UNL     1      -4.389  43.831 -33.144  1.00  0.00    -0.279 NA
HETATM   43  N2  UNL     1      -4.676  45.997 -33.372  1.00  0.00    -0.279 NA
HETATM   44  H1  UNL     1      -4.447  43.057 -32.487  1.00  0.00     0.126 HD
HETATM   45  H2  UNL     1      -3.424  44.008 -33.397  1.00  0.00     0.126 HD
HETATM   46  H3  UNL     1      -5.140  46.865 -33.127  1.00  0.00     0.126 HD
HETATM   47  H4  UNL     1      -4.739  45.807 -34.368  1.00  0.00     0.126 HD
ATOM     48  H3  UNL     1      -5.691  43.864 -31.122  1.00  0.00     0.165 HD
ENDBRANCH   1  40
BRANCH   1  49
HETATM   49  C3  UNL     1      -5.256  46.778 -30.155  1.00  0.00     0.069 C 
BRANCH  49  50
HETATM   50  C4  UNL     1      -5.733  47.790 -29.098  1.00  0.00     0.031 C 
BRANCH  50  51
HETATM   51  C5  UNL     1      -4.701  48.193 -28.057  1.00  0.00     0.164 C 
BRANCH  51  52
HETATM   52  O1  UNL     1      -5.349  48.381 -26.798  1.00  0.00    -0.401 OA
HETATM   53  H11 UNL     1      -5.996  49.097 -26.928  1.00  0.00     0.209 HD
ENDBRANCH  51  52
ENDBRANCH  50  51
ENDBRANCH  49  50
ENDBRANCH   1  49
BRANCH  11  54
HETATM   54  S1  UNL     1     -11.915  47.969 -26.614  1.00  0.00     0.108 S 
HETATM   55  O3  UNL     1     -10.639  48.672 -26.513  1.00  0.00    -0.595 OA
HETATM   56  O4  UNL     1     -12.301  47.305 -25.369  1.00  0.00    -0.595 OA
HETATM   57  O5  UNL     1     -12.977  48.738 -27.257  1.00  0.00    -0.595 OA
ENDBRANCH  11  54
BRANCH  20  58
HETATM   58  C24 UNL     1     -13.368  39.439 -22.359  1.00  0.00     0.169 C 
BRANCH  58  59
HETATM   59  O6  UNL     1     -12.146  39.703 -21.680  1.00  0.00    -0.400 OA
HETATM   60  H34 UNL     1     -11.934  38.909 -21.161  1.00  0.00     0.209 HD
ENDBRANCH  58  59
ENDBRANCH  20  58
BRANCH  26  61
HETATM   61  O7  UNL     1     -19.290  45.849 -25.610  1.00  0.00    -0.361 OA
HETATM   62  H38 UNL     1     -19.506  46.383 -26.394  1.00  0.00     0.217 HD
ENDBRANCH  26  61
TORSDOF 9
ENDMDL
MODEL 6
REMARK minimizedAffinity -9.18348885
REMARK CNNscore 0.224195778
REMARK CNNaffinity 6.6939702
REMARK  9 active torsions:
REMARK  status: ('A' for Active; 'I' for Inactive)
REMARK       I    between atoms: N1_1  and  C1_2 
REMARK       I    between atoms: C1_2  and  N2_3 
REMARK    1  A    between atoms: N3_4  and  C2_6 
REMARK    2  A    between atoms: C2_6  and  C3_7 
REMARK    3  A    between atoms: C3_7  and  C4_8 
REMARK    4  A    between atoms: C4_8  and  C5_9 
REMARK    5  A    between atoms: C5_9  and  O1_10 
REMARK    6  A    between atoms: C14_20  and  S1_21 
REMARK    7  A    between atoms: C23_33  and  C24_34 
REMARK    8  A    between atoms: C24_34  and  O6_35 
REMARK    9  A    between atoms: C30_41  and  O7_42 
ROOT
HETATM    1  C2  UNL     1      -8.112  46.092 -32.052  1.00  0.00     0.170 C 
HETATM    2  O2  UNL     1      -7.290  47.088 -31.326  1.00  0.00    -0.316 OA
HETATM    3  C6  UNL     1      -7.492  47.205 -29.978  1.00  0.00     0.072 C 
HETATM    4  C7  UNL     1      -7.106  46.211 -29.086  1.00  0.00     0.037 C 
HETATM    5  C8  UNL     1      -7.573  46.257 -27.774  1.00  0.00     0.010 C 
HETATM    6  C9  UNL     1      -8.412  47.297 -27.350  1.00  0.00    -0.058 C 
HETATM    7  C10 UNL     1      -8.657  48.369 -28.217  1.00  0.00     0.010 C 
HETATM    8  C11 UNL     1      -8.173  48.335 -29.525  1.00  0.00     0.037 C 
HETATM    9  C12 UNL     1      -9.123  47.209 -26.021  1.00  0.00     0.040 C 
HETATM   10  C13 UNL     1     -10.545  46.621 -26.133  1.00  0.00     0.029 C 
HETATM   11  C14 UNL     1     -10.675  45.145 -26.588  1.00  0.00     0.152 C 
HETATM   12  C15 UNL     1     -12.149  44.721 -26.947  1.00  0.00     0.107 C 
HETATM   13  C16 UNL     1     -13.189  45.258 -25.979  1.00  0.00     0.001 C 
HETATM   14  C17 UNL     1     -14.150  46.116 -26.367  1.00  0.00    -0.036 C 
HETATM   15  C18 UNL     1     -14.063  46.762 -27.707  1.00  0.00     0.133 C 
HETATM   16  C19 UNL     1     -13.981  45.617 -28.689  1.00  0.00     0.015 C 
HETATM   17  C20 UNL     1     -15.295  44.782 -28.656  1.00  0.00     0.039 C 
HETATM   18  C21 UNL     1     -15.938  44.295 -27.312  1.00  0.00     0.123 C 
HETATM   19  C22 UNL     1     -17.136  43.394 -27.749  1.00  0.00     0.039 C 
HETATM   20  C23 UNL     1     -18.106  42.863 -26.667  1.00  0.00     0.023 C 
HETATM   21  C25 UNL     1     -17.402  41.992 -25.608  1.00  0.00     0.101 C 
HETATM   22  C26 UNL     1     -16.782  42.872 -24.622  1.00  0.00    -0.101 C 
HETATM   23  C27 UNL     1     -16.332  43.791 -23.998  1.00  0.00    -0.066 C 
HETATM   24  C28 UNL     1     -15.860  44.999 -23.415  1.00  0.00     0.029 A 
HETATM   25  C29 UNL     1     -15.758  45.045 -22.018  1.00  0.00     0.057 A 
HETATM   26  C30 UNL     1     -15.280  46.186 -21.388  1.00  0.00     0.067 A 
HETATM   27  C31 UNL     1     -14.915  47.299 -22.128  1.00  0.00     0.037 A 
HETATM   28  C32 UNL     1     -15.028  47.260 -23.520  1.00  0.00     0.014 A 
HETATM   29  C33 UNL     1     -15.506  46.111 -24.199  1.00  0.00    -0.006 A 
HETATM   30  C34 UNL     1     -15.513  46.180 -25.733  1.00  0.00     0.186 C 
HETATM   31  O8  UNL     1     -16.455  45.360 -26.479  1.00  0.00    -0.371 OA
HETATM   32  C35 UNL     1     -12.650  44.798 -28.464  1.00  0.00     0.046 C 
HETATM   33  C36 UNL     1     -11.562  45.114 -29.494  1.00  0.00    -0.052 A 
HETATM   34  C37 UNL     1     -11.437  46.356 -30.125  1.00  0.00     0.008 A 
HETATM   35  C38 UNL     1     -10.388  46.609 -31.017  1.00  0.00     0.012 A 
HETATM   36  C39 UNL     1      -9.378  45.657 -31.252  1.00  0.00    -0.003 A 
HETATM   37  C40 UNL     1      -9.539  44.392 -30.665  1.00  0.00     0.012 A 
HETATM   38  C41 UNL     1     -10.619  44.124 -29.813  1.00  0.00     0.008 A 
HETATM   39 NA1  UNL     1     -11.963  45.348 -28.291  1.00  0.00    -0.237 Na
ENDROOT
BRANCH   1  40
HETATM   40  N3  UNL     1      -8.515  46.650 -33.367  1.00  0.00    -0.336 N 
HETATM   41  C1  UNL     1      -7.769  47.333 -34.140  1.00  0.00     0.124 C 
HETATM   42  N1  UNL     1      -8.289  47.795 -35.302  1.00  0.00    -0.279 NA
HETATM   43  N2  UNL     1      -6.478  47.715 -34.059  1.00  0.00    -0.279 NA
HETATM   44  H1  UNL     1      -9.197  47.367 -35.462  1.00  0.00     0.126 HD
HETATM   45  H2  UNL     1      -7.670  47.614 -36.083  1.00  0.00     0.126 HD
HETATM   46  H3  UNL     1      -6.007  47.515 -33.185  1.00  0.00     0.126 HD
HETATM   47  H4  UNL     1      -6.323  48.672 -34.359  1.00  0.00     0.126 HD
ATOM     48  H3  UNL     1      -9.470  46.471 -33.677  1.00  0.00     0.165 HD
ENDBRANCH   1  40
BRANCH   1  49
HETATM   49  C3  UNL     1      -7.117  44.920 -32.358  1.00  0.00     0.069 C 
BRANCH  49  50
HETATM   50  C4  UNL     1      -5.763  44.955 -31.627  1.00  0.00     0.031 C 
BRANCH  50  51
HETATM   51  C5  UNL     1      -4.550  45.239 -32.499  1.00  0.00     0.164 C 
BRANCH  51  52
HETATM   52  O1  UNL     1      -3.830  46.348 -31.958  1.00  0.00    -0.401 OA
HETATM   53  H11 UNL     1      -4.441  47.105 -31.972  1.00  0.00     0.209 HD
ENDBRANCH  51  52
ENDBRANCH  50  51
ENDBRANCH  49  50
ENDBRANCH   1  49
BRANCH  11  54
HETATM   54  S1  UNL     1     -10.000  43.980 -25.350  1.00  0.00     0.108 S 
HETATM   55  O3  UNL     1     -10.212  44.635 -24.062  1.00  0.00    -0.595 OA
HETATM   56  O4  UNL     1      -8.586  43.871 -25.709  1.00  0.00    -0.595 OA
HETATM   57  O5  UNL     1     -10.781  42.760 -25.541  1.00  0.00    -0.595 OA
ENDBRANCH  11  54
BRANCH  20  58
HETATM   58  C24 UNL     1     -19.241  42.066 -27.328  1.00  0.00     0.169 C 
BRANCH  58  59
HETATM   59  O6  UNL     1     -20.210  42.934 -27.903  1.00  0.00    -0.400 OA
HETATM   60  H34 UNL     1     -20.925  42.371 -28.246  1.00  0.00     0.209 HD
ENDBRANCH  58  59
ENDBRANCH  20  58
BRANCH  26  61
HETATM   61  O7  UNL     1     -15.172  46.176 -20.028  1.00  0.00    -0.361 OA
HETATM   62  H38 UNL     1     -14.552  46.882 -19.779  1.00  0.00     0.217 HD
ENDBRANCH  26  61
TORSDOF 9
ENDMDL
MODEL 7
REMARK minimizedAffinity -7.28210354
REMARK CNNscore 0.199004263
REMARK CNNaffinity 6.08436251
REMARK  9 active torsions:
REMARK  status: ('A' for Active; 'I' for Inactive)
REMARK       I    between atoms: N1_1  and  C1_2 
REMARK       I    between atoms: C1_2  and  N2_3 
REMARK    1  A    between atoms: N3_4  and  C2_6 
REMARK    2  A    between atoms: C2_6  and  C3_7 
REMARK    3  A    between atoms: C3_7  and  C4_8 
REMARK    4  A    between atoms: C4_8  and  C5_9 
REMARK    5  A    between atoms: C5_9  and  O1_10 
REMARK    6  A    between atoms: C14_20  and  S1_21 
REMARK    7  A    between atoms: C23_33  and  C24_34 
REMARK    8  A    between atoms: C24_34  and  O6_35 
REMARK    9  A    between atoms: C30_41  and  O7_42 
ROOT
HETATM    1  C2  UNL     1      -7.136  46.789 -19.642  1.00  0.00     0.170 C 
HETATM    2  O2  UNL     1      -7.289  47.082 -18.198  1.00  0.00    -0.316 OA
HETATM    3  C6  UNL     1      -8.458  46.699 -17.601  1.00  0.00     0.072 C 
HETATM    4  C7  UNL     1      -8.771  45.363 -17.381  1.00  0.00     0.037 C 
HETATM    5  C8  UNL     1     -10.073  45.018 -17.024  1.00  0.00     0.010 C 
HETATM    6  C9  UNL     1     -11.058  46.006 -16.875  1.00  0.00    -0.058 C 
HETATM    7  C10 UNL     1     -10.685  47.353 -16.944  1.00  0.00     0.010 C 
HETATM    8  C11 UNL     1      -9.376  47.700 -17.281  1.00  0.00     0.037 C 
HETATM    9  C12 UNL     1     -12.511  45.619 -16.747  1.00  0.00     0.040 C 
HETATM   10  C13 UNL     1     -13.258  45.618 -18.097  1.00  0.00     0.029 C 
HETATM   11  C14 UNL     1     -12.812  44.583 -19.162  1.00  0.00     0.152 C 
HETATM   12  C15 UNL     1     -13.424  44.841 -20.590  1.00  0.00     0.107 C 
HETATM   13  C16 UNL     1     -14.889  45.241 -20.561  1.00  0.00     0.001 C 
HETATM   14  C17 UNL     1     -15.311  46.442 -20.999  1.00  0.00    -0.036 C 
HETATM   15  C18 UNL     1     -14.313  47.511 -21.289  1.00  0.00     0.133 C 
HETATM   16  C19 UNL     1     -13.372  46.905 -22.302  1.00  0.00     0.015 C 
HETATM   17  C20 UNL     1     -14.130  46.600 -23.629  1.00  0.00     0.039 C 
HETATM   18  C21 UNL     1     -15.504  45.844 -23.647  1.00  0.00     0.123 C 
HETATM   19  C22 UNL     1     -15.822  45.636 -25.161  1.00  0.00     0.039 C 
HETATM   20  C23 UNL     1     -17.198  45.054 -25.564  1.00  0.00     0.023 C 
HETATM   21  C25 UNL     1     -17.450  43.654 -24.975  1.00  0.00     0.101 C 
HETATM   22  C26 UNL     1     -17.915  43.806 -23.599  1.00  0.00    -0.101 C 
HETATM   23  C27 UNL     1     -18.217  44.193 -22.506  1.00  0.00    -0.066 C 
HETATM   24  C28 UNL     1     -18.509  44.837 -21.273  1.00  0.00     0.029 A 
HETATM   25  C29 UNL     1     -19.515  44.275 -20.473  1.00  0.00     0.057 A 
HETATM   26  C30 UNL     1     -19.831  44.841 -19.246  1.00  0.00     0.067 A 
HETATM   27  C31 UNL     1     -19.171  45.976 -18.802  1.00  0.00     0.037 A 
HETATM   28  C32 UNL     1     -18.178  46.545 -19.603  1.00  0.00     0.014 A 
HETATM   29  C33 UNL     1     -17.823  45.993 -20.860  1.00  0.00    -0.006 A 
HETATM   30  C34 UNL     1     -16.668  46.677 -21.603  1.00  0.00     0.186 C 
HETATM   31  O8  UNL     1     -16.598  46.582 -23.053  1.00  0.00    -0.371 OA
HETATM   32  C35 UNL     1     -12.596  45.685 -21.668  1.00  0.00     0.046 C 
HETATM   33  C36 UNL     1     -11.159  46.024 -21.265  1.00  0.00    -0.052 A 
HETATM   34  C37 UNL     1     -10.751  47.302 -20.870  1.00  0.00     0.008 A 
HETATM   35  C38 UNL     1      -9.436  47.543 -20.457  1.00  0.00     0.012 A 
HETATM   36  C39 UNL     1      -8.498  46.500 -20.346  1.00  0.00    -0.003 A 
HETATM   37  C40 UNL     1      -8.891  45.231 -20.800  1.00  0.00     0.012 A 
HETATM   38  C41 UNL     1     -10.194  45.003 -21.263  1.00  0.00     0.008 A 
HETATM   39 NA1  UNL     1     -12.359  45.863 -20.822  1.00  0.00    -0.237 Na
ENDROOT
BRANCH   1  40
HETATM   40  N3  UNL     1      -6.459  47.931 -20.307  1.00  0.00    -0.336 N 
HETATM   41  C1  UNL     1      -5.676  48.759 -19.739  1.00  0.00     0.124 C 
HETATM   42  N1  UNL     1      -5.152  49.766 -20.476  1.00  0.00    -0.279 NA
HETATM   43  N2  UNL     1      -5.211  48.855 -18.478  1.00  0.00    -0.279 NA
HETATM   44  H1  UNL     1      -5.347  49.604 -21.461  1.00  0.00     0.126 HD
HETATM   45  H2  UNL     1      -4.154  49.857 -20.324  1.00  0.00     0.126 HD
HETATM   46  H3  UNL     1      -5.612  48.215 -17.802  1.00  0.00     0.126 HD
HETATM   47  H4  UNL     1      -5.194  49.808 -18.127  1.00  0.00     0.126 HD
ATOM     48  H3  UNL     1      -6.635  48.063 -21.303  1.00  0.00     0.165 HD
ENDBRANCH   1  40
BRANCH   1  49
HETATM   49  C3  UNL     1      -6.126  45.591 -19.689  1.00  0.00     0.069 C 
BRANCH  49  50
HETATM   50  C4  UNL     1      -5.242  45.385 -18.447  1.00  0.00     0.031 C 
BRANCH  50  51
HETATM   51  C5  UNL     1      -3.911  44.691 -18.692  1.00  0.00     0.164 C 
BRANCH  51  52
HETATM   52  O1  UNL     1      -3.798  44.365 -20.078  1.00  0.00    -0.401 OA
HETATM   53  H11 UNL     1      -4.535  43.762 -20.278  1.00  0.00     0.209 HD
ENDBRANCH  51  52
ENDBRANCH  50  51
ENDBRANCH  49  50
ENDBRANCH   1  49
BRANCH  11  54
HETATM   54  S1  UNL     1     -13.183  42.867 -18.651  1.00  0.00     0.108 S 
HETATM   55  O3  UNL     1     -11.983  42.414 -17.953  1.00  0.00    -0.595 OA
HETATM   56  O4  UNL     1     -13.407  42.168 -19.916  1.00  0.00    -0.595 OA
HETATM   57  O5  UNL     1     -14.363  42.992 -17.799  1.00  0.00    -0.595 OA
ENDBRANCH  11  54
BRANCH  20  58
HETATM   58  C24 UNL     1     -17.318  45.007 -27.095  1.00  0.00     0.169 C 
BRANCH  58  59
HETATM   59  O6  UNL     1     -18.625  45.373 -27.519  1.00  0.00    -0.400 OA
HETATM   60  H34 UNL     1     -18.651  45.262 -28.484  1.00  0.00     0.209 HD
ENDBRANCH  58  59
ENDBRANCH  20  58
BRANCH  26  61
HETATM   61  O7  UNL     1     -20.797  44.245 -18.490  1.00  0.00    -0.361 OA
HETATM   62  H38 UNL     1     -20.679  44.549 -17.573  1.00  0.00     0.217 HD
ENDBRANCH  26  61
TORSDOF 9
ENDMDL
MODEL 8
REMARK minimizedAffinity -7.54518652
REMARK CNNscore 0.191974461
REMARK CNNaffinity 6.50001144
REMARK  9 active torsions:
REMARK  status: ('A' for Active; 'I' for Inactive)
REMARK       I    between atoms: N1_1  and  C1_2 
REMARK       I    between atoms: C1_2  and  N2_3 
REMARK    1  A    between atoms: N3_4  and  C2_6 
REMARK    2  A    between atoms: C2_6  and  C3_7 
REMARK    3  A    between atoms: C3_7  and  C4_8 
REMARK    4  A    between atoms: C4_8  and  C5_9 
REMARK    5  A    between atoms: C5_9  and  O1_10 
REMARK    6  A    between atoms: C14_20  and  S1_21 
REMARK    7  A    between atoms: C23_33  and  C24_34 
REMARK    8  A    between atoms: C24_34  and  O6_35 
REMARK    9  A    between atoms: C30_41  and  O7_42 
ROOT
HETATM    1  C2  UNL     1     -13.268  43.904 -26.611  1.00  0.00     0.170 C 
HETATM    2  O2  UNL     1     -13.770  44.972 -27.507  1.00  0.00    -0.316 OA
HETATM    3  C6  UNL     1     -12.891  45.956 -27.864  1.00  0.00     0.072 C 
HETATM    4  C7  UNL     1     -11.822  45.716 -28.719  1.00  0.00     0.037 C 
HETATM    5  C8  UNL     1     -10.814  46.671 -28.833  1.00  0.00     0.010 C 
HETATM    6  C9  UNL     1     -10.877  47.867 -28.104  1.00  0.00    -0.058 C 
HETATM    7  C10 UNL     1     -12.036  48.157 -27.374  1.00  0.00     0.010 C 
HETATM    8  C11 UNL     1     -13.056  47.211 -27.276  1.00  0.00     0.037 C 
HETATM    9  C12 UNL     1      -9.674  48.776 -28.024  1.00  0.00     0.040 C 
HETATM   10  C13 UNL     1      -8.798  48.511 -26.782  1.00  0.00     0.029 C 
HETATM   11  C14 UNL     1      -8.086  47.138 -26.687  1.00  0.00     0.152 C 
HETATM   12  C15 UNL     1      -7.456  46.847 -25.273  1.00  0.00     0.107 C 
HETATM   13  C16 UNL     1      -6.761  48.050 -24.659  1.00  0.00     0.001 C 
HETATM   14  C17 UNL     1      -7.184  48.612 -23.512  1.00  0.00    -0.036 C 
HETATM   15  C18 UNL     1      -8.507  48.222 -22.946  1.00  0.00     0.133 C 
HETATM   16  C19 UNL     1      -8.436  46.723 -22.779  1.00  0.00     0.015 C 
HETATM   17  C20 UNL     1      -7.349  46.347 -21.728  1.00  0.00     0.039 C 
HETATM   18  C21 UNL     1      -5.904  46.955 -21.772  1.00  0.00     0.123 C 
HETATM   19  C22 UNL     1      -5.126  46.210 -20.643  1.00  0.00     0.039 C 
HETATM   20  C23 UNL     1      -3.692  46.673 -20.290  1.00  0.00     0.023 C 
HETATM   21  C25 UNL     1      -2.723  46.576 -21.483  1.00  0.00     0.101 C 
HETATM   22  C26 UNL     1      -2.900  47.758 -22.322  1.00  0.00    -0.101 C 
HETATM   23  C27 UNL     1      -3.270  48.767 -22.853  1.00  0.00    -0.066 C 
HETATM   24  C28 UNL     1      -3.862  49.961 -23.346  1.00  0.00     0.029 A 
HETATM   25  C29 UNL     1      -3.026  50.872 -24.007  1.00  0.00     0.057 A 
HETATM   26  C30 UNL     1      -3.547  52.046 -24.534  1.00  0.00     0.067 A 
HETATM   27  C31 UNL     1      -4.894  52.342 -24.400  1.00  0.00     0.037 A 
HETATM   28  C32 UNL     1      -5.727  51.442 -23.731  1.00  0.00     0.014 A 
HETATM   29  C33 UNL     1      -5.233  50.231 -23.184  1.00  0.00    -0.006 A 
HETATM   30  C34 UNL     1      -6.270  49.302 -22.537  1.00  0.00     0.186 C 
HETATM   31  O8  UNL     1      -5.847  48.376 -21.498  1.00  0.00    -0.371 OA
HETATM   32  C35 UNL     1      -8.291  46.022 -24.186  1.00  0.00     0.046 C 
HETATM   33  C36 UNL     1      -9.598  45.410 -24.696  1.00  0.00    -0.052 A 
HETATM   34  C37 UNL     1     -10.862  45.914 -24.373  1.00  0.00     0.008 A 
HETATM   35  C38 UNL     1     -12.023  45.350 -24.914  1.00  0.00     0.012 A 
HETATM   36  C39 UNL     1     -11.962  44.311 -25.862  1.00  0.00    -0.003 A 
HETATM   37  C40 UNL     1     -10.698  43.768 -26.139  1.00  0.00     0.012 A 
HETATM   38  C41 UNL     1      -9.540  44.300 -25.555  1.00  0.00     0.008 A 
HETATM   39 NA1  UNL     1      -8.808  46.424 -24.797  1.00  0.00    -0.237 Na
ENDROOT
BRANCH   1  40
HETATM   40  N3  UNL     1     -14.323  43.550 -25.627  1.00  0.00    -0.336 N 
HETATM   41  C1  UNL     1     -15.387  44.215 -25.413  1.00  0.00     0.124 C 
HETATM   42  N1  UNL     1     -16.245  43.776 -24.462  1.00  0.00    -0.279 NA
HETATM   43  N2  UNL     1     -15.892  45.333 -25.972  1.00  0.00    -0.279 NA
HETATM   44  H1  UNL     1     -15.972  42.845 -24.161  1.00  0.00     0.126 HD
HETATM   45  H2  UNL     1     -17.201  43.772 -24.799  1.00  0.00     0.126 HD
HETATM   46  H3  UNL     1     -15.290  45.815 -26.631  1.00  0.00     0.126 HD
HETATM   47  H4  UNL     1     -16.297  45.973 -25.297  1.00  0.00     0.126 HD
ATOM     48  H3  UNL     1     -14.182  42.703 -25.076  1.00  0.00     0.165 HD
ENDBRANCH   1  40
BRANCH   1  49
HETATM   49  C3  UNL     1     -13.105  42.658 -27.547  1.00  0.00     0.069 C 
BRANCH  49  50
HETATM   50  C4  UNL     1     -12.536  42.920 -28.952  1.00  0.00     0.031 C 
BRANCH  50  51
HETATM   51  C5  UNL     1     -11.736  41.780 -29.564  1.00  0.00     0.164 C 
BRANCH  51  52
HETATM   52  O1  UNL     1     -11.179  42.209 -30.808  1.00  0.00    -0.401 OA
HETATM   53  H11 UNL     1     -11.932  42.438 -31.380  1.00  0.00     0.209 HD
ENDBRANCH  51  52
ENDBRANCH  50  51
ENDBRANCH  49  50
ENDBRANCH   1  49
BRANCH  11  54
HETATM   54  S1  UNL     1      -6.798  46.940 -27.970  1.00  0.00     0.108 S 
HETATM   55  O3  UNL     1      -5.567  47.419 -27.345  1.00  0.00    -0.595 OA
HETATM   56  O4  UNL     1      -7.257  47.801 -29.060  1.00  0.00    -0.595 OA
HETATM   57  O5  UNL     1      -6.803  45.511 -28.269  1.00  0.00    -0.595 OA
ENDBRANCH  11  54
BRANCH  20  58
HETATM   58  C24 UNL     1      -3.152  45.851 -19.110  1.00  0.00     0.169 C 
BRANCH  58  59
HETATM   59  O6  UNL     1      -2.414  46.669 -18.210  1.00  0.00    -0.400 OA
HETATM   60  H34 UNL     1      -2.051  46.081 -17.526  1.00  0.00     0.209 HD
ENDBRANCH  58  59
ENDBRANCH  20  58
BRANCH  26  61
HETATM   61  O7  UNL     1      -2.701  52.889 -25.192  1.00  0.00    -0.361 OA
HETATM   62  H38 UNL     1      -3.244  53.470 -25.752  1.00  0.00     0.217 HD
ENDBRANCH  26  61
TORSDOF 9
ENDMDL
MODEL 9
REMARK minimizedAffinity -7.10861731
REMARK CNNscore 0.191877633
REMARK CNNaffinity 6.06310225
REMARK  9 active torsions:
REMARK  status: ('A' for Active; 'I' for Inactive)
REMARK       I    between atoms: N1_1  and  C1_2 
REMARK       I    between atoms: C1_2  and  N2_3 
REMARK    1  A    between atoms: N3_4  and  C2_6 
REMARK    2  A    between atoms: C2_6  and  C3_7 
REMARK    3  A    between atoms: C3_7  and  C4_8 
REMARK    4  A    between atoms: C4_8  and  C5_9 
REMARK    5  A    between atoms: C5_9  and  O1_10 
REMARK    6  A    between atoms: C14_20  and  S1_21 
REMARK    7  A    between atoms: C23_33  and  C24_34 
REMARK    8  A    between atoms: C24_34  and  O6_35 
REMARK    9  A    between atoms: C30_41  and  O7_42 
ROOT
HETATM    1  C2  UNL     1     -12.196  45.979 -26.925  1.00  0.00     0.170 C 
HETATM    2  O2  UNL     1     -12.328  45.218 -28.190  1.00  0.00    -0.316 OA
HETATM    3  C6  UNL     1     -13.495  44.534 -28.391  1.00  0.00     0.072 C 
HETATM    4  C7  UNL     1     -14.698  45.186 -28.638  1.00  0.00     0.037 C 
HETATM    5  C8  UNL     1     -15.889  44.465 -28.566  1.00  0.00     0.010 C 
HETATM    6  C9  UNL     1     -15.878  43.096 -28.261  1.00  0.00    -0.058 C 
HETATM    7  C10 UNL     1     -14.651  42.429 -28.174  1.00  0.00     0.010 C 
HETATM    8  C11 UNL     1     -13.457  43.145 -28.267  1.00  0.00     0.037 C 
HETATM    9  C12 UNL     1     -17.165  42.380 -27.928  1.00  0.00     0.040 C 
HETATM   10  C13 UNL     1     -17.452  42.326 -26.413  1.00  0.00     0.029 C 
HETATM   11  C14 UNL     1     -17.713  43.669 -25.685  1.00  0.00     0.152 C 
HETATM   12  C15 UNL     1     -17.713  43.549 -24.114  1.00  0.00     0.107 C 
HETATM   13  C16 UNL     1     -18.428  42.313 -23.599  1.00  0.00     0.001 C 
HETATM   14  C17 UNL     1     -17.787  41.348 -22.915  1.00  0.00    -0.036 C 
HETATM   15  C18 UNL     1     -16.297  41.349 -22.865  1.00  0.00     0.133 C 
HETATM   16  C19 UNL     1     -15.923  42.701 -22.306  1.00  0.00     0.015 C 
HETATM   17  C20 UNL     1     -16.440  42.842 -20.843  1.00  0.00     0.039 C 
HETATM   18  C21 UNL     1     -17.911  42.479 -20.442  1.00  0.00     0.123 C 
HETATM   19  C22 UNL     1     -18.028  42.899 -18.942  1.00  0.00     0.039 C 
HETATM   20  C23 UNL     1     -19.315  42.536 -18.163  1.00  0.00     0.023 C 
HETATM   21  C25 UNL     1     -20.583  43.154 -18.781  1.00  0.00     0.101 C 
HETATM   22  C26 UNL     1     -21.016  42.309 -19.891  1.00  0.00    -0.101 C 
HETATM   23  C27 UNL     1     -21.124  41.498 -20.766  1.00  0.00    -0.066 C 
HETATM   24  C28 UNL     1     -21.065  40.471 -21.747  1.00  0.00     0.029 A 
HETATM   25  C29 UNL     1     -22.282  39.952 -22.213  1.00  0.00     0.057 A 
HETATM   26  C30 UNL     1     -22.293  38.965 -23.189  1.00  0.00     0.067 A 
HETATM   27  C31 UNL     1     -21.107  38.467 -23.703  1.00  0.00     0.037 A 
HETATM   28  C32 UNL     1     -19.894  38.973 -23.230  1.00  0.00     0.014 A 
HETATM   29  C33 UNL     1     -19.840  39.985 -22.238  1.00  0.00    -0.006 A 
HETATM   30  C34 UNL     1     -18.444  40.498 -21.862  1.00  0.00     0.186 C 
HETATM   31  O8  UNL     1     -18.226  41.070 -20.542  1.00  0.00    -0.371 OA
HETATM   32  C35 UNL     1     -16.370  43.845 -23.297  1.00  0.00     0.046 C 
HETATM   33  C36 UNL     1     -15.215  44.415 -24.125  1.00  0.00    -0.052 A 
HETATM   34  C37 UNL     1     -14.090  43.671 -24.492  1.00  0.00     0.008 A 
HETATM   35  C38 UNL     1     -13.090  44.225 -25.299  1.00  0.00     0.012 A 
HETATM   36  C39 UNL     1     -13.214  45.520 -25.837  1.00  0.00    -0.003 A 
HETATM   37  C40 UNL     1     -14.314  46.286 -25.419  1.00  0.00     0.012 A 
HETATM   38  C41 UNL     1     -15.288  45.746 -24.568  1.00  0.00     0.008 A 
HETATM   39 NA1  UNL     1     -16.219  43.607 -24.148  1.00  0.00    -0.237 Na
ENDROOT
BRANCH   1  40
HETATM   40  N3  UNL     1     -10.811  45.841 -26.409  1.00  0.00    -0.336 N 
HETATM   41  C1  UNL     1     -10.333  46.454 -25.401  1.00  0.00     0.124 C 
HETATM   42  N1  UNL     1      -9.039  46.241 -25.066  1.00  0.00    -0.279 NA
HETATM   43  N2  UNL     1     -10.873  47.323 -24.523  1.00  0.00    -0.279 NA
HETATM   44  H1  UNL     1      -8.673  45.459 -25.602  1.00  0.00     0.126 HD
HETATM   45  H2  UNL     1      -8.937  46.067 -24.073  1.00  0.00     0.126 HD
HETATM   46  H3  UNL     1     -11.813  47.642 -24.728  1.00  0.00     0.126 HD
HETATM   47  H4  UNL     1     -10.257  48.097 -24.292  1.00  0.00     0.126 HD
ATOM     48  H3  UNL     1     -10.190  45.201 -26.904  1.00  0.00     0.165 HD
ENDBRANCH   1  40
BRANCH   1  49
HETATM   49  C3  UNL     1     -12.356  47.477 -27.358  1.00  0.00     0.069 C 
BRANCH  49  50
HETATM   50  C4  UNL     1     -12.078  47.803 -28.836  1.00  0.00     0.031 C 
BRANCH  50  51
HETATM   51  C5  UNL     1     -10.612  47.894 -29.227  1.00  0.00     0.164 C 
BRANCH  51  52
HETATM   52  O1  UNL     1      -9.872  48.473 -28.149  1.00  0.00    -0.401 OA
HETATM   53  H11 UNL     1     -10.241  49.363 -28.011  1.00  0.00     0.209 HD
ENDBRANCH  51  52
ENDBRANCH  50  51
ENDBRANCH  49  50
ENDBRANCH   1  49
BRANCH  11  54
HETATM   54  S1  UNL     1     -19.275  44.453 -26.226  1.00  0.00     0.108 S 
HETATM   55  O3  UNL     1     -20.055  43.369 -26.818  1.00  0.00    -0.595 OA
HETATM   56  O4  UNL     1     -18.844  45.448 -27.207  1.00  0.00    -0.595 OA
HETATM   57  O5  UNL     1     -19.845  45.003 -24.999  1.00  0.00    -0.595 OA
ENDBRANCH  11  54
BRANCH  20  58
HETATM   58  C24 UNL     1     -19.180  42.979 -16.697  1.00  0.00     0.169 C 
BRANCH  58  59
HETATM   59  O6  UNL     1     -20.451  43.270 -16.130  1.00  0.00    -0.400 OA
HETATM   60  H34 UNL     1     -20.290  43.601 -15.230  1.00  0.00     0.209 HD
ENDBRANCH  58  59
ENDBRANCH  20  58
BRANCH  26  61
HETATM   61  O7  UNL     1     -23.500  38.510 -23.632  1.00  0.00    -0.361 OA
HETATM   62  H38 UNL     1     -23.354  38.084 -24.494  1.00  0.00     0.217 HD
ENDBRANCH  26  61
TORSDOF 9
ENDMDL
