MODEL 1
REMARK minimizedAffinity -10.1707144
REMARK  6 active torsions:
REMARK  status: ('A' for Active; 'I' for Inactive)
REMARK    1  A    between atoms: C2_2  and  C30_31 
REMARK    2  A    between atoms: C3_3  and  C4_4 
REMARK    3  A    between atoms: C4_4  and  C5_5 
REMARK    4  A    between atoms: C5_5  and  C6_6 
REMARK    5  A    between atoms: C6_6  and  C8_8 
REMARK    6  A    between atoms: C30_31  and  O3_33 
ROOT
HETATM    1  C8  UNL     1      -3.125  48.433 -20.109  1.00  0.00    -0.002 C 
HETATM    2  C9  UNL     1      -3.659  47.283 -20.975  1.00  0.00     0.007 C 
HETATM    3  C10 UNL     1      -3.223  47.663 -22.374  1.00  0.00     0.015 C 
HETATM    4  C11 UNL     1      -3.552  49.176 -22.508  1.00  0.00    -0.013 C 
HETATM    5  C12 UNL     1      -4.960  49.305 -23.160  1.00  0.00     0.021 C 
HETATM    6  C13 UNL     1      -2.558  49.831 -23.500  1.00  0.00    -0.070 C 
HETATM    7  C14 UNL     1      -2.377  49.322 -24.740  1.00  0.00    -0.022 C 
HETATM    8  C15 UNL     1      -1.524  49.927 -25.811  1.00  0.00     0.034 C 
HETATM    9  C16 UNL     1      -0.603  51.061 -25.322  1.00  0.00     0.013 C 
HETATM   10  C17 UNL     1       0.206  51.794 -26.458  1.00  0.00     0.018 C 
HETATM   11  C18 UNL     1       1.673  51.316 -26.425  1.00  0.00     0.023 C 
HETATM   12  C19 UNL     1      -0.338  51.511 -27.877  1.00  0.00     0.023 C 
HETATM   13  C20 UNL     1       0.255  53.320 -26.285  1.00  0.00     0.135 C 
HETATM   14  O1  UNL     1       0.384  54.074 -27.255  1.00  0.00    -0.297 OA
HETATM   15  C21 UNL     1       0.250  53.922 -24.903  1.00  0.00     0.080 C 
HETATM   16  C22 UNL     1      -0.307  53.022 -23.816  1.00  0.00     0.017 C 
HETATM   17  C23 UNL     1      -1.350  51.990 -24.310  1.00  0.00    -0.031 C 
HETATM   18  C24 UNL     1      -2.563  52.707 -24.946  1.00  0.00     0.016 C 
HETATM   19  C25 UNL     1      -1.813  51.092 -23.095  1.00  0.00     0.024 C 
HETATM   20  C26 UNL     1      -2.607  51.846 -22.021  1.00  0.00     0.010 C 
HETATM   21  C27 UNL     1      -2.666  50.967 -20.778  1.00  0.00     0.011 C 
HETATM   22  C28 UNL     1      -3.536  49.704 -20.981  1.00  0.00    -0.029 C 
HETATM   23  C29 UNL     1      -4.956  50.118 -20.473  1.00  0.00     0.016 C 
ENDROOT
BRANCH   1  24
HETATM   24  C6  UNL     1      -1.610  48.310 -19.721  1.00  0.00    -0.014 C 
HETATM   25  C7  UNL     1      -0.767  49.158 -20.694  1.00  0.00     0.010 C 
BRANCH  24  26
HETATM   26  C5  UNL     1      -1.291  48.734 -18.265  1.00  0.00     0.008 C 
BRANCH  26  27
HETATM   27  C4  UNL     1      -0.520  50.054 -18.148  1.00  0.00     0.028 C 
BRANCH  27  28
HETATM   28  C3  UNL     1       0.304  50.087 -16.888  1.00  0.00    -0.013 C 
HETATM   29  C2  UNL     1       1.050  51.099 -16.401  1.00  0.00     0.008 C 
HETATM   30  C1  UNL     1       1.796  50.960 -15.103  1.00  0.00     0.055 C 
BRANCH  29  31
HETATM   31  C30 UNL     1       1.221  52.377 -17.134  1.00  0.00     0.171 C 
HETATM   32  O2  UNL     1       1.167  52.558 -18.336  1.00  0.00    -0.646 OA
BRANCH  31  33
HETATM   33  O3  UNL     1       1.474  53.398 -16.298  1.00  0.00    -0.773 OA
HETATM   34  H46 UNL     1       1.565  54.167 -16.898  1.00  0.00     0.167 HD
ENDBRANCH  31  33
ENDBRANCH  29  31
ENDBRANCH  27  28
ENDBRANCH  26  27
ENDBRANCH  24  26
ENDBRANCH   1  24
TORSDOF 6
ENDMDL
MODEL 2
REMARK minimizedAffinity -9.87790394
REMARK  6 active torsions:
REMARK  status: ('A' for Active; 'I' for Inactive)
REMARK    1  A    between atoms: C2_2  and  C30_31 
REMARK    2  A    between atoms: C3_3  and  C4_4 
REMARK    3  A    between atoms: C4_4  and  C5_5 
REMARK    4  A    between atoms: C5_5  and  C6_6 
REMARK    5  A    between atoms: C6_6  and  C8_8 
REMARK    6  A    between atoms: C30_31  and  O3_33 
ROOT
HETATM    1  C8  UNL     1      -3.945  48.615 -20.728  1.00  0.00    -0.002 C 
HETATM    2  C9  UNL     1      -4.279  47.396 -21.600  1.00  0.00     0.007 C 
HETATM    3  C10 UNL     1      -3.635  47.725 -22.930  1.00  0.00     0.015 C 
HETATM    4  C11 UNL     1      -4.002  49.210 -23.205  1.00  0.00    -0.013 C 
HETATM    5  C12 UNL     1      -5.288  49.232 -24.083  1.00  0.00     0.021 C 
HETATM    6  C13 UNL     1      -2.887  49.864 -24.060  1.00  0.00    -0.070 C 
HETATM    7  C14 UNL     1      -2.482  49.303 -25.221  1.00  0.00    -0.022 C 
HETATM    8  C15 UNL     1      -1.491  49.895 -26.174  1.00  0.00     0.034 C 
HETATM    9  C16 UNL     1      -0.713  51.099 -25.609  1.00  0.00     0.013 C 
HETATM   10  C17 UNL     1       0.240  51.814 -26.641  1.00  0.00     0.018 C 
HETATM   11  C18 UNL     1       1.701  51.415 -26.341  1.00  0.00     0.023 C 
HETATM   12  C19 UNL     1      -0.050  51.430 -28.110  1.00  0.00     0.023 C 
HETATM   13  C20 UNL     1       0.194  53.347 -26.553  1.00  0.00     0.135 C 
HETATM   14  O1  UNL     1       0.449  54.057 -27.532  1.00  0.00    -0.297 OA
HETATM   15  C21 UNL     1      -0.065  54.018 -25.228  1.00  0.00     0.080 C 
HETATM   16  C22 UNL     1      -0.754  53.148 -24.195  1.00  0.00     0.017 C 
HETATM   17  C23 UNL     1      -1.656  52.039 -24.789  1.00  0.00    -0.031 C 
HETATM   18  C24 UNL     1      -2.777  52.658 -25.655  1.00  0.00     0.016 C 
HETATM   19  C25 UNL     1      -2.275  51.182 -23.614  1.00  0.00     0.024 C 
HETATM   20  C26 UNL     1      -3.266  51.947 -22.730  1.00  0.00     0.010 C 
HETATM   21  C27 UNL     1      -3.491  51.131 -21.463  1.00  0.00     0.011 C 
HETATM   22  C28 UNL     1      -4.261  49.816 -21.729  1.00  0.00    -0.029 C 
HETATM   23  C29 UNL     1      -5.762  50.181 -21.485  1.00  0.00     0.016 C 
ENDROOT
BRANCH   1  24
HETATM   24  C6  UNL     1      -2.511  48.591 -20.093  1.00  0.00    -0.014 C 
HETATM   25  C7  UNL     1      -1.534  47.907 -21.071  1.00  0.00     0.010 C 
BRANCH  24  26
HETATM   26  C5  UNL     1      -1.961  49.990 -19.717  1.00  0.00     0.008 C 
BRANCH  26  27
HETATM   27  C4  UNL     1      -0.430  50.070 -19.659  1.00  0.00     0.028 C 
BRANCH  27  28
HETATM   28  C3  UNL     1       0.094  51.088 -20.637  1.00  0.00    -0.013 C 
HETATM   29  C2  UNL     1       0.556  52.330 -20.388  1.00  0.00     0.008 C 
HETATM   30  C1  UNL     1       1.063  53.208 -21.497  1.00  0.00     0.055 C 
BRANCH  29  31
HETATM   31  C30 UNL     1       0.540  52.918 -19.026  1.00  0.00     0.171 C 
HETATM   32  O2  UNL     1       0.950  52.419 -17.995  1.00  0.00    -0.646 OA
BRANCH  31  33
HETATM   33  O3  UNL     1      -0.020  54.140 -19.021  1.00  0.00    -0.773 OA
HETATM   34  H46 UNL     1       0.031  54.410 -18.081  1.00  0.00     0.167 HD
ENDBRANCH  31  33
ENDBRANCH  29  31
ENDBRANCH  27  28
ENDBRANCH  26  27
ENDBRANCH  24  26
ENDBRANCH   1  24
TORSDOF 6
ENDMDL
MODEL 3
REMARK minimizedAffinity -9.50913715
REMARK  6 active torsions:
REMARK  status: ('A' for Active; 'I' for Inactive)
REMARK    1  A    between atoms: C2_2  and  C30_31 
REMARK    2  A    between atoms: C3_3  and  C4_4 
REMARK    3  A    between atoms: C4_4  and  C5_5 
REMARK    4  A    between atoms: C5_5  and  C6_6 
REMARK    5  A    between atoms: C6_6  and  C8_8 
REMARK    6  A    between atoms: C30_31  and  O3_33 
ROOT
HETATM    1  C8  UNL     1      -3.364  48.598 -20.092  1.00  0.00    -0.002 C 
HETATM    2  C9  UNL     1      -3.852  47.409 -20.931  1.00  0.00     0.007 C 
HETATM    3  C10 UNL     1      -3.366  47.738 -22.327  1.00  0.00     0.015 C 
HETATM    4  C11 UNL     1      -3.704  49.241 -22.533  1.00  0.00    -0.013 C 
HETATM    5  C12 UNL     1      -5.087  49.328 -23.244  1.00  0.00     0.021 C 
HETATM    6  C13 UNL     1      -2.679  49.868 -23.512  1.00  0.00    -0.070 C 
HETATM    7  C14 UNL     1      -2.445  49.313 -24.723  1.00  0.00    -0.022 C 
HETATM    8  C15 UNL     1      -1.556  49.884 -25.784  1.00  0.00     0.034 C 
HETATM    9  C16 UNL     1      -0.667  51.047 -25.305  1.00  0.00     0.013 C 
HETATM   10  C17 UNL     1       0.179  51.744 -26.438  1.00  0.00     0.018 C 
HETATM   11  C18 UNL     1       1.648  51.284 -26.329  1.00  0.00     0.023 C 
HETATM   12  C19 UNL     1      -0.306  51.399 -27.864  1.00  0.00     0.023 C 
HETATM   13  C20 UNL     1       0.206  53.276 -26.324  1.00  0.00     0.135 C 
HETATM   14  O1  UNL     1       0.365  53.993 -27.317  1.00  0.00    -0.297 OA
HETATM   15  C21 UNL     1       0.141  53.932 -24.968  1.00  0.00     0.080 C 
HETATM   16  C22 UNL     1      -0.449  53.070 -23.869  1.00  0.00     0.017 C 
HETATM   17  C23 UNL     1      -1.461  52.007 -24.360  1.00  0.00    -0.031 C 
HETATM   18  C24 UNL     1      -2.656  52.685 -25.070  1.00  0.00     0.016 C 
HETATM   19  C25 UNL     1      -1.963  51.153 -23.129  1.00  0.00     0.024 C 
HETATM   20  C26 UNL     1      -2.805  51.939 -22.118  1.00  0.00     0.010 C 
HETATM   21  C27 UNL     1      -2.903  51.109 -20.843  1.00  0.00     0.011 C 
HETATM   22  C28 UNL     1      -3.753  49.829 -21.029  1.00  0.00    -0.029 C 
HETATM   23  C29 UNL     1      -5.196  50.247 -20.594  1.00  0.00     0.016 C 
ENDROOT
BRANCH   1  24
HETATM   24  C6  UNL     1      -1.863  48.508 -19.641  1.00  0.00    -0.014 C 
HETATM   25  C7  UNL     1      -1.006  48.022 -20.827  1.00  0.00     0.010 C 
BRANCH  24  26
HETATM   26  C5  UNL     1      -1.282  49.840 -19.102  1.00  0.00     0.008 C 
BRANCH  26  27
HETATM   27  C4  UNL     1      -0.622  49.724 -17.722  1.00  0.00     0.028 C 
BRANCH  27  28
HETATM   28  C3  UNL     1       0.545  50.670 -17.603  1.00  0.00    -0.013 C 
HETATM   29  C2  UNL     1       0.891  51.446 -16.556  1.00  0.00     0.008 C 
HETATM   30  C1  UNL     1       2.112  52.320 -16.607  1.00  0.00     0.055 C 
BRANCH  29  31
HETATM   31  C30 UNL     1       0.065  51.525 -15.326  1.00  0.00     0.171 C 
HETATM   32  O2  UNL     1      -0.876  50.819 -15.015  1.00  0.00    -0.646 OA
BRANCH  31  33
HETATM   33  O3  UNL     1       0.464  52.529 -14.526  1.00  0.00    -0.773 OA
HETATM   34  H46 UNL     1      -0.151  52.472 -13.766  1.00  0.00     0.167 HD
ENDBRANCH  31  33
ENDBRANCH  29  31
ENDBRANCH  27  28
ENDBRANCH  26  27
ENDBRANCH  24  26
ENDBRANCH   1  24
TORSDOF 6
ENDMDL
MODEL 4
REMARK minimizedAffinity -9.05064869
REMARK  6 active torsions:
REMARK  status: ('A' for Active; 'I' for Inactive)
REMARK    1  A    between atoms: C2_2  and  C30_31 
REMARK    2  A    between atoms: C3_3  and  C4_4 
REMARK    3  A    between atoms: C4_4  and  C5_5 
REMARK    4  A    between atoms: C5_5  and  C6_6 
REMARK    5  A    between atoms: C6_6  and  C8_8 
REMARK    6  A    between atoms: C30_31  and  O3_33 
ROOT
HETATM    1  C8  UNL     1      -4.439  47.897 -20.793  1.00  0.00    -0.002 C 
HETATM    2  C9  UNL     1      -5.294  47.226 -21.878  1.00  0.00     0.007 C 
HETATM    3  C10 UNL     1      -4.737  47.792 -23.167  1.00  0.00     0.015 C 
HETATM    4  C11 UNL     1      -4.569  49.314 -22.906  1.00  0.00    -0.013 C 
HETATM    5  C12 UNL     1      -5.854  50.033 -23.415  1.00  0.00     0.021 C 
HETATM    6  C13 UNL     1      -3.403  49.857 -23.770  1.00  0.00    -0.070 C 
HETATM    7  C14 UNL     1      -3.371  49.647 -25.105  1.00  0.00    -0.022 C 
HETATM    8  C15 UNL     1      -2.352  50.207 -26.049  1.00  0.00     0.034 C 
HETATM    9  C16 UNL     1      -1.129  50.838 -25.357  1.00  0.00     0.013 C 
HETATM   10  C17 UNL     1      -0.111  51.546 -26.330  1.00  0.00     0.018 C 
HETATM   11  C18 UNL     1       1.130  50.645 -26.508  1.00  0.00     0.023 C 
HETATM   12  C19 UNL     1      -0.692  51.812 -27.737  1.00  0.00     0.023 C 
HETATM   13  C20 UNL     1       0.415  52.887 -25.793  1.00  0.00     0.135 C 
HETATM   14  O1  UNL     1       0.792  53.783 -26.555  1.00  0.00    -0.297 OA
HETATM   15  C21 UNL     1       0.576  53.092 -24.308  1.00  0.00     0.080 C 
HETATM   16  C22 UNL     1      -0.254  52.166 -23.441  1.00  0.00     0.017 C 
HETATM   17  C23 UNL     1      -1.561  51.667 -24.104  1.00  0.00    -0.031 C 
HETATM   18  C24 UNL     1      -2.475  52.860 -24.466  1.00  0.00     0.016 C 
HETATM   19  C25 UNL     1      -2.305  50.681 -23.117  1.00  0.00     0.024 C 
HETATM   20  C26 UNL     1      -2.838  51.347 -21.843  1.00  0.00     0.010 C 
HETATM   21  C27 UNL     1      -3.192  50.246 -20.851  1.00  0.00     0.011 C 
HETATM   22  C28 UNL     1      -4.413  49.409 -21.300  1.00  0.00    -0.029 C 
HETATM   23  C29 UNL     1      -5.638  50.101 -20.617  1.00  0.00     0.016 C 
ENDROOT
BRANCH   1  24
HETATM   24  C6  UNL     1      -3.047  47.217 -20.545  1.00  0.00    -0.014 C 
HETATM   25  C7  UNL     1      -1.942  48.072 -21.197  1.00  0.00     0.010 C 
BRANCH  24  26
HETATM   26  C5  UNL     1      -2.707  46.996 -19.049  1.00  0.00     0.008 C 
BRANCH  26  27
HETATM   27  C4  UNL     1      -2.813  48.260 -18.186  1.00  0.00     0.028 C 
BRANCH  27  28
HETATM   28  C3  UNL     1      -1.457  48.692 -17.694  1.00  0.00    -0.013 C 
HETATM   29  C2  UNL     1      -1.000  49.944 -17.488  1.00  0.00     0.008 C 
HETATM   30  C1  UNL     1       0.389  50.188 -16.969  1.00  0.00     0.055 C 
BRANCH  29  31
HETATM   31  C30 UNL     1      -1.812  51.142 -17.810  1.00  0.00     0.171 C 
HETATM   32  O2  UNL     1      -2.956  51.380 -17.469  1.00  0.00    -0.646 OA
BRANCH  31  33
HETATM   33  O3  UNL     1      -1.132  52.008 -18.581  1.00  0.00    -0.773 OA
HETATM   34  H46 UNL     1      -1.770  52.739 -18.718  1.00  0.00     0.167 HD
ENDBRANCH  31  33
ENDBRANCH  29  31
ENDBRANCH  27  28
ENDBRANCH  26  27
ENDBRANCH  24  26
ENDBRANCH   1  24
TORSDOF 6
ENDMDL
MODEL 5
REMARK minimizedAffinity -8.86301231
REMARK  6 active torsions:
REMARK  status: ('A' for Active; 'I' for Inactive)
REMARK    1  A    between atoms: C2_2  and  C30_31 
REMARK    2  A    between atoms: C3_3  and  C4_4 
REMARK    3  A    between atoms: C4_4  and  C5_5 
REMARK    4  A    between atoms: C5_5  and  C6_6 
REMARK    5  A    between atoms: C6_6  and  C8_8 
REMARK    6  A    between atoms: C30_31  and  O3_33 
ROOT
HETATM    1  C8  UNL     1      -1.469  51.798 -25.871  1.00  0.00    -0.002 C 
HETATM    2  C9  UNL     1      -2.070  53.135 -25.415  1.00  0.00     0.007 C 
HETATM    3  C10 UNL     1      -2.602  52.830 -24.031  1.00  0.00     0.015 C 
HETATM    4  C11 UNL     1      -3.333  51.464 -24.167  1.00  0.00    -0.013 C 
HETATM    5  C12 UNL     1      -4.840  51.751 -24.432  1.00  0.00     0.021 C 
HETATM    6  C13 UNL     1      -3.271  50.713 -22.812  1.00  0.00    -0.070 C 
HETATM    7  C14 UNL     1      -3.683  51.306 -21.670  1.00  0.00    -0.022 C 
HETATM    8  C15 UNL     1      -3.763  50.646 -20.328  1.00  0.00     0.034 C 
HETATM    9  C16 UNL     1      -3.062  49.277 -20.254  1.00  0.00     0.013 C 
HETATM   10  C17 UNL     1      -3.246  48.511 -18.889  1.00  0.00     0.018 C 
HETATM   11  C18 UNL     1      -1.944  48.620 -18.067  1.00  0.00     0.023 C 
HETATM   12  C19 UNL     1      -4.389  49.080 -18.018  1.00  0.00     0.023 C 
HETATM   13  C20 UNL     1      -3.511  47.007 -19.064  1.00  0.00     0.135 C 
HETATM   14  O1  UNL     1      -4.145  46.363 -18.222  1.00  0.00    -0.297 OA
HETATM   15  C21 UNL     1      -2.906  46.266 -20.228  1.00  0.00     0.080 C 
HETATM   16  C22 UNL     1      -2.506  47.138 -21.403  1.00  0.00     0.017 C 
HETATM   17  C23 UNL     1      -3.333  48.439 -21.546  1.00  0.00    -0.031 C 
HETATM   18  C24 UNL     1      -4.831  48.110 -21.738  1.00  0.00     0.016 C 
HETATM   19  C25 UNL     1      -2.788  49.272 -22.774  1.00  0.00     0.024 C 
HETATM   20  C26 UNL     1      -3.016  48.608 -24.137  1.00  0.00     0.010 C 
HETATM   21  C27 UNL     1      -2.142  49.324 -25.160  1.00  0.00     0.011 C 
HETATM   22  C28 UNL     1      -2.611  50.772 -25.436  1.00  0.00    -0.029 C 
HETATM   23  C29 UNL     1      -3.558  50.651 -26.674  1.00  0.00     0.016 C 
ENDROOT
BRANCH   1  24
HETATM   24  C6  UNL     1      -0.025  51.511 -25.328  1.00  0.00    -0.014 C 
HETATM   25  C7  UNL     1       0.690  50.530 -26.279  1.00  0.00     0.010 C 
BRANCH  24  26
HETATM   26  C5  UNL     1       0.849  52.779 -25.149  1.00  0.00     0.008 C 
BRANCH  26  27
HETATM   27  C4  UNL     1       0.798  53.385 -23.741  1.00  0.00     0.028 C 
BRANCH  27  28
HETATM   28  C3  UNL     1       0.428  52.343 -22.719  1.00  0.00    -0.013 C 
HETATM   29  C2  UNL     1       0.443  52.445 -21.375  1.00  0.00     0.008 C 
HETATM   30  C1  UNL     1       0.016  51.297 -20.504  1.00  0.00     0.055 C 
BRANCH  29  31
HETATM   31  C30 UNL     1       0.927  53.663 -20.682  1.00  0.00     0.171 C 
HETATM   32  O2  UNL     1       1.867  54.371 -20.991  1.00  0.00    -0.646 OA
BRANCH  31  33
HETATM   33  O3  UNL     1       0.193  53.937 -19.590  1.00  0.00    -0.773 OA
HETATM   34  H46 UNL     1       0.610  54.748 -19.233  1.00  0.00     0.167 HD
ENDBRANCH  31  33
ENDBRANCH  29  31
ENDBRANCH  27  28
ENDBRANCH  26  27
ENDBRANCH  24  26
ENDBRANCH   1  24
TORSDOF 6
ENDMDL
MODEL 6
REMARK minimizedAffinity -8.85238457
REMARK  6 active torsions:
REMARK  status: ('A' for Active; 'I' for Inactive)
REMARK    1  A    between atoms: C2_2  and  C30_31 
REMARK    2  A    between atoms: C3_3  and  C4_4 
REMARK    3  A    between atoms: C4_4  and  C5_5 
REMARK    4  A    between atoms: C5_5  and  C6_6 
REMARK    5  A    between atoms: C6_6  and  C8_8 
REMARK    6  A    between atoms: C30_31  and  O3_33 
ROOT
HETATM    1  C8  UNL     1      -1.643  51.486 -21.761  1.00  0.00    -0.002 C 
HETATM    2  C9  UNL     1      -0.534  50.428 -21.670  1.00  0.00     0.007 C 
HETATM    3  C10 UNL     1      -1.296  49.123 -21.580  1.00  0.00     0.015 C 
HETATM    4  C11 UNL     1      -2.435  49.386 -20.556  1.00  0.00    -0.013 C 
HETATM    5  C12 UNL     1      -1.937  48.925 -19.154  1.00  0.00     0.021 C 
HETATM    6  C13 UNL     1      -3.649  48.484 -20.897  1.00  0.00    -0.070 C 
HETATM    7  C14 UNL     1      -3.504  47.148 -21.040  1.00  0.00    -0.022 C 
HETATM    8  C15 UNL     1      -4.616  46.172 -21.268  1.00  0.00     0.034 C 
HETATM    9  C16 UNL     1      -5.966  46.824 -21.622  1.00  0.00     0.013 C 
HETATM   10  C17 UNL     1      -7.176  45.820 -21.738  1.00  0.00     0.018 C 
HETATM   11  C18 UNL     1      -7.505  45.594 -23.229  1.00  0.00     0.023 C 
HETATM   12  C19 UNL     1      -6.884  44.435 -21.117  1.00  0.00     0.023 C 
HETATM   13  C20 UNL     1      -8.469  46.345 -21.095  1.00  0.00     0.135 C 
HETATM   14  O1  UNL     1      -9.327  45.574 -20.652  1.00  0.00    -0.297 OA
HETATM   15  C21 UNL     1      -8.759  47.824 -21.087  1.00  0.00     0.080 C 
HETATM   16  C22 UNL     1      -7.544  48.715 -21.255  1.00  0.00     0.017 C 
HETATM   17  C23 UNL     1      -6.219  48.096 -20.748  1.00  0.00    -0.031 C 
HETATM   18  C24 UNL     1      -6.316  47.771 -19.240  1.00  0.00     0.016 C 
HETATM   19  C25 UNL     1      -5.032  49.103 -21.022  1.00  0.00     0.024 C 
HETATM   20  C26 UNL     1      -5.102  50.397 -20.204  1.00  0.00     0.010 C 
HETATM   21  C27 UNL     1      -4.131  51.396 -20.822  1.00  0.00     0.011 C 
HETATM   22  C28 UNL     1      -2.651  50.985 -20.631  1.00  0.00    -0.029 C 
HETATM   23  C29 UNL     1      -2.206  51.714 -19.321  1.00  0.00     0.016 C 
ENDROOT
BRANCH   1  24
HETATM   24  C6  UNL     1      -2.243  51.682 -23.198  1.00  0.00    -0.014 C 
HETATM   25  C7  UNL     1      -3.710  52.139 -23.077  1.00  0.00     0.010 C 
BRANCH  24  26
HETATM   26  C5  UNL     1      -1.463  52.692 -24.078  1.00  0.00     0.008 C 
BRANCH  26  27
HETATM   27  C4  UNL     1       0.033  52.386 -24.212  1.00  0.00     0.028 C 
BRANCH  27  28
HETATM   28  C3  UNL     1       0.345  51.806 -25.567  1.00  0.00    -0.013 C 
HETATM   29  C2  UNL     1       0.319  52.419 -26.768  1.00  0.00     0.008 C 
HETATM   30  C1  UNL     1       0.684  51.682 -28.025  1.00  0.00     0.055 C 
BRANCH  29  31
HETATM   31  C30 UNL     1      -0.119  53.828 -26.924  1.00  0.00     0.171 C 
HETATM   32  O2  UNL     1       0.317  54.811 -26.355  1.00  0.00    -0.646 OA
BRANCH  31  33
HETATM   33  O3  UNL     1      -1.128  53.937 -27.805  1.00  0.00    -0.773 OA
HETATM   34  H46 UNL     1      -1.319  54.898 -27.814  1.00  0.00     0.167 HD
ENDBRANCH  31  33
ENDBRANCH  29  31
ENDBRANCH  27  28
ENDBRANCH  26  27
ENDBRANCH  24  26
ENDBRANCH   1  24
TORSDOF 6
ENDMDL
MODEL 7
REMARK minimizedAffinity -8.79186916
REMARK  6 active torsions:
REMARK  status: ('A' for Active; 'I' for Inactive)
REMARK    1  A    between atoms: C2_2  and  C30_31 
REMARK    2  A    between atoms: C3_3  and  C4_4 
REMARK    3  A    between atoms: C4_4  and  C5_5 
REMARK    4  A    between atoms: C5_5  and  C6_6 
REMARK    5  A    between atoms: C6_6  and  C8_8 
REMARK    6  A    between atoms: C30_31  and  O3_33 
ROOT
HETATM    1  C8  UNL     1      -3.041  49.826 -24.149  1.00  0.00    -0.002 C 
HETATM    2  C9  UNL     1      -1.956  49.577 -23.092  1.00  0.00     0.007 C 
HETATM    3  C10 UNL     1      -2.499  48.410 -22.295  1.00  0.00     0.015 C 
HETATM    4  C11 UNL     1      -3.997  48.746 -22.048  1.00  0.00    -0.013 C 
HETATM    5  C12 UNL     1      -4.110  49.448 -20.662  1.00  0.00     0.021 C 
HETATM    6  C13 UNL     1      -4.805  47.429 -21.930  1.00  0.00    -0.070 C 
HETATM    7  C14 UNL     1      -4.436  46.463 -21.059  1.00  0.00    -0.022 C 
HETATM    8  C15 UNL     1      -5.194  45.201 -20.788  1.00  0.00     0.034 C 
HETATM    9  C16 UNL     1      -6.323  44.914 -21.795  1.00  0.00     0.013 C 
HETATM   10  C17 UNL     1      -7.213  43.659 -21.452  1.00  0.00     0.018 C 
HETATM   11  C18 UNL     1      -6.819  42.489 -22.379  1.00  0.00     0.023 C 
HETATM   12  C19 UNL     1      -7.044  43.168 -19.996  1.00  0.00     0.023 C 
HETATM   13  C20 UNL     1      -8.714  43.893 -21.682  1.00  0.00     0.135 C 
HETATM   14  O1  UNL     1      -9.569  43.272 -21.042  1.00  0.00    -0.297 OA
HETATM   15  C21 UNL     1      -9.171  44.822 -22.778  1.00  0.00     0.080 C 
HETATM   16  C22 UNL     1      -8.136  45.832 -23.234  1.00  0.00     0.017 C 
HETATM   17  C23 UNL     1      -7.101  46.222 -22.152  1.00  0.00    -0.031 C 
HETATM   18  C24 UNL     1      -7.808  46.846 -20.926  1.00  0.00     0.016 C 
HETATM   19  C25 UNL     1      -6.060  47.240 -22.766  1.00  0.00     0.024 C 
HETATM   20  C26 UNL     1      -6.654  48.605 -23.134  1.00  0.00     0.010 C 
HETATM   21  C27 UNL     1      -5.652  49.328 -24.026  1.00  0.00     0.011 C 
HETATM   22  C28 UNL     1      -4.368  49.740 -23.267  1.00  0.00    -0.029 C 
HETATM   23  C29 UNL     1      -4.646  51.202 -22.787  1.00  0.00     0.016 C 
ENDROOT
BRANCH   1  24
HETATM   24  C6  UNL     1      -2.967  48.878 -25.397  1.00  0.00    -0.014 C 
HETATM   25  C7  UNL     1      -4.394  48.455 -25.798  1.00  0.00     0.010 C 
BRANCH  24  26
HETATM   26  C5  UNL     1      -2.254  49.500 -26.624  1.00  0.00     0.008 C 
BRANCH  26  27
HETATM   27  C4  UNL     1      -1.604  50.862 -26.351  1.00  0.00     0.028 C 
BRANCH  27  28
HETATM   28  C3  UNL     1      -0.101  50.752 -26.359  1.00  0.00    -0.013 C 
HETATM   29  C2  UNL     1       0.806  51.690 -26.700  1.00  0.00     0.008 C 
HETATM   30  C1  UNL     1       2.280  51.408 -26.626  1.00  0.00     0.055 C 
BRANCH  29  31
HETATM   31  C30 UNL     1       0.406  53.023 -27.213  1.00  0.00     0.171 C 
HETATM   32  O2  UNL     1       0.364  54.074 -26.602  1.00  0.00    -0.646 OA
BRANCH  31  33
HETATM   33  O3  UNL     1       0.053  52.969 -28.508  1.00  0.00    -0.773 OA
HETATM   34  H46 UNL     1      -0.184  53.896 -28.719  1.00  0.00     0.167 HD
ENDBRANCH  31  33
ENDBRANCH  29  31
ENDBRANCH  27  28
ENDBRANCH  26  27
ENDBRANCH  24  26
ENDBRANCH   1  24
TORSDOF 6
ENDMDL
MODEL 8
REMARK minimizedAffinity -8.7784977
REMARK  6 active torsions:
REMARK  status: ('A' for Active; 'I' for Inactive)
REMARK    1  A    between atoms: C2_2  and  C30_31 
REMARK    2  A    between atoms: C3_3  and  C4_4 
REMARK    3  A    between atoms: C4_4  and  C5_5 
REMARK    4  A    between atoms: C5_5  and  C6_6 
REMARK    5  A    between atoms: C6_6  and  C8_8 
REMARK    6  A    between atoms: C30_31  and  O3_33 
ROOT
HETATM    1  C8  UNL     1      -3.019  48.208 -20.112  1.00  0.00    -0.002 C 
HETATM    2  C9  UNL     1      -3.684  47.149 -21.002  1.00  0.00     0.007 C 
HETATM    3  C10 UNL     1      -3.319  47.586 -22.405  1.00  0.00     0.015 C 
HETATM    4  C11 UNL     1      -3.557  49.122 -22.428  1.00  0.00    -0.013 C 
HETATM    5  C12 UNL     1      -4.994  49.378 -22.971  1.00  0.00     0.021 C 
HETATM    6  C13 UNL     1      -2.591  49.775 -23.450  1.00  0.00    -0.070 C 
HETATM    7  C14 UNL     1      -2.527  49.334 -24.726  1.00  0.00    -0.022 C 
HETATM    8  C15 UNL     1      -1.710  49.950 -25.819  1.00  0.00     0.034 C 
HETATM    9  C16 UNL     1      -0.687  50.992 -25.332  1.00  0.00     0.013 C 
HETATM   10  C17 UNL     1       0.091  51.743 -26.479  1.00  0.00     0.018 C 
HETATM   11  C18 UNL     1       1.522  51.175 -26.577  1.00  0.00     0.023 C 
HETATM   12  C19 UNL     1      -0.565  51.582 -27.870  1.00  0.00     0.023 C 
HETATM   13  C20 UNL     1       0.251  53.250 -26.223  1.00  0.00     0.135 C 
HETATM   14  O1  UNL     1       0.364  54.053 -27.155  1.00  0.00    -0.297 OA
HETATM   15  C21 UNL     1       0.378  53.764 -24.812  1.00  0.00     0.080 C 
HETATM   16  C22 UNL     1      -0.162  52.836 -23.742  1.00  0.00     0.017 C 
HETATM   17  C23 UNL     1      -1.301  51.902 -24.218  1.00  0.00    -0.031 C 
HETATM   18  C24 UNL     1      -2.504  52.730 -24.724  1.00  0.00     0.016 C 
HETATM   19  C25 UNL     1      -1.740  50.961 -23.026  1.00  0.00     0.024 C 
HETATM   20  C26 UNL     1      -2.409  51.694 -21.858  1.00  0.00     0.010 C 
HETATM   21  C27 UNL     1      -2.441  50.745 -20.666  1.00  0.00     0.011 C 
HETATM   22  C28 UNL     1      -3.404  49.553 -20.879  1.00  0.00    -0.029 C 
HETATM   23  C29 UNL     1      -4.756  50.022 -20.249  1.00  0.00     0.016 C 
ENDROOT
BRANCH   1  24
HETATM   24  C6  UNL     1      -1.493  47.969 -19.840  1.00  0.00    -0.014 C 
HETATM   25  C7  UNL     1      -0.664  48.741 -20.887  1.00  0.00     0.010 C 
BRANCH  24  26
HETATM   26  C5  UNL     1      -1.029  48.378 -18.419  1.00  0.00     0.008 C 
BRANCH  26  27
HETATM   27  C4  UNL     1      -2.174  48.577 -17.417  1.00  0.00     0.028 C 
BRANCH  27  28
HETATM   28  C3  UNL     1      -1.639  48.836 -16.033  1.00  0.00    -0.013 C 
HETATM   29  C2  UNL     1      -1.958  49.833 -15.184  1.00  0.00     0.008 C 
HETATM   30  C1  UNL     1      -1.333  49.922 -13.820  1.00  0.00     0.055 C 
BRANCH  29  31
HETATM   31  C30 UNL     1      -2.894  50.920 -15.561  1.00  0.00     0.171 C 
HETATM   32  O2  UNL     1      -3.090  51.382 -16.670  1.00  0.00    -0.646 OA
BRANCH  31  33
HETATM   33  O3  UNL     1      -3.550  51.401 -14.492  1.00  0.00    -0.773 OA
HETATM   34  H46 UNL     1      -4.124  52.099 -14.872  1.00  0.00     0.167 HD
ENDBRANCH  31  33
ENDBRANCH  29  31
ENDBRANCH  27  28
ENDBRANCH  26  27
ENDBRANCH  24  26
ENDBRANCH   1  24
TORSDOF 6
ENDMDL
MODEL 9
REMARK minimizedAffinity -8.71455765
REMARK  6 active torsions:
REMARK  status: ('A' for Active; 'I' for Inactive)
REMARK    1  A    between atoms: C2_2  and  C30_31 
REMARK    2  A    between atoms: C3_3  and  C4_4 
REMARK    3  A    between atoms: C4_4  and  C5_5 
REMARK    4  A    between atoms: C5_5  and  C6_6 
REMARK    5  A    between atoms: C6_6  and  C8_8 
REMARK    6  A    between atoms: C30_31  and  O3_33 
ROOT
HETATM    1  C8  UNL     1      -2.420  51.764 -23.742  1.00  0.00    -0.002 C 
HETATM    2  C9  UNL     1      -3.496  52.797 -23.382  1.00  0.00     0.007 C 
HETATM    3  C10 UNL     1      -4.350  52.078 -22.359  1.00  0.00     0.015 C 
HETATM    4  C11 UNL     1      -4.567  50.652 -22.939  1.00  0.00    -0.013 C 
HETATM    5  C12 UNL     1      -5.913  50.653 -23.723  1.00  0.00     0.021 C 
HETATM    6  C13 UNL     1      -4.749  49.647 -21.774  1.00  0.00    -0.070 C 
HETATM    7  C14 UNL     1      -5.673  49.861 -20.810  1.00  0.00    -0.022 C 
HETATM    8  C15 UNL     1      -6.004  48.914 -19.699  1.00  0.00     0.034 C 
HETATM    9  C16 UNL     1      -5.006  47.752 -19.539  1.00  0.00     0.013 C 
HETATM   10  C17 UNL     1      -5.408  46.676 -18.460  1.00  0.00     0.018 C 
HETATM   11  C18 UNL     1      -4.547  46.880 -17.195  1.00  0.00     0.023 C 
HETATM   12  C19 UNL     1      -6.889  46.768 -18.027  1.00  0.00     0.023 C 
HETATM   13  C20 UNL     1      -5.155  45.230 -18.915  1.00  0.00     0.135 C 
HETATM   14  O1  UNL     1      -5.821  44.289 -18.471  1.00  0.00    -0.297 OA
HETATM   15  C21 UNL     1      -4.008  44.923 -19.844  1.00  0.00     0.080 C 
HETATM   16  C22 UNL     1      -3.507  46.104 -20.653  1.00  0.00     0.017 C 
HETATM   17  C23 UNL     1      -4.575  47.189 -20.933  1.00  0.00    -0.031 C 
HETATM   18  C24 UNL     1      -5.760  46.591 -21.724  1.00  0.00     0.016 C 
HETATM   19  C25 UNL     1      -3.915  48.377 -21.740  1.00  0.00     0.024 C 
HETATM   20  C26 UNL     1      -3.472  48.005 -23.160  1.00  0.00     0.010 C 
HETATM   21  C27 UNL     1      -2.550  49.107 -23.668  1.00  0.00     0.011 C 
HETATM   22  C28 UNL     1      -3.295  50.441 -23.913  1.00  0.00    -0.029 C 
HETATM   23  C29 UNL     1      -3.695  50.397 -25.424  1.00  0.00     0.016 C 
ENDROOT
BRANCH   1  24
HETATM   24  C6  UNL     1      -1.224  51.686 -22.729  1.00  0.00    -0.014 C 
HETATM   25  C7  UNL     1      -1.081  50.236 -22.223  1.00  0.00     0.010 C 
BRANCH  24  26
HETATM   26  C5  UNL     1       0.132  52.161 -23.310  1.00  0.00     0.008 C 
BRANCH  26  27
HETATM   27  C4  UNL     1       0.007  53.042 -24.559  1.00  0.00     0.028 C 
BRANCH  27  28
HETATM   28  C3  UNL     1       0.433  52.291 -25.793  1.00  0.00    -0.013 C 
HETATM   29  C2  UNL     1       0.210  52.605 -27.085  1.00  0.00     0.008 C 
HETATM   30  C1  UNL     1       0.735  51.740 -28.197  1.00  0.00     0.055 C 
BRANCH  29  31
HETATM   31  C30 UNL     1      -0.603  53.780 -27.481  1.00  0.00     0.171 C 
HETATM   32  O2  UNL     1      -0.269  54.950 -27.484  1.00  0.00    -0.646 OA
BRANCH  31  33
HETATM   33  O3  UNL     1      -1.843  53.421 -27.854  1.00  0.00    -0.773 OA
HETATM   34  H46 UNL     1      -2.267  54.273 -28.086  1.00  0.00     0.167 HD
ENDBRANCH  31  33
ENDBRANCH  29  31
ENDBRANCH  27  28
ENDBRANCH  26  27
ENDBRANCH  24  26
ENDBRANCH   1  24
TORSDOF 6
ENDMDL
