MODEL 1
REMARK minimizedAffinity -7.71674824
REMARK CNNscore 0.73170191
REMARK CNNaffinity 7.13604212
REMARK  11 active torsions:
REMARK  status: ('A' for Active; 'I' for Inactive)
REMARK    1  A    between atoms: C19_21  and  O3_22 
REMARK    2  A    between atoms: C19_21  and  C20_23 
REMARK    3  A    between atoms: C20_23  and  C21_25 
REMARK    4  A    between atoms: C21_25  and  O5_26 
REMARK    5  A    between atoms: O5_26  and  C22_27 
REMARK    6  A    between atoms: C22_27  and  C23_29 
REMARK    7  A    between atoms: C23_29  and  C24_30 
REMARK    8  A    between atoms: C24_30  and  C25_31 
REMARK       I    between atoms: C25_31  and  N1_33 
REMARK    9  A    between atoms: N1_33  and  C26_34 
REMARK   10  A    between atoms: C26_34  and  C27_35 
REMARK   11  A    between atoms: C27_35  and  O9_37 
ROOT
HETATM    1  C1  UNL     1       0.853  51.238 -24.705  1.00  0.00     0.021 C 
HETATM    2  C2  UNL     1      -0.179  52.089 -23.931  1.00  0.00    -0.009 C 
HETATM    3  C3  UNL     1      -0.155  53.558 -24.458  1.00  0.00     0.022 C 
HETATM    4  C4  UNL     1       1.077  54.348 -24.039  1.00  0.00     0.084 C 
HETATM    5  C5  UNL     1       1.219  54.336 -22.541  1.00  0.00     0.149 C 
HETATM    6  O1  UNL     1       1.707  55.272 -21.914  1.00  0.00    -0.293 OA
HETATM    7  C6  UNL     1       0.821  53.106 -21.819  1.00  0.00     0.053 C 
HETATM    8  C7  UNL     1       0.228  52.073 -22.444  1.00  0.00    -0.067 C 
HETATM    9  C8  UNL     1      -0.045  50.803 -21.675  1.00  0.00     0.035 C 
HETATM   10  C9  UNL     1      -1.489  50.346 -21.833  1.00  0.00     0.010 C 
HETATM   11  C10 UNL     1      -1.861  50.185 -23.313  1.00  0.00     0.003 C 
HETATM   12  C11 UNL     1      -1.643  51.529 -24.066  1.00  0.00     0.072 C 
HETATM   13  C12 UNL     1      -2.185  51.418 -25.506  1.00  0.00     0.133 C 
HETATM   14  O2  UNL     1      -1.567  51.798 -26.497  1.00  0.00    -0.297 OA
HETATM   15  C13 UNL     1      -3.608  50.890 -25.662  1.00  0.00     0.091 C 
HETATM   16  C14 UNL     1      -3.746  49.539 -24.951  1.00  0.00     0.005 C 
HETATM   17  C15 UNL     1      -2.859  48.499 -25.692  1.00  0.00     0.019 C 
HETATM   18  C16 UNL     1      -3.325  49.748 -23.474  1.00  0.00     0.002 C 
HETATM   19  C17 UNL     1      -3.765  48.459 -22.787  1.00  0.00     0.009 C 
HETATM   20  C18 UNL     1      -5.036  48.025 -23.539  1.00  0.00     0.047 C 
HETATM   21  C19 UNL     1      -5.196  48.996 -24.744  1.00  0.00     0.128 C 
ENDROOT
BRANCH  21  22
HETATM   22  O3  UNL     1      -6.076  50.027 -24.280  1.00  0.00    -0.381 OA
HETATM   23  H25 UNL     1      -6.081  50.776 -24.895  1.00  0.00     0.211 HD
ENDBRANCH  21  22
BRANCH  21  24
HETATM   24  C20 UNL     1      -5.797  48.248 -25.962  1.00  0.00     0.185 C 
HETATM   25  O4  UNL     1      -5.191  48.140 -27.031  1.00  0.00    -0.292 OA
BRANCH  24  26
HETATM   26  C21 UNL     1      -7.193  47.648 -25.782  1.00  0.00     0.260 C 
BRANCH  26  27
HETATM   27  O5  UNL     1      -8.093  47.990 -26.833  1.00  0.00    -0.314 OA
BRANCH  27  28
HETATM   28  C22 UNL     1      -8.140  47.071 -27.838  1.00  0.00     0.259 C 
HETATM   29  O6  UNL     1      -8.376  45.882 -27.677  1.00  0.00    -0.265 OA
BRANCH  28  30
HETATM   30  C23 UNL     1      -7.824  47.730 -29.154  1.00  0.00     0.120 C 
BRANCH  30  31
HETATM   31  C24 UNL     1      -8.919  48.713 -29.551  1.00  0.00     0.112 C 
BRANCH  31  32
HETATM   32  C25 UNL     1     -10.122  47.996 -30.120  1.00  0.00     0.218 C 
HETATM   33  O7  UNL     1     -11.208  47.943 -29.557  1.00  0.00    -0.274 OA
HETATM   34  N1  UNL     1      -9.877  47.415 -31.345  1.00  0.00    -0.351 N 
HETATM   35  H32 UNL     1      -9.109  47.790 -31.889  1.00  0.00     0.163 HD
BRANCH  34  36
HETATM   36  C26 UNL     1     -10.966  46.801 -32.092  1.00  0.00     0.232 C 
BRANCH  36  37
HETATM   37  C27 UNL     1     -10.974  45.280 -32.015  1.00  0.00     0.158 C 
HETATM   38  O8  UNL     1     -10.288  44.603 -31.263  1.00  0.00    -0.649 OA
BRANCH  37  39
HETATM   39  O9  UNL     1     -11.767  44.678 -32.929  1.00  0.00    -0.775 OA
HETATM   40  H35 UNL     1     -11.656  43.723 -32.738  1.00  0.00     0.167 HD
ENDBRANCH  37  39
ENDBRANCH  36  37
ENDBRANCH  34  36
ENDBRANCH  31  32
ENDBRANCH  30  31
ENDBRANCH  28  30
ENDBRANCH  27  28
ENDBRANCH  26  27
ENDBRANCH  24  26
ENDBRANCH  21  24
TORSDOF 11
ENDMDL
MODEL 2
REMARK minimizedAffinity -7.43820286
REMARK CNNscore 0.646944582
REMARK CNNaffinity 6.72658682
REMARK  11 active torsions:
REMARK  status: ('A' for Active; 'I' for Inactive)
REMARK    1  A    between atoms: C19_21  and  O3_22 
REMARK    2  A    between atoms: C19_21  and  C20_23 
REMARK    3  A    between atoms: C20_23  and  C21_25 
REMARK    4  A    between atoms: C21_25  and  O5_26 
REMARK    5  A    between atoms: O5_26  and  C22_27 
REMARK    6  A    between atoms: C22_27  and  C23_29 
REMARK    7  A    between atoms: C23_29  and  C24_30 
REMARK    8  A    between atoms: C24_30  and  C25_31 
REMARK       I    between atoms: C25_31  and  N1_33 
REMARK    9  A    between atoms: N1_33  and  C26_34 
REMARK   10  A    between atoms: C26_34  and  C27_35 
REMARK   11  A    between atoms: C27_35  and  O9_37 
ROOT
HETATM    1  C1  UNL     1       0.702  51.166 -24.659  1.00  0.00     0.021 C 
HETATM    2  C2  UNL     1      -0.298  52.007 -23.834  1.00  0.00    -0.009 C 
HETATM    3  C3  UNL     1      -0.276  53.487 -24.326  1.00  0.00     0.022 C 
HETATM    4  C4  UNL     1       0.976  54.256 -23.925  1.00  0.00     0.084 C 
HETATM    5  C5  UNL     1       1.164  54.206 -22.433  1.00  0.00     0.149 C 
HETATM    6  O1  UNL     1       1.679  55.122 -21.799  1.00  0.00    -0.293 OA
HETATM    7  C6  UNL     1       0.775  52.962 -21.729  1.00  0.00     0.053 C 
HETATM    8  C7  UNL     1       0.153  51.950 -22.361  1.00  0.00    -0.067 C 
HETATM    9  C8  UNL     1      -0.110  50.664 -21.615  1.00  0.00     0.035 C 
HETATM   10  C9  UNL     1      -1.561  50.224 -21.740  1.00  0.00     0.010 C 
HETATM   11  C10 UNL     1      -1.980  50.104 -23.212  1.00  0.00     0.003 C 
HETATM   12  C11 UNL     1      -1.771  51.464 -23.938  1.00  0.00     0.072 C 
HETATM   13  C12 UNL     1      -2.357  51.393 -25.364  1.00  0.00     0.133 C 
HETATM   14  O2  UNL     1      -1.765  51.791 -26.363  1.00  0.00    -0.297 OA
HETATM   15  C13 UNL     1      -3.789  50.882 -25.488  1.00  0.00     0.091 C 
HETATM   16  C14 UNL     1      -3.919  49.516 -24.806  1.00  0.00     0.005 C 
HETATM   17  C15 UNL     1      -3.066  48.486 -25.599  1.00  0.00     0.019 C 
HETATM   18  C16 UNL     1      -3.452  49.684 -23.338  1.00  0.00     0.002 C 
HETATM   19  C17 UNL     1      -3.884  48.383 -22.670  1.00  0.00     0.009 C 
HETATM   20  C18 UNL     1      -5.181  47.979 -23.394  1.00  0.00     0.047 C 
HETATM   21  C19 UNL     1      -5.368  48.981 -24.570  1.00  0.00     0.128 C 
ENDROOT
BRANCH  21  22
HETATM   22  O3  UNL     1      -6.223  50.008 -24.054  1.00  0.00    -0.381 OA
HETATM   23  H25 UNL     1      -6.239  50.772 -24.650  1.00  0.00     0.211 HD
ENDBRANCH  21  22
BRANCH  21  24
HETATM   24  C20 UNL     1      -6.013  48.268 -25.787  1.00  0.00     0.185 C 
HETATM   25  O4  UNL     1      -5.441  48.184 -26.877  1.00  0.00    -0.292 OA
BRANCH  24  26
HETATM   26  C21 UNL     1      -7.407  47.674 -25.577  1.00  0.00     0.260 C 
BRANCH  26  27
HETATM   27  O5  UNL     1      -8.212  47.698 -26.753  1.00  0.00    -0.314 OA
BRANCH  27  28
HETATM   28  C22 UNL     1      -9.424  48.295 -26.578  1.00  0.00     0.259 C 
HETATM   29  O6  UNL     1      -9.668  49.122 -25.710  1.00  0.00    -0.265 OA
BRANCH  28  30
HETATM   30  C23 UNL     1     -10.412  47.760 -27.581  1.00  0.00     0.120 C 
BRANCH  30  31
HETATM   31  C24 UNL     1     -11.836  48.162 -27.216  1.00  0.00     0.112 C 
BRANCH  31  32
HETATM   32  C25 UNL     1     -12.486  47.132 -26.321  1.00  0.00     0.218 C 
HETATM   33  O7  UNL     1     -12.850  47.362 -25.175  1.00  0.00    -0.274 OA
HETATM   34  N1  UNL     1     -12.638  45.904 -26.929  1.00  0.00    -0.351 N 
HETATM   35  H32 UNL     1     -12.649  45.890 -27.942  1.00  0.00     0.163 HD
BRANCH  34  36
HETATM   36  C26 UNL     1     -13.367  44.841 -26.253  1.00  0.00     0.232 C 
BRANCH  36  37
HETATM   37  C27 UNL     1     -12.558  44.145 -25.167  1.00  0.00     0.158 C 
HETATM   38  O8  UNL     1     -11.691  43.304 -25.355  1.00  0.00    -0.649 OA
BRANCH  37  39
HETATM   39  O9  UNL     1     -12.925  44.464 -23.905  1.00  0.00    -0.775 OA
HETATM   40  H35 UNL     1     -12.314  43.940 -23.348  1.00  0.00     0.167 HD
ENDBRANCH  37  39
ENDBRANCH  36  37
ENDBRANCH  34  36
ENDBRANCH  31  32
ENDBRANCH  30  31
ENDBRANCH  28  30
ENDBRANCH  27  28
ENDBRANCH  26  27
ENDBRANCH  24  26
ENDBRANCH  21  24
TORSDOF 11
ENDMDL
MODEL 3
REMARK minimizedAffinity -7.80684137
REMARK CNNscore 0.627063513
REMARK CNNaffinity 7.17736197
REMARK  11 active torsions:
REMARK  status: ('A' for Active; 'I' for Inactive)
REMARK    1  A    between atoms: C19_21  and  O3_22 
REMARK    2  A    between atoms: C19_21  and  C20_23 
REMARK    3  A    between atoms: C20_23  and  C21_25 
REMARK    4  A    between atoms: C21_25  and  O5_26 
REMARK    5  A    between atoms: O5_26  and  C22_27 
REMARK    6  A    between atoms: C22_27  and  C23_29 
REMARK    7  A    between atoms: C23_29  and  C24_30 
REMARK    8  A    between atoms: C24_30  and  C25_31 
REMARK       I    between atoms: C25_31  and  N1_33 
REMARK    9  A    between atoms: N1_33  and  C26_34 
REMARK   10  A    between atoms: C26_34  and  C27_35 
REMARK   11  A    between atoms: C27_35  and  O9_37 
ROOT
HETATM    1  C1  UNL     1       0.824  51.199 -24.752  1.00  0.00     0.021 C 
HETATM    2  C2  UNL     1      -0.204  52.052 -23.976  1.00  0.00    -0.009 C 
HETATM    3  C3  UNL     1      -0.176  53.522 -24.500  1.00  0.00     0.022 C 
HETATM    4  C4  UNL     1       1.060  54.307 -24.079  1.00  0.00     0.084 C 
HETATM    5  C5  UNL     1       1.203  54.290 -22.581  1.00  0.00     0.149 C 
HETATM    6  O1  UNL     1       1.695  55.224 -21.953  1.00  0.00    -0.293 OA
HETATM    7  C6  UNL     1       0.801  53.060 -21.862  1.00  0.00     0.053 C 
HETATM    8  C7  UNL     1       0.203  52.031 -22.489  1.00  0.00    -0.067 C 
HETATM    9  C8  UNL     1      -0.074  50.760 -21.723  1.00  0.00     0.035 C 
HETATM   10  C9  UNL     1      -1.519  50.309 -21.880  1.00  0.00     0.010 C 
HETATM   11  C10 UNL     1      -1.893  50.153 -23.361  1.00  0.00     0.003 C 
HETATM   12  C11 UNL     1      -1.671  51.498 -24.111  1.00  0.00     0.072 C 
HETATM   13  C12 UNL     1      -2.214  51.393 -25.551  1.00  0.00     0.133 C 
HETATM   14  O2  UNL     1      -1.595  51.773 -26.542  1.00  0.00    -0.297 OA
HETATM   15  C13 UNL     1      -3.639  50.870 -25.707  1.00  0.00     0.091 C 
HETATM   16  C14 UNL     1      -3.781  49.518 -24.999  1.00  0.00     0.005 C 
HETATM   17  C15 UNL     1      -2.900  48.477 -25.743  1.00  0.00     0.019 C 
HETATM   18  C16 UNL     1      -3.359  49.722 -23.522  1.00  0.00     0.002 C 
HETATM   19  C17 UNL     1      -3.803  48.433 -22.837  1.00  0.00     0.009 C 
HETATM   20  C18 UNL     1      -5.076  48.005 -23.590  1.00  0.00     0.047 C 
HETATM   21  C19 UNL     1      -5.234  48.980 -24.793  1.00  0.00     0.128 C 
ENDROOT
BRANCH  21  22
HETATM   22  O3  UNL     1      -6.109  50.013 -24.325  1.00  0.00    -0.381 OA
HETATM   23  H25 UNL     1      -6.112  50.763 -24.938  1.00  0.00     0.211 HD
ENDBRANCH  21  22
BRANCH  21  24
HETATM   24  C20 UNL     1      -5.839  48.237 -26.012  1.00  0.00     0.185 C 
HETATM   25  O4  UNL     1      -5.319  48.279 -27.130  1.00  0.00    -0.292 OA
BRANCH  24  26
HETATM   26  C21 UNL     1      -7.126  47.447 -25.768  1.00  0.00     0.260 C 
BRANCH  26  27
HETATM   27  O5  UNL     1      -8.059  47.543 -26.841  1.00  0.00    -0.314 OA
BRANCH  27  28
HETATM   28  C22 UNL     1      -8.661  46.362 -27.155  1.00  0.00     0.259 C 
HETATM   29  O6  UNL     1      -9.137  45.590 -26.334  1.00  0.00    -0.265 OA
BRANCH  28  30
HETATM   30  C23 UNL     1      -8.618  46.140 -28.644  1.00  0.00     0.120 C 
BRANCH  30  31
HETATM   31  C24 UNL     1      -7.182  46.095 -29.150  1.00  0.00     0.112 C 
BRANCH  31  32
HETATM   32  C25 UNL     1      -6.934  47.160 -30.195  1.00  0.00     0.218 C 
HETATM   33  O7  UNL     1      -7.165  48.350 -30.018  1.00  0.00    -0.274 OA
HETATM   34  N1  UNL     1      -6.410  46.658 -31.366  1.00  0.00    -0.351 N 
HETATM   35  H32 UNL     1      -5.928  45.768 -31.313  1.00  0.00     0.163 HD
BRANCH  34  36
HETATM   36  C26 UNL     1      -5.987  47.565 -32.424  1.00  0.00     0.232 C 
BRANCH  36  37
HETATM   37  C27 UNL     1      -6.798  47.424 -33.706  1.00  0.00     0.158 C 
HETATM   38  O8  UNL     1      -7.867  46.840 -33.810  1.00  0.00    -0.649 OA
BRANCH  37  39
HETATM   39  O9  UNL     1      -6.202  47.939 -34.804  1.00  0.00    -0.775 OA
HETATM   40  H35 UNL     1      -6.849  47.766 -35.520  1.00  0.00     0.167 HD
ENDBRANCH  37  39
ENDBRANCH  36  37
ENDBRANCH  34  36
ENDBRANCH  31  32
ENDBRANCH  30  31
ENDBRANCH  28  30
ENDBRANCH  27  28
ENDBRANCH  26  27
ENDBRANCH  24  26
ENDBRANCH  21  24
TORSDOF 11
ENDMDL
MODEL 4
REMARK minimizedAffinity -8.39948082
REMARK CNNscore 0.609813452
REMARK CNNaffinity 6.53000307
REMARK  11 active torsions:
REMARK  status: ('A' for Active; 'I' for Inactive)
REMARK    1  A    between atoms: C19_21  and  O3_22 
REMARK    2  A    between atoms: C19_21  and  C20_23 
REMARK    3  A    between atoms: C20_23  and  C21_25 
REMARK    4  A    between atoms: C21_25  and  O5_26 
REMARK    5  A    between atoms: O5_26  and  C22_27 
REMARK    6  A    between atoms: C22_27  and  C23_29 
REMARK    7  A    between atoms: C23_29  and  C24_30 
REMARK    8  A    between atoms: C24_30  and  C25_31 
REMARK       I    between atoms: C25_31  and  N1_33 
REMARK    9  A    between atoms: N1_33  and  C26_34 
REMARK   10  A    between atoms: C26_34  and  C27_35 
REMARK   11  A    between atoms: C27_35  and  O9_37 
ROOT
HETATM    1  C1  UNL     1      -2.076  52.828 -24.693  1.00  0.00     0.021 C 
HETATM    2  C2  UNL     1      -1.133  51.617 -24.867  1.00  0.00    -0.009 C 
HETATM    3  C3  UNL     1       0.341  52.111 -25.008  1.00  0.00     0.022 C 
HETATM    4  C4  UNL     1       0.650  52.770 -26.345  1.00  0.00     0.084 C 
HETATM    5  C5  UNL     1       0.307  51.839 -27.476  1.00  0.00     0.149 C 
HETATM    6  O1  UNL     1       0.925  51.830 -28.537  1.00  0.00    -0.293 OA
HETATM    7  C6  UNL     1      -0.873  50.959 -27.315  1.00  0.00     0.053 C 
HETATM    8  C7  UNL     1      -1.552  50.884 -26.156  1.00  0.00    -0.067 C 
HETATM    9  C8  UNL     1      -2.815  50.059 -26.093  1.00  0.00     0.035 C 
HETATM   10  C9  UNL     1      -2.802  49.093 -24.917  1.00  0.00     0.010 C 
HETATM   11  C10 UNL     1      -2.559  49.833 -23.594  1.00  0.00     0.003 C 
HETATM   12  C11 UNL     1      -1.214  50.613 -23.658  1.00  0.00     0.072 C 
HETATM   13  C12 UNL     1      -0.884  51.207 -22.273  1.00  0.00     0.133 C 
HETATM   14  O2  UNL     1      -0.513  52.364 -22.100  1.00  0.00    -0.297 OA
HETATM   15  C13 UNL     1      -0.944  50.248 -21.088  1.00  0.00     0.091 C 
HETATM   16  C14 UNL     1      -2.310  49.555 -21.042  1.00  0.00     0.005 C 
HETATM   17  C15 UNL     1      -3.396  50.624 -20.735  1.00  0.00     0.019 C 
HETATM   18  C16 UNL     1      -2.520  48.855 -22.409  1.00  0.00     0.002 C 
HETATM   19  C17 UNL     1      -3.737  47.966 -22.177  1.00  0.00     0.009 C 
HETATM   20  C18 UNL     1      -3.636  47.536 -20.702  1.00  0.00     0.047 C 
HETATM   21  C19 UNL     1      -2.445  48.326 -20.086  1.00  0.00     0.128 C 
ENDROOT
BRANCH  21  22
HETATM   22  O3  UNL     1      -1.317  47.452 -20.201  1.00  0.00    -0.381 OA
HETATM   23  H25 UNL     1      -0.493  47.929 -20.020  1.00  0.00     0.211 HD
ENDBRANCH  21  22
BRANCH  21  24
HETATM   24  C20 UNL     1      -2.740  48.675 -18.605  1.00  0.00     0.185 C 
HETATM   25  O4  UNL     1      -3.829  48.434 -18.078  1.00  0.00    -0.292 OA
BRANCH  24  26
HETATM   26  C21 UNL     1      -1.612  49.346 -17.818  1.00  0.00     0.260 C 
BRANCH  26  27
HETATM   27  O5  UNL     1      -1.844  50.730 -17.569  1.00  0.00    -0.314 OA
BRANCH  27  28
HETATM   28  C22 UNL     1      -0.805  51.535 -17.928  1.00  0.00     0.259 C 
HETATM   29  O6  UNL     1      -0.923  52.568 -18.573  1.00  0.00    -0.265 OA
BRANCH  28  30
HETATM   30  C23 UNL     1       0.495  50.947 -17.448  1.00  0.00     0.120 C 
BRANCH  30  31
HETATM   31  C24 UNL     1       1.360  52.004 -16.775  1.00  0.00     0.112 C 
BRANCH  31  32
HETATM   32  C25 UNL     1       1.431  51.787 -15.280  1.00  0.00     0.218 C 
HETATM   33  O7  UNL     1       0.604  52.227 -14.491  1.00  0.00    -0.274 OA
HETATM   34  N1  UNL     1       2.517  51.032 -14.893  1.00  0.00    -0.351 N 
HETATM   35  H32 UNL     1       2.931  50.427 -15.592  1.00  0.00     0.163 HD
BRANCH  34  36
HETATM   36  C26 UNL     1       2.659  50.617 -13.504  1.00  0.00     0.232 C 
BRANCH  36  37
HETATM   37  C27 UNL     1       3.822  49.661 -13.272  1.00  0.00     0.158 C 
HETATM   38  O8  UNL     1       4.944  49.778 -13.745  1.00  0.00    -0.649 OA
BRANCH  37  39
HETATM   39  O9  UNL     1       3.511  48.570 -12.538  1.00  0.00    -0.775 OA
HETATM   40  H35 UNL     1       4.357  48.078 -12.487  1.00  0.00     0.167 HD
ENDBRANCH  37  39
ENDBRANCH  36  37
ENDBRANCH  34  36
ENDBRANCH  31  32
ENDBRANCH  30  31
ENDBRANCH  28  30
ENDBRANCH  27  28
ENDBRANCH  26  27
ENDBRANCH  24  26
ENDBRANCH  21  24
TORSDOF 11
ENDMDL
MODEL 5
REMARK minimizedAffinity -7.60357904
REMARK CNNscore 0.577198029
REMARK CNNaffinity 6.0923996
REMARK  11 active torsions:
REMARK  status: ('A' for Active; 'I' for Inactive)
REMARK    1  A    between atoms: C19_21  and  O3_22 
REMARK    2  A    between atoms: C19_21  and  C20_23 
REMARK    3  A    between atoms: C20_23  and  C21_25 
REMARK    4  A    between atoms: C21_25  and  O5_26 
REMARK    5  A    between atoms: O5_26  and  C22_27 
REMARK    6  A    between atoms: C22_27  and  C23_29 
REMARK    7  A    between atoms: C23_29  and  C24_30 
REMARK    8  A    between atoms: C24_30  and  C25_31 
REMARK       I    between atoms: C25_31  and  N1_33 
REMARK    9  A    between atoms: N1_33  and  C26_34 
REMARK   10  A    between atoms: C26_34  and  C27_35 
REMARK   11  A    between atoms: C27_35  and  O9_37 
ROOT
HETATM    1  C1  UNL     1      -0.327  49.906 -21.247  1.00  0.00     0.021 C 
HETATM    2  C2  UNL     1      -1.043  51.272 -21.345  1.00  0.00    -0.009 C 
HETATM    3  C3  UNL     1      -0.315  52.178 -22.385  1.00  0.00     0.022 C 
HETATM    4  C4  UNL     1       1.027  52.716 -21.908  1.00  0.00     0.084 C 
HETATM    5  C5  UNL     1       0.861  53.454 -20.608  1.00  0.00     0.149 C 
HETATM    6  O1  UNL     1       1.562  54.414 -20.297  1.00  0.00    -0.293 OA
HETATM    7  C6  UNL     1      -0.140  52.942 -19.644  1.00  0.00     0.053 C 
HETATM    8  C7  UNL     1      -0.974  51.932 -19.953  1.00  0.00    -0.067 C 
HETATM    9  C8  UNL     1      -1.890  51.379 -18.888  1.00  0.00     0.035 C 
HETATM   10  C9  UNL     1      -3.333  51.304 -19.365  1.00  0.00     0.010 C 
HETATM   11  C10 UNL     1      -3.446  50.495 -20.665  1.00  0.00     0.003 C 
HETATM   12  C11 UNL     1      -2.552  51.131 -21.768  1.00  0.00     0.072 C 
HETATM   13  C12 UNL     1      -2.803  50.428 -23.118  1.00  0.00     0.133 C 
HETATM   14  O2  UNL     1      -1.906  50.053 -23.868  1.00  0.00    -0.297 OA
HETATM   15  C13 UNL     1      -4.258  50.291 -23.556  1.00  0.00     0.091 C 
HETATM   16  C14 UNL     1      -5.075  49.607 -22.455  1.00  0.00     0.005 C 
HETATM   17  C15 UNL     1      -4.573  48.143 -22.306  1.00  0.00     0.019 C 
HETATM   18  C16 UNL     1      -4.899  50.441 -21.161  1.00  0.00     0.002 C 
HETATM   19  C17 UNL     1      -5.954  49.873 -20.218  1.00  0.00     0.009 C 
HETATM   20  C18 UNL     1      -7.120  49.459 -21.134  1.00  0.00     0.047 C 
HETATM   21  C19 UNL     1      -6.631  49.655 -22.598  1.00  0.00     0.128 C 
ENDROOT
BRANCH  21  22
HETATM   22  O3  UNL     1      -7.078  50.964 -22.970  1.00  0.00    -0.381 OA
HETATM   23  H25 UNL     1      -6.655  51.249 -23.794  1.00  0.00     0.211 HD
ENDBRANCH  21  22
BRANCH  21  24
HETATM   24  C20 UNL     1      -7.241  48.568 -23.520  1.00  0.00     0.185 C 
HETATM   25  O4  UNL     1      -7.944  48.851 -24.493  1.00  0.00    -0.292 OA
BRANCH  24  26
HETATM   26  C21 UNL     1      -6.934  47.112 -23.162  1.00  0.00     0.260 C 
BRANCH  26  27
HETATM   27  O5  UNL     1      -8.059  46.412 -22.636  1.00  0.00    -0.314 OA
BRANCH  27  28
HETATM   28  C22 UNL     1      -7.729  45.393 -21.794  1.00  0.00     0.259 C 
HETATM   29  O6  UNL     1      -7.036  45.521 -20.794  1.00  0.00    -0.265 OA
BRANCH  28  30
HETATM   30  C23 UNL     1      -8.312  44.099 -22.296  1.00  0.00     0.120 C 
BRANCH  30  31
HETATM   31  C24 UNL     1      -7.222  43.178 -22.831  1.00  0.00     0.112 C 
BRANCH  31  32
HETATM   32  C25 UNL     1      -7.682  42.443 -24.069  1.00  0.00     0.218 C 
HETATM   33  O7  UNL     1      -7.379  42.777 -25.208  1.00  0.00    -0.274 OA
HETATM   34  N1  UNL     1      -8.470  41.348 -23.787  1.00  0.00    -0.351 N 
HETATM   35  H32 UNL     1      -8.381  40.940 -22.864  1.00  0.00     0.163 HD
BRANCH  34  36
HETATM   36  C26 UNL     1      -8.885  40.453 -24.859  1.00  0.00     0.232 C 
BRANCH  36  37
HETATM   37  C27 UNL     1      -8.425  39.015 -24.661  1.00  0.00     0.158 C 
HETATM   38  O8  UNL     1      -9.158  38.046 -24.527  1.00  0.00    -0.649 OA
BRANCH  37  39
HETATM   39  O9  UNL     1      -7.085  38.866 -24.555  1.00  0.00    -0.775 OA
HETATM   40  H35 UNL     1      -6.970  37.900 -24.437  1.00  0.00     0.167 HD
ENDBRANCH  37  39
ENDBRANCH  36  37
ENDBRANCH  34  36
ENDBRANCH  31  32
ENDBRANCH  30  31
ENDBRANCH  28  30
ENDBRANCH  27  28
ENDBRANCH  26  27
ENDBRANCH  24  26
ENDBRANCH  21  24
TORSDOF 11
ENDMDL
MODEL 6
REMARK minimizedAffinity -7.77241516
REMARK CNNscore 0.484638274
REMARK CNNaffinity 6.06910563
REMARK  11 active torsions:
REMARK  status: ('A' for Active; 'I' for Inactive)
REMARK    1  A    between atoms: C19_21  and  O3_22 
REMARK    2  A    between atoms: C19_21  and  C20_23 
REMARK    3  A    between atoms: C20_23  and  C21_25 
REMARK    4  A    between atoms: C21_25  and  O5_26 
REMARK    5  A    between atoms: O5_26  and  C22_27 
REMARK    6  A    between atoms: C22_27  and  C23_29 
REMARK    7  A    between atoms: C23_29  and  C24_30 
REMARK    8  A    between atoms: C24_30  and  C25_31 
REMARK       I    between atoms: C25_31  and  N1_33 
REMARK    9  A    between atoms: N1_33  and  C26_34 
REMARK   10  A    between atoms: C26_34  and  C27_35 
REMARK   11  A    between atoms: C27_35  and  O9_37 
ROOT
HETATM    1  C1  UNL     1      -1.854  52.962 -23.989  1.00  0.00     0.021 C 
HETATM    2  C2  UNL     1      -0.911  51.737 -23.985  1.00  0.00    -0.009 C 
HETATM    3  C3  UNL     1       0.528  52.175 -24.399  1.00  0.00     0.022 C 
HETATM    4  C4  UNL     1       0.674  52.506 -25.878  1.00  0.00     0.084 C 
HETATM    5  C5  UNL     1       0.227  51.342 -26.720  1.00  0.00     0.149 C 
HETATM    6  O1  UNL     1       0.724  51.085 -27.813  1.00  0.00    -0.293 OA
HETATM    7  C6  UNL     1      -0.911  50.531 -26.230  1.00  0.00     0.053 C 
HETATM    8  C7  UNL     1      -1.457  50.729 -25.016  1.00  0.00    -0.067 C 
HETATM    9  C8  UNL     1      -2.689  49.949 -24.624  1.00  0.00     0.035 C 
HETATM   10  C9  UNL     1      -2.526  49.280 -23.267  1.00  0.00     0.010 C 
HETATM   11  C10 UNL     1      -2.154  50.303 -22.185  1.00  0.00     0.003 C 
HETATM   12  C11 UNL     1      -0.839  51.038 -22.577  1.00  0.00     0.072 C 
HETATM   13  C12 UNL     1      -0.371  51.933 -21.411  1.00  0.00     0.133 C 
HETATM   14  O2  UNL     1      -0.004  53.097 -21.551  1.00  0.00    -0.297 OA
HETATM   15  C13 UNL     1      -0.280  51.274 -20.038  1.00  0.00     0.091 C 
HETATM   16  C14 UNL     1      -1.619  50.618 -19.682  1.00  0.00     0.005 C 
HETATM   17  C15 UNL     1      -2.685  51.736 -19.509  1.00  0.00     0.019 C 
HETATM   18  C16 UNL     1      -1.965  49.624 -20.820  1.00  0.00     0.002 C 
HETATM   19  C17 UNL     1      -3.131  48.820 -20.255  1.00  0.00     0.009 C 
HETATM   20  C18 UNL     1      -2.860  48.741 -18.742  1.00  0.00     0.047 C 
HETATM   21  C19 UNL     1      -1.624  49.643 -18.461  1.00  0.00     0.128 C 
ENDROOT
BRANCH  21  22
HETATM   22  O3  UNL     1      -0.498  48.759 -18.497  1.00  0.00    -0.381 OA
HETATM   23  H25 UNL     1       0.331  49.260 -18.524  1.00  0.00     0.211 HD
ENDBRANCH  21  22
BRANCH  21  24
HETATM   24  C20 UNL     1      -1.760  50.326 -17.075  1.00  0.00     0.185 C 
HETATM   25  O4  UNL     1      -0.839  50.972 -16.568  1.00  0.00    -0.292 OA
BRANCH  24  26
HETATM   26  C21 UNL     1      -3.098  50.157 -16.353  1.00  0.00     0.260 C 
BRANCH  26  27
HETATM   27  O5  UNL     1      -3.234  51.003 -15.214  1.00  0.00    -0.314 OA
BRANCH  27  28
HETATM   28  C22 UNL     1      -2.824  50.426 -14.049  1.00  0.00     0.259 C 
HETATM   29  O6  UNL     1      -2.851  49.224 -13.826  1.00  0.00    -0.265 OA
BRANCH  28  30
HETATM   30  C23 UNL     1      -2.372  51.487 -13.080  1.00  0.00     0.120 C 
BRANCH  30  31
HETATM   31  C24 UNL     1      -3.559  52.117 -12.364  1.00  0.00     0.112 C 
BRANCH  31  32
HETATM   32  C25 UNL     1      -3.106  53.082 -11.292  1.00  0.00     0.218 C 
HETATM   33  O7  UNL     1      -3.781  54.024 -10.898  1.00  0.00    -0.274 OA
HETATM   34  N1  UNL     1      -1.855  52.787 -10.792  1.00  0.00    -0.351 N 
HETATM   35  H32 UNL     1      -1.529  51.834 -10.897  1.00  0.00     0.163 HD
BRANCH  34  36
HETATM   36  C26 UNL     1      -1.327  53.536  -9.660  1.00  0.00     0.232 C 
BRANCH  36  37
HETATM   37  C27 UNL     1      -0.607  54.817 -10.062  1.00  0.00     0.158 C 
HETATM   38  O8  UNL     1       0.601  54.937 -10.208  1.00  0.00    -0.649 OA
BRANCH  37  39
HETATM   39  O9  UNL     1      -1.411  55.898 -10.177  1.00  0.00    -0.775 OA
HETATM   40  H35 UNL     1      -0.796  56.615 -10.437  1.00  0.00     0.167 HD
ENDBRANCH  37  39
ENDBRANCH  36  37
ENDBRANCH  34  36
ENDBRANCH  31  32
ENDBRANCH  30  31
ENDBRANCH  28  30
ENDBRANCH  27  28
ENDBRANCH  26  27
ENDBRANCH  24  26
ENDBRANCH  21  24
TORSDOF 11
ENDMDL
MODEL 7
REMARK minimizedAffinity -8.52353001
REMARK CNNscore 0.393538833
REMARK CNNaffinity 6.15052843
REMARK  11 active torsions:
REMARK  status: ('A' for Active; 'I' for Inactive)
REMARK    1  A    between atoms: C19_21  and  O3_22 
REMARK    2  A    between atoms: C19_21  and  C20_23 
REMARK    3  A    between atoms: C20_23  and  C21_25 
REMARK    4  A    between atoms: C21_25  and  O5_26 
REMARK    5  A    between atoms: O5_26  and  C22_27 
REMARK    6  A    between atoms: C22_27  and  C23_29 
REMARK    7  A    between atoms: C23_29  and  C24_30 
REMARK    8  A    between atoms: C24_30  and  C25_31 
REMARK       I    between atoms: C25_31  and  N1_33 
REMARK    9  A    between atoms: N1_33  and  C26_34 
REMARK   10  A    between atoms: C26_34  and  C27_35 
REMARK   11  A    between atoms: C27_35  and  O9_37 
ROOT
HETATM    1  C1  UNL     1      -2.189  52.698 -24.484  1.00  0.00     0.021 C 
HETATM    2  C2  UNL     1      -1.212  51.508 -24.615  1.00  0.00    -0.009 C 
HETATM    3  C3  UNL     1       0.235  52.036 -24.860  1.00  0.00     0.022 C 
HETATM    4  C4  UNL     1       0.461  52.604 -26.254  1.00  0.00     0.084 C 
HETATM    5  C5  UNL     1       0.101  51.583 -27.299  1.00  0.00     0.149 C 
HETATM    6  O1  UNL     1       0.671  51.516 -28.384  1.00  0.00    -0.293 OA
HETATM    7  C6  UNL     1      -1.040  50.681 -27.019  1.00  0.00     0.053 C 
HETATM    8  C7  UNL     1      -1.663  50.669 -25.827  1.00  0.00    -0.067 C 
HETATM    9  C8  UNL     1      -2.893  49.812 -25.646  1.00  0.00     0.035 C 
HETATM   10  C9  UNL     1      -2.793  48.935 -24.405  1.00  0.00     0.010 C 
HETATM   11  C10 UNL     1      -2.518  49.778 -23.152  1.00  0.00     0.003 C 
HETATM   12  C11 UNL     1      -1.205  50.592 -23.335  1.00  0.00     0.072 C 
HETATM   13  C12 UNL     1      -0.835  51.296 -22.013  1.00  0.00     0.133 C 
HETATM   14  O2  UNL     1      -0.496  52.475 -21.941  1.00  0.00    -0.297 OA
HETATM   15  C13 UNL     1      -0.807  50.426 -20.761  1.00  0.00     0.091 C 
HETATM   16  C14 UNL     1      -2.145  49.695 -20.601  1.00  0.00     0.005 C 
HETATM   17  C15 UNL     1      -3.253  50.749 -20.321  1.00  0.00     0.019 C 
HETATM   18  C16 UNL     1      -2.392  48.891 -21.903  1.00  0.00     0.002 C 
HETATM   19  C17 UNL     1      -3.565  47.983 -21.551  1.00  0.00     0.009 C 
HETATM   20  C18 UNL     1      -3.384  47.666 -20.056  1.00  0.00     0.047 C 
HETATM   21  C19 UNL     1      -2.195  48.536 -19.555  1.00  0.00     0.128 C 
ENDROOT
BRANCH  21  22
HETATM   22  O3  UNL     1      -1.043  47.691 -19.659  1.00  0.00    -0.381 OA
HETATM   23  H25 UNL     1      -0.229  48.206 -19.552  1.00  0.00     0.211 HD
ENDBRANCH  21  22
BRANCH  21  24
HETATM   24  C20 UNL     1      -2.435  48.983 -18.089  1.00  0.00     0.185 C 
HETATM   25  O4  UNL     1      -3.560  49.258 -17.663  1.00  0.00    -0.292 OA
BRANCH  24  26
HETATM   26  C21 UNL     1      -1.203  49.077 -17.187  1.00  0.00     0.260 C 
BRANCH  26  27
HETATM   27  O5  UNL     1      -0.258  50.051 -17.623  1.00  0.00    -0.314 OA
BRANCH  27  28
HETATM   28  C22 UNL     1       0.380  50.693 -16.604  1.00  0.00     0.259 C 
HETATM   29  O6  UNL     1       1.377  51.388 -16.742  1.00  0.00    -0.265 OA
BRANCH  28  30
HETATM   30  C23 UNL     1      -0.303  50.391 -15.296  1.00  0.00     0.120 C 
BRANCH  30  31
HETATM   31  C24 UNL     1      -0.337  51.621 -14.399  1.00  0.00     0.112 C 
BRANCH  31  32
HETATM   32  C25 UNL     1      -1.365  51.473 -13.301  1.00  0.00     0.218 C 
HETATM   33  O7  UNL     1      -2.006  50.448 -13.106  1.00  0.00    -0.274 OA
HETATM   34  N1  UNL     1      -1.504  52.609 -12.532  1.00  0.00    -0.351 N 
HETATM   35  H32 UNL     1      -0.725  53.256 -12.519  1.00  0.00     0.163 HD
BRANCH  34  36
HETATM   36  C26 UNL     1      -2.355  52.589 -11.350  1.00  0.00     0.232 C 
BRANCH  36  37
HETATM   37  C27 UNL     1      -3.829  52.821 -11.658  1.00  0.00     0.158 C 
HETATM   38  O8  UNL     1      -4.269  53.650 -12.441  1.00  0.00    -0.649 OA
BRANCH  37  39
HETATM   39  O9  UNL     1      -4.679  52.074 -10.919  1.00  0.00    -0.775 OA
HETATM   40  H35 UNL     1      -5.564  52.344 -11.242  1.00  0.00     0.167 HD
ENDBRANCH  37  39
ENDBRANCH  36  37
ENDBRANCH  34  36
ENDBRANCH  31  32
ENDBRANCH  30  31
ENDBRANCH  28  30
ENDBRANCH  27  28
ENDBRANCH  26  27
ENDBRANCH  24  26
ENDBRANCH  21  24
TORSDOF 11
ENDMDL
MODEL 8
REMARK minimizedAffinity -7.04322672
REMARK CNNscore 0.390218675
REMARK CNNaffinity 5.33443785
REMARK  11 active torsions:
REMARK  status: ('A' for Active; 'I' for Inactive)
REMARK    1  A    between atoms: C19_21  and  O3_22 
REMARK    2  A    between atoms: C19_21  and  C20_23 
REMARK    3  A    between atoms: C20_23  and  C21_25 
REMARK    4  A    between atoms: C21_25  and  O5_26 
REMARK    5  A    between atoms: O5_26  and  C22_27 
REMARK    6  A    between atoms: C22_27  and  C23_29 
REMARK    7  A    between atoms: C23_29  and  C24_30 
REMARK    8  A    between atoms: C24_30  and  C25_31 
REMARK       I    between atoms: C25_31  and  N1_33 
REMARK    9  A    between atoms: N1_33  and  C26_34 
REMARK   10  A    between atoms: C26_34  and  C27_35 
REMARK   11  A    between atoms: C27_35  and  O9_37 
ROOT
HETATM    1  C1  UNL     1      -7.434  45.028 -30.047  1.00  0.00     0.021 C 
HETATM    2  C2  UNL     1      -7.670  46.554 -30.123  1.00  0.00    -0.009 C 
HETATM    3  C3  UNL     1      -7.739  47.005 -31.615  1.00  0.00     0.022 C 
HETATM    4  C4  UNL     1      -6.394  46.998 -32.329  1.00  0.00     0.084 C 
HETATM    5  C5  UNL     1      -5.402  47.845 -31.579  1.00  0.00     0.149 C 
HETATM    6  O1  UNL     1      -4.504  48.467 -32.141  1.00  0.00    -0.293 OA
HETATM    7  C6  UNL     1      -5.480  47.856 -30.100  1.00  0.00     0.053 C 
HETATM    8  C7  UNL     1      -6.475  47.243 -29.435  1.00  0.00    -0.067 C 
HETATM    9  C8  UNL     1      -6.432  47.190 -27.926  1.00  0.00     0.035 C 
HETATM   10  C9  UNL     1      -7.740  47.660 -27.307  1.00  0.00     0.010 C 
HETATM   11  C10 UNL     1      -8.931  46.860 -27.853  1.00  0.00     0.003 C 
HETATM   12  C11 UNL     1      -8.997  46.993 -29.402  1.00  0.00     0.072 C 
HETATM   13  C12 UNL     1     -10.292  46.341 -29.930  1.00  0.00     0.133 C 
HETATM   14  O2  UNL     1     -10.326  45.579 -30.893  1.00  0.00    -0.297 OA
HETATM   15  C13 UNL     1     -11.593  46.762 -29.255  1.00  0.00     0.091 C 
HETATM   16  C14 UNL     1     -11.489  46.553 -27.740  1.00  0.00     0.005 C 
HETATM   17  C15 UNL     1     -11.378  45.029 -27.459  1.00  0.00     0.019 C 
HETATM   18  C16 UNL     1     -10.255  47.350 -27.247  1.00  0.00     0.002 C 
HETATM   19  C17 UNL     1     -10.395  47.330 -25.728  1.00  0.00     0.009 C 
HETATM   20  C18 UNL     1     -11.913  47.344 -25.472  1.00  0.00     0.047 C 
HETATM   21  C19 UNL     1     -12.603  47.208 -26.860  1.00  0.00     0.128 C 
ENDROOT
BRANCH  21  22
HETATM   22  O3  UNL     1     -12.873  48.550 -27.278  1.00  0.00    -0.381 OA
HETATM   23  H25 UNL     1     -13.125  48.575 -28.213  1.00  0.00     0.211 HD
ENDBRANCH  21  22
BRANCH  21  24
HETATM   24  C20 UNL     1     -13.910  46.383 -26.734  1.00  0.00     0.185 C 
HETATM   25  O4  UNL     1     -14.676  46.217 -27.686  1.00  0.00    -0.292 OA
BRANCH  24  26
HETATM   26  C21 UNL     1     -14.214  45.782 -25.360  1.00  0.00     0.260 C 
BRANCH  26  27
HETATM   27  O5  UNL     1     -15.269  46.452 -24.673  1.00  0.00    -0.314 OA
BRANCH  27  28
HETATM   28  C22 UNL     1     -16.447  45.767 -24.672  1.00  0.00     0.259 C 
HETATM   29  O6  UNL     1     -16.538  44.548 -24.626  1.00  0.00    -0.265 OA
BRANCH  28  30
HETATM   30  C23 UNL     1     -17.602  46.728 -24.771  1.00  0.00     0.120 C 
BRANCH  30  31
HETATM   31  C24 UNL     1     -18.493  46.643 -23.538  1.00  0.00     0.112 C 
BRANCH  31  32
HETATM   32  C25 UNL     1     -19.567  45.594 -23.708  1.00  0.00     0.218 C 
HETATM   33  O7  UNL     1     -20.484  45.686 -24.514  1.00  0.00    -0.274 OA
HETATM   34  N1  UNL     1     -19.406  44.513 -22.868  1.00  0.00    -0.351 N 
HETATM   35  H32 UNL     1     -18.474  44.343 -22.508  1.00  0.00     0.163 HD
BRANCH  34  36
HETATM   36  C26 UNL     1     -20.277  43.352 -22.997  1.00  0.00     0.232 C 
BRANCH  36  37
HETATM   37  C27 UNL     1     -21.264  43.203 -21.848  1.00  0.00     0.158 C 
HETATM   38  O8  UNL     1     -20.969  43.006 -20.678  1.00  0.00    -0.649 OA
BRANCH  37  39
HETATM   39  O9  UNL     1     -22.564  43.220 -22.221  1.00  0.00    -0.775 OA
HETATM   40  H35 UNL     1     -23.048  43.116 -21.375  1.00  0.00     0.167 HD
ENDBRANCH  37  39
ENDBRANCH  36  37
ENDBRANCH  34  36
ENDBRANCH  31  32
ENDBRANCH  30  31
ENDBRANCH  28  30
ENDBRANCH  27  28
ENDBRANCH  26  27
ENDBRANCH  24  26
ENDBRANCH  21  24
TORSDOF 11
ENDMDL
MODEL 9
REMARK minimizedAffinity -8.91296196
REMARK CNNscore 0.388899118
REMARK CNNaffinity 6.63768148
REMARK  11 active torsions:
REMARK  status: ('A' for Active; 'I' for Inactive)
REMARK    1  A    between atoms: C19_21  and  O3_22 
REMARK    2  A    between atoms: C19_21  and  C20_23 
REMARK    3  A    between atoms: C20_23  and  C21_25 
REMARK    4  A    between atoms: C21_25  and  O5_26 
REMARK    5  A    between atoms: O5_26  and  C22_27 
REMARK    6  A    between atoms: C22_27  and  C23_29 
REMARK    7  A    between atoms: C23_29  and  C24_30 
REMARK    8  A    between atoms: C24_30  and  C25_31 
REMARK       I    between atoms: C25_31  and  N1_33 
REMARK    9  A    between atoms: N1_33  and  C26_34 
REMARK   10  A    between atoms: C26_34  and  C27_35 
REMARK   11  A    between atoms: C27_35  and  O9_37 
ROOT
HETATM    1  C1  UNL     1      -4.414  50.975 -24.671  1.00  0.00     0.021 C 
HETATM    2  C2  UNL     1      -3.819  49.549 -24.726  1.00  0.00    -0.009 C 
HETATM    3  C3  UNL     1      -2.627  49.513 -25.732  1.00  0.00     0.022 C 
HETATM    4  C4  UNL     1      -3.045  49.589 -27.194  1.00  0.00     0.084 C 
HETATM    5  C5  UNL     1      -4.023  48.491 -27.514  1.00  0.00     0.149 C 
HETATM    6  O1  UNL     1      -4.086  47.962 -28.621  1.00  0.00    -0.293 OA
HETATM    7  C6  UNL     1      -4.991  48.100 -26.464  1.00  0.00     0.053 C 
HETATM    8  C7  UNL     1      -4.932  48.602 -25.218  1.00  0.00    -0.067 C 
HETATM    9  C8  UNL     1      -6.018  48.253 -24.229  1.00  0.00     0.035 C 
HETATM   10  C9  UNL     1      -5.444  47.754 -22.911  1.00  0.00     0.010 C 
HETATM   11  C10 UNL     1      -4.461  48.771 -22.314  1.00  0.00     0.003 C 
HETATM   12  C11 UNL     1      -3.310  49.054 -23.323  1.00  0.00     0.072 C 
HETATM   13  C12 UNL     1      -2.232  49.934 -22.656  1.00  0.00     0.133 C 
HETATM   14  O2  UNL     1      -1.734  50.921 -23.189  1.00  0.00    -0.297 OA
HETATM   15  C13 UNL     1      -1.713  49.466 -21.300  1.00  0.00     0.091 C 
HETATM   16  C14 UNL     1      -2.884  49.260 -20.333  1.00  0.00     0.005 C 
HETATM   17  C15 UNL     1      -3.536  50.642 -20.047  1.00  0.00     0.019 C 
HETATM   18  C16 UNL     1      -3.861  48.256 -20.996  1.00  0.00     0.002 C 
HETATM   19  C17 UNL     1      -4.822  47.889 -19.870  1.00  0.00     0.009 C 
HETATM   20  C18 UNL     1      -3.969  47.943 -18.590  1.00  0.00     0.047 C 
HETATM   21  C19 UNL     1      -2.575  48.498 -19.004  1.00  0.00     0.128 C 
ENDROOT
BRANCH  21  22
HETATM   22  O3  UNL     1      -1.767  47.341 -19.244  1.00  0.00    -0.381 OA
HETATM   23  H25 UNL     1      -0.943  47.585 -19.691  1.00  0.00     0.211 HD
ENDBRANCH  21  22
BRANCH  21  24
HETATM   24  C20 UNL     1      -1.985  49.372 -17.867  1.00  0.00     0.185 C 
HETATM   25  O4  UNL     1      -2.685  49.824 -16.956  1.00  0.00    -0.292 OA
BRANCH  24  26
HETATM   26  C21 UNL     1      -0.484  49.659 -17.928  1.00  0.00     0.260 C 
BRANCH  26  27
HETATM   27  O5  UNL     1      -0.108  50.461 -19.044  1.00  0.00    -0.314 OA
BRANCH  27  28
HETATM   28  C22 UNL     1      -0.011  51.791 -18.760  1.00  0.00     0.259 C 
HETATM   29  O6  UNL     1       0.189  52.245 -17.642  1.00  0.00    -0.265 OA
BRANCH  28  30
HETATM   30  C23 UNL     1      -0.221  52.603 -20.010  1.00  0.00     0.120 C 
BRANCH  30  31
HETATM   31  C24 UNL     1       0.916  53.596 -20.215  1.00  0.00     0.112 C 
BRANCH  31  32
HETATM   32  C25 UNL     1       1.164  53.851 -21.685  1.00  0.00     0.218 C 
HETATM   33  O7  UNL     1       1.763  54.831 -22.111  1.00  0.00    -0.274 OA
HETATM   34  N1  UNL     1       0.657  52.862 -22.500  1.00  0.00    -0.351 N 
HETATM   35  H32 UNL     1       0.507  51.951 -22.081  1.00  0.00     0.163 HD
BRANCH  34  36
HETATM   36  C26 UNL     1       0.928  52.886 -23.931  1.00  0.00     0.232 C 
BRANCH  36  37
HETATM   37  C27 UNL     1      -0.034  53.768 -24.716  1.00  0.00     0.158 C 
HETATM   38  O8  UNL     1       0.242  54.846 -25.221  1.00  0.00    -0.649 OA
BRANCH  37  39
HETATM   39  O9  UNL     1      -1.305  53.309 -24.760  1.00  0.00    -0.775 OA
HETATM   40  H35 UNL     1      -1.775  53.982 -25.294  1.00  0.00     0.167 HD
ENDBRANCH  37  39
ENDBRANCH  36  37
ENDBRANCH  34  36
ENDBRANCH  31  32
ENDBRANCH  30  31
ENDBRANCH  28  30
ENDBRANCH  27  28
ENDBRANCH  26  27
ENDBRANCH  24  26
ENDBRANCH  21  24
TORSDOF 11
ENDMDL
