MODEL 1
REMARK minimizedAffinity -8.91282463
REMARK CNNscore 0.660596073
REMARK CNNaffinity 6.81246185
REMARK  12 active torsions:
REMARK  status: ('A' for Active; 'I' for Inactive)
REMARK    1  A    between atoms: C19_21  and  O3_22 
REMARK    2  A    between atoms: C19_21  and  C20_23 
REMARK    3  A    between atoms: C20_23  and  C21_25 
REMARK    4  A    between atoms: C21_25  and  O5_26 
REMARK    5  A    between atoms: O5_26  and  C22_27 
REMARK    6  A    between atoms: C22_27  and  C23_29 
REMARK    7  A    between atoms: C23_29  and  C24_30 
REMARK    8  A    between atoms: C24_30  and  C25_31 
REMARK       I    between atoms: C25_31  and  N1_33 
REMARK    9  A    between atoms: N1_33  and  C26_34 
REMARK   10  A    between atoms: C26_34  and  C27_35 
REMARK   11  A    between atoms: C30_38  and  C31_39 
REMARK   12  A    between atoms: C31_39  and  O9_41 
ROOT
HETATM    1  C1  UNL     1       0.764  49.288 -15.598  1.00  0.00     0.021 C 
HETATM    2  C2  UNL     1      -0.110  50.439 -16.165  1.00  0.00    -0.009 C 
HETATM    3  C3  UNL     1       0.449  51.786 -15.622  1.00  0.00     0.022 C 
HETATM    4  C4  UNL     1       0.282  51.962 -14.119  1.00  0.00     0.084 C 
HETATM    5  C5  UNL     1      -1.172  51.817 -13.749  1.00  0.00     0.149 C 
HETATM    6  O1  UNL     1      -1.648  52.347 -12.746  1.00  0.00    -0.293 OA
HETATM    7  C6  UNL     1      -2.022  50.920 -14.571  1.00  0.00     0.053 C 
HETATM    8  C7  UNL     1      -1.531  50.245 -15.628  1.00  0.00    -0.067 C 
HETATM    9  C8  UNL     1      -2.369  49.174 -16.268  1.00  0.00     0.035 C 
HETATM   10  C9  UNL     1      -2.354  49.242 -17.790  1.00  0.00     0.010 C 
HETATM   11  C10 UNL     1      -0.921  49.227 -18.353  1.00  0.00     0.003 C 
HETATM   12  C11 UNL     1      -0.038  50.358 -17.742  1.00  0.00     0.072 C 
HETATM   13  C12 UNL     1      -0.219  51.680 -18.508  1.00  0.00     0.133 C 
HETATM   14  O2  UNL     1       0.484  52.669 -18.291  1.00  0.00    -0.297 OA
HETATM   15  C13 UNL     1      -1.208  51.723 -19.646  1.00  0.00     0.091 C 
HETATM   16  C14 UNL     1      -0.903  50.589 -20.634  1.00  0.00     0.005 C 
HETATM   17  C15 UNL     1       0.470  50.863 -21.310  1.00  0.00     0.019 C 
HETATM   18  C16 UNL     1      -0.810  49.204 -19.902  1.00  0.00     0.002 C 
HETATM   19  C17 UNL     1      -1.776  48.263 -20.641  1.00  0.00     0.009 C 
HETATM   20  C18 UNL     1      -1.942  48.892 -22.018  1.00  0.00     0.047 C 
HETATM   21  C19 UNL     1      -2.025  50.391 -21.706  1.00  0.00     0.128 C 
ENDROOT
BRANCH  21  22
HETATM   22  O3  UNL     1      -3.304  50.642 -21.121  1.00  0.00    -0.381 OA
HETATM   23  H25 UNL     1      -3.989  50.343 -21.752  1.00  0.00     0.211 HD
ENDBRANCH  21  22
BRANCH  21  24
HETATM   24  C20 UNL     1      -1.860  51.252 -22.976  1.00  0.00     0.185 C 
HETATM   25  O4  UNL     1      -0.792  51.297 -23.598  1.00  0.00    -0.292 OA
BRANCH  24  26
HETATM   26  C21 UNL     1      -3.058  52.105 -23.395  1.00  0.00     0.260 C 
BRANCH  26  27
HETATM   27  O5  UNL     1      -3.781  51.524 -24.482  1.00  0.00    -0.314 OA
BRANCH  27  28
HETATM   28  C22 UNL     1      -3.275  51.823 -25.708  1.00  0.00     0.259 C 
HETATM   29  O6  UNL     1      -3.062  52.965 -26.099  1.00  0.00    -0.265 OA
BRANCH  28  30
HETATM   30  C23 UNL     1      -3.019  50.590 -26.544  1.00  0.00     0.120 C 
BRANCH  30  31
HETATM   31  C24 UNL     1      -3.715  49.333 -26.036  1.00  0.00     0.112 C 
BRANCH  31  32
HETATM   32  C25 UNL     1      -4.269  48.495 -27.165  1.00  0.00     0.218 C 
HETATM   33  O7  UNL     1      -3.611  48.153 -28.140  1.00  0.00    -0.274 OA
HETATM   34  N1  UNL     1      -5.599  48.179 -26.987  1.00  0.00    -0.361 N 
HETATM   35  H32 UNL     1      -6.072  48.504 -26.154  1.00  0.00     0.162 HD
BRANCH  34  36
HETATM   36  C26 UNL     1      -6.372  47.462 -27.981  1.00  0.00     0.127 C 
BRANCH  36  37
HETATM   37  C27 UNL     1      -7.880  47.773 -27.923  1.00  0.00     0.003 C 
HETATM   38  C28 UNL     1      -8.567  47.163 -26.695  1.00  0.00     0.007 C 
HETATM   39  C29 UNL     1     -10.018  47.639 -26.562  1.00  0.00     0.015 C 
HETATM   40  C30 UNL     1     -10.711  47.871 -27.911  1.00  0.00     0.084 C 
HETATM   41  C32 UNL     1     -10.082  47.036 -29.028  1.00  0.00     0.015 C 
HETATM   42  C33 UNL     1      -8.604  47.375 -29.225  1.00  0.00     0.007 C 
BRANCH  40  43
HETATM   43  C31 UNL     1     -12.197  47.625 -27.775  1.00  0.00     0.143 C 
HETATM   44  O8  UNL     1     -12.992  48.357 -27.209  1.00  0.00    -0.650 OA
BRANCH  43  45
HETATM   45  O9  UNL     1     -12.605  46.452 -28.296  1.00  0.00    -0.776 OA
HETATM   46  H41 UNL     1     -13.561  46.414 -28.087  1.00  0.00     0.167 HD
ENDBRANCH  43  45
ENDBRANCH  40  43
ENDBRANCH  36  37
ENDBRANCH  34  36
ENDBRANCH  31  32
ENDBRANCH  30  31
ENDBRANCH  28  30
ENDBRANCH  27  28
ENDBRANCH  26  27
ENDBRANCH  24  26
ENDBRANCH  21  24
TORSDOF 12
ENDMDL
MODEL 2
REMARK minimizedAffinity -7.90954351
REMARK CNNscore 0.653601766
REMARK CNNaffinity 6.13578176
REMARK  12 active torsions:
REMARK  status: ('A' for Active; 'I' for Inactive)
REMARK    1  A    between atoms: C19_21  and  O3_22 
REMARK    2  A    between atoms: C19_21  and  C20_23 
REMARK    3  A    between atoms: C20_23  and  C21_25 
REMARK    4  A    between atoms: C21_25  and  O5_26 
REMARK    5  A    between atoms: O5_26  and  C22_27 
REMARK    6  A    between atoms: C22_27  and  C23_29 
REMARK    7  A    between atoms: C23_29  and  C24_30 
REMARK    8  A    between atoms: C24_30  and  C25_31 
REMARK       I    between atoms: C25_31  and  N1_33 
REMARK    9  A    between atoms: N1_33  and  C26_34 
REMARK   10  A    between atoms: C26_34  and  C27_35 
REMARK   11  A    between atoms: C30_38  and  C31_39 
REMARK   12  A    between atoms: C31_39  and  O9_41 
ROOT
HETATM    1  C1  UNL     1      -2.229  49.893 -24.027  1.00  0.00     0.021 C 
HETATM    2  C2  UNL     1      -2.595  50.074 -22.529  1.00  0.00    -0.009 C 
HETATM    3  C3  UNL     1      -2.499  51.588 -22.185  1.00  0.00     0.022 C 
HETATM    4  C4  UNL     1      -1.083  52.146 -22.243  1.00  0.00     0.084 C 
HETATM    5  C5  UNL     1      -0.187  51.348 -21.330  1.00  0.00     0.149 C 
HETATM    6  O1  UNL     1       0.833  51.825 -20.834  1.00  0.00    -0.293 OA
HETATM    7  C6  UNL     1      -0.497  49.913 -21.115  1.00  0.00     0.053 C 
HETATM    8  C7  UNL     1      -1.550  49.316 -21.705  1.00  0.00    -0.067 C 
HETATM    9  C8  UNL     1      -1.674  47.820 -21.646  1.00  0.00     0.035 C 
HETATM   10  C9  UNL     1      -3.086  47.355 -21.315  1.00  0.00     0.010 C 
HETATM   11  C10 UNL     1      -4.129  47.953 -22.277  1.00  0.00     0.003 C 
HETATM   12  C11 UNL     1      -4.058  49.510 -22.326  1.00  0.00     0.072 C 
HETATM   13  C12 UNL     1      -4.887  50.140 -21.193  1.00  0.00     0.133 C 
HETATM   14  O2  UNL     1      -5.091  51.353 -21.122  1.00  0.00    -0.297 OA
HETATM   15  C13 UNL     1      -5.574  49.225 -20.210  1.00  0.00     0.091 C 
HETATM   16  C14 UNL     1      -6.428  48.202 -20.970  1.00  0.00     0.005 C 
HETATM   17  C15 UNL     1      -7.595  48.946 -21.680  1.00  0.00     0.019 C 
HETATM   18  C16 UNL     1      -5.589  47.464 -22.072  1.00  0.00     0.002 C 
HETATM   19  C17 UNL     1      -5.774  45.959 -21.815  1.00  0.00     0.009 C 
HETATM   20  C18 UNL     1      -7.069  45.865 -21.018  1.00  0.00     0.047 C 
HETATM   21  C19 UNL     1      -6.971  47.055 -20.056  1.00  0.00     0.128 C 
ENDROOT
BRANCH  21  22
HETATM   22  O3  UNL     1      -5.999  46.728 -19.061  1.00  0.00    -0.381 OA
HETATM   23  H25 UNL     1      -6.282  45.901 -18.621  1.00  0.00     0.211 HD
ENDBRANCH  21  22
BRANCH  21  24
HETATM   24  C20 UNL     1      -8.322  47.358 -19.376  1.00  0.00     0.185 C 
HETATM   25  O4  UNL     1      -9.380  47.391 -20.017  1.00  0.00    -0.292 OA
BRANCH  24  26
HETATM   26  C21 UNL     1      -8.290  47.684 -17.883  1.00  0.00     0.260 C 
BRANCH  26  27
HETATM   27  O5  UNL     1      -9.523  48.240 -17.424  1.00  0.00    -0.314 OA
BRANCH  27  28
HETATM   28  C22 UNL     1     -10.442  47.313 -17.045  1.00  0.00     0.259 C 
HETATM   29  O6  UNL     1     -10.153  46.208 -16.596  1.00  0.00    -0.265 OA
BRANCH  28  30
HETATM   30  C23 UNL     1     -11.862  47.785 -17.254  1.00  0.00     0.120 C 
BRANCH  30  31
HETATM   31  C24 UNL     1     -12.672  46.927 -18.218  1.00  0.00     0.112 C 
BRANCH  31  32
HETATM   32  C25 UNL     1     -14.139  46.897 -17.856  1.00  0.00     0.218 C 
HETATM   33  O7  UNL     1     -14.558  47.055 -16.716  1.00  0.00    -0.274 OA
HETATM   34  N1  UNL     1     -14.948  46.652 -18.945  1.00  0.00    -0.361 N 
HETATM   35  H32 UNL     1     -14.522  46.529 -19.854  1.00  0.00     0.162 HD
BRANCH  34  36
HETATM   36  C26 UNL     1     -16.384  46.486 -18.831  1.00  0.00     0.127 C 
BRANCH  36  37
HETATM   37  C27 UNL     1     -17.126  46.652 -20.170  1.00  0.00     0.003 C 
HETATM   38  C28 UNL     1     -18.191  45.573 -20.400  1.00  0.00     0.007 C 
HETATM   39  C29 UNL     1     -19.037  45.866 -21.644  1.00  0.00     0.015 C 
HETATM   40  C30 UNL     1     -18.251  46.554 -22.768  1.00  0.00     0.084 C 
HETATM   41  C32 UNL     1     -16.754  46.256 -22.684  1.00  0.00     0.015 C 
HETATM   42  C33 UNL     1     -16.152  46.740 -21.364  1.00  0.00     0.007 C 
BRANCH  40  43
HETATM   43  C31 UNL     1     -18.838  46.178 -24.111  1.00  0.00     0.143 C 
HETATM   44  O8  UNL     1     -19.088  45.045 -24.487  1.00  0.00    -0.650 OA
BRANCH  43  45
HETATM   45  O9  UNL     1     -19.024  47.225 -24.937  1.00  0.00    -0.776 OA
HETATM   46  H41 UNL     1     -19.353  46.823 -25.767  1.00  0.00     0.167 HD
ENDBRANCH  43  45
ENDBRANCH  40  43
ENDBRANCH  36  37
ENDBRANCH  34  36
ENDBRANCH  31  32
ENDBRANCH  30  31
ENDBRANCH  28  30
ENDBRANCH  27  28
ENDBRANCH  26  27
ENDBRANCH  24  26
ENDBRANCH  21  24
TORSDOF 12
ENDMDL
MODEL 3
REMARK minimizedAffinity -8.74348164
REMARK CNNscore 0.50638175
REMARK CNNaffinity 6.49400139
REMARK  12 active torsions:
REMARK  status: ('A' for Active; 'I' for Inactive)
REMARK    1  A    between atoms: C19_21  and  O3_22 
REMARK    2  A    between atoms: C19_21  and  C20_23 
REMARK    3  A    between atoms: C20_23  and  C21_25 
REMARK    4  A    between atoms: C21_25  and  O5_26 
REMARK    5  A    between atoms: O5_26  and  C22_27 
REMARK    6  A    between atoms: C22_27  and  C23_29 
REMARK    7  A    between atoms: C23_29  and  C24_30 
REMARK    8  A    between atoms: C24_30  and  C25_31 
REMARK       I    between atoms: C25_31  and  N1_33 
REMARK    9  A    between atoms: N1_33  and  C26_34 
REMARK   10  A    between atoms: C26_34  and  C27_35 
REMARK   11  A    between atoms: C30_38  and  C31_39 
REMARK   12  A    between atoms: C31_39  and  O9_41 
ROOT
HETATM    1  C1  UNL     1       0.834  51.030 -26.206  1.00  0.00     0.021 C 
HETATM    2  C2  UNL     1      -0.531  51.713 -25.920  1.00  0.00    -0.009 C 
HETATM    3  C3  UNL     1      -0.941  52.526 -27.182  1.00  0.00     0.022 C 
HETATM    4  C4  UNL     1      -0.036  53.717 -27.470  1.00  0.00     0.084 C 
HETATM    5  C5  UNL     1       0.012  54.620 -26.263  1.00  0.00     0.149 C 
HETATM    6  O1  UNL     1       0.260  55.821 -26.355  1.00  0.00    -0.293 OA
HETATM    7  C6  UNL     1      -0.140  54.009 -24.919  1.00  0.00     0.053 C 
HETATM    8  C7  UNL     1      -0.324  52.685 -24.756  1.00  0.00    -0.067 C 
HETATM    9  C8  UNL     1      -0.229  52.096 -23.376  1.00  0.00     0.035 C 
HETATM   10  C9  UNL     1      -1.344  51.102 -23.079  1.00  0.00     0.010 C 
HETATM   11  C10 UNL     1      -1.426  49.993 -24.144  1.00  0.00     0.003 C 
HETATM   12  C11 UNL     1      -1.572  50.571 -25.585  1.00  0.00     0.072 C 
HETATM   13  C12 UNL     1      -3.046  50.864 -25.919  1.00  0.00     0.133 C 
HETATM   14  O2  UNL     1      -3.412  51.191 -27.049  1.00  0.00    -0.297 OA
HETATM   15  C13 UNL     1      -4.087  50.619 -24.856  1.00  0.00     0.091 C 
HETATM   16  C14 UNL     1      -3.950  49.187 -24.323  1.00  0.00     0.005 C 
HETATM   17  C15 UNL     1      -4.320  48.189 -25.457  1.00  0.00     0.019 C 
HETATM   18  C16 UNL     1      -2.478  48.882 -23.876  1.00  0.00     0.002 C 
HETATM   19  C17 UNL     1      -2.567  48.362 -22.432  1.00  0.00     0.009 C 
HETATM   20  C18 UNL     1      -3.999  47.860 -22.295  1.00  0.00     0.047 C 
HETATM   21  C19 UNL     1      -4.811  48.923 -23.044  1.00  0.00     0.128 C 
ENDROOT
BRANCH  21  22
HETATM   22  O3  UNL     1      -4.841  50.097 -22.230  1.00  0.00    -0.381 OA
HETATM   23  H25 UNL     1      -5.229  49.857 -21.365  1.00  0.00     0.211 HD
ENDBRANCH  21  22
BRANCH  21  24
HETATM   24  C20 UNL     1      -6.254  48.453 -23.324  1.00  0.00     0.185 C 
HETATM   25  O4  UNL     1      -6.695  47.396 -22.858  1.00  0.00    -0.292 OA
BRANCH  24  26
HETATM   26  C21 UNL     1      -7.095  49.318 -24.263  1.00  0.00     0.260 C 
BRANCH  26  27
HETATM   27  O5  UNL     1      -8.481  48.975 -24.218  1.00  0.00    -0.314 OA
BRANCH  27  28
HETATM   28  C22 UNL     1      -9.107  49.039 -25.423  1.00  0.00     0.259 C 
HETATM   29  O6  UNL     1      -9.925  49.902 -25.723  1.00  0.00    -0.265 OA
BRANCH  28  30
HETATM   30  C23 UNL     1      -8.698  47.915 -26.347  1.00  0.00     0.120 C 
BRANCH  30  31
HETATM   31  C24 UNL     1      -9.058  46.525 -25.840  1.00  0.00     0.112 C 
BRANCH  31  32
HETATM   32  C25 UNL     1      -9.311  45.556 -26.972  1.00  0.00     0.218 C 
HETATM   33  O7  UNL     1      -8.562  44.626 -27.248  1.00  0.00    -0.274 OA
HETATM   34  N1  UNL     1     -10.464  45.846 -27.670  1.00  0.00    -0.361 N 
HETATM   35  H32 UNL     1     -11.026  46.636 -27.380  1.00  0.00     0.162 HD
BRANCH  34  36
HETATM   36  C26 UNL     1     -10.866  45.114 -28.855  1.00  0.00     0.127 C 
BRANCH  36  37
HETATM   37  C27 UNL     1     -12.385  44.867 -28.933  1.00  0.00     0.003 C 
HETATM   38  C28 UNL     1     -13.204  45.985 -28.276  1.00  0.00     0.007 C 
HETATM   39  C29 UNL     1     -14.706  45.811 -28.528  1.00  0.00     0.015 C 
HETATM   40  C30 UNL     1     -15.148  44.343 -28.594  1.00  0.00     0.084 C 
HETATM   41  C32 UNL     1     -14.201  43.426 -27.819  1.00  0.00     0.015 C 
HETATM   42  C33 UNL     1     -12.776  43.485 -28.373  1.00  0.00     0.007 C 
BRANCH  40  43
HETATM   43  C31 UNL     1     -16.582  44.216 -28.127  1.00  0.00     0.143 C 
HETATM   44  O8  UNL     1     -17.305  43.250 -28.305  1.00  0.00    -0.650 OA
BRANCH  43  45
HETATM   45  O9  UNL     1     -17.058  45.320 -27.521  1.00  0.00    -0.776 OA
HETATM   46  H41 UNL     1     -17.993  45.105 -27.329  1.00  0.00     0.167 HD
ENDBRANCH  43  45
ENDBRANCH  40  43
ENDBRANCH  36  37
ENDBRANCH  34  36
ENDBRANCH  31  32
ENDBRANCH  30  31
ENDBRANCH  28  30
ENDBRANCH  27  28
ENDBRANCH  26  27
ENDBRANCH  24  26
ENDBRANCH  21  24
TORSDOF 12
ENDMDL
MODEL 4
REMARK minimizedAffinity -8.32076931
REMARK CNNscore 0.479899019
REMARK CNNaffinity 6.71593237
REMARK  12 active torsions:
REMARK  status: ('A' for Active; 'I' for Inactive)
REMARK    1  A    between atoms: C19_21  and  O3_22 
REMARK    2  A    between atoms: C19_21  and  C20_23 
REMARK    3  A    between atoms: C20_23  and  C21_25 
REMARK    4  A    between atoms: C21_25  and  O5_26 
REMARK    5  A    between atoms: O5_26  and  C22_27 
REMARK    6  A    between atoms: C22_27  and  C23_29 
REMARK    7  A    between atoms: C23_29  and  C24_30 
REMARK    8  A    between atoms: C24_30  and  C25_31 
REMARK       I    between atoms: C25_31  and  N1_33 
REMARK    9  A    between atoms: N1_33  and  C26_34 
REMARK   10  A    between atoms: C26_34  and  C27_35 
REMARK   11  A    between atoms: C30_38  and  C31_39 
REMARK   12  A    between atoms: C31_39  and  O9_41 
ROOT
HETATM    1  C1  UNL     1       0.743  51.027 -26.154  1.00  0.00     0.021 C 
HETATM    2  C2  UNL     1      -0.586  51.776 -25.861  1.00  0.00    -0.009 C 
HETATM    3  C3  UNL     1      -0.959  52.613 -27.119  1.00  0.00     0.022 C 
HETATM    4  C4  UNL     1       0.003  53.758 -27.406  1.00  0.00     0.084 C 
HETATM    5  C5  UNL     1       0.100  54.653 -26.196  1.00  0.00     0.149 C 
HETATM    6  O1  UNL     1       0.407  55.841 -26.285  1.00  0.00    -0.293 OA
HETATM    7  C6  UNL     1      -0.078  54.046 -24.854  1.00  0.00     0.053 C 
HETATM    8  C7  UNL     1      -0.327  52.733 -24.694  1.00  0.00    -0.067 C 
HETATM    9  C8  UNL     1      -0.256  52.134 -23.317  1.00  0.00     0.035 C 
HETATM   10  C9  UNL     1      -1.419  51.196 -23.019  1.00  0.00     0.010 C 
HETATM   11  C10 UNL     1      -1.559  50.096 -24.087  1.00  0.00     0.003 C 
HETATM   12  C11 UNL     1      -1.682  50.686 -25.526  1.00  0.00     0.072 C 
HETATM   13  C12 UNL     1      -3.140  51.053 -25.854  1.00  0.00     0.133 C 
HETATM   14  O2  UNL     1      -3.493  51.402 -26.982  1.00  0.00    -0.297 OA
HETATM   15  C13 UNL     1      -4.188  50.857 -24.788  1.00  0.00     0.091 C 
HETATM   16  C14 UNL     1      -4.121  49.418 -24.260  1.00  0.00     0.005 C 
HETATM   17  C15 UNL     1      -4.544  48.443 -25.396  1.00  0.00     0.019 C 
HETATM   18  C16 UNL     1      -2.664  49.038 -23.819  1.00  0.00     0.002 C 
HETATM   19  C17 UNL     1      -2.774  48.519 -22.377  1.00  0.00     0.009 C 
HETATM   20  C18 UNL     1      -4.229  48.088 -22.237  1.00  0.00     0.047 C 
HETATM   21  C19 UNL     1      -4.990  49.193 -22.979  1.00  0.00     0.128 C 
ENDROOT
BRANCH  21  22
HETATM   22  O3  UNL     1      -4.958  50.364 -22.161  1.00  0.00    -0.381 OA
HETATM   23  H25 UNL     1      -5.355  50.140 -21.295  1.00  0.00     0.211 HD
ENDBRANCH  21  22
BRANCH  21  24
HETATM   24  C20 UNL     1      -6.455  48.796 -23.255  1.00  0.00     0.185 C 
HETATM   25  O4  UNL     1      -7.310  49.636 -23.561  1.00  0.00    -0.292 OA
BRANCH  24  26
HETATM   26  C21 UNL     1      -6.821  47.324 -23.067  1.00  0.00     0.260 C 
BRANCH  26  27
HETATM   27  O5  UNL     1      -7.040  46.657 -24.312  1.00  0.00    -0.314 OA
BRANCH  27  28
HETATM   28  C22 UNL     1      -8.204  46.998 -24.926  1.00  0.00     0.259 C 
HETATM   29  O6  UNL     1      -9.311  46.858 -24.418  1.00  0.00    -0.265 OA
BRANCH  28  30
HETATM   30  C23 UNL     1      -7.984  47.553 -26.315  1.00  0.00     0.120 C 
BRANCH  30  31
HETATM   31  C24 UNL     1      -8.994  47.071 -27.349  1.00  0.00     0.112 C 
BRANCH  31  32
HETATM   32  C25 UNL     1      -8.701  45.663 -27.814  1.00  0.00     0.218 C 
HETATM   33  O7  UNL     1      -7.570  45.238 -28.014  1.00  0.00    -0.274 OA
HETATM   34  N1  UNL     1      -9.847  44.920 -28.006  1.00  0.00    -0.361 N 
HETATM   35  H32 UNL     1     -10.745  45.348 -27.821  1.00  0.00     0.162 HD
BRANCH  34  36
HETATM   36  C26 UNL     1      -9.824  43.572 -28.539  1.00  0.00     0.127 C 
BRANCH  36  37
HETATM   37  C27 UNL     1      -9.983  43.518 -30.070  1.00  0.00     0.003 C 
HETATM   38  C28 UNL     1     -11.178  44.336 -30.574  1.00  0.00     0.007 C 
HETATM   39  C29 UNL     1     -11.205  44.417 -32.105  1.00  0.00     0.015 C 
HETATM   40  C30 UNL     1     -10.674  43.153 -32.793  1.00  0.00     0.084 C 
HETATM   41  C32 UNL     1     -10.813  41.917 -31.904  1.00  0.00     0.015 C 
HETATM   42  C33 UNL     1     -10.035  42.069 -30.595  1.00  0.00     0.007 C 
BRANCH  40  43
HETATM   43  C31 UNL     1     -11.349  42.975 -34.135  1.00  0.00     0.143 C 
HETATM   44  O8  UNL     1     -12.363  43.545 -34.503  1.00  0.00    -0.650 OA
BRANCH  43  45
HETATM   45  O9  UNL     1     -10.763  42.053 -34.922  1.00  0.00    -0.776 OA
HETATM   46  H41 UNL     1     -11.334  42.015 -35.717  1.00  0.00     0.167 HD
ENDBRANCH  43  45
ENDBRANCH  40  43
ENDBRANCH  36  37
ENDBRANCH  34  36
ENDBRANCH  31  32
ENDBRANCH  30  31
ENDBRANCH  28  30
ENDBRANCH  27  28
ENDBRANCH  26  27
ENDBRANCH  24  26
ENDBRANCH  21  24
TORSDOF 12
ENDMDL
MODEL 5
REMARK minimizedAffinity -8.09925556
REMARK CNNscore 0.430115253
REMARK CNNaffinity 6.49738932
REMARK  12 active torsions:
REMARK  status: ('A' for Active; 'I' for Inactive)
REMARK    1  A    between atoms: C19_21  and  O3_22 
REMARK    2  A    between atoms: C19_21  and  C20_23 
REMARK    3  A    between atoms: C20_23  and  C21_25 
REMARK    4  A    between atoms: C21_25  and  O5_26 
REMARK    5  A    between atoms: O5_26  and  C22_27 
REMARK    6  A    between atoms: C22_27  and  C23_29 
REMARK    7  A    between atoms: C23_29  and  C24_30 
REMARK    8  A    between atoms: C24_30  and  C25_31 
REMARK       I    between atoms: C25_31  and  N1_33 
REMARK    9  A    between atoms: N1_33  and  C26_34 
REMARK   10  A    between atoms: C26_34  and  C27_35 
REMARK   11  A    between atoms: C30_38  and  C31_39 
REMARK   12  A    between atoms: C31_39  and  O9_41 
ROOT
HETATM    1  C1  UNL     1       0.735  51.008 -26.224  1.00  0.00     0.021 C 
HETATM    2  C2  UNL     1      -0.583  51.771 -25.921  1.00  0.00    -0.009 C 
HETATM    3  C3  UNL     1      -0.968  52.595 -27.183  1.00  0.00     0.022 C 
HETATM    4  C4  UNL     1      -0.001  53.729 -27.499  1.00  0.00     0.084 C 
HETATM    5  C5  UNL     1       0.122  54.638 -26.303  1.00  0.00     0.149 C 
HETATM    6  O1  UNL     1       0.438  55.822 -26.412  1.00  0.00    -0.293 OA
HETATM    7  C6  UNL     1      -0.041  54.050 -24.951  1.00  0.00     0.053 C 
HETATM    8  C7  UNL     1      -0.298  52.741 -24.770  1.00  0.00    -0.067 C 
HETATM    9  C8  UNL     1      -0.212  52.160 -23.387  1.00  0.00     0.035 C 
HETATM   10  C9  UNL     1      -1.377  51.235 -23.059  1.00  0.00     0.010 C 
HETATM   11  C10 UNL     1      -1.543  50.123 -24.111  1.00  0.00     0.003 C 
HETATM   12  C11 UNL     1      -1.682  50.696 -25.555  1.00  0.00     0.072 C 
HETATM   13  C12 UNL     1      -3.142  51.071 -25.866  1.00  0.00     0.133 C 
HETATM   14  O2  UNL     1      -3.509  51.408 -26.993  1.00  0.00    -0.297 OA
HETATM   15  C13 UNL     1      -4.176  50.897 -24.782  1.00  0.00     0.091 C 
HETATM   16  C14 UNL     1      -4.113  49.464 -24.237  1.00  0.00     0.005 C 
HETATM   17  C15 UNL     1      -4.561  48.479 -25.353  1.00  0.00     0.019 C 
HETATM   18  C16 UNL     1      -2.652  49.078 -23.813  1.00  0.00     0.002 C 
HETATM   19  C17 UNL     1      -2.745  48.578 -22.362  1.00  0.00     0.009 C 
HETATM   20  C18 UNL     1      -4.201  48.161 -22.195  1.00  0.00     0.047 C 
HETATM   21  C19 UNL     1      -4.964  49.263 -22.939  1.00  0.00     0.128 C 
ENDROOT
BRANCH  21  22
HETATM   22  O3  UNL     1      -4.910  50.444 -22.138  1.00  0.00    -0.381 OA
HETATM   23  H25 UNL     1      -5.296  50.235 -21.263  1.00  0.00     0.211 HD
ENDBRANCH  21  22
BRANCH  21  24
HETATM   24  C20 UNL     1      -6.436  48.875 -23.189  1.00  0.00     0.185 C 
HETATM   25  O4  UNL     1      -7.257  49.688 -23.630  1.00  0.00    -0.292 OA
BRANCH  24  26
HETATM   26  C21 UNL     1      -6.854  47.456 -22.801  1.00  0.00     0.260 C 
BRANCH  26  27
HETATM   27  O5  UNL     1      -6.880  46.574 -23.924  1.00  0.00    -0.314 OA
BRANCH  27  28
HETATM   28  C22 UNL     1      -8.097  46.473 -24.523  1.00  0.00     0.259 C 
HETATM   29  O6  UNL     1      -9.052  45.880 -24.033  1.00  0.00    -0.265 OA
BRANCH  28  30
HETATM   30  C23 UNL     1      -8.138  47.159 -25.869  1.00  0.00     0.120 C 
BRANCH  30  31
HETATM   31  C24 UNL     1      -7.633  46.303 -27.023  1.00  0.00     0.112 C 
BRANCH  31  32
HETATM   32  C25 UNL     1      -8.708  45.388 -27.563  1.00  0.00     0.218 C 
HETATM   33  O7  UNL     1      -8.519  44.209 -27.835  1.00  0.00    -0.274 OA
HETATM   34  N1  UNL     1      -9.915  46.032 -27.734  1.00  0.00    -0.361 N 
HETATM   35  H32 UNL     1      -9.987  47.011 -27.488  1.00  0.00     0.162 HD
BRANCH  34  36
HETATM   36  C26 UNL     1     -11.069  45.385 -28.326  1.00  0.00     0.127 C 
BRANCH  36  37
HETATM   37  C27 UNL     1     -12.333  45.471 -27.449  1.00  0.00     0.003 C 
HETATM   38  C28 UNL     1     -12.759  46.915 -27.158  1.00  0.00     0.007 C 
HETATM   39  C29 UNL     1     -14.115  46.975 -26.445  1.00  0.00     0.015 C 
HETATM   40  C30 UNL     1     -14.355  45.797 -25.491  1.00  0.00     0.084 C 
HETATM   41  C32 UNL     1     -13.043  45.188 -24.993  1.00  0.00     0.015 C 
HETATM   42  C33 UNL     1     -12.190  44.658 -26.147  1.00  0.00     0.007 C 
BRANCH  40  43
HETATM   43  C31 UNL     1     -15.256  46.229 -24.356  1.00  0.00     0.143 C 
HETATM   44  O8  UNL     1     -16.176  47.026 -24.441  1.00  0.00    -0.650 OA
BRANCH  43  45
HETATM   45  O9  UNL     1     -14.926  45.696 -23.164  1.00  0.00    -0.776 OA
HETATM   46  H41 UNL     1     -15.555  46.104 -22.534  1.00  0.00     0.167 HD
ENDBRANCH  43  45
ENDBRANCH  40  43
ENDBRANCH  36  37
ENDBRANCH  34  36
ENDBRANCH  31  32
ENDBRANCH  30  31
ENDBRANCH  28  30
ENDBRANCH  27  28
ENDBRANCH  26  27
ENDBRANCH  24  26
ENDBRANCH  21  24
TORSDOF 12
ENDMDL
MODEL 6
REMARK minimizedAffinity -8.74962234
REMARK CNNscore 0.402005523
REMARK CNNaffinity 6.3911109
REMARK  12 active torsions:
REMARK  status: ('A' for Active; 'I' for Inactive)
REMARK    1  A    between atoms: C19_21  and  O3_22 
REMARK    2  A    between atoms: C19_21  and  C20_23 
REMARK    3  A    between atoms: C20_23  and  C21_25 
REMARK    4  A    between atoms: C21_25  and  O5_26 
REMARK    5  A    between atoms: O5_26  and  C22_27 
REMARK    6  A    between atoms: C22_27  and  C23_29 
REMARK    7  A    between atoms: C23_29  and  C24_30 
REMARK    8  A    between atoms: C24_30  and  C25_31 
REMARK       I    between atoms: C25_31  and  N1_33 
REMARK    9  A    between atoms: N1_33  and  C26_34 
REMARK   10  A    between atoms: C26_34  and  C27_35 
REMARK   11  A    between atoms: C30_38  and  C31_39 
REMARK   12  A    between atoms: C31_39  and  O9_41 
ROOT
HETATM    1  C1  UNL     1       0.780  50.990 -26.268  1.00  0.00     0.021 C 
HETATM    2  C2  UNL     1      -0.566  51.716 -25.995  1.00  0.00    -0.009 C 
HETATM    3  C3  UNL     1      -0.934  52.548 -27.257  1.00  0.00     0.022 C 
HETATM    4  C4  UNL     1       0.013  53.710 -27.527  1.00  0.00     0.084 C 
HETATM    5  C5  UNL     1       0.076  54.605 -26.316  1.00  0.00     0.149 C 
HETATM    6  O1  UNL     1       0.364  55.798 -26.398  1.00  0.00    -0.293 OA
HETATM    7  C6  UNL     1      -0.113  53.993 -24.977  1.00  0.00     0.053 C 
HETATM    8  C7  UNL     1      -0.341  52.675 -24.822  1.00  0.00    -0.067 C 
HETATM    9  C8  UNL     1      -0.282  52.076 -23.445  1.00  0.00     0.035 C 
HETATM   10  C9  UNL     1      -1.433  51.118 -23.166  1.00  0.00     0.010 C 
HETATM   11  C10 UNL     1      -1.538  50.017 -24.238  1.00  0.00     0.003 C 
HETATM   12  C11 UNL     1      -1.648  50.607 -25.678  1.00  0.00     0.072 C 
HETATM   13  C12 UNL     1      -3.107  50.950 -26.028  1.00  0.00     0.133 C 
HETATM   14  O2  UNL     1      -3.448  51.294 -27.161  1.00  0.00    -0.297 OA
HETATM   15  C13 UNL     1      -4.168  50.734 -24.979  1.00  0.00     0.091 C 
HETATM   16  C14 UNL     1      -4.085  49.296 -24.452  1.00  0.00     0.005 C 
HETATM   17  C15 UNL     1      -4.473  48.315 -25.595  1.00  0.00     0.019 C 
HETATM   18  C16 UNL     1      -2.629  48.940 -23.989  1.00  0.00     0.002 C 
HETATM   19  C17 UNL     1      -2.752  48.417 -22.548  1.00  0.00     0.009 C 
HETATM   20  C18 UNL     1      -4.201  47.961 -22.432  1.00  0.00     0.047 C 
HETATM   21  C19 UNL     1      -4.969  49.054 -23.184  1.00  0.00     0.128 C 
ENDROOT
BRANCH  21  22
HETATM   22  O3  UNL     1      -4.971  50.224 -22.365  1.00  0.00    -0.381 OA
HETATM   23  H25 UNL     1      -5.377  49.992 -21.505  1.00  0.00     0.211 HD
ENDBRANCH  21  22
BRANCH  21  24
HETATM   24  C20 UNL     1      -6.423  48.632 -23.484  1.00  0.00     0.185 C 
HETATM   25  O4  UNL     1      -7.272  49.448 -23.864  1.00  0.00    -0.292 OA
BRANCH  24  26
HETATM   26  C21 UNL     1      -6.788  47.171 -23.224  1.00  0.00     0.260 C 
BRANCH  26  27
HETATM   27  O5  UNL     1      -7.412  46.560 -24.355  1.00  0.00    -0.314 OA
BRANCH  27  28
HETATM   28  C22 UNL     1      -8.212  45.505 -24.045  1.00  0.00     0.259 C 
HETATM   29  O6  UNL     1      -7.790  44.412 -23.681  1.00  0.00    -0.265 OA
BRANCH  28  30
HETATM   30  C23 UNL     1      -9.679  45.821 -24.216  1.00  0.00     0.120 C 
BRANCH  30  31
HETATM   31  C24 UNL     1     -10.234  46.797 -23.185  1.00  0.00     0.112 C 
BRANCH  31  32
HETATM   32  C25 UNL     1     -10.527  46.122 -21.865  1.00  0.00     0.218 C 
HETATM   33  O7  UNL     1     -10.906  44.961 -21.768  1.00  0.00    -0.274 OA
HETATM   34  N1  UNL     1     -10.342  46.962 -20.788  1.00  0.00    -0.361 N 
HETATM   35  H32 UNL     1     -10.030  47.910 -20.954  1.00  0.00     0.162 HD
BRANCH  34  36
HETATM   36  C26 UNL     1     -10.649  46.568 -19.427  1.00  0.00     0.127 C 
BRANCH  36  37
HETATM   37  C27 UNL     1     -11.948  47.198 -18.888  1.00  0.00     0.003 C 
HETATM   38  C28 UNL     1     -13.116  46.206 -18.840  1.00  0.00     0.007 C 
HETATM   39  C29 UNL     1     -14.338  46.801 -18.131  1.00  0.00     0.015 C 
HETATM   40  C30 UNL     1     -14.498  48.311 -18.355  1.00  0.00     0.084 C 
HETATM   41  C32 UNL     1     -13.834  48.769 -19.655  1.00  0.00     0.015 C 
HETATM   42  C33 UNL     1     -12.332  48.478 -19.658  1.00  0.00     0.007 C 
BRANCH  40  43
HETATM   43  C31 UNL     1     -15.962  48.688 -18.293  1.00  0.00     0.143 C 
HETATM   44  O8  UNL     1     -16.893  47.993 -18.665  1.00  0.00    -0.650 OA
BRANCH  43  45
HETATM   45  O9  UNL     1     -16.185  49.932 -17.830  1.00  0.00    -0.776 OA
HETATM   46  H41 UNL     1     -17.155  50.046 -17.897  1.00  0.00     0.167 HD
ENDBRANCH  43  45
ENDBRANCH  40  43
ENDBRANCH  36  37
ENDBRANCH  34  36
ENDBRANCH  31  32
ENDBRANCH  30  31
ENDBRANCH  28  30
ENDBRANCH  27  28
ENDBRANCH  26  27
ENDBRANCH  24  26
ENDBRANCH  21  24
TORSDOF 12
ENDMDL
MODEL 7
REMARK minimizedAffinity -9.42066479
REMARK CNNscore 0.32862848
REMARK CNNaffinity 6.37738466
REMARK  12 active torsions:
REMARK  status: ('A' for Active; 'I' for Inactive)
REMARK    1  A    between atoms: C19_21  and  O3_22 
REMARK    2  A    between atoms: C19_21  and  C20_23 
REMARK    3  A    between atoms: C20_23  and  C21_25 
REMARK    4  A    between atoms: C21_25  and  O5_26 
REMARK    5  A    between atoms: O5_26  and  C22_27 
REMARK    6  A    between atoms: C22_27  and  C23_29 
REMARK    7  A    between atoms: C23_29  and  C24_30 
REMARK    8  A    between atoms: C24_30  and  C25_31 
REMARK       I    between atoms: C25_31  and  N1_33 
REMARK    9  A    between atoms: N1_33  and  C26_34 
REMARK   10  A    between atoms: C26_34  and  C27_35 
REMARK   11  A    between atoms: C30_38  and  C31_39 
REMARK   12  A    between atoms: C31_39  and  O9_41 
ROOT
HETATM    1  C1  UNL     1       0.688  50.872 -26.230  1.00  0.00     0.021 C 
HETATM    2  C2  UNL     1      -0.615  51.655 -25.911  1.00  0.00    -0.009 C 
HETATM    3  C3  UNL     1      -0.958  52.547 -27.138  1.00  0.00     0.022 C 
HETATM    4  C4  UNL     1       0.042  53.669 -27.385  1.00  0.00     0.084 C 
HETATM    5  C5  UNL     1       0.170  54.517 -26.145  1.00  0.00     0.149 C 
HETATM    6  O1  UNL     1       0.517  55.696 -26.193  1.00  0.00    -0.293 OA
HETATM    7  C6  UNL     1      -0.030  53.870 -24.825  1.00  0.00     0.053 C 
HETATM    8  C7  UNL     1      -0.323  52.561 -24.711  1.00  0.00    -0.067 C 
HETATM    9  C8  UNL     1      -0.275  51.913 -23.356  1.00  0.00     0.035 C 
HETATM   10  C9  UNL     1      -1.469  51.005 -23.090  1.00  0.00     0.010 C 
HETATM   11  C10 UNL     1      -1.646  49.949 -24.196  1.00  0.00     0.003 C 
HETATM   12  C11 UNL     1      -1.747  50.593 -25.613  1.00  0.00     0.072 C 
HETATM   13  C12 UNL     1      -3.192  51.020 -25.927  1.00  0.00     0.133 C 
HETATM   14  O2  UNL     1      -3.532  51.420 -27.042  1.00  0.00    -0.297 OA
HETATM   15  C13 UNL     1      -4.247  50.823 -24.868  1.00  0.00     0.091 C 
HETATM   16  C14 UNL     1      -4.230  49.365 -24.391  1.00  0.00     0.005 C 
HETATM   17  C15 UNL     1      -4.685  48.446 -25.560  1.00  0.00     0.019 C 
HETATM   18  C16 UNL     1      -2.787  48.920 -23.965  1.00  0.00     0.002 C 
HETATM   19  C17 UNL     1      -2.915  48.355 -22.541  1.00  0.00     0.009 C 
HETATM   20  C18 UNL     1      -4.384  47.969 -22.415  1.00  0.00     0.047 C 
HETATM   21  C19 UNL     1      -5.106  49.125 -23.117  1.00  0.00     0.128 C 
ENDROOT
BRANCH  21  22
HETATM   22  O3  UNL     1      -5.035  50.265 -22.259  1.00  0.00    -0.381 OA
HETATM   23  H25 UNL     1      -5.440  50.025 -21.402  1.00  0.00     0.211 HD
ENDBRANCH  21  22
BRANCH  21  24
HETATM   24  C20 UNL     1      -6.584  48.789 -23.407  1.00  0.00     0.185 C 
HETATM   25  O4  UNL     1      -7.509  49.454 -22.926  1.00  0.00    -0.292 OA
BRANCH  24  26
HETATM   26  C21 UNL     1      -6.858  47.551 -24.262  1.00  0.00     0.260 C 
BRANCH  26  27
HETATM   27  O5  UNL     1      -7.908  47.768 -25.207  1.00  0.00    -0.314 OA
BRANCH  27  28
HETATM   28  C22 UNL     1      -8.450  46.625 -25.705  1.00  0.00     0.259 C 
HETATM   29  O6  UNL     1      -8.288  45.517 -25.205  1.00  0.00    -0.265 OA
BRANCH  28  30
HETATM   30  C23 UNL     1      -9.261  46.868 -26.957  1.00  0.00     0.120 C 
BRANCH  30  31
HETATM   31  C24 UNL     1     -10.625  46.188 -26.961  1.00  0.00     0.112 C 
BRANCH  31  32
HETATM   32  C25 UNL     1     -11.651  46.972 -26.178  1.00  0.00     0.218 C 
HETATM   33  O7  UNL     1     -11.811  48.181 -26.291  1.00  0.00    -0.274 OA
HETATM   34  N1  UNL     1     -12.372  46.181 -25.308  1.00  0.00    -0.361 N 
HETATM   35  H32 UNL     1     -12.175  45.189 -25.272  1.00  0.00     0.162 HD
BRANCH  34  36
HETATM   36  C26 UNL     1     -13.348  46.723 -24.384  1.00  0.00     0.127 C 
BRANCH  36  37
HETATM   37  C27 UNL     1     -14.775  46.194 -24.625  1.00  0.00     0.003 C 
HETATM   38  C28 UNL     1     -15.103  46.021 -26.113  1.00  0.00     0.007 C 
HETATM   39  C29 UNL     1     -16.452  45.323 -26.320  1.00  0.00     0.015 C 
HETATM   40  C30 UNL     1     -17.490  45.668 -25.243  1.00  0.00     0.084 C 
HETATM   41  C32 UNL     1     -17.209  47.024 -24.593  1.00  0.00     0.015 C 
HETATM   42  C33 UNL     1     -15.839  47.055 -23.914  1.00  0.00     0.007 C 
BRANCH  40  43
HETATM   43  C31 UNL     1     -18.883  45.586 -25.826  1.00  0.00     0.143 C 
HETATM   44  O8  UNL     1     -19.923  45.596 -25.189  1.00  0.00    -0.650 OA
BRANCH  43  45
HETATM   45  O9  UNL     1     -18.907  45.432 -27.163  1.00  0.00    -0.776 OA
HETATM   46  H41 UNL     1     -19.857  45.344 -27.380  1.00  0.00     0.167 HD
ENDBRANCH  43  45
ENDBRANCH  40  43
ENDBRANCH  36  37
ENDBRANCH  34  36
ENDBRANCH  31  32
ENDBRANCH  30  31
ENDBRANCH  28  30
ENDBRANCH  27  28
ENDBRANCH  26  27
ENDBRANCH  24  26
ENDBRANCH  21  24
TORSDOF 12
ENDMDL
MODEL 8
REMARK minimizedAffinity -8.59861946
REMARK CNNscore 0.327769578
REMARK CNNaffinity 6.58059692
REMARK  12 active torsions:
REMARK  status: ('A' for Active; 'I' for Inactive)
REMARK    1  A    between atoms: C19_21  and  O3_22 
REMARK    2  A    between atoms: C19_21  and  C20_23 
REMARK    3  A    between atoms: C20_23  and  C21_25 
REMARK    4  A    between atoms: C21_25  and  O5_26 
REMARK    5  A    between atoms: O5_26  and  C22_27 
REMARK    6  A    between atoms: C22_27  and  C23_29 
REMARK    7  A    between atoms: C23_29  and  C24_30 
REMARK    8  A    between atoms: C24_30  and  C25_31 
REMARK       I    between atoms: C25_31  and  N1_33 
REMARK    9  A    between atoms: N1_33  and  C26_34 
REMARK   10  A    between atoms: C26_34  and  C27_35 
REMARK   11  A    between atoms: C30_38  and  C31_39 
REMARK   12  A    between atoms: C31_39  and  O9_41 
ROOT
HETATM    1  C1  UNL     1       0.785  50.989 -26.288  1.00  0.00     0.021 C 
HETATM    2  C2  UNL     1      -0.553  51.727 -26.011  1.00  0.00    -0.009 C 
HETATM    3  C3  UNL     1      -0.905  52.581 -27.263  1.00  0.00     0.022 C 
HETATM    4  C4  UNL     1       0.057  53.736 -27.513  1.00  0.00     0.084 C 
HETATM    5  C5  UNL     1       0.126  54.612 -26.289  1.00  0.00     0.149 C 
HETATM    6  O1  UNL     1       0.429  55.803 -26.353  1.00  0.00    -0.293 OA
HETATM    7  C6  UNL     1      -0.076  53.984 -24.959  1.00  0.00     0.053 C 
HETATM    8  C7  UNL     1      -0.321  52.667 -24.824  1.00  0.00    -0.067 C 
HETATM    9  C8  UNL     1      -0.276  52.049 -23.455  1.00  0.00     0.035 C 
HETATM   10  C9  UNL     1      -1.439  51.101 -23.195  1.00  0.00     0.010 C 
HETATM   11  C10 UNL     1      -1.553  50.017 -24.282  1.00  0.00     0.003 C 
HETATM   12  C11 UNL     1      -1.649  50.628 -25.714  1.00  0.00     0.072 C 
HETATM   13  C12 UNL     1      -3.102  50.993 -26.065  1.00  0.00     0.133 C 
HETATM   14  O2  UNL     1      -3.435  51.357 -27.194  1.00  0.00    -0.297 OA
HETATM   15  C13 UNL     1      -4.171  50.776 -25.023  1.00  0.00     0.091 C 
HETATM   16  C14 UNL     1      -4.108  49.329 -24.516  1.00  0.00     0.005 C 
HETATM   17  C15 UNL     1      -4.503  48.370 -25.675  1.00  0.00     0.019 C 
HETATM   18  C16 UNL     1      -2.658  48.949 -24.052  1.00  0.00     0.002 C 
HETATM   19  C17 UNL     1      -2.794  48.407 -22.620  1.00  0.00     0.009 C 
HETATM   20  C18 UNL     1      -4.249  47.968 -22.515  1.00  0.00     0.047 C 
HETATM   21  C19 UNL     1      -5.000  49.081 -23.256  1.00  0.00     0.128 C 
ENDROOT
BRANCH  21  22
HETATM   22  O3  UNL     1      -4.991  50.239 -22.420  1.00  0.00    -0.381 OA
HETATM   23  H25 UNL     1      -5.404  50.000 -21.566  1.00  0.00     0.211 HD
ENDBRANCH  21  22
BRANCH  21  24
HETATM   24  C20 UNL     1      -6.458  48.681 -23.568  1.00  0.00     0.185 C 
HETATM   25  O4  UNL     1      -7.294  49.512 -23.941  1.00  0.00    -0.292 OA
BRANCH  24  26
HETATM   26  C21 UNL     1      -6.842  47.221 -23.329  1.00  0.00     0.260 C 
BRANCH  26  27
HETATM   27  O5  UNL     1      -7.472  46.634 -24.469  1.00  0.00    -0.314 OA
BRANCH  27  28
HETATM   28  C22 UNL     1      -8.749  46.223 -24.248  1.00  0.00     0.259 C 
HETATM   29  O6  UNL     1      -9.043  45.125 -23.787  1.00  0.00    -0.265 OA
BRANCH  28  30
HETATM   30  C23 UNL     1      -9.769  47.264 -24.649  1.00  0.00     0.120 C 
BRANCH  30  31
HETATM   31  C24 UNL     1      -9.591  47.802 -26.063  1.00  0.00     0.112 C 
BRANCH  31  32
HETATM   32  C25 UNL     1     -10.553  47.162 -27.038  1.00  0.00     0.218 C 
HETATM   33  O7  UNL     1     -11.753  47.406 -27.065  1.00  0.00    -0.274 OA
HETATM   34  N1  UNL     1      -9.934  46.259 -27.877  1.00  0.00    -0.361 N 
HETATM   35  H32 UNL     1      -8.937  46.111 -27.787  1.00  0.00     0.162 HD
BRANCH  34  36
HETATM   36  C26 UNL     1     -10.665  45.452 -28.834  1.00  0.00     0.127 C 
BRANCH  36  37
HETATM   37  C27 UNL     1     -10.027  45.440 -30.235  1.00  0.00     0.003 C 
HETATM   38  C28 UNL     1      -8.792  46.343 -30.335  1.00  0.00     0.007 C 
HETATM   39  C29 UNL     1      -8.070  46.172 -31.677  1.00  0.00     0.015 C 
HETATM   40  C30 UNL     1      -9.017  45.875 -32.847  1.00  0.00     0.084 C 
HETATM   41  C32 UNL     1     -10.429  46.402 -32.587  1.00  0.00     0.015 C 
HETATM   42  C33 UNL     1     -11.051  45.768 -31.341  1.00  0.00     0.007 C 
BRANCH  40  43
HETATM   43  C31 UNL     1      -8.431  46.411 -34.133  1.00  0.00     0.143 C 
HETATM   44  O8  UNL     1      -8.038  47.552 -34.316  1.00  0.00    -0.650 OA
BRANCH  43  45
HETATM   45  O9  UNL     1      -8.422  45.520 -35.143  1.00  0.00    -0.776 OA
HETATM   46  H41 UNL     1      -8.069  46.021 -35.906  1.00  0.00     0.167 HD
ENDBRANCH  43  45
ENDBRANCH  40  43
ENDBRANCH  36  37
ENDBRANCH  34  36
ENDBRANCH  31  32
ENDBRANCH  30  31
ENDBRANCH  28  30
ENDBRANCH  27  28
ENDBRANCH  26  27
ENDBRANCH  24  26
ENDBRANCH  21  24
TORSDOF 12
ENDMDL
MODEL 9
REMARK minimizedAffinity -8.03377914
REMARK CNNscore 0.320361733
REMARK CNNaffinity 6.41596222
REMARK  12 active torsions:
REMARK  status: ('A' for Active; 'I' for Inactive)
REMARK    1  A    between atoms: C19_21  and  O3_22 
REMARK    2  A    between atoms: C19_21  and  C20_23 
REMARK    3  A    between atoms: C20_23  and  C21_25 
REMARK    4  A    between atoms: C21_25  and  O5_26 
REMARK    5  A    between atoms: O5_26  and  C22_27 
REMARK    6  A    between atoms: C22_27  and  C23_29 
REMARK    7  A    between atoms: C23_29  and  C24_30 
REMARK    8  A    between atoms: C24_30  and  C25_31 
REMARK       I    between atoms: C25_31  and  N1_33 
REMARK    9  A    between atoms: N1_33  and  C26_34 
REMARK   10  A    between atoms: C26_34  and  C27_35 
REMARK   11  A    between atoms: C30_38  and  C31_39 
REMARK   12  A    between atoms: C31_39  and  O9_41 
ROOT
HETATM    1  C1  UNL     1       0.819  51.003 -26.319  1.00  0.00     0.021 C 
HETATM    2  C2  UNL     1      -0.527  51.723 -26.032  1.00  0.00    -0.009 C 
HETATM    3  C3  UNL     1      -0.929  52.526 -27.303  1.00  0.00     0.022 C 
HETATM    4  C4  UNL     1       0.001  53.691 -27.617  1.00  0.00     0.084 C 
HETATM    5  C5  UNL     1       0.082  54.610 -26.425  1.00  0.00     0.149 C 
HETATM    6  O1  UNL     1       0.357  55.804 -26.538  1.00  0.00    -0.293 OA
HETATM    7  C6  UNL     1      -0.073  54.024 -25.070  1.00  0.00     0.053 C 
HETATM    8  C7  UNL     1      -0.286  52.708 -24.885  1.00  0.00    -0.067 C 
HETATM    9  C8  UNL     1      -0.192  52.138 -23.497  1.00  0.00     0.035 C 
HETATM   10  C9  UNL     1      -1.328  51.175 -23.174  1.00  0.00     0.010 C 
HETATM   11  C10 UNL     1      -1.446  50.052 -24.221  1.00  0.00     0.003 C 
HETATM   12  C11 UNL     1      -1.592  50.612 -25.669  1.00  0.00     0.072 C 
HETATM   13  C12 UNL     1      -3.061  50.934 -25.995  1.00  0.00     0.133 C 
HETATM   14  O2  UNL     1      -3.430  51.252 -27.127  1.00  0.00    -0.297 OA
HETATM   15  C13 UNL     1      -4.098  50.731 -24.919  1.00  0.00     0.091 C 
HETATM   16  C14 UNL     1      -3.990  49.304 -24.365  1.00  0.00     0.005 C 
HETATM   17  C15 UNL     1      -4.394  48.298 -25.480  1.00  0.00     0.019 C 
HETATM   18  C16 UNL     1      -2.521  48.971 -23.926  1.00  0.00     0.002 C 
HETATM   19  C17 UNL     1      -2.609  48.476 -22.473  1.00  0.00     0.009 C 
HETATM   20  C18 UNL     1      -4.051  48.010 -22.316  1.00  0.00     0.047 C 
HETATM   21  C19 UNL     1      -4.845  49.081 -23.074  1.00  0.00     0.128 C 
ENDROOT
BRANCH  21  22
HETATM   22  O3  UNL     1      -4.839  50.268 -22.278  1.00  0.00    -0.381 OA
HETATM   23  H25 UNL     1      -5.225  50.050 -21.406  1.00  0.00     0.211 HD
ENDBRANCH  21  22
BRANCH  21  24
HETATM   24  C20 UNL     1      -6.301  48.641 -23.334  1.00  0.00     0.185 C 
HETATM   25  O4  UNL     1      -7.152  49.428 -23.765  1.00  0.00    -0.292 OA
BRANCH  24  26
HETATM   26  C21 UNL     1      -6.665  47.201 -22.970  1.00  0.00     0.260 C 
BRANCH  26  27
HETATM   27  O5  UNL     1      -7.743  47.137 -22.033  1.00  0.00    -0.314 OA
BRANCH  27  28
HETATM   28  C22 UNL     1      -7.386  47.438 -20.756  1.00  0.00     0.259 C 
HETATM   29  O6  UNL     1      -6.462  46.896 -20.159  1.00  0.00    -0.265 OA
BRANCH  28  30
HETATM   30  C23 UNL     1      -8.268  48.503 -20.145  1.00  0.00     0.120 C 
BRANCH  30  31
HETATM   31  C24 UNL     1      -9.286  47.973 -19.143  1.00  0.00     0.112 C 
BRANCH  31  32
HETATM   32  C25 UNL     1     -10.632  47.722 -19.781  1.00  0.00     0.218 C 
HETATM   33  O7  UNL     1     -11.661  48.289 -19.436  1.00  0.00    -0.274 OA
HETATM   34  N1  UNL     1     -10.577  46.770 -20.777  1.00  0.00    -0.361 N 
HETATM   35  H32 UNL     1      -9.686  46.345 -20.999  1.00  0.00     0.162 HD
BRANCH  34  36
HETATM   36  C26 UNL     1     -11.757  46.294 -21.470  1.00  0.00     0.127 C 
BRANCH  36  37
HETATM   37  C27 UNL     1     -11.620  46.331 -23.004  1.00  0.00     0.003 C 
HETATM   38  C28 UNL     1     -12.933  46.690 -23.711  1.00  0.00     0.007 C 
HETATM   39  C29 UNL     1     -12.728  46.902 -25.215  1.00  0.00     0.015 C 
HETATM   40  C30 UNL     1     -11.645  45.996 -25.817  1.00  0.00     0.084 C 
HETATM   41  C32 UNL     1     -11.450  44.718 -25.001  1.00  0.00     0.015 C 
HETATM   42  C33 UNL     1     -11.024  45.023 -23.563  1.00  0.00     0.007 C 
BRANCH  40  43
HETATM   43  C31 UNL     1     -11.963  45.709 -27.268  1.00  0.00     0.143 C 
HETATM   44  O8  UNL     1     -11.184  45.816 -28.202  1.00  0.00    -0.650 OA
BRANCH  43  45
HETATM   45  O9  UNL     1     -13.246  45.366 -27.489  1.00  0.00    -0.776 OA
HETATM   46  H41 UNL     1     -13.306  45.266 -28.460  1.00  0.00     0.167 HD
ENDBRANCH  43  45
ENDBRANCH  40  43
ENDBRANCH  36  37
ENDBRANCH  34  36
ENDBRANCH  31  32
ENDBRANCH  30  31
ENDBRANCH  28  30
ENDBRANCH  27  28
ENDBRANCH  26  27
ENDBRANCH  24  26
ENDBRANCH  21  24
TORSDOF 12
ENDMDL
