MODEL 1
REMARK minimizedAffinity -6.73595858
REMARK  9 active torsions:
REMARK  status: ('A' for Active; 'I' for Inactive)
REMARK    1  A    between atoms: N1_1  and  C1_2 
REMARK    2  A    between atoms: N5_13  and  C6_14 
REMARK    3  A    between atoms: C6_14  and  C7_15 
REMARK    4  A    between atoms: C7_15  and  C8_16 
REMARK    5  A    between atoms: C7_15  and  O1_18 
REMARK    6  A    between atoms: O1_18  and  C9_19 
REMARK    7  A    between atoms: C9_19  and  P1_20 
REMARK    8  A    between atoms: P1_20  and  O3_22 
REMARK    9  A    between atoms: P1_20  and  O4_23 
ROOT
HETATM    1  C1  UNL     1      -0.737   2.487  11.416  1.00  0.00     0.109 A 
HETATM    2  N2  UNL     1      -0.023   3.593  11.729  1.00  0.00    -0.341 N 
ATOM      3  H2  UNL     1       0.993   3.601  11.643  1.00  0.00     0.167 HD
HETATM    4  C2  UNL     1      -0.691   4.687  12.159  1.00  0.00     0.183 A 
HETATM    5  N3  UNL     1      -2.020   4.854  12.315  1.00  0.00    -0.336 N 
ATOM      6  H3  UNL     1      -2.464   5.713  12.640  1.00  0.00     0.168 HD
HETATM    7  C3  UNL     1      -2.678   3.731  11.980  1.00  0.00     0.140 A 
HETATM    8  C4  UNL     1      -2.137   2.539  11.528  1.00  0.00     0.116 A 
HETATM    9  N4  UNL     1      -3.132   1.619  11.256  1.00  0.00    -0.346 N 
ATOM     10  H4  UNL     1      -3.021   0.667  10.907  1.00  0.00     0.167 HD
HETATM   11  C5  UNL     1      -4.255   2.243  11.548  1.00  0.00     0.185 A 
HETATM   12  N5  UNL     1      -4.027   3.515  12.000  1.00  0.00    -0.325 N 
ENDROOT
BRANCH  12  13
HETATM   13  C6  UNL     1      -5.030   4.472  12.428  1.00  0.00     0.165 C 
BRANCH  13  14
HETATM   14  C7  UNL     1      -6.188   3.786  13.160  1.00  0.00     0.169 C 
BRANCH  14  15
HETATM   15  C8  UNL     1      -6.806   2.721  12.253  1.00  0.00     0.255 C 
HETATM   16  F1  UNL     1      -7.597   1.896  12.992  1.00  0.00    -0.253 F 
ENDBRANCH  14  15
BRANCH  14  17
HETATM   17  O1  UNL     1      -7.135   4.807  13.515  1.00  0.00    -0.370 OA
BRANCH  17  18
HETATM   18  C9  UNL     1      -6.605   5.836  14.360  1.00  0.00     0.292 C 
BRANCH  18  19
HETATM   19  P1  UNL     1      -7.783   6.132  15.679  1.00  0.00     0.260 P 
HETATM   20  O2  UNL     1      -8.951   7.027  15.432  1.00  0.00    -0.652 OA
BRANCH  19  21
HETATM   21  O3  UNL     1      -8.261   4.682  16.177  1.00  0.00    -0.328 OA
HETATM   22  H12 UNL     1      -9.025   4.731  16.780  1.00  0.00     0.220 HD
ENDBRANCH  19  21
BRANCH  19  23
HETATM   23  O4  UNL     1      -6.925   6.605  16.949  1.00  0.00    -0.328 OA
HETATM   24  H13 UNL     1      -7.469   7.024  17.641  1.00  0.00     0.220 HD
ENDBRANCH  19  23
ENDBRANCH  18  19
ENDBRANCH  17  18
ENDBRANCH  14  17
ENDBRANCH  13  14
ENDBRANCH  12  13
BRANCH   1  25
HETATM   25  N1  UNL     1      -0.050   1.362  10.979  1.00  0.00    -0.287 NA
HETATM   26  H1  UNL     1       0.860   1.592  10.604  1.00  0.00     0.125 HD
HETATM   27  H2  UNL     1      -0.631   0.716  10.456  1.00  0.00     0.125 HD
ENDBRANCH   1  25
TORSDOF 9
ENDMDL
MODEL 2
REMARK minimizedAffinity -6.63674879
REMARK  9 active torsions:
REMARK  status: ('A' for Active; 'I' for Inactive)
REMARK    1  A    between atoms: N1_1  and  C1_2 
REMARK    2  A    between atoms: N5_13  and  C6_14 
REMARK    3  A    between atoms: C6_14  and  C7_15 
REMARK    4  A    between atoms: C7_15  and  C8_16 
REMARK    5  A    between atoms: C7_15  and  O1_18 
REMARK    6  A    between atoms: O1_18  and  C9_19 
REMARK    7  A    between atoms: C9_19  and  P1_20 
REMARK    8  A    between atoms: P1_20  and  O3_22 
REMARK    9  A    between atoms: P1_20  and  O4_23 
ROOT
HETATM    1  C1  UNL     1      -7.144   2.848  12.608  1.00  0.00     0.109 A 
HETATM    2  N2  UNL     1      -7.079   1.678  11.933  1.00  0.00    -0.341 N 
ATOM      3  H2  UNL     1      -7.900   1.078  11.844  1.00  0.00     0.167 HD
HETATM    4  C2  UNL     1      -5.899   1.322  11.378  1.00  0.00     0.183 A 
HETATM    5  N3  UNL     1      -4.730   1.996  11.383  1.00  0.00    -0.336 N 
ATOM      6  H3  UNL     1      -3.871   1.673  10.937  1.00  0.00     0.168 HD
HETATM    7  C3  UNL     1      -4.856   3.152  12.057  1.00  0.00     0.140 A 
HETATM    8  C4  UNL     1      -5.991   3.648  12.677  1.00  0.00     0.116 A 
HETATM    9  N4  UNL     1      -5.742   4.884  13.243  1.00  0.00    -0.346 N 
ATOM     10  H4  UNL     1      -6.395   5.477  13.754  1.00  0.00     0.167 HD
HETATM   11  C5  UNL     1      -4.474   5.126  12.975  1.00  0.00     0.185 A 
HETATM   12  N5  UNL     1      -3.898   4.102  12.274  1.00  0.00    -0.325 N 
ENDROOT
BRANCH  12  13
HETATM   13  C6  UNL     1      -2.519   4.027  11.832  1.00  0.00     0.165 C 
BRANCH  13  14
HETATM   14  C7  UNL     1      -1.728   5.275  12.237  1.00  0.00     0.169 C 
BRANCH  14  15
HETATM   15  C8  UNL     1      -0.684   5.589  11.163  1.00  0.00     0.255 C 
HETATM   16  F1  UNL     1      -0.336   6.902  11.235  1.00  0.00    -0.253 F 
ENDBRANCH  14  15
BRANCH  14  17
HETATM   17  O1  UNL     1      -1.124   5.006  13.513  1.00  0.00    -0.370 OA
BRANCH  17  18
HETATM   18  C9  UNL     1      -1.342   6.026  14.495  1.00  0.00     0.292 C 
BRANCH  18  19
HETATM   19  P1  UNL     1       0.208   6.889  14.752  1.00  0.00     0.260 P 
HETATM   20  O2  UNL     1       0.361   8.287  14.252  1.00  0.00    -0.652 OA
BRANCH  19  21
HETATM   21  O3  UNL     1       0.504   6.803  16.328  1.00  0.00    -0.328 OA
HETATM   22  H12 UNL     1       1.240   7.382  16.599  1.00  0.00     0.220 HD
ENDBRANCH  19  21
BRANCH  19  23
HETATM   23  O4  UNL     1       1.358   5.923  14.188  1.00  0.00    -0.328 OA
HETATM   24  H13 UNL     1       2.207   6.382  14.052  1.00  0.00     0.220 HD
ENDBRANCH  19  23
ENDBRANCH  18  19
ENDBRANCH  17  18
ENDBRANCH  14  17
ENDBRANCH  13  14
ENDBRANCH  12  13
BRANCH   1  25
HETATM   25  N1  UNL     1      -8.356   3.210  13.182  1.00  0.00    -0.287 NA
HETATM   26  H1  UNL     1      -9.140   2.748  12.742  1.00  0.00     0.125 HD
HETATM   27  H2  UNL     1      -8.431   4.204  13.366  1.00  0.00     0.125 HD
ENDBRANCH   1  25
TORSDOF 9
ENDMDL
MODEL 3
REMARK minimizedAffinity -6.44894838
REMARK  9 active torsions:
REMARK  status: ('A' for Active; 'I' for Inactive)
REMARK    1  A    between atoms: N1_1  and  C1_2 
REMARK    2  A    between atoms: N5_13  and  C6_14 
REMARK    3  A    between atoms: C6_14  and  C7_15 
REMARK    4  A    between atoms: C7_15  and  C8_16 
REMARK    5  A    between atoms: C7_15  and  O1_18 
REMARK    6  A    between atoms: O1_18  and  C9_19 
REMARK    7  A    between atoms: C9_19  and  P1_20 
REMARK    8  A    between atoms: P1_20  and  O3_22 
REMARK    9  A    between atoms: P1_20  and  O4_23 
ROOT
HETATM    1  C1  UNL     1      -5.045   2.908  11.875  1.00  0.00     0.109 A 
HETATM    2  N2  UNL     1      -5.652   3.856  12.626  1.00  0.00    -0.341 N 
ATOM      3  H2  UNL     1      -6.616   3.739  12.939  1.00  0.00     0.167 HD
HETATM    4  C2  UNL     1      -4.948   4.964  12.952  1.00  0.00     0.183 A 
HETATM    5  N3  UNL     1      -3.671   5.271  12.641  1.00  0.00    -0.336 N 
ATOM      6  H3  UNL     1      -3.194   6.127  12.925  1.00  0.00     0.168 HD
HETATM    7  C3  UNL     1      -3.117   4.292  11.906  1.00  0.00     0.140 A 
HETATM    8  C4  UNL     1      -3.708   3.108  11.495  1.00  0.00     0.116 A 
HETATM    9  N4  UNL     1      -2.813   2.335  10.779  1.00  0.00    -0.346 N 
ATOM     10  H4  UNL     1      -2.976   1.418  10.364  1.00  0.00     0.167 HD
HETATM   11  C5  UNL     1      -1.702   3.045  10.753  1.00  0.00     0.185 A 
HETATM   12  N5  UNL     1      -1.846   4.237  11.409  1.00  0.00    -0.325 N 
ENDROOT
BRANCH  12  13
HETATM   13  C6  UNL     1      -0.836   5.268  11.557  1.00  0.00     0.165 C 
BRANCH  13  14
HETATM   14  C7  UNL     1       0.420   4.731  12.252  1.00  0.00     0.169 C 
BRANCH  14  15
HETATM   15  C8  UNL     1       0.963   5.791  13.213  1.00  0.00     0.255 C 
HETATM   16  F1  UNL     1       0.405   6.998  12.924  1.00  0.00    -0.253 F 
ENDBRANCH  14  15
BRANCH  14  17
HETATM   17  O1  UNL     1       1.369   4.397  11.226  1.00  0.00    -0.370 OA
BRANCH  17  18
HETATM   18  C9  UNL     1       2.021   5.527  10.635  1.00  0.00     0.292 C 
BRANCH  18  19
HETATM   19  P1  UNL     1       3.274   4.917   9.507  1.00  0.00     0.260 P 
HETATM   20  O2  UNL     1       3.226   5.319   8.071  1.00  0.00    -0.652 OA
BRANCH  19  21
HETATM   21  O3  UNL     1       4.687   5.300  10.168  1.00  0.00    -0.328 OA
HETATM   22  H12 UNL     1       5.432   5.159   9.556  1.00  0.00     0.220 HD
ENDBRANCH  19  21
BRANCH  19  23
HETATM   23  O4  UNL     1       3.296   3.323   9.682  1.00  0.00    -0.328 OA
HETATM   24  H13 UNL     1       3.758   2.867   8.954  1.00  0.00     0.220 HD
ENDBRANCH  19  23
ENDBRANCH  18  19
ENDBRANCH  17  18
ENDBRANCH  14  17
ENDBRANCH  13  14
ENDBRANCH  12  13
BRANCH   1  25
HETATM   25  N1  UNL     1      -5.771   1.773  11.537  1.00  0.00    -0.287 NA
HETATM   26  H1  UNL     1      -6.540   1.609  12.172  1.00  0.00     0.125 HD
HETATM   27  H2  UNL     1      -5.186   0.985  11.284  1.00  0.00     0.125 HD
ENDBRANCH   1  25
TORSDOF 9
ENDMDL
MODEL 4
REMARK minimizedAffinity -6.44038582
REMARK  9 active torsions:
REMARK  status: ('A' for Active; 'I' for Inactive)
REMARK    1  A    between atoms: N1_1  and  C1_2 
REMARK    2  A    between atoms: N5_13  and  C6_14 
REMARK    3  A    between atoms: C6_14  and  C7_15 
REMARK    4  A    between atoms: C7_15  and  C8_16 
REMARK    5  A    between atoms: C7_15  and  O1_18 
REMARK    6  A    between atoms: O1_18  and  C9_19 
REMARK    7  A    between atoms: C9_19  and  P1_20 
REMARK    8  A    between atoms: P1_20  and  O3_22 
REMARK    9  A    between atoms: P1_20  and  O4_23 
ROOT
HETATM    1  C1  UNL     1      -7.364   3.234  13.164  1.00  0.00     0.109 A 
HETATM    2  N2  UNL     1      -8.191   4.041  13.868  1.00  0.00    -0.341 N 
ATOM      3  H2  UNL     1      -9.130   3.734  14.123  1.00  0.00     0.167 HD
HETATM    4  C2  UNL     1      -7.741   5.265  14.226  1.00  0.00     0.183 A 
HETATM    5  N3  UNL     1      -6.534   5.820  13.991  1.00  0.00    -0.336 N 
ATOM      6  H3  UNL     1      -6.255   6.753  14.295  1.00  0.00     0.168 HD
HETATM    7  C3  UNL     1      -5.753   4.972  13.299  1.00  0.00     0.140 A 
HETATM    8  C4  UNL     1      -6.071   3.696  12.864  1.00  0.00     0.116 A 
HETATM    9  N4  UNL     1      -4.999   3.118  12.211  1.00  0.00    -0.346 N 
ATOM     10  H4  UNL     1      -4.951   2.189  11.794  1.00  0.00     0.167 HD
HETATM   11  C5  UNL     1      -4.052   4.034  12.245  1.00  0.00     0.185 A 
HETATM   12  N5  UNL     1      -4.468   5.173  12.880  1.00  0.00    -0.325 N 
ENDROOT
BRANCH  12  13
HETATM   13  C6  UNL     1      -3.694   6.383  13.080  1.00  0.00     0.165 C 
BRANCH  13  14
HETATM   14  C7  UNL     1      -4.065   7.079  14.393  1.00  0.00     0.169 C 
BRANCH  14  15
HETATM   15  C8  UNL     1      -4.465   8.528  14.107  1.00  0.00     0.255 C 
HETATM   16  F1  UNL     1      -4.618   8.702  12.766  1.00  0.00    -0.253 F 
ENDBRANCH  14  15
BRANCH  14  17
HETATM   17  O1  UNL     1      -2.923   6.997  15.261  1.00  0.00    -0.370 OA
BRANCH  17  18
HETATM   18  C9  UNL     1      -1.808   7.797  14.848  1.00  0.00     0.292 C 
BRANCH  18  19
HETATM   19  P1  UNL     1      -0.332   6.783  14.943  1.00  0.00     0.260 P 
HETATM   20  O2  UNL     1       0.724   6.925  13.898  1.00  0.00    -0.652 OA
BRANCH  19  21
HETATM   21  O3  UNL     1       0.271   7.021  16.412  1.00  0.00    -0.328 OA
HETATM   22  H12 UNL     1       1.165   6.644  16.511  1.00  0.00     0.220 HD
ENDBRANCH  19  21
BRANCH  19  23
HETATM   23  O4  UNL     1      -0.838   5.267  15.080  1.00  0.00    -0.328 OA
HETATM   24  H13 UNL     1      -0.137   4.615  14.896  1.00  0.00     0.220 HD
ENDBRANCH  19  23
ENDBRANCH  18  19
ENDBRANCH  17  18
ENDBRANCH  14  17
ENDBRANCH  13  14
ENDBRANCH  12  13
BRANCH   1  25
HETATM   25  N1  UNL     1      -7.828   1.979  12.793  1.00  0.00    -0.287 NA
HETATM   26  H1  UNL     1      -8.587   1.663  13.381  1.00  0.00     0.125 HD
HETATM   27  H2  UNL     1      -7.084   1.323  12.583  1.00  0.00     0.125 HD
ENDBRANCH   1  25
TORSDOF 9
ENDMDL
MODEL 5
REMARK minimizedAffinity -6.4271059
REMARK  9 active torsions:
REMARK  status: ('A' for Active; 'I' for Inactive)
REMARK    1  A    between atoms: N1_1  and  C1_2 
REMARK    2  A    between atoms: N5_13  and  C6_14 
REMARK    3  A    between atoms: C6_14  and  C7_15 
REMARK    4  A    between atoms: C7_15  and  C8_16 
REMARK    5  A    between atoms: C7_15  and  O1_18 
REMARK    6  A    between atoms: O1_18  and  C9_19 
REMARK    7  A    between atoms: C9_19  and  P1_20 
REMARK    8  A    between atoms: P1_20  and  O3_22 
REMARK    9  A    between atoms: P1_20  and  O4_23 
ROOT
HETATM    1  C1  UNL     1      -3.023   3.085  10.932  1.00  0.00     0.109 A 
HETATM    2  N2  UNL     1      -4.234   2.511  10.745  1.00  0.00    -0.341 N 
ATOM      3  H2  UNL     1      -4.354   1.748  10.079  1.00  0.00     0.167 HD
HETATM    4  C2  UNL     1      -5.280   2.975  11.465  1.00  0.00     0.183 A 
HETATM    5  N3  UNL     1      -5.296   3.955  12.392  1.00  0.00    -0.336 N 
ATOM      6  H3  UNL     1      -6.124   4.256  12.906  1.00  0.00     0.168 HD
HETATM    7  C3  UNL     1      -4.068   4.480  12.543  1.00  0.00     0.140 A 
HETATM    8  C4  UNL     1      -2.907   4.114  11.881  1.00  0.00     0.116 A 
HETATM    9  N4  UNL     1      -1.832   4.861  12.325  1.00  0.00    -0.346 N 
ATOM     10  H4  UNL     1      -0.862   4.799  12.018  1.00  0.00     0.167 HD
HETATM   11  C5  UNL     1      -2.338   5.670  13.235  1.00  0.00     0.185 A 
HETATM   12  N5  UNL     1      -3.685   5.483  13.388  1.00  0.00    -0.325 N 
ENDROOT
BRANCH  12  13
HETATM   13  C6  UNL     1      -4.561   6.213  14.284  1.00  0.00     0.165 C 
BRANCH  13  14
HETATM   14  C7  UNL     1      -5.290   7.349  13.559  1.00  0.00     0.169 C 
BRANCH  14  15
HETATM   15  C8  UNL     1      -4.428   8.613  13.597  1.00  0.00     0.255 C 
HETATM   16  F1  UNL     1      -3.815   8.783  12.394  1.00  0.00    -0.253 F 
ENDBRANCH  14  15
BRANCH  14  17
HETATM   17  O1  UNL     1      -6.553   7.538  14.217  1.00  0.00    -0.370 OA
BRANCH  17  18
HETATM   18  C9  UNL     1      -7.407   6.388  14.197  1.00  0.00     0.292 C 
BRANCH  18  19
HETATM   19  P1  UNL     1      -8.188   6.249  15.804  1.00  0.00     0.260 P 
HETATM   20  O2  UNL     1      -7.658   7.045  16.950  1.00  0.00    -0.652 OA
BRANCH  19  21
HETATM   21  O3  UNL     1      -9.748   6.549  15.564  1.00  0.00    -0.328 OA
HETATM   22  H12 UNL     1     -10.236   6.660  16.400  1.00  0.00     0.220 HD
ENDBRANCH  19  21
BRANCH  19  23
HETATM   23  O4  UNL     1      -8.244   4.681  16.141  1.00  0.00    -0.328 OA
HETATM   24  H13 UNL     1      -8.422   4.501  17.083  1.00  0.00     0.220 HD
ENDBRANCH  19  23
ENDBRANCH  18  19
ENDBRANCH  17  18
ENDBRANCH  14  17
ENDBRANCH  13  14
ENDBRANCH  12  13
BRANCH   1  25
HETATM   25  N1  UNL     1      -1.949   2.611  10.189  1.00  0.00    -0.287 NA
HETATM   26  H1  UNL     1      -2.102   1.669   9.855  1.00  0.00     0.125 HD
HETATM   27  H2  UNL     1      -1.049   2.830  10.601  1.00  0.00     0.125 HD
ENDBRANCH   1  25
TORSDOF 9
ENDMDL
MODEL 6
REMARK minimizedAffinity -6.42266273
REMARK  9 active torsions:
REMARK  status: ('A' for Active; 'I' for Inactive)
REMARK    1  A    between atoms: N1_1  and  C1_2 
REMARK    2  A    between atoms: N5_13  and  C6_14 
REMARK    3  A    between atoms: C6_14  and  C7_15 
REMARK    4  A    between atoms: C7_15  and  C8_16 
REMARK    5  A    between atoms: C7_15  and  O1_18 
REMARK    6  A    between atoms: O1_18  and  C9_19 
REMARK    7  A    between atoms: C9_19  and  P1_20 
REMARK    8  A    between atoms: P1_20  and  O3_22 
REMARK    9  A    between atoms: P1_20  and  O4_23 
ROOT
HETATM    1  C1  UNL     1      -5.683   2.065  11.382  1.00  0.00     0.109 A 
HETATM    2  N2  UNL     1      -4.414   2.435  11.093  1.00  0.00    -0.341 N 
ATOM      3  H2  UNL     1      -3.818   1.848  10.510  1.00  0.00     0.167 HD
HETATM    4  C2  UNL     1      -3.957   3.604  11.596  1.00  0.00     0.183 A 
HETATM    5  N3  UNL     1      -4.609   4.502  12.363  1.00  0.00    -0.336 N 
ATOM      6  H3  UNL     1      -4.206   5.374  12.707  1.00  0.00     0.168 HD
HETATM    7  C3  UNL     1      -5.864   4.089  12.609  1.00  0.00     0.140 A 
HETATM    8  C4  UNL     1      -6.471   2.924  12.167  1.00  0.00     0.116 A 
HETATM    9  N4  UNL     1      -7.782   2.858  12.598  1.00  0.00    -0.346 N 
ATOM     10  H4  UNL     1      -8.461   2.119  12.417  1.00  0.00     0.167 HD
HETATM   11  C5  UNL     1      -7.962   3.962  13.296  1.00  0.00     0.185 A 
HETATM   12  N5  UNL     1      -6.827   4.727  13.338  1.00  0.00    -0.325 N 
ENDROOT
BRANCH  12  13
HETATM   13  C6  UNL     1      -6.663   5.990  14.031  1.00  0.00     0.165 C 
BRANCH  13  14
HETATM   14  C7  UNL     1      -6.636   5.801  15.551  1.00  0.00     0.169 C 
BRANCH  14  15
HETATM   15  C8  UNL     1      -7.865   6.469  16.171  1.00  0.00     0.255 C 
HETATM   16  F1  UNL     1      -7.508   7.102  17.321  1.00  0.00    -0.253 F 
ENDBRANCH  14  15
BRANCH  14  17
HETATM   17  O1  UNL     1      -5.410   6.375  16.034  1.00  0.00    -0.370 OA
BRANCH  17  18
HETATM   18  C9  UNL     1      -4.731   7.204  15.082  1.00  0.00     0.292 C 
BRANCH  18  19
HETATM   19  P1  UNL     1      -2.967   6.974  15.305  1.00  0.00     0.260 P 
HETATM   20  O2  UNL     1      -2.017   7.645  14.370  1.00  0.00    -0.652 OA
BRANCH  19  21
HETATM   21  O3  UNL     1      -2.660   7.377  16.829  1.00  0.00    -0.328 OA
HETATM   22  H12 UNL     1      -1.704   7.445  17.008  1.00  0.00     0.220 HD
ENDBRANCH  19  21
BRANCH  19  23
HETATM   23  O4  UNL     1      -2.726   5.390  15.370  1.00  0.00    -0.328 OA
HETATM   24  H13 UNL     1      -1.791   5.143  15.245  1.00  0.00     0.220 HD
ENDBRANCH  19  23
ENDBRANCH  18  19
ENDBRANCH  17  18
ENDBRANCH  14  17
ENDBRANCH  13  14
ENDBRANCH  12  13
BRANCH   1  25
HETATM   25  N1  UNL     1      -6.150   0.862  10.869  1.00  0.00    -0.287 NA
HETATM   26  H1  UNL     1      -5.629   0.566  10.055  1.00  0.00     0.125 HD
HETATM   27  H2  UNL     1      -7.162   0.809  10.831  1.00  0.00     0.125 HD
ENDBRANCH   1  25
TORSDOF 9
ENDMDL
MODEL 7
REMARK minimizedAffinity -6.41600084
REMARK  9 active torsions:
REMARK  status: ('A' for Active; 'I' for Inactive)
REMARK    1  A    between atoms: N1_1  and  C1_2 
REMARK    2  A    between atoms: N5_13  and  C6_14 
REMARK    3  A    between atoms: C6_14  and  C7_15 
REMARK    4  A    between atoms: C7_15  and  C8_16 
REMARK    5  A    between atoms: C7_15  and  O1_18 
REMARK    6  A    between atoms: O1_18  and  C9_19 
REMARK    7  A    between atoms: C9_19  and  P1_20 
REMARK    8  A    between atoms: P1_20  and  O3_22 
REMARK    9  A    between atoms: P1_20  and  O4_23 
ROOT
HETATM    1  C1  UNL     1      -7.573   3.324  12.916  1.00  0.00     0.109 A 
HETATM    2  N2  UNL     1      -8.534   4.205  13.280  1.00  0.00    -0.341 N 
ATOM      3  H2  UNL     1      -9.506   3.909  13.373  1.00  0.00     0.167 HD
HETATM    4  C2  UNL     1      -8.173   5.486  13.517  1.00  0.00     0.183 A 
HETATM    5  N3  UNL     1      -6.944   6.038  13.459  1.00  0.00    -0.336 N 
ATOM      6  H3  UNL     1      -6.737   7.018  13.657  1.00  0.00     0.168 HD
HETATM    7  C3  UNL     1      -6.031   5.118  13.104  1.00  0.00     0.140 A 
HETATM    8  C4  UNL     1      -6.246   3.778  12.829  1.00  0.00     0.116 A 
HETATM    9  N4  UNL     1      -5.057   3.140  12.530  1.00  0.00    -0.346 N 
ATOM     10  H4  UNL     1      -4.920   2.158  12.294  1.00  0.00     0.167 HD
HETATM   11  C5  UNL     1      -4.140   4.083  12.615  1.00  0.00     0.185 A 
HETATM   12  N5  UNL     1      -4.685   5.294  12.946  1.00  0.00    -0.325 N 
ENDROOT
BRANCH  12  13
HETATM   13  C6  UNL     1      -3.973   6.547  13.104  1.00  0.00     0.165 C 
BRANCH  13  14
HETATM   14  C7  UNL     1      -2.995   6.495  14.283  1.00  0.00     0.169 C 
BRANCH  14  15
HETATM   15  C8  UNL     1      -3.716   6.922  15.563  1.00  0.00     0.255 C 
HETATM   16  F1  UNL     1      -4.581   5.944  15.946  1.00  0.00    -0.253 F 
ENDBRANCH  14  15
BRANCH  14  17
HETATM   17  O1  UNL     1      -1.896   7.366  13.967  1.00  0.00    -0.370 OA
BRANCH  17  18
HETATM   18  C9  UNL     1      -0.673   6.685  13.662  1.00  0.00     0.292 C 
BRANCH  18  19
HETATM   19  P1  UNL     1       0.599   7.307  14.762  1.00  0.00     0.260 P 
HETATM   20  O2  UNL     1       0.965   8.753  14.717  1.00  0.00    -0.652 OA
BRANCH  19  21
HETATM   21  O3  UNL     1       0.154   6.868  16.241  1.00  0.00    -0.328 OA
HETATM   22  H12 UNL     1       0.691   7.298  16.932  1.00  0.00     0.220 HD
ENDBRANCH  19  21
BRANCH  19  23
HETATM   23  O4  UNL     1       1.876   6.360  14.551  1.00  0.00    -0.328 OA
HETATM   24  H13 UNL     1       2.698   6.744  14.910  1.00  0.00     0.220 HD
ENDBRANCH  19  23
ENDBRANCH  18  19
ENDBRANCH  17  18
ENDBRANCH  14  17
ENDBRANCH  13  14
ENDBRANCH  12  13
BRANCH   1  25
HETATM   25  N1  UNL     1      -7.946   2.010  12.668  1.00  0.00    -0.287 NA
HETATM   26  H1  UNL     1      -8.816   1.767  13.122  1.00  0.00     0.125 HD
HETATM   27  H2  UNL     1      -7.174   1.355  12.736  1.00  0.00     0.125 HD
ENDBRANCH   1  25
TORSDOF 9
ENDMDL
MODEL 8
REMARK minimizedAffinity -6.40605211
REMARK  9 active torsions:
REMARK  status: ('A' for Active; 'I' for Inactive)
REMARK    1  A    between atoms: N1_1  and  C1_2 
REMARK    2  A    between atoms: N5_13  and  C6_14 
REMARK    3  A    between atoms: C6_14  and  C7_15 
REMARK    4  A    between atoms: C7_15  and  C8_16 
REMARK    5  A    between atoms: C7_15  and  O1_18 
REMARK    6  A    between atoms: O1_18  and  C9_19 
REMARK    7  A    between atoms: C9_19  and  P1_20 
REMARK    8  A    between atoms: P1_20  and  O3_22 
REMARK    9  A    between atoms: P1_20  and  O4_23 
ROOT
HETATM    1  C1  UNL     1      -4.164   2.489  11.427  1.00  0.00     0.109 A 
HETATM    2  N2  UNL     1      -4.976   1.447  11.137  1.00  0.00    -0.341 N 
ATOM      3  H2  UNL     1      -4.629   0.642  10.615  1.00  0.00     0.167 HD
HETATM    4  C2  UNL     1      -6.261   1.499  11.555  1.00  0.00     0.183 A 
HETATM    5  N3  UNL     1      -6.877   2.469  12.263  1.00  0.00    -0.336 N 
ATOM      6  H3  UNL     1      -7.854   2.444  12.554  1.00  0.00     0.168 HD
HETATM    7  C3  UNL     1      -6.022   3.471  12.531  1.00  0.00     0.140 A 
HETATM    8  C4  UNL     1      -4.687   3.560  12.171  1.00  0.00     0.116 A 
HETATM    9  N4  UNL     1      -4.125   4.727  12.654  1.00  0.00    -0.346 N 
ATOM     10  H4  UNL     1      -3.163   5.047  12.543  1.00  0.00     0.167 HD
HETATM   11  C5  UNL     1      -5.107   5.336  13.288  1.00  0.00     0.185 A 
HETATM   12  N5  UNL     1      -6.272   4.619  13.228  1.00  0.00    -0.325 N 
ENDROOT
BRANCH  12  13
HETATM   13  C6  UNL     1      -7.550   5.000  13.798  1.00  0.00     0.165 C 
BRANCH  13  14
HETATM   14  C7  UNL     1      -7.423   6.237  14.692  1.00  0.00     0.169 C 
BRANCH  14  15
HETATM   15  C8  UNL     1      -7.480   5.814  16.161  1.00  0.00     0.255 C 
HETATM   16  F1  UNL     1      -7.253   6.894  16.956  1.00  0.00    -0.253 F 
ENDBRANCH  14  15
BRANCH  14  17
HETATM   17  O1  UNL     1      -8.496   7.129  14.347  1.00  0.00    -0.370 OA
BRANCH  17  18
HETATM   18  C9  UNL     1      -9.565   6.512  13.619  1.00  0.00     0.292 C 
BRANCH  18  19
HETATM   19  P1  UNL     1     -11.104   7.257  14.156  1.00  0.00     0.260 P 
HETATM   20  O2  UNL     1     -11.740   8.314  13.316  1.00  0.00    -0.652 OA
BRANCH  19  21
HETATM   21  O3  UNL     1     -12.117   6.038  14.415  1.00  0.00    -0.328 OA
HETATM   22  H12 UNL     1     -13.033   6.341  14.552  1.00  0.00     0.220 HD
ENDBRANCH  19  21
BRANCH  19  23
HETATM   23  O4  UNL     1     -10.860   7.755  15.661  1.00  0.00    -0.328 OA
HETATM   24  H13 UNL     1     -11.538   8.385  15.967  1.00  0.00     0.220 HD
ENDBRANCH  19  23
ENDBRANCH  18  19
ENDBRANCH  17  18
ENDBRANCH  14  17
ENDBRANCH  13  14
ENDBRANCH  12  13
BRANCH   1  25
HETATM   25  N1  UNL     1      -2.846   2.437  10.993  1.00  0.00    -0.287 NA
HETATM   26  H1  UNL     1      -2.538   1.490  10.820  1.00  0.00     0.125 HD
HETATM   27  H2  UNL     1      -2.229   3.051  11.512  1.00  0.00     0.125 HD
ENDBRANCH   1  25
TORSDOF 9
ENDMDL
MODEL 9
REMARK minimizedAffinity -6.39620304
REMARK  9 active torsions:
REMARK  status: ('A' for Active; 'I' for Inactive)
REMARK    1  A    between atoms: N1_1  and  C1_2 
REMARK    2  A    between atoms: N5_13  and  C6_14 
REMARK    3  A    between atoms: C6_14  and  C7_15 
REMARK    4  A    between atoms: C7_15  and  C8_16 
REMARK    5  A    between atoms: C7_15  and  O1_18 
REMARK    6  A    between atoms: O1_18  and  C9_19 
REMARK    7  A    between atoms: C9_19  and  P1_20 
REMARK    8  A    between atoms: P1_20  and  O3_22 
REMARK    9  A    between atoms: P1_20  and  O4_23 
ROOT
HETATM    1  C1  UNL     1      -6.299  -8.256  11.686  1.00  0.00     0.109 A 
HETATM    2  N2  UNL     1      -5.334  -9.158  11.976  1.00  0.00    -0.341 N 
ATOM      3  H2  UNL     1      -4.786  -9.082  12.833  1.00  0.00     0.167 HD
HETATM    4  C2  UNL     1      -5.114 -10.165  11.101  1.00  0.00     0.183 A 
HETATM    5  N3  UNL     1      -5.750 -10.425   9.940  1.00  0.00    -0.336 N 
ATOM      6  H3  UNL     1      -5.538 -11.210   9.324  1.00  0.00     0.168 HD
HETATM    7  C3  UNL     1      -6.702  -9.505   9.709  1.00  0.00     0.140 A 
HETATM    8  C4  UNL     1      -7.042  -8.424  10.505  1.00  0.00     0.116 A 
HETATM    9  N4  UNL     1      -8.094  -7.718   9.953  1.00  0.00    -0.346 N 
ATOM     10  H4  UNL     1      -8.549  -6.886  10.327  1.00  0.00     0.167 HD
HETATM   11  C5  UNL     1      -8.380  -8.359   8.838  1.00  0.00     0.185 A 
HETATM   12  N5  UNL     1      -7.556  -9.435   8.645  1.00  0.00    -0.325 N 
ENDROOT
BRANCH  12  13
HETATM   13  C6  UNL     1      -7.576 -10.346   7.516  1.00  0.00     0.165 C 
BRANCH  13  14
HETATM   14  C7  UNL     1      -6.641  -9.878   6.397  1.00  0.00     0.169 C 
BRANCH  14  15
HETATM   15  C8  UNL     1      -7.136 -10.424   5.056  1.00  0.00     0.255 C 
HETATM   16  F1  UNL     1      -6.435  -9.847   4.042  1.00  0.00    -0.253 F 
ENDBRANCH  14  15
BRANCH  14  17
HETATM   17  O1  UNL     1      -5.321 -10.349   6.716  1.00  0.00    -0.370 OA
BRANCH  17  18
HETATM   18  C9  UNL     1      -4.375  -9.309   6.994  1.00  0.00     0.292 C 
BRANCH  18  19
HETATM   19  P1  UNL     1      -2.998  -9.493   5.860  1.00  0.00     0.260 P 
HETATM   20  O2  UNL     1      -3.206 -10.201   4.563  1.00  0.00    -0.652 OA
BRANCH  19  21
HETATM   21  O3  UNL     1      -2.420  -8.014   5.625  1.00  0.00    -0.328 OA
HETATM   22  H12 UNL     1      -1.774  -7.980   4.897  1.00  0.00     0.220 HD
ENDBRANCH  19  21
BRANCH  19  23
HETATM   23  O4  UNL     1      -1.801 -10.140   6.709  1.00  0.00    -0.328 OA
HETATM   24  H13 UNL     1      -1.093 -10.508   6.149  1.00  0.00     0.220 HD
ENDBRANCH  19  23
ENDBRANCH  18  19
ENDBRANCH  17  18
ENDBRANCH  14  17
ENDBRANCH  13  14
ENDBRANCH  12  13
BRANCH   1  25
HETATM   25  N1  UNL     1      -6.521  -7.220  12.583  1.00  0.00    -0.287 NA
HETATM   26  H1  UNL     1      -6.194  -7.443  13.513  1.00  0.00     0.125 HD
HETATM   27  H2  UNL     1      -7.439  -6.799  12.490  1.00  0.00     0.125 HD
ENDBRANCH   1  25
TORSDOF 9
ENDMDL
