MODEL 1
REMARK minimizedAffinity -7.87711143
REMARK CNNscore 0.743339717
REMARK CNNaffinity 6.63993073
REMARK  7 active torsions:
REMARK  status: ('A' for Active; 'I' for Inactive)
REMARK    1  A    between atoms: C2_2  and  C30_32 
REMARK    2  A    between atoms: C3_3  and  C4_4 
REMARK    3  A    between atoms: C4_4  and  O1_5 
REMARK    4  A    between atoms: C4_4  and  C5_6 
REMARK    5  A    between atoms: C5_6  and  C6_7 
REMARK    6  A    between atoms: C6_7  and  C8_9 
REMARK    7  A    between atoms: C30_32  and  O4_34 
ROOT
HETATM    1  C8  UNL     1       5.833  55.743  -7.998  1.00  0.00    -0.002 C 
HETATM    2  C9  UNL     1       6.675  54.605  -8.646  1.00  0.00     0.006 C 
HETATM    3  C10 UNL     1       5.727  53.754  -9.507  1.00  0.00     0.011 C 
HETATM    4  C11 UNL     1       4.426  54.575  -9.602  1.00  0.00    -0.032 C 
HETATM    5  C12 UNL     1       4.634  55.596 -10.765  1.00  0.00     0.016 C 
HETATM    6  C13 UNL     1       3.154  53.718  -9.848  1.00  0.00     0.004 C 
HETATM    7  C14 UNL     1       3.050  53.150 -11.272  1.00  0.00     0.007 C 
HETATM    8  C15 UNL     1       1.828  52.243 -11.381  1.00  0.00     0.007 C 
HETATM    9  C16 UNL     1       0.533  53.063 -11.283  1.00  0.00     0.010 C 
HETATM   10  C17 UNL     1      -0.793  52.232 -11.359  1.00  0.00     0.018 C 
HETATM   11  C18 UNL     1      -1.345  52.267 -12.800  1.00  0.00     0.023 C 
HETATM   12  C19 UNL     1      -0.604  50.753 -10.955  1.00  0.00     0.023 C 
HETATM   13  C20 UNL     1      -1.893  52.825 -10.456  1.00  0.00     0.135 C 
HETATM   14  O2  UNL     1      -2.783  52.114  -9.975  1.00  0.00    -0.297 OA
HETATM   15  C21 UNL     1      -1.966  54.324 -10.255  1.00  0.00     0.080 C 
HETATM   16  C22 UNL     1      -0.616  55.028 -10.273  1.00  0.00     0.018 C 
HETATM   17  C23 UNL     1       0.520  54.042 -10.109  1.00  0.00    -0.026 A 
HETATM   18  C24 UNL     1       0.828  53.589  -8.708  1.00  0.00     0.021 A 
HETATM   19  C25 UNL     1       1.854  54.454  -9.433  1.00  0.00    -0.027 A 
HETATM   20  C26 UNL     1       2.002  55.910  -8.982  1.00  0.00     0.011 C 
HETATM   21  C27 UNL     1       3.253  56.277  -8.166  1.00  0.00     0.011 C 
HETATM   22  C28 UNL     1       4.366  55.219  -8.168  1.00  0.00    -0.032 C 
HETATM   23  C29 UNL     1       4.059  54.204  -7.026  1.00  0.00     0.016 C 
ENDROOT
BRANCH   1  24
HETATM   24  C6  UNL     1       6.368  56.146  -6.588  1.00  0.00    -0.011 C 
HETATM   25  C7  UNL     1       6.068  57.615  -6.263  1.00  0.00     0.010 C 
BRANCH  24  26
HETATM   26  C5  UNL     1       7.898  55.888  -6.502  1.00  0.00     0.040 C 
BRANCH  26  27
HETATM   27  C4  UNL     1       8.414  55.258  -5.195  1.00  0.00     0.142 C 
BRANCH  27  28
HETATM   28  C3  UNL     1       9.862  55.547  -4.918  1.00  0.00     0.018 C 
HETATM   29  C2  UNL     1      10.482  56.742  -4.786  1.00  0.00     0.010 C 
HETATM   30  C1  UNL     1       9.834  58.085  -4.961  1.00  0.00     0.055 C 
BRANCH  29  31
HETATM   31  C30 UNL     1      11.931  56.813  -4.461  1.00  0.00     0.171 C 
HETATM   32  O3  UNL     1      12.418  57.420  -3.524  1.00  0.00    -0.646 OA
BRANCH  31  33
HETATM   33  O4  UNL     1      12.717  56.132  -5.314  1.00  0.00    -0.773 OA
HETATM   34  H46 UNL     1      13.618  56.277  -4.956  1.00  0.00     0.167 HD
ENDBRANCH  31  33
ENDBRANCH  29  31
ENDBRANCH  27  28
BRANCH  27  35
HETATM   35  O1  UNL     1       7.622  55.723  -4.105  1.00  0.00    -0.392 OA
HETATM   36  H6  UNL     1       6.702  55.467  -4.287  1.00  0.00     0.210 HD
ENDBRANCH  27  35
ENDBRANCH  26  27
ENDBRANCH  24  26
ENDBRANCH   1  24
TORSDOF 7
ENDMDL
MODEL 2
REMARK minimizedAffinity -7.9948082
REMARK CNNscore 0.635613739
REMARK CNNaffinity 6.10125113
REMARK  7 active torsions:
REMARK  status: ('A' for Active; 'I' for Inactive)
REMARK    1  A    between atoms: C2_2  and  C30_32 
REMARK    2  A    between atoms: C3_3  and  C4_4 
REMARK    3  A    between atoms: C4_4  and  O1_5 
REMARK    4  A    between atoms: C4_4  and  C5_6 
REMARK    5  A    between atoms: C5_6  and  C6_7 
REMARK    6  A    between atoms: C6_7  and  C8_9 
REMARK    7  A    between atoms: C30_32  and  O4_34 
ROOT
HETATM    1  C8  UNL     1     -12.865  45.702 -27.543  1.00  0.00    -0.002 C 
HETATM    2  C9  UNL     1     -13.339  44.993 -28.845  1.00  0.00     0.006 C 
HETATM    3  C10 UNL     1     -12.152  44.967 -29.823  1.00  0.00     0.011 C 
HETATM    4  C11 UNL     1     -10.929  45.373 -28.979  1.00  0.00    -0.032 C 
HETATM    5  C12 UNL     1     -10.430  44.073 -28.272  1.00  0.00     0.016 C 
HETATM    6  C13 UNL     1      -9.782  46.023 -29.799  1.00  0.00     0.004 C 
HETATM    7  C14 UNL     1      -9.005  45.032 -30.680  1.00  0.00     0.007 C 
HETATM    8  C15 UNL     1      -7.975  45.780 -31.520  1.00  0.00     0.007 C 
HETATM    9  C16 UNL     1      -6.855  46.343 -30.632  1.00  0.00     0.010 C 
HETATM   10  C17 UNL     1      -5.748  47.155 -31.384  1.00  0.00     0.018 C 
HETATM   11  C18 UNL     1      -4.533  46.243 -31.660  1.00  0.00     0.023 C 
HETATM   12  C19 UNL     1      -6.230  47.728 -32.735  1.00  0.00     0.023 C 
HETATM   13  C20 UNL     1      -5.226  48.332 -30.538  1.00  0.00     0.135 C 
HETATM   14  O2  UNL     1      -4.767  49.352 -31.067  1.00  0.00    -0.297 OA
HETATM   15  C21 UNL     1      -5.150  48.194 -29.032  1.00  0.00     0.080 C 
HETATM   16  C22 UNL     1      -6.240  47.321 -28.425  1.00  0.00     0.018 C 
HETATM   17  C23 UNL     1      -7.372  47.094 -29.405  1.00  0.00    -0.026 A 
HETATM   18  C24 UNL     1      -8.390  48.194 -29.532  1.00  0.00     0.021 A 
HETATM   19  C25 UNL     1      -8.827  46.869 -28.918  1.00  0.00    -0.027 A 
HETATM   20  C26 UNL     1      -9.074  46.832 -27.406  1.00  0.00     0.011 C 
HETATM   21  C27 UNL     1     -10.533  46.775 -26.926  1.00  0.00     0.011 C 
HETATM   22  C28 UNL     1     -11.565  46.440 -28.013  1.00  0.00    -0.032 C 
HETATM   23  C29 UNL     1     -11.967  47.773 -28.713  1.00  0.00     0.016 C 
ENDROOT
BRANCH   1  24
HETATM   24  C6  UNL     1     -14.015  46.497 -26.849  1.00  0.00    -0.011 C 
HETATM   25  C7  UNL     1     -13.707  46.775 -25.372  1.00  0.00     0.010 C 
BRANCH  24  26
HETATM   26  C5  UNL     1     -15.354  45.718 -26.971  1.00  0.00     0.040 C 
BRANCH  26  27
HETATM   27  C4  UNL     1     -15.825  44.963 -25.716  1.00  0.00     0.142 C 
BRANCH  27  28
HETATM   28  C3  UNL     1     -17.097  45.503 -25.128  1.00  0.00     0.018 C 
HETATM   29  C2  UNL     1     -18.351  45.467 -25.633  1.00  0.00     0.010 C 
HETATM   30  C1  UNL     1     -18.736  44.910 -26.972  1.00  0.00     0.055 C 
BRANCH  29  31
HETATM   31  C30 UNL     1     -19.496  46.024 -24.863  1.00  0.00     0.171 C 
HETATM   32  O3  UNL     1     -20.365  45.370 -24.313  1.00  0.00    -0.646 OA
BRANCH  31  33
HETATM   33  O4  UNL     1     -19.518  47.367 -24.810  1.00  0.00    -0.773 OA
HETATM   34  H46 UNL     1     -20.314  47.559 -24.273  1.00  0.00     0.167 HD
ENDBRANCH  31  33
ENDBRANCH  29  31
ENDBRANCH  27  28
BRANCH  27  35
HETATM   35  O1  UNL     1     -16.000  43.585 -26.034  1.00  0.00    -0.392 OA
HETATM   36  H6  UNL     1     -15.145  43.252 -26.354  1.00  0.00     0.210 HD
ENDBRANCH  27  35
ENDBRANCH  26  27
ENDBRANCH  24  26
ENDBRANCH   1  24
TORSDOF 7
ENDMDL
MODEL 3
REMARK minimizedAffinity -7.42202616
REMARK CNNscore 0.555252492
REMARK CNNaffinity 6.94994688
REMARK  7 active torsions:
REMARK  status: ('A' for Active; 'I' for Inactive)
REMARK    1  A    between atoms: C2_2  and  C30_32 
REMARK    2  A    between atoms: C3_3  and  C4_4 
REMARK    3  A    between atoms: C4_4  and  O1_5 
REMARK    4  A    between atoms: C4_4  and  C5_6 
REMARK    5  A    between atoms: C5_6  and  C6_7 
REMARK    6  A    between atoms: C6_7  and  C8_9 
REMARK    7  A    between atoms: C30_32  and  O4_34 
ROOT
HETATM    1  C8  UNL     1      -1.380  52.562 -11.365  1.00  0.00    -0.002 C 
HETATM    2  C9  UNL     1      -2.492  52.490 -10.278  1.00  0.00     0.006 C 
HETATM    3  C10 UNL     1      -2.034  53.342  -9.082  1.00  0.00     0.011 C 
HETATM    4  C11 UNL     1      -0.824  54.142  -9.601  1.00  0.00    -0.032 C 
HETATM    5  C12 UNL     1      -1.403  55.397 -10.326  1.00  0.00     0.016 C 
HETATM    6  C13 UNL     1       0.177  54.566  -8.491  1.00  0.00     0.004 C 
HETATM    7  C14 UNL     1      -0.340  55.692  -7.582  1.00  0.00     0.007 C 
HETATM    8  C15 UNL     1       0.665  55.962  -6.467  1.00  0.00     0.007 C 
HETATM    9  C16 UNL     1       1.948  56.590  -7.033  1.00  0.00     0.010 C 
HETATM   10  C17 UNL     1       3.067  56.891  -5.979  1.00  0.00     0.018 C 
HETATM   11  C18 UNL     1       2.997  58.374  -5.558  1.00  0.00     0.023 C 
HETATM   12  C19 UNL     1       2.947  56.027  -4.705  1.00  0.00     0.023 C 
HETATM   13  C20 UNL     1       4.477  56.670  -6.562  1.00  0.00     0.135 C 
HETATM   14  O2  UNL     1       5.430  56.357  -5.839  1.00  0.00    -0.297 OA
HETATM   15  C21 UNL     1       4.735  56.965  -8.025  1.00  0.00     0.080 C 
HETATM   16  C22 UNL     1       3.547  56.700  -8.939  1.00  0.00     0.018 C 
HETATM   17  C23 UNL     1       2.502  55.849  -8.250  1.00  0.00    -0.026 A 
HETATM   18  C24 UNL     1       2.748  54.366  -8.218  1.00  0.00     0.021 A 
HETATM   19  C25 UNL     1       1.585  54.891  -9.053  1.00  0.00    -0.027 A 
HETATM   20  C26 UNL     1       1.737  54.871 -10.578  1.00  0.00     0.011 C 
HETATM   21  C27 UNL     1       0.949  53.806 -11.357  1.00  0.00     0.011 C 
HETATM   22  C28 UNL     1      -0.147  53.089 -10.554  1.00  0.00    -0.032 C 
HETATM   23  C29 UNL     1       0.516  51.890  -9.811  1.00  0.00     0.016 C 
ENDROOT
BRANCH   1  24
HETATM   24  C6  UNL     1      -1.274  51.243 -12.192  1.00  0.00    -0.011 C 
HETATM   25  C7  UNL     1      -1.971  50.071 -11.488  1.00  0.00     0.010 C 
BRANCH  24  26
HETATM   26  C5  UNL     1       0.217  50.891 -12.451  1.00  0.00     0.040 C 
BRANCH  26  27
HETATM   27  C4  UNL     1       0.522  50.104 -13.738  1.00  0.00     0.142 C 
BRANCH  27  28
HETATM   28  C3  UNL     1       0.740  50.977 -14.942  1.00  0.00     0.018 C 
HETATM   29  C2  UNL     1       1.834  51.692 -15.289  1.00  0.00     0.010 C 
HETATM   30  C1  UNL     1       3.089  51.815 -14.475  1.00  0.00     0.055 C 
BRANCH  29  31
HETATM   31  C30 UNL     1       1.865  52.463 -16.560  1.00  0.00     0.171 C 
HETATM   32  O3  UNL     1       1.108  52.306 -17.502  1.00  0.00    -0.646 OA
BRANCH  31  33
HETATM   33  O4  UNL     1       2.834  53.393 -16.613  1.00  0.00    -0.773 OA
HETATM   34  H46 UNL     1       2.708  53.801 -17.495  1.00  0.00     0.167 HD
ENDBRANCH  31  33
ENDBRANCH  29  31
ENDBRANCH  27  28
BRANCH  27  35
HETATM   35  O1  UNL     1       1.674  49.292 -13.530  1.00  0.00    -0.392 OA
HETATM   36  H6  UNL     1       1.479  48.699 -12.785  1.00  0.00     0.210 HD
ENDBRANCH  27  35
ENDBRANCH  26  27
ENDBRANCH  24  26
ENDBRANCH   1  24
TORSDOF 7
ENDMDL
MODEL 4
REMARK minimizedAffinity -7.82495451
REMARK CNNscore 0.525506377
REMARK CNNaffinity 6.72060013
REMARK  7 active torsions:
REMARK  status: ('A' for Active; 'I' for Inactive)
REMARK    1  A    between atoms: C2_2  and  C30_32 
REMARK    2  A    between atoms: C3_3  and  C4_4 
REMARK    3  A    between atoms: C4_4  and  O1_5 
REMARK    4  A    between atoms: C4_4  and  C5_6 
REMARK    5  A    between atoms: C5_6  and  C6_7 
REMARK    6  A    between atoms: C6_7  and  C8_9 
REMARK    7  A    between atoms: C30_32  and  O4_34 
ROOT
HETATM    1  C8  UNL     1       1.888  53.671 -11.052  1.00  0.00    -0.002 C 
HETATM    2  C9  UNL     1       0.738  54.669 -10.731  1.00  0.00     0.006 C 
HETATM    3  C10 UNL     1       1.268  55.676  -9.696  1.00  0.00     0.011 C 
HETATM    4  C11 UNL     1       2.792  55.448  -9.660  1.00  0.00    -0.032 C 
HETATM    5  C12 UNL     1       3.389  56.281 -10.838  1.00  0.00     0.016 C 
HETATM    6  C13 UNL     1       3.459  55.847  -8.315  1.00  0.00     0.004 C 
HETATM    7  C14 UNL     1       3.552  57.365  -8.090  1.00  0.00     0.007 C 
HETATM    8  C15 UNL     1       4.123  57.651  -6.705  1.00  0.00     0.007 C 
HETATM    9  C16 UNL     1       5.601  57.239  -6.632  1.00  0.00     0.010 C 
HETATM   10  C17 UNL     1       6.291  57.465  -5.244  1.00  0.00     0.018 C 
HETATM   11  C18 UNL     1       7.070  58.798  -5.262  1.00  0.00     0.023 C 
HETATM   12  C19 UNL     1       5.288  57.515  -4.071  1.00  0.00     0.023 C 
HETATM   13  C20 UNL     1       7.321  56.362  -4.930  1.00  0.00     0.135 C 
HETATM   14  O2  UNL     1       7.594  56.049  -3.765  1.00  0.00    -0.297 OA
HETATM   15  C21 UNL     1       8.113  55.736  -6.060  1.00  0.00     0.080 C 
HETATM   16  C22 UNL     1       7.357  55.638  -7.378  1.00  0.00     0.018 C 
HETATM   17  C23 UNL     1       5.870  55.836  -7.175  1.00  0.00    -0.026 A 
HETATM   18  C24 UNL     1       5.087  54.646  -6.692  1.00  0.00     0.021 A 
HETATM   19  C25 UNL     1       4.832  55.157  -8.107  1.00  0.00    -0.027 A 
HETATM   20  C26 UNL     1       5.364  54.318  -9.273  1.00  0.00     0.011 C 
HETATM   21  C27 UNL     1       4.343  53.513 -10.092  1.00  0.00     0.011 C 
HETATM   22  C28 UNL     1       2.873  53.889  -9.853  1.00  0.00    -0.032 C 
HETATM   23  C29 UNL     1       2.365  53.068  -8.629  1.00  0.00     0.016 C 
ENDROOT
BRANCH   1  24
HETATM   24  C6  UNL     1       1.355  52.241 -11.384  1.00  0.00    -0.011 C 
HETATM   25  C7  UNL     1       2.425  51.377 -12.065  1.00  0.00     0.010 C 
BRANCH  24  26
HETATM   26  C5  UNL     1       0.097  52.336 -12.291  1.00  0.00     0.040 C 
BRANCH  26  27
HETATM   27  C4  UNL     1       0.271  51.891 -13.754  1.00  0.00     0.142 C 
BRANCH  27  28
HETATM   28  C3  UNL     1      -1.020  51.535 -14.434  1.00  0.00     0.018 C 
HETATM   29  C2  UNL     1      -1.239  50.653 -15.436  1.00  0.00     0.010 C 
HETATM   30  C1  UNL     1      -0.183  49.860 -16.147  1.00  0.00     0.055 C 
BRANCH  29  31
HETATM   31  C30 UNL     1      -2.616  50.409 -15.943  1.00  0.00     0.171 C 
HETATM   32  O3  UNL     1      -3.224  51.128 -16.717  1.00  0.00    -0.646 OA
BRANCH  31  33
HETATM   33  O4  UNL     1      -3.184  49.286 -15.468  1.00  0.00    -0.773 OA
HETATM   34  H46 UNL     1      -4.063  49.278 -15.899  1.00  0.00     0.167 HD
ENDBRANCH  31  33
ENDBRANCH  29  31
ENDBRANCH  27  28
BRANCH  27  35
HETATM   35  O1  UNL     1       0.921  52.926 -14.486  1.00  0.00    -0.392 OA
HETATM   36  H6  UNL     1       1.777  53.090 -14.056  1.00  0.00     0.210 HD
ENDBRANCH  27  35
ENDBRANCH  26  27
ENDBRANCH  24  26
ENDBRANCH   1  24
TORSDOF 7
ENDMDL
MODEL 5
REMARK minimizedAffinity -7.64795208
REMARK CNNscore 0.516887546
REMARK CNNaffinity 6.02248383
REMARK  7 active torsions:
REMARK  status: ('A' for Active; 'I' for Inactive)
REMARK    1  A    between atoms: C2_2  and  C30_32 
REMARK    2  A    between atoms: C3_3  and  C4_4 
REMARK    3  A    between atoms: C4_4  and  O1_5 
REMARK    4  A    between atoms: C4_4  and  C5_6 
REMARK    5  A    between atoms: C5_6  and  C6_7 
REMARK    6  A    between atoms: C6_7  and  C8_9 
REMARK    7  A    between atoms: C30_32  and  O4_34 
ROOT
HETATM    1  C8  UNL     1     -13.970  45.382 -26.742  1.00  0.00    -0.002 C 
HETATM    2  C9  UNL     1     -13.151  44.612 -25.666  1.00  0.00     0.006 C 
HETATM    3  C10 UNL     1     -11.659  44.822 -25.974  1.00  0.00     0.011 C 
HETATM    4  C11 UNL     1     -11.622  45.951 -27.022  1.00  0.00    -0.032 C 
HETATM    5  C12 UNL     1     -11.691  47.293 -26.227  1.00  0.00     0.016 C 
HETATM    6  C13 UNL     1     -10.369  45.922 -27.939  1.00  0.00     0.004 C 
HETATM    7  C14 UNL     1      -9.072  46.358 -27.237  1.00  0.00     0.007 C 
HETATM    8  C15 UNL     1      -7.889  46.195 -28.186  1.00  0.00     0.007 C 
HETATM    9  C16 UNL     1      -7.971  47.211 -29.335  1.00  0.00     0.010 C 
HETATM   10  C17 UNL     1      -6.817  47.124 -30.390  1.00  0.00     0.018 C 
HETATM   11  C18 UNL     1      -5.734  48.175 -30.062  1.00  0.00     0.023 C 
HETATM   12  C19 UNL     1      -6.138  45.737 -30.431  1.00  0.00     0.023 C 
HETATM   13  C20 UNL     1      -7.316  47.441 -31.813  1.00  0.00     0.135 C 
HETATM   14  O2  UNL     1      -6.761  46.965 -32.811  1.00  0.00    -0.297 OA
HETATM   15  C21 UNL     1      -8.424  48.455 -32.007  1.00  0.00     0.080 C 
HETATM   16  C22 UNL     1      -9.445  48.495 -30.879  1.00  0.00     0.018 C 
HETATM   17  C23 UNL     1      -9.345  47.264 -30.004  1.00  0.00    -0.026 A 
HETATM   18  C24 UNL     1     -10.019  46.017 -30.507  1.00  0.00     0.021 A 
HETATM   19  C25 UNL     1     -10.585  46.697 -29.264  1.00  0.00    -0.027 A 
HETATM   20  C26 UNL     1     -11.908  47.455 -29.409  1.00  0.00     0.011 C 
HETATM   21  C27 UNL     1     -13.168  46.805 -28.816  1.00  0.00     0.011 C 
HETATM   22  C28 UNL     1     -12.908  45.625 -27.868  1.00  0.00    -0.032 C 
HETATM   23  C29 UNL     1     -12.791  44.336 -28.735  1.00  0.00     0.016 C 
ENDROOT
BRANCH   1  24
HETATM   24  C6  UNL     1     -15.323  44.677 -27.073  1.00  0.00    -0.011 C 
HETATM   25  C7  UNL     1     -15.659  44.761 -28.568  1.00  0.00     0.010 C 
BRANCH  24  26
HETATM   26  C5  UNL     1     -16.473  45.305 -26.238  1.00  0.00     0.040 C 
BRANCH  26  27
HETATM   27  C4  UNL     1     -17.862  44.659 -26.389  1.00  0.00     0.142 C 
BRANCH  27  28
HETATM   28  C3  UNL     1     -18.562  44.421 -25.081  1.00  0.00     0.018 C 
HETATM   29  C2  UNL     1     -19.114  45.320 -24.235  1.00  0.00     0.010 C 
HETATM   30  C1  UNL     1     -19.085  46.811 -24.405  1.00  0.00     0.055 C 
BRANCH  29  31
HETATM   31  C30 UNL     1     -19.810  44.872 -22.999  1.00  0.00     0.171 C 
HETATM   32  O3  UNL     1     -19.468  45.131 -21.859  1.00  0.00    -0.646 OA
BRANCH  31  33
HETATM   33  O4  UNL     1     -20.899  44.116 -23.228  1.00  0.00    -0.773 OA
HETATM   34  H46 UNL     1     -21.230  43.918 -22.328  1.00  0.00     0.167 HD
ENDBRANCH  31  33
ENDBRANCH  29  31
ENDBRANCH  27  28
BRANCH  27  35
HETATM   35  O1  UNL     1     -18.677  45.484 -27.217  1.00  0.00    -0.392 OA
HETATM   36  H6  UNL     1     -18.225  45.569 -28.074  1.00  0.00     0.210 HD
ENDBRANCH  27  35
ENDBRANCH  26  27
ENDBRANCH  24  26
ENDBRANCH   1  24
TORSDOF 7
ENDMDL
MODEL 6
REMARK minimizedAffinity -7.64085817
REMARK CNNscore 0.495528817
REMARK CNNaffinity 6.29832983
REMARK  7 active torsions:
REMARK  status: ('A' for Active; 'I' for Inactive)
REMARK    1  A    between atoms: C2_2  and  C30_32 
REMARK    2  A    between atoms: C3_3  and  C4_4 
REMARK    3  A    between atoms: C4_4  and  O1_5 
REMARK    4  A    between atoms: C4_4  and  C5_6 
REMARK    5  A    between atoms: C5_6  and  C6_7 
REMARK    6  A    between atoms: C6_7  and  C8_9 
REMARK    7  A    between atoms: C30_32  and  O4_34 
ROOT
HETATM    1  C8  UNL     1      -9.580  45.084 -34.243  1.00  0.00    -0.002 C 
HETATM    2  C9  UNL     1      -8.245  44.304 -34.068  1.00  0.00     0.006 C 
HETATM    3  C10 UNL     1      -7.857  44.368 -32.581  1.00  0.00     0.011 C 
HETATM    4  C11 UNL     1      -9.110  44.907 -31.864  1.00  0.00    -0.032 C 
HETATM    5  C12 UNL     1     -10.037  43.676 -31.613  1.00  0.00     0.016 C 
HETATM    6  C13 UNL     1      -8.808  45.644 -30.531  1.00  0.00     0.004 C 
HETATM    7  C14 UNL     1      -8.394  44.711 -29.381  1.00  0.00     0.007 C 
HETATM    8  C15 UNL     1      -8.019  45.534 -28.153  1.00  0.00     0.007 C 
HETATM    9  C16 UNL     1      -9.259  46.219 -27.560  1.00  0.00     0.010 C 
HETATM   10  C17 UNL     1      -8.992  47.115 -26.303  1.00  0.00     0.018 C 
HETATM   11  C18 UNL     1      -9.306  46.316 -25.020  1.00  0.00     0.023 C 
HETATM   12  C19 UNL     1      -7.532  47.610 -26.212  1.00  0.00     0.023 C 
HETATM   13  C20 UNL     1      -9.907  48.355 -26.279  1.00  0.00     0.135 C 
HETATM   14  O2  UNL     1      -9.559  49.401 -25.718  1.00  0.00    -0.297 OA
HETATM   15  C21 UNL     1     -11.312  48.258 -26.836  1.00  0.00     0.080 C 
HETATM   16  C22 UNL     1     -11.457  47.300 -28.010  1.00  0.00     0.018 C 
HETATM   17  C23 UNL     1     -10.110  46.946 -28.601  1.00  0.00    -0.026 A 
HETATM   18  C24 UNL     1      -9.503  47.942 -29.551  1.00  0.00     0.021 A 
HETATM   19  C25 UNL     1      -9.956  46.595 -30.104  1.00  0.00    -0.027 A 
HETATM   20  C26 UNL     1     -11.224  46.569 -30.963  1.00  0.00     0.011 C 
HETATM   21  C27 UNL     1     -11.052  46.386 -32.479  1.00  0.00     0.011 C 
HETATM   22  C28 UNL     1      -9.655  45.930 -32.927  1.00  0.00    -0.032 C 
HETATM   23  C29 UNL     1      -8.772  47.203 -33.096  1.00  0.00     0.016 C 
ENDROOT
BRANCH   1  24
HETATM   24  C6  UNL     1      -9.680  45.783 -35.636  1.00  0.00    -0.011 C 
HETATM   25  C7  UNL     1      -8.653  46.914 -35.782  1.00  0.00     0.010 C 
BRANCH  24  26
HETATM   26  C5  UNL     1     -11.114  46.341 -35.854  1.00  0.00     0.040 C 
BRANCH  26  27
HETATM   27  C4  UNL     1     -11.923  45.721 -37.007  1.00  0.00     0.142 C 
BRANCH  27  28
HETATM   28  C3  UNL     1     -12.625  46.734 -37.865  1.00  0.00     0.018 C 
HETATM   29  C2  UNL     1     -13.594  47.613 -37.524  1.00  0.00     0.010 C 
HETATM   30  C1  UNL     1     -14.241  47.719 -36.174  1.00  0.00     0.055 C 
BRANCH  29  31
HETATM   31  C30 UNL     1     -14.131  48.576 -38.523  1.00  0.00     0.171 C 
HETATM   32  O3  UNL     1     -13.739  49.718 -38.687  1.00  0.00    -0.646 OA
BRANCH  31  33
HETATM   33  O4  UNL     1     -15.133  48.086 -39.273  1.00  0.00    -0.773 OA
HETATM   34  H46 UNL     1     -15.357  48.832 -39.866  1.00  0.00     0.167 HD
ENDBRANCH  31  33
ENDBRANCH  29  31
ENDBRANCH  27  28
BRANCH  27  35
HETATM   35  O1  UNL     1     -11.056  44.934 -37.820  1.00  0.00    -0.392 OA
HETATM   36  H6  UNL     1     -10.665  44.252 -37.248  1.00  0.00     0.210 HD
ENDBRANCH  27  35
ENDBRANCH  26  27
ENDBRANCH  24  26
ENDBRANCH   1  24
TORSDOF 7
ENDMDL
MODEL 7
REMARK minimizedAffinity -8.34025002
REMARK CNNscore 0.420444101
REMARK CNNaffinity 6.52579165
REMARK  7 active torsions:
REMARK  status: ('A' for Active; 'I' for Inactive)
REMARK    1  A    between atoms: C2_2  and  C30_32 
REMARK    2  A    between atoms: C3_3  and  C4_4 
REMARK    3  A    between atoms: C4_4  and  O1_5 
REMARK    4  A    between atoms: C4_4  and  C5_6 
REMARK    5  A    between atoms: C5_6  and  C6_7 
REMARK    6  A    between atoms: C6_7  and  C8_9 
REMARK    7  A    between atoms: C30_32  and  O4_34 
ROOT
HETATM    1  C8  UNL     1       2.515  53.301 -11.165  1.00  0.00    -0.002 C 
HETATM    2  C9  UNL     1       1.300  54.253 -10.966  1.00  0.00     0.006 C 
HETATM    3  C10 UNL     1       1.701  55.312  -9.925  1.00  0.00     0.011 C 
HETATM    4  C11 UNL     1       3.226  55.157  -9.764  1.00  0.00    -0.032 C 
HETATM    5  C12 UNL     1       3.877  55.983 -10.917  1.00  0.00     0.016 C 
HETATM    6  C13 UNL     1       3.767  55.624  -8.385  1.00  0.00     0.004 C 
HETATM    7  C14 UNL     1       3.774  57.150  -8.201  1.00  0.00     0.007 C 
HETATM    8  C15 UNL     1       4.220  57.500  -6.785  1.00  0.00     0.007 C 
HETATM    9  C16 UNL     1       5.705  57.161  -6.585  1.00  0.00     0.010 C 
HETATM   10  C17 UNL     1       6.272  57.457  -5.155  1.00  0.00     0.018 C 
HETATM   11  C18 UNL     1       6.990  58.824  -5.155  1.00  0.00     0.023 C 
HETATM   12  C19 UNL     1       5.179  57.493  -4.065  1.00  0.00     0.023 C 
HETATM   13  C20 UNL     1       7.322  56.413  -4.728  1.00  0.00     0.135 C 
HETATM   14  O2  UNL     1       7.517  56.146  -3.536  1.00  0.00    -0.297 OA
HETATM   15  C21 UNL     1       8.228  55.794  -5.773  1.00  0.00     0.080 C 
HETATM   16  C22 UNL     1       7.584  55.624  -7.142  1.00  0.00     0.018 C 
HETATM   17  C23 UNL     1       6.078  55.757  -7.061  1.00  0.00    -0.026 A 
HETATM   18  C24 UNL     1       5.313  54.546  -6.604  1.00  0.00     0.021 A 
HETATM   19  C25 UNL     1       5.148  55.005  -8.049  1.00  0.00    -0.027 A 
HETATM   20  C26 UNL     1       5.807  54.160  -9.143  1.00  0.00     0.011 C 
HETATM   21  C27 UNL     1       4.890  53.285 -10.014  1.00  0.00     0.011 C 
HETATM   22  C28 UNL     1       3.391  53.599  -9.901  1.00  0.00    -0.032 C 
HETATM   23  C29 UNL     1       2.826  52.789  -8.695  1.00  0.00     0.016 C 
ENDROOT
BRANCH   1  24
HETATM   24  C6  UNL     1       2.074  51.839 -11.493  1.00  0.00    -0.011 C 
HETATM   25  C7  UNL     1       1.115  51.281 -10.433  1.00  0.00     0.010 C 
BRANCH  24  26
HETATM   26  C5  UNL     1       3.320  50.919 -11.614  1.00  0.00     0.040 C 
BRANCH  26  27
HETATM   27  C4  UNL     1       3.567  50.278 -12.991  1.00  0.00     0.142 C 
BRANCH  27  28
HETATM   28  C3  UNL     1       3.447  51.242 -14.136  1.00  0.00     0.018 C 
HETATM   29  C2  UNL     1       2.427  51.403 -15.010  1.00  0.00     0.010 C 
HETATM   30  C1  UNL     1       1.179  50.572 -15.057  1.00  0.00     0.055 C 
BRANCH  29  31
HETATM   31  C30 UNL     1       2.484  52.460 -16.056  1.00  0.00     0.171 C 
HETATM   32  O3  UNL     1       3.432  52.681 -16.789  1.00  0.00    -0.646 OA
BRANCH  31  33
HETATM   33  O4  UNL     1       1.366  53.201 -16.146  1.00  0.00    -0.773 OA
HETATM   34  H46 UNL     1       1.569  53.829 -16.870  1.00  0.00     0.167 HD
ENDBRANCH  31  33
ENDBRANCH  29  31
ENDBRANCH  27  28
BRANCH  27  35
HETATM   35  O1  UNL     1       4.863  49.684 -13.008  1.00  0.00    -0.392 OA
HETATM   36  H6  UNL     1       4.887  49.024 -12.295  1.00  0.00     0.210 HD
ENDBRANCH  27  35
ENDBRANCH  26  27
ENDBRANCH  24  26
ENDBRANCH   1  24
TORSDOF 7
ENDMDL
MODEL 8
REMARK minimizedAffinity -8.37853909
REMARK CNNscore 0.328548461
REMARK CNNaffinity 6.70809889
REMARK  7 active torsions:
REMARK  status: ('A' for Active; 'I' for Inactive)
REMARK    1  A    between atoms: C2_2  and  C30_32 
REMARK    2  A    between atoms: C3_3  and  C4_4 
REMARK    3  A    between atoms: C4_4  and  O1_5 
REMARK    4  A    between atoms: C4_4  and  C5_6 
REMARK    5  A    between atoms: C5_6  and  C6_7 
REMARK    6  A    between atoms: C6_7  and  C8_9 
REMARK    7  A    between atoms: C30_32  and  O4_34 
ROOT
HETATM    1  C8  UNL     1      -3.467  48.409 -19.862  1.00  0.00    -0.002 C 
HETATM    2  C9  UNL     1      -2.146  48.625 -19.066  1.00  0.00     0.006 C 
HETATM    3  C10 UNL     1      -1.239  49.542 -19.905  1.00  0.00     0.011 C 
HETATM    4  C11 UNL     1      -2.149  50.096 -21.018  1.00  0.00    -0.032 C 
HETATM    5  C12 UNL     1      -2.896  51.323 -20.406  1.00  0.00     0.016 C 
HETATM    6  C13 UNL     1      -1.391  50.506 -22.309  1.00  0.00     0.004 C 
HETATM    7  C14 UNL     1      -0.566  51.795 -22.166  1.00  0.00     0.007 C 
HETATM    8  C15 UNL     1       0.220  52.054 -23.448  1.00  0.00     0.007 C 
HETATM    9  C16 UNL     1      -0.727  52.422 -24.600  1.00  0.00     0.010 C 
HETATM   10  C17 UNL     1      -0.032  52.689 -25.978  1.00  0.00     0.018 C 
HETATM   11  C18 UNL     1       0.164  54.207 -26.175  1.00  0.00     0.023 C 
HETATM   12  C19 UNL     1       1.350  52.010 -26.100  1.00  0.00     0.023 C 
HETATM   13  C20 UNL     1      -0.896  52.203 -27.158  1.00  0.00     0.135 C 
HETATM   14  O2  UNL     1      -0.385  51.850 -28.227  1.00  0.00    -0.297 OA
HETATM   15  C21 UNL     1      -2.406  52.281 -27.060  1.00  0.00     0.080 C 
HETATM   16  C22 UNL     1      -2.956  52.077 -25.655  1.00  0.00     0.018 C 
HETATM   17  C23 UNL     1      -1.914  51.470 -24.740  1.00  0.00    -0.026 A 
HETATM   18  C24 UNL     1      -1.718  49.982 -24.828  1.00  0.00     0.021 A 
HETATM   19  C25 UNL     1      -2.318  50.560 -23.551  1.00  0.00    -0.027 A 
HETATM   20  C26 UNL     1      -3.813  50.336 -23.302  1.00  0.00     0.011 C 
HETATM   21  C27 UNL     1      -4.208  49.305 -22.232  1.00  0.00     0.011 C 
HETATM   22  C28 UNL     1      -3.067  48.851 -21.311  1.00  0.00    -0.032 C 
HETATM   23  C29 UNL     1      -2.331  47.670 -22.013  1.00  0.00     0.016 C 
ENDROOT
BRANCH   1  24
HETATM   24  C6  UNL     1      -4.085  46.998 -19.611  1.00  0.00    -0.011 C 
HETATM   25  C7  UNL     1      -3.170  46.119 -18.749  1.00  0.00     0.010 C 
BRANCH  24  26
HETATM   26  C5  UNL     1      -4.373  46.291 -20.965  1.00  0.00     0.040 C 
BRANCH  26  27
HETATM   27  C4  UNL     1      -5.851  46.022 -21.297  1.00  0.00     0.142 C 
BRANCH  27  28
HETATM   28  C3  UNL     1      -6.117  44.623 -21.777  1.00  0.00     0.018 C 
HETATM   29  C2  UNL     1      -7.045  44.188 -22.659  1.00  0.00     0.010 C 
HETATM   30  C1  UNL     1      -8.087  45.041 -23.321  1.00  0.00     0.055 C 
BRANCH  29  31
HETATM   31  C30 UNL     1      -7.114  42.752 -23.041  1.00  0.00     0.171 C 
HETATM   32  O3  UNL     1      -7.042  41.810 -22.271  1.00  0.00    -0.646 OA
BRANCH  31  33
HETATM   33  O4  UNL     1      -7.266  42.543 -24.360  1.00  0.00    -0.773 OA
HETATM   34  H46 UNL     1      -7.298  41.566 -24.432  1.00  0.00     0.167 HD
ENDBRANCH  31  33
ENDBRANCH  29  31
ENDBRANCH  27  28
BRANCH  27  35
HETATM   35  O1  UNL     1      -6.647  46.284 -20.144  1.00  0.00    -0.392 OA
HETATM   36  H6  UNL     1      -6.498  47.212 -19.896  1.00  0.00     0.210 HD
ENDBRANCH  27  35
ENDBRANCH  26  27
ENDBRANCH  24  26
ENDBRANCH   1  24
TORSDOF 7
ENDMDL
MODEL 9
REMARK minimizedAffinity -7.36601782
REMARK CNNscore 0.315211415
REMARK CNNaffinity 6.29011011
REMARK  7 active torsions:
REMARK  status: ('A' for Active; 'I' for Inactive)
REMARK    1  A    between atoms: C2_2  and  C30_32 
REMARK    2  A    between atoms: C3_3  and  C4_4 
REMARK    3  A    between atoms: C4_4  and  O1_5 
REMARK    4  A    between atoms: C4_4  and  C5_6 
REMARK    5  A    between atoms: C5_6  and  C6_7 
REMARK    6  A    between atoms: C6_7  and  C8_9 
REMARK    7  A    between atoms: C30_32  and  O4_34 
ROOT
HETATM    1  C8  UNL     1       1.783  53.816 -10.900  1.00  0.00    -0.002 C 
HETATM    2  C9  UNL     1       0.695  54.884 -10.587  1.00  0.00     0.006 C 
HETATM    3  C10 UNL     1       1.293  55.880  -9.578  1.00  0.00     0.011 C 
HETATM    4  C11 UNL     1       2.801  55.568  -9.554  1.00  0.00    -0.032 C 
HETATM    5  C12 UNL     1       3.431  56.342 -10.755  1.00  0.00     0.016 C 
HETATM    6  C13 UNL     1       3.506  55.955  -8.226  1.00  0.00     0.004 C 
HETATM    7  C14 UNL     1       3.686  57.469  -8.032  1.00  0.00     0.007 C 
HETATM    8  C15 UNL     1       4.289  57.750  -6.659  1.00  0.00     0.007 C 
HETATM    9  C16 UNL     1       5.742  57.258  -6.594  1.00  0.00     0.010 C 
HETATM   10  C17 UNL     1       6.460  57.472  -5.218  1.00  0.00     0.018 C 
HETATM   11  C18 UNL     1       7.312  58.758  -5.272  1.00  0.00     0.023 C 
HETATM   12  C19 UNL     1       5.475  57.601  -4.035  1.00  0.00     0.023 C 
HETATM   13  C20 UNL     1       7.430  56.319  -4.893  1.00  0.00     0.135 C 
HETATM   14  O2  UNL     1       7.699  56.015  -3.725  1.00  0.00    -0.297 OA
HETATM   15  C21 UNL     1       8.172  55.627  -6.018  1.00  0.00     0.080 C 
HETATM   16  C22 UNL     1       7.397  55.546  -7.325  1.00  0.00     0.018 C 
HETATM   17  C23 UNL     1       5.926  55.831  -7.111  1.00  0.00    -0.026 A 
HETATM   18  C24 UNL     1       5.083  54.697  -6.596  1.00  0.00     0.021 A 
HETATM   19  C25 UNL     1       4.841  55.193  -8.017  1.00  0.00    -0.027 A 
HETATM   20  C26 UNL     1       5.311  54.303  -9.172  1.00  0.00     0.011 C 
HETATM   21  C27 UNL     1       4.236  53.540  -9.963  1.00  0.00     0.011 C 
HETATM   22  C28 UNL     1       2.793  54.003  -9.717  1.00  0.00    -0.032 C 
HETATM   23  C29 UNL     1       2.255  53.236  -8.471  1.00  0.00     0.016 C 
ENDROOT
BRANCH   1  24
HETATM   24  C6  UNL     1       1.168  52.413 -11.197  1.00  0.00    -0.011 C 
HETATM   25  C7  UNL     1       2.160  51.496 -11.925  1.00  0.00     0.010 C 
BRANCH  24  26
HETATM   26  C5  UNL     1      -0.128  52.564 -12.042  1.00  0.00     0.040 C 
BRANCH  26  27
HETATM   27  C4  UNL     1      -1.460  52.377 -11.294  1.00  0.00     0.142 C 
BRANCH  27  28
HETATM   28  C3  UNL     1      -1.343  52.535  -9.805  1.00  0.00     0.018 C 
HETATM   29  C2  UNL     1      -1.834  51.744  -8.823  1.00  0.00     0.010 C 
HETATM   30  C1  UNL     1      -2.687  50.527  -9.029  1.00  0.00     0.055 C 
BRANCH  29  31
HETATM   31  C30 UNL     1      -1.564  52.053  -7.394  1.00  0.00     0.171 C 
HETATM   32  O3  UNL     1      -1.352  53.163  -6.936  1.00  0.00    -0.646 OA
BRANCH  31  33
HETATM   33  O4  UNL     1      -1.564  50.974  -6.591  1.00  0.00    -0.773 OA
HETATM   34  H46 UNL     1      -1.380  51.351  -5.706  1.00  0.00     0.167 HD
ENDBRANCH  31  33
ENDBRANCH  29  31
ENDBRANCH  27  28
BRANCH  27  35
HETATM   35  O1  UNL     1      -2.415  53.310 -11.794  1.00  0.00    -0.392 OA
HETATM   36  H6  UNL     1      -2.511  53.141 -12.746  1.00  0.00     0.210 HD
ENDBRANCH  27  35
ENDBRANCH  26  27
ENDBRANCH  24  26
ENDBRANCH   1  24
TORSDOF 7
ENDMDL
