MODEL 1
REMARK minimizedAffinity -9.54060173
REMARK CNNscore 0.620877266
REMARK CNNaffinity 7.63604212
REMARK  13 active torsions:
REMARK  status: ('A' for Active; 'I' for Inactive)
REMARK    1  A    between atoms: C2_2  and  O2_4 
REMARK    2  A    between atoms: O2_4  and  C3_5 
REMARK    3  A    between atoms: C20_22  and  C21_23 
REMARK    4  A    between atoms: C21_23  and  C22_24 
REMARK    5  A    between atoms: C21_23  and  C28_31 
REMARK    6  A    between atoms: C22_24  and  C23_25 
REMARK    7  A    between atoms: C24_26  and  C25_27 
REMARK    8  A    between atoms: C25_27  and  O3_30 
REMARK    9  A    between atoms: C28_31  and  O5_33 
REMARK   10  A    between atoms: O5_33  and  C29_34 
REMARK   11  A    between atoms: C30_35  and  O6_36 
REMARK   12  A    between atoms: C31_37  and  O7_38 
REMARK   13  A    between atoms: C33_41  and  O9_42 
ROOT
HETATM    1  C3  UNL     1      -5.541   6.365  15.276  1.00  0.00     0.140 C 
HETATM    2  C4  UNL     1      -4.373   6.180  16.238  1.00  0.00     0.034 C 
HETATM    3  C5  UNL     1      -3.052   5.818  15.550  1.00  0.00     0.016 C 
HETATM    4  C6  UNL     1      -2.876   6.337  14.089  1.00  0.00    -0.016 C 
HETATM    5  C7  UNL     1      -3.315   5.237  13.088  1.00  0.00     0.020 C 
HETATM    6  C8  UNL     1      -1.377   6.630  13.788  1.00  0.00    -0.068 C 
HETATM    7  C9  UNL     1      -0.980   7.752  13.131  1.00  0.00    -0.068 C 
HETATM    8  C10 UNL     1      -1.933   8.810  12.616  1.00  0.00     0.036 C 
HETATM    9  C11 UNL     1      -3.398   8.396  12.649  1.00  0.00     0.011 C 
HETATM   10  C12 UNL     1      -3.721   7.655  13.957  1.00  0.00     0.008 C 
HETATM   11  C13 UNL     1      -5.265   7.512  14.247  1.00  0.00    -0.016 C 
HETATM   12  C14 UNL     1      -6.104   7.234  12.976  1.00  0.00     0.018 C 
HETATM   13  C15 UNL     1      -5.767   8.875  14.807  1.00  0.00     0.018 C 
HETATM   14  C16 UNL     1       0.508   8.052  12.963  1.00  0.00    -0.013 C 
HETATM   15  C17 UNL     1       0.902   8.839  14.253  1.00  0.00     0.021 C 
HETATM   16  C18 UNL     1       0.972   8.895  11.759  1.00  0.00     0.015 C 
HETATM   17  C19 UNL     1       2.459   8.542  11.579  1.00  0.00     0.007 C 
HETATM   18  C20 UNL     1       2.754   7.285  12.441  1.00  0.00     0.009 C 
HETATM   19  C34 UNL     1       1.316   6.726  12.708  1.00  0.00    -0.028 C 
HETATM   20  C35 UNL     1       0.828   5.929  11.454  1.00  0.00     0.016 C 
HETATM   21  C36 UNL     1       1.134   5.842  13.940  1.00  0.00     0.015 C 
HETATM   22  C37 UNL     1      -0.357   5.579  14.250  1.00  0.00     0.036 C 
ENDROOT
BRANCH  18  23
HETATM   23  C21 UNL     1       3.810   6.339  11.806  1.00  0.00     0.094 C 
BRANCH  23  24
HETATM   24  C22 UNL     1       3.330   5.580  10.542  1.00  0.00     0.042 C 
BRANCH  24  25
HETATM   25  C23 UNL     1       2.519   6.384   9.565  1.00  0.00    -0.027 C 
HETATM   26  C24 UNL     1       3.049   7.261   8.691  1.00  0.00     0.006 C 
BRANCH  26  27
HETATM   27  C25 UNL     1       2.306   8.082   7.656  1.00  0.00     0.068 C 
HETATM   28  C26 UNL     1       0.969   8.563   8.219  1.00  0.00     0.050 C 
HETATM   29  C27 UNL     1       2.086   7.263   6.381  1.00  0.00     0.050 C 
BRANCH  27  30
HETATM   30  O3  UNL     1       3.063   9.244   7.309  1.00  0.00    -0.387 OA
HETATM   31  H42 UNL     1       3.913   8.932   6.952  1.00  0.00     0.211 HD
ENDBRANCH  27  30
ENDBRANCH  26  27
ENDBRANCH  24  25
ENDBRANCH  23  24
BRANCH  23  32
HETATM   32  C28 UNL     1       5.069   7.082  11.392  1.00  0.00     0.264 C 
HETATM   33  O4  UNL     1       5.778   6.747  10.453  1.00  0.00    -0.265 OA
BRANCH  32  34
HETATM   34  O5  UNL     1       5.271   8.192  12.158  1.00  0.00    -0.308 OA
BRANCH  34  35
HETATM   35  C29 UNL     1       6.557   8.239  12.834  1.00  0.00     0.218 C 
HETATM   36  C30 UNL     1       6.283   7.926  14.309  1.00  0.00     0.183 C 
HETATM   37  C31 UNL     1       7.467   8.354  15.170  1.00  0.00     0.173 C 
HETATM   38  C32 UNL     1       7.729   9.854  15.012  1.00  0.00     0.205 C 
HETATM   39  O8  UNL     1       7.051  10.419  13.879  1.00  0.00    -0.356 OA
HETATM   40  C33 UNL     1       7.215   9.632  12.696  1.00  0.00     0.288 C 
BRANCH  36  41
HETATM   41  O6  UNL     1       6.076   6.515  14.495  1.00  0.00    -0.390 OA
HETATM   42  H45 UNL     1       5.171   6.407  14.855  1.00  0.00     0.210 HD
ENDBRANCH  36  41
BRANCH  37  43
HETATM   43  O7  UNL     1       7.209   8.037  16.539  1.00  0.00    -0.391 OA
HETATM   44  H47 UNL     1       7.010   7.080  16.550  1.00  0.00     0.210 HD
ENDBRANCH  37  43
BRANCH  40  45
HETATM   45  O9  UNL     1       8.602   9.502  12.405  1.00  0.00    -0.369 OA
HETATM   46  H51 UNL     1       8.836  10.299  11.898  1.00  0.00     0.212 HD
ENDBRANCH  40  45
ENDBRANCH  34  35
ENDBRANCH  32  34
ENDBRANCH  23  32
ENDBRANCH  18  23
BRANCH   1  47
HETATM   47  O2  UNL     1      -6.723   6.678  16.047  1.00  0.00    -0.316 OA
BRANCH  47  48
HETATM   48  C2  UNL     1      -7.833   5.910  15.842  1.00  0.00     0.255 C 
HETATM   49  C1  UNL     1      -9.052   6.784  15.845  1.00  0.00     0.126 C 
HETATM   50  O1  UNL     1      -7.847   4.699  15.682  1.00  0.00    -0.266 OA
ENDBRANCH  47  48
ENDBRANCH   1  47
TORSDOF 13
ENDMDL
MODEL 2
REMARK minimizedAffinity -9.47997379
REMARK CNNscore 0.524417818
REMARK CNNaffinity 7.57358789
REMARK  13 active torsions:
REMARK  status: ('A' for Active; 'I' for Inactive)
REMARK    1  A    between atoms: C2_2  and  O2_4 
REMARK    2  A    between atoms: O2_4  and  C3_5 
REMARK    3  A    between atoms: C20_22  and  C21_23 
REMARK    4  A    between atoms: C21_23  and  C22_24 
REMARK    5  A    between atoms: C21_23  and  C28_31 
REMARK    6  A    between atoms: C22_24  and  C23_25 
REMARK    7  A    between atoms: C24_26  and  C25_27 
REMARK    8  A    between atoms: C25_27  and  O3_30 
REMARK    9  A    between atoms: C28_31  and  O5_33 
REMARK   10  A    between atoms: O5_33  and  C29_34 
REMARK   11  A    between atoms: C30_35  and  O6_36 
REMARK   12  A    between atoms: C31_37  and  O7_38 
REMARK   13  A    between atoms: C33_41  and  O9_42 
ROOT
HETATM    1  C3  UNL     1      -6.816   7.079  14.446  1.00  0.00     0.140 C 
HETATM    2  C4  UNL     1      -6.215   8.170  13.567  1.00  0.00     0.034 C 
HETATM    3  C5  UNL     1      -4.685   8.241  13.622  1.00  0.00     0.016 C 
HETATM    4  C6  UNL     1      -3.947   6.904  13.941  1.00  0.00    -0.016 C 
HETATM    5  C7  UNL     1      -3.667   6.811  15.463  1.00  0.00     0.020 C 
HETATM    6  C8  UNL     1      -2.560   6.862  13.237  1.00  0.00    -0.068 C 
HETATM    7  C9  UNL     1      -2.111   5.751  12.594  1.00  0.00    -0.068 C 
HETATM    8  C10 UNL     1      -2.888   4.455  12.508  1.00  0.00     0.036 C 
HETATM    9  C11 UNL     1      -4.100   4.395  13.427  1.00  0.00     0.011 C 
HETATM   10  C12 UNL     1      -4.855   5.734  13.415  1.00  0.00     0.008 C 
HETATM   11  C13 UNL     1      -6.303   5.658  14.034  1.00  0.00    -0.016 C 
HETATM   12  C14 UNL     1      -6.392   4.734  15.274  1.00  0.00     0.018 C 
HETATM   13  C15 UNL     1      -7.243   5.034  12.961  1.00  0.00     0.018 C 
HETATM   14  C16 UNL     1      -0.796   5.796  11.820  1.00  0.00    -0.013 C 
HETATM   15  C17 UNL     1      -1.193   6.290  10.392  1.00  0.00     0.021 C 
HETATM   16  C18 UNL     1       0.015   4.497  11.641  1.00  0.00     0.015 C 
HETATM   17  C19 UNL     1       1.452   4.965  11.349  1.00  0.00     0.007 C 
HETATM   18  C20 UNL     1       1.532   6.480  11.683  1.00  0.00     0.009 C 
HETATM   19  C34 UNL     1       0.261   6.687  12.572  1.00  0.00    -0.028 C 
HETATM   20  C35 UNL     1       0.562   6.204  14.029  1.00  0.00     0.016 C 
HETATM   21  C36 UNL     1      -0.311   8.102  12.644  1.00  0.00     0.015 C 
HETATM   22  C37 UNL     1      -1.700   8.132  13.318  1.00  0.00     0.036 C 
ENDROOT
BRANCH  18  23
HETATM   23  C21 UNL     1       2.913   6.910  12.252  1.00  0.00     0.094 C 
BRANCH  23  24
HETATM   24  C22 UNL     1       4.090   6.819  11.248  1.00  0.00     0.042 C 
BRANCH  24  25
HETATM   25  C23 UNL     1       3.795   7.287   9.850  1.00  0.00    -0.027 C 
HETATM   26  C24 UNL     1       2.570   7.262   9.292  1.00  0.00     0.006 C 
BRANCH  26  27
HETATM   27  C25 UNL     1       2.186   7.743   7.907  1.00  0.00     0.068 C 
HETATM   28  C26 UNL     1       0.759   8.289   7.911  1.00  0.00     0.050 C 
HETATM   29  C27 UNL     1       2.323   6.607   6.889  1.00  0.00     0.050 C 
BRANCH  27  30
HETATM   30  O3  UNL     1       3.046   8.809   7.496  1.00  0.00    -0.387 OA
HETATM   31  H42 UNL     1       3.954   8.457   7.497  1.00  0.00     0.211 HD
ENDBRANCH  27  30
ENDBRANCH  26  27
ENDBRANCH  24  25
ENDBRANCH  23  24
BRANCH  23  32
HETATM   32  C28 UNL     1       2.903   8.345  12.753  1.00  0.00     0.264 C 
HETATM   33  O4  UNL     1       2.389   9.274  12.145  1.00  0.00    -0.265 OA
BRANCH  32  34
HETATM   34  O5  UNL     1       3.485   8.451  13.983  1.00  0.00    -0.308 OA
BRANCH  34  35
HETATM   35  C29 UNL     1       4.930   8.600  13.961  1.00  0.00     0.218 C 
HETATM   36  C30 UNL     1       5.439   8.090  15.313  1.00  0.00     0.183 C 
HETATM   37  C31 UNL     1       6.862   8.580  15.563  1.00  0.00     0.173 C 
HETATM   38  C32 UNL     1       6.911  10.110  15.549  1.00  0.00     0.205 C 
HETATM   39  O8  UNL     1       5.727  10.698  14.987  1.00  0.00    -0.356 OA
HETATM   40  C33 UNL     1       5.341  10.078  13.758  1.00  0.00     0.288 C 
BRANCH  36  41
HETATM   41  O6  UNL     1       5.447   6.652  15.339  1.00  0.00    -0.390 OA
HETATM   42  H45 UNL     1       4.845   6.379  16.063  1.00  0.00     0.210 HD
ENDBRANCH  36  41
BRANCH  37  43
HETATM   43  O7  UNL     1       7.334   8.080  16.815  1.00  0.00    -0.391 OA
HETATM   44  H47 UNL     1       7.231   7.109  16.761  1.00  0.00     0.210 HD
ENDBRANCH  37  43
BRANCH  40  45
HETATM   45  O9  UNL     1       6.409  10.176  12.824  1.00  0.00    -0.369 OA
HETATM   46  H51 UNL     1       6.309  11.050  12.406  1.00  0.00     0.212 HD
ENDBRANCH  40  45
ENDBRANCH  34  35
ENDBRANCH  32  34
ENDBRANCH  23  32
ENDBRANCH  18  23
BRANCH   1  47
HETATM   47  O2  UNL     1      -8.255   7.132  14.322  1.00  0.00    -0.316 OA
BRANCH  47  48
HETATM   48  C2  UNL     1      -8.947   7.812  15.282  1.00  0.00     0.255 C 
HETATM   49  C1  UNL     1      -8.480   7.373  16.638  1.00  0.00     0.126 C 
HETATM   50  O1  UNL     1      -9.815   8.650  15.084  1.00  0.00    -0.266 OA
ENDBRANCH  47  48
ENDBRANCH   1  47
TORSDOF 13
ENDMDL
MODEL 3
REMARK minimizedAffinity -7.62326002
REMARK CNNscore 0.335899115
REMARK CNNaffinity 7.02722549
REMARK  13 active torsions:
REMARK  status: ('A' for Active; 'I' for Inactive)
REMARK    1  A    between atoms: C2_2  and  O2_4 
REMARK    2  A    between atoms: O2_4  and  C3_5 
REMARK    3  A    between atoms: C20_22  and  C21_23 
REMARK    4  A    between atoms: C21_23  and  C22_24 
REMARK    5  A    between atoms: C21_23  and  C28_31 
REMARK    6  A    between atoms: C22_24  and  C23_25 
REMARK    7  A    between atoms: C24_26  and  C25_27 
REMARK    8  A    between atoms: C25_27  and  O3_30 
REMARK    9  A    between atoms: C28_31  and  O5_33 
REMARK   10  A    between atoms: O5_33  and  C29_34 
REMARK   11  A    between atoms: C30_35  and  O6_36 
REMARK   12  A    between atoms: C31_37  and  O7_38 
REMARK   13  A    between atoms: C33_41  and  O9_42 
ROOT
HETATM    1  C3  UNL     1      -3.709   6.208  13.865  1.00  0.00     0.140 C 
HETATM    2  C4  UNL     1      -2.650   5.800  14.883  1.00  0.00     0.034 C 
HETATM    3  C5  UNL     1      -1.635   6.903  15.200  1.00  0.00     0.016 C 
HETATM    4  C6  UNL     1      -2.144   8.369  15.046  1.00  0.00    -0.016 C 
HETATM    5  C7  UNL     1      -1.784   8.902  13.635  1.00  0.00     0.020 C 
HETATM    6  C8  UNL     1      -1.433   9.308  16.064  1.00  0.00    -0.068 C 
HETATM    7  C9  UNL     1      -2.111  10.246  16.776  1.00  0.00    -0.068 C 
HETATM    8  C10 UNL     1      -3.601  10.487  16.649  1.00  0.00     0.036 C 
HETATM    9  C11 UNL     1      -4.245   9.783  15.463  1.00  0.00     0.011 C 
HETATM   10  C12 UNL     1      -3.692   8.355  15.316  1.00  0.00     0.008 C 
HETATM   11  C13 UNL     1      -4.547   7.434  14.363  1.00  0.00    -0.016 C 
HETATM   12  C14 UNL     1      -5.098   8.178  13.123  1.00  0.00     0.018 C 
HETATM   13  C15 UNL     1      -5.790   6.949  15.166  1.00  0.00     0.018 C 
HETATM   14  C16 UNL     1      -1.390  11.062  17.846  1.00  0.00    -0.013 C 
HETATM   15  C17 UNL     1      -1.501  10.200  19.144  1.00  0.00     0.021 C 
HETATM   16  C18 UNL     1      -1.909  12.471  18.193  1.00  0.00     0.015 C 
HETATM   17  C19 UNL     1      -0.707  13.189  18.831  1.00  0.00     0.007 C 
HETATM   18  C20 UNL     1       0.557  12.332  18.554  1.00  0.00     0.009 C 
HETATM   19  C34 UNL     1       0.076  11.406  17.388  1.00  0.00    -0.028 C 
HETATM   20  C35 UNL     1       0.140  12.194  16.039  1.00  0.00     0.016 C 
HETATM   21  C36 UNL     1       0.814  10.081  17.205  1.00  0.00     0.015 C 
HETATM   22  C37 UNL     1       0.087   9.143  16.216  1.00  0.00     0.036 C 
ENDROOT
BRANCH  18  23
HETATM   23  C21 UNL     1       1.841  13.181  18.343  1.00  0.00     0.094 C 
BRANCH  23  24
HETATM   24  C22 UNL     1       1.690  14.687  18.680  1.00  0.00     0.042 C 
BRANCH  24  25
HETATM   25  C23 UNL     1       1.864  15.635  17.527  1.00  0.00    -0.027 C 
HETATM   26  C24 UNL     1       1.340  15.436  16.303  1.00  0.00     0.006 C 
BRANCH  26  27
HETATM   27  C25 UNL     1       1.442  16.356  15.103  1.00  0.00     0.068 C 
HETATM   28  C26 UNL     1       2.813  17.030  15.066  1.00  0.00     0.050 C 
HETATM   29  C27 UNL     1       0.330  17.407  15.139  1.00  0.00     0.050 C 
BRANCH  27  30
HETATM   30  O3  UNL     1       1.304  15.609  13.892  1.00  0.00    -0.387 OA
HETATM   31  H42 UNL     1       0.430  15.181  13.921  1.00  0.00     0.211 HD
ENDBRANCH  27  30
ENDBRANCH  26  27
ENDBRANCH  24  25
ENDBRANCH  23  24
BRANCH  23  32
HETATM   32  C28 UNL     1       3.003  12.682  19.185  1.00  0.00     0.264 C 
HETATM   33  O4  UNL     1       4.142  12.547  18.760  1.00  0.00    -0.265 OA
BRANCH  32  34
HETATM   34  O5  UNL     1       2.627  12.460  20.478  1.00  0.00    -0.308 OA
BRANCH  34  35
HETATM   35  C29 UNL     1       3.367  11.408  21.155  1.00  0.00     0.218 C 
HETATM   36  C30 UNL     1       2.454  10.177  21.170  1.00  0.00     0.183 C 
HETATM   37  C31 UNL     1       2.944   9.167  22.202  1.00  0.00     0.173 C 
HETATM   38  C32 UNL     1       2.968   9.795  23.597  1.00  0.00     0.205 C 
HETATM   39  O8  UNL     1       2.858  11.227  23.563  1.00  0.00    -0.356 OA
HETATM   40  C33 UNL     1       3.736  11.818  22.600  1.00  0.00     0.288 C 
BRANCH  36  41
HETATM   41  O6  UNL     1       2.447   9.538  19.881  1.00  0.00    -0.390 OA
HETATM   42  H45 UNL     1       1.522   9.561  19.560  1.00  0.00     0.210 HD
ENDBRANCH  36  41
BRANCH  37  43
HETATM   43  O7  UNL     1       2.100   8.014  22.191  1.00  0.00    -0.391 OA
HETATM   44  H47 UNL     1       2.102   7.700  21.266  1.00  0.00     0.210 HD
ENDBRANCH  37  43
BRANCH  40  45
HETATM   45  O9  UNL     1       5.078  11.452  22.897  1.00  0.00    -0.369 OA
HETATM   46  H51 UNL     1       5.383  12.096  23.559  1.00  0.00     0.212 HD
ENDBRANCH  40  45
ENDBRANCH  34  35
ENDBRANCH  32  34
ENDBRANCH  23  32
ENDBRANCH  18  23
BRANCH   1  47
HETATM   47  O2  UNL     1      -4.584   5.080  13.639  1.00  0.00    -0.316 OA
BRANCH  47  48
HETATM   48  C2  UNL     1      -4.457   4.409  12.457  1.00  0.00     0.255 C 
HETATM   49  C1  UNL     1      -5.736   3.686  12.154  1.00  0.00     0.126 C 
HETATM   50  O1  UNL     1      -3.464   4.391  11.745  1.00  0.00    -0.266 OA
ENDBRANCH  47  48
ENDBRANCH   1  47
TORSDOF 13
ENDMDL
MODEL 4
REMARK minimizedAffinity -7.7504158
REMARK CNNscore 0.311476678
REMARK CNNaffinity 6.12903833
REMARK  13 active torsions:
REMARK  status: ('A' for Active; 'I' for Inactive)
REMARK    1  A    between atoms: C2_2  and  O2_4 
REMARK    2  A    between atoms: O2_4  and  C3_5 
REMARK    3  A    between atoms: C20_22  and  C21_23 
REMARK    4  A    between atoms: C21_23  and  C22_24 
REMARK    5  A    between atoms: C21_23  and  C28_31 
REMARK    6  A    between atoms: C22_24  and  C23_25 
REMARK    7  A    between atoms: C24_26  and  C25_27 
REMARK    8  A    between atoms: C25_27  and  O3_30 
REMARK    9  A    between atoms: C28_31  and  O5_33 
REMARK   10  A    between atoms: O5_33  and  C29_34 
REMARK   11  A    between atoms: C30_35  and  O6_36 
REMARK   12  A    between atoms: C31_37  and  O7_38 
REMARK   13  A    between atoms: C33_41  and  O9_42 
ROOT
HETATM    1  C3  UNL     1       7.509  17.299  23.157  1.00  0.00     0.140 C 
HETATM    2  C4  UNL     1       6.037  17.403  23.539  1.00  0.00     0.034 C 
HETATM    3  C5  UNL     1       5.106  16.559  22.663  1.00  0.00     0.016 C 
HETATM    4  C6  UNL     1       5.731  15.274  22.037  1.00  0.00    -0.016 C 
HETATM    5  C7  UNL     1       6.247  15.588  20.608  1.00  0.00     0.020 C 
HETATM    6  C8  UNL     1       4.656  14.160  21.880  1.00  0.00    -0.068 C 
HETATM    7  C9  UNL     1       4.905  12.866  22.210  1.00  0.00    -0.068 C 
HETATM    8  C10 UNL     1       6.234  12.372  22.742  1.00  0.00     0.036 C 
HETATM    9  C11 UNL     1       7.365  13.385  22.626  1.00  0.00     0.011 C 
HETATM   10  C12 UNL     1       6.871  14.792  23.004  1.00  0.00     0.008 C 
HETATM   11  C13 UNL     1       8.031  15.827  23.269  1.00  0.00    -0.016 C 
HETATM   12  C14 UNL     1       9.230  15.665  22.302  1.00  0.00     0.018 C 
HETATM   13  C15 UNL     1       8.588  15.557  24.698  1.00  0.00     0.018 C 
HETATM   14  C16 UNL     1       3.783  11.832  22.149  1.00  0.00    -0.013 C 
HETATM   15  C17 UNL     1       3.096  11.909  23.549  1.00  0.00     0.021 C 
HETATM   16  C18 UNL     1       4.138  10.353  21.900  1.00  0.00     0.015 C 
HETATM   17  C19 UNL     1       2.844   9.722  21.355  1.00  0.00     0.007 C 
HETATM   18  C20 UNL     1       1.875  10.878  20.985  1.00  0.00     0.009 C 
HETATM   19  C34 UNL     1       2.841  12.107  20.919  1.00  0.00    -0.028 C 
HETATM   20  C35 UNL     1       3.590  12.105  19.546  1.00  0.00     0.016 C 
HETATM   21  C36 UNL     1       2.221  13.488  21.126  1.00  0.00     0.015 C 
HETATM   22  C37 UNL     1       3.294  14.584  21.310  1.00  0.00     0.036 C 
ENDROOT
BRANCH  18  23
HETATM   23  C21 UNL     1       0.990  10.565  19.748  1.00  0.00     0.094 C 
BRANCH  23  24
HETATM   24  C22 UNL     1      -0.333  11.369  19.671  1.00  0.00     0.042 C 
BRANCH  24  25
HETATM   25  C23 UNL     1      -1.406  10.781  18.798  1.00  0.00    -0.027 C 
HETATM   26  C24 UNL     1      -2.117  11.489  17.901  1.00  0.00     0.006 C 
BRANCH  26  27
HETATM   27  C25 UNL     1      -3.189  10.966  16.965  1.00  0.00     0.068 C 
HETATM   28  C26 UNL     1      -2.556  10.424  15.683  1.00  0.00     0.050 C 
HETATM   29  C27 UNL     1      -4.200  12.069  16.639  1.00  0.00     0.050 C 
BRANCH  27  30
HETATM   30  O3  UNL     1      -3.898   9.885  17.577  1.00  0.00    -0.387 OA
HETATM   31  H42 UNL     1      -4.298  10.235  18.393  1.00  0.00     0.211 HD
ENDBRANCH  27  30
ENDBRANCH  26  27
ENDBRANCH  24  25
ENDBRANCH  23  24
BRANCH  23  32
HETATM   32  C28 UNL     1       1.717  10.833  18.441  1.00  0.00     0.264 C 
HETATM   33  O4  UNL     1       1.750  11.927  17.894  1.00  0.00    -0.265 OA
BRANCH  32  34
HETATM   34  O5  UNL     1       2.369   9.722  17.992  1.00  0.00    -0.308 OA
BRANCH  34  35
HETATM   35  C29 UNL     1       2.394   9.574  16.546  1.00  0.00     0.218 C 
HETATM   36  C30 UNL     1       2.113   8.096  16.257  1.00  0.00     0.183 C 
HETATM   37  C31 UNL     1       2.526   7.748  14.830  1.00  0.00     0.173 C 
HETATM   38  C32 UNL     1       4.015   8.030  14.619  1.00  0.00     0.205 C 
HETATM   39  O8  UNL     1       4.578   8.845  15.660  1.00  0.00    -0.356 OA
HETATM   40  C33 UNL     1       3.767   9.983  15.962  1.00  0.00     0.288 C 
BRANCH  36  41
HETATM   41  O6  UNL     1       0.712   7.810  16.403  1.00  0.00    -0.390 OA
HETATM   42  H45 UNL     1       0.633   7.137  17.111  1.00  0.00     0.210 HD
ENDBRANCH  36  41
BRANCH  37  43
HETATM   43  O7  UNL     1       2.239   6.374  14.564  1.00  0.00    -0.391 OA
HETATM   44  H47 UNL     1       1.288   6.265  14.761  1.00  0.00     0.210 HD
ENDBRANCH  37  43
BRANCH  40  45
HETATM   45  O9  UNL     1       3.596  10.765  14.786  1.00  0.00    -0.369 OA
HETATM   46  H51 UNL     1       4.378  11.344  14.743  1.00  0.00     0.212 HD
ENDBRANCH  40  45
ENDBRANCH  34  35
ENDBRANCH  32  34
ENDBRANCH  23  32
ENDBRANCH  18  23
BRANCH   1  47
HETATM   47  O2  UNL     1       8.272  18.154  24.039  1.00  0.00    -0.316 OA
BRANCH  47  48
HETATM   48  C2  UNL     1       7.626  19.215  24.604  1.00  0.00     0.255 C 
HETATM   49  C1  UNL     1       7.484  18.984  26.080  1.00  0.00     0.126 C 
HETATM   50  O1  UNL     1       7.219  20.205  24.014  1.00  0.00    -0.266 OA
ENDBRANCH  47  48
ENDBRANCH   1  47
TORSDOF 13
ENDMDL
MODEL 5
REMARK minimizedAffinity -8.66742039
REMARK CNNscore 0.310142964
REMARK CNNaffinity 6.96209335
REMARK  13 active torsions:
REMARK  status: ('A' for Active; 'I' for Inactive)
REMARK    1  A    between atoms: C2_2  and  O2_4 
REMARK    2  A    between atoms: O2_4  and  C3_5 
REMARK    3  A    between atoms: C20_22  and  C21_23 
REMARK    4  A    between atoms: C21_23  and  C22_24 
REMARK    5  A    between atoms: C21_23  and  C28_31 
REMARK    6  A    between atoms: C22_24  and  C23_25 
REMARK    7  A    between atoms: C24_26  and  C25_27 
REMARK    8  A    between atoms: C25_27  and  O3_30 
REMARK    9  A    between atoms: C28_31  and  O5_33 
REMARK   10  A    between atoms: O5_33  and  C29_34 
REMARK   11  A    between atoms: C30_35  and  O6_36 
REMARK   12  A    between atoms: C31_37  and  O7_38 
REMARK   13  A    between atoms: C33_41  and  O9_42 
ROOT
HETATM    1  C3  UNL     1      -6.471   5.777  13.707  1.00  0.00     0.140 C 
HETATM    2  C4  UNL     1      -5.278   4.925  13.288  1.00  0.00     0.034 C 
HETATM    3  C5  UNL     1      -4.024   5.736  12.945  1.00  0.00     0.016 C 
HETATM    4  C6  UNL     1      -3.874   7.107  13.673  1.00  0.00    -0.016 C 
HETATM    5  C7  UNL     1      -4.447   8.238  12.779  1.00  0.00     0.020 C 
HETATM    6  C8  UNL     1      -2.373   7.447  13.901  1.00  0.00    -0.068 C 
HETATM    7  C9  UNL     1      -1.917   7.946  15.080  1.00  0.00    -0.068 C 
HETATM    8  C10 UNL     1      -2.805   8.237  16.272  1.00  0.00     0.036 C 
HETATM    9  C11 UNL     1      -4.295   8.182  15.965  1.00  0.00     0.011 C 
HETATM   10  C12 UNL     1      -4.616   6.986  15.053  1.00  0.00     0.008 C 
HETATM   11  C13 UNL     1      -6.151   6.633  14.979  1.00  0.00    -0.016 C 
HETATM   12  C14 UNL     1      -7.068   7.880  14.964  1.00  0.00     0.018 C 
HETATM   13  C15 UNL     1      -6.516   5.842  16.269  1.00  0.00     0.018 C 
HETATM   14  C16 UNL     1      -0.420   8.153  15.295  1.00  0.00    -0.013 C 
HETATM   15  C17 UNL     1       0.096   6.782  15.839  1.00  0.00     0.021 C 
HETATM   16  C18 UNL     1       0.054   9.238  16.281  1.00  0.00     0.015 C 
HETATM   17  C19 UNL     1       1.499   9.556  15.854  1.00  0.00     0.007 C 
HETATM   18  C20 UNL     1       1.731   8.916  14.459  1.00  0.00     0.009 C 
HETATM   19  C34 UNL     1       0.267   8.655  13.971  1.00  0.00    -0.028 C 
HETATM   20  C35 UNL     1      -0.341   9.985  13.418  1.00  0.00     0.016 C 
HETATM   21  C36 UNL     1       0.071   7.564  12.920  1.00  0.00     0.015 C 
HETATM   22  C37 UNL     1      -1.420   7.212  12.720  1.00  0.00     0.036 C 
ENDROOT
BRANCH  18  23
HETATM   23  C21 UNL     1       2.677   9.749  13.551  1.00  0.00     0.094 C 
BRANCH  23  24
HETATM   24  C22 UNL     1       3.396  10.924  14.262  1.00  0.00     0.042 C 
BRANCH  24  25
HETATM   25  C23 UNL     1       3.868  12.038  13.370  1.00  0.00    -0.027 C 
HETATM   26  C24 UNL     1       4.835  12.912  13.706  1.00  0.00     0.006 C 
BRANCH  26  27
HETATM   27  C25 UNL     1       5.387  14.037  12.853  1.00  0.00     0.068 C 
HETATM   28  C26 UNL     1       6.913  14.068  12.938  1.00  0.00     0.050 C 
HETATM   29  C27 UNL     1       4.799  15.380  13.294  1.00  0.00     0.050 C 
BRANCH  27  30
HETATM   30  O3  UNL     1       5.043  13.834  11.480  1.00  0.00    -0.387 OA
HETATM   31  H42 UNL     1       4.070  13.814  11.432  1.00  0.00     0.211 HD
ENDBRANCH  27  30
ENDBRANCH  26  27
ENDBRANCH  24  25
ENDBRANCH  23  24
BRANCH  23  32
HETATM   32  C28 UNL     1       3.776   8.899  12.936  1.00  0.00     0.264 C 
HETATM   33  O4  UNL     1       3.568   7.986  12.147  1.00  0.00    -0.265 OA
BRANCH  32  34
HETATM   34  O5  UNL     1       5.013   9.317  13.328  1.00  0.00    -0.308 OA
BRANCH  34  35
HETATM   35  C29 UNL     1       6.028   8.277  13.350  1.00  0.00     0.218 C 
HETATM   36  C30 UNL     1       6.644   8.301  14.753  1.00  0.00     0.183 C 
HETATM   37  C31 UNL     1       7.977   7.560  14.759  1.00  0.00     0.173 C 
HETATM   38  C32 UNL     1       8.952   8.202  13.769  1.00  0.00     0.205 C 
HETATM   39  O8  UNL     1       8.302   9.099  12.854  1.00  0.00    -0.356 OA
HETATM   40  C33 UNL     1       7.119   8.533  12.283  1.00  0.00     0.288 C 
BRANCH  36  41
HETATM   41  O6  UNL     1       5.768   7.663  15.698  1.00  0.00    -0.390 OA
HETATM   42  H45 UNL     1       5.534   8.339  16.369  1.00  0.00     0.210 HD
ENDBRANCH  36  41
BRANCH  37  43
HETATM   43  O7  UNL     1       8.530   7.569  16.077  1.00  0.00    -0.391 OA
HETATM   44  H47 UNL     1       7.837   7.187  16.651  1.00  0.00     0.210 HD
ENDBRANCH  37  43
BRANCH  40  45
HETATM   45  O9  UNL     1       7.452   7.326  11.609  1.00  0.00    -0.369 OA
HETATM   46  H51 UNL     1       7.744   7.596  10.721  1.00  0.00     0.212 HD
ENDBRANCH  40  45
ENDBRANCH  34  35
ENDBRANCH  32  34
ENDBRANCH  23  32
ENDBRANCH  18  23
BRANCH   1  47
HETATM   47  O2  UNL     1      -7.587   4.899  13.979  1.00  0.00    -0.316 OA
BRANCH  47  48
HETATM   48  C2  UNL     1      -8.271   4.397  12.910  1.00  0.00     0.255 C 
HETATM   49  C1  UNL     1      -8.625   5.515  11.975  1.00  0.00     0.126 C 
HETATM   50  O1  UNL     1      -8.558   3.223  12.729  1.00  0.00    -0.266 OA
ENDBRANCH  47  48
ENDBRANCH   1  47
TORSDOF 13
ENDMDL
MODEL 6
REMARK minimizedAffinity -7.69183969
REMARK CNNscore 0.297182828
REMARK CNNaffinity 6.94883299
REMARK  13 active torsions:
REMARK  status: ('A' for Active; 'I' for Inactive)
REMARK    1  A    between atoms: C2_2  and  O2_4 
REMARK    2  A    between atoms: O2_4  and  C3_5 
REMARK    3  A    between atoms: C20_22  and  C21_23 
REMARK    4  A    between atoms: C21_23  and  C22_24 
REMARK    5  A    between atoms: C21_23  and  C28_31 
REMARK    6  A    between atoms: C22_24  and  C23_25 
REMARK    7  A    between atoms: C24_26  and  C25_27 
REMARK    8  A    between atoms: C25_27  and  O3_30 
REMARK    9  A    between atoms: C28_31  and  O5_33 
REMARK   10  A    between atoms: O5_33  and  C29_34 
REMARK   11  A    between atoms: C30_35  and  O6_36 
REMARK   12  A    between atoms: C31_37  and  O7_38 
REMARK   13  A    between atoms: C33_41  and  O9_42 
ROOT
HETATM    1  C3  UNL     1      -3.676   6.326  13.922  1.00  0.00     0.140 C 
HETATM    2  C4  UNL     1      -2.629   5.902  14.946  1.00  0.00     0.034 C 
HETATM    3  C5  UNL     1      -1.573   6.973  15.236  1.00  0.00     0.016 C 
HETATM    4  C6  UNL     1      -2.028   8.453  15.050  1.00  0.00    -0.016 C 
HETATM    5  C7  UNL     1      -1.652   8.940  13.626  1.00  0.00     0.020 C 
HETATM    6  C8  UNL     1      -1.279   9.388  16.044  1.00  0.00    -0.068 C 
HETATM    7  C9  UNL     1      -1.920  10.367  16.736  1.00  0.00    -0.068 C 
HETATM    8  C10 UNL     1      -3.399  10.660  16.606  1.00  0.00     0.036 C 
HETATM    9  C11 UNL     1      -4.073   9.954  15.438  1.00  0.00     0.011 C 
HETATM   10  C12 UNL     1      -3.574   8.504  15.323  1.00  0.00     0.008 C 
HETATM   11  C13 UNL     1      -4.465   7.593  14.393  1.00  0.00    -0.016 C 
HETATM   12  C14 UNL     1      -4.993   8.329  13.138  1.00  0.00     0.018 C 
HETATM   13  C15 UNL     1      -5.723   7.174  15.210  1.00  0.00     0.018 C 
HETATM   14  C16 UNL     1      -1.165  11.179  17.785  1.00  0.00    -0.013 C 
HETATM   15  C17 UNL     1      -1.304  10.352  19.103  1.00  0.00     0.021 C 
HETATM   16  C18 UNL     1      -1.631  12.614  18.101  1.00  0.00     0.015 C 
HETATM   17  C19 UNL     1      -0.401  13.302  18.720  1.00  0.00     0.007 C 
HETATM   18  C20 UNL     1       0.830  12.391  18.460  1.00  0.00     0.009 C 
HETATM   19  C34 UNL     1       0.311  11.457  17.316  1.00  0.00    -0.028 C 
HETATM   20  C35 UNL     1       0.400  12.212  15.949  1.00  0.00     0.016 C 
HETATM   21  C36 UNL     1       0.999  10.102  17.162  1.00  0.00     0.015 C 
HETATM   22  C37 UNL     1       0.234   9.170  16.197  1.00  0.00     0.036 C 
ENDROOT
BRANCH  18  23
HETATM   23  C21 UNL     1       2.144  13.187  18.227  1.00  0.00     0.094 C 
BRANCH  23  24
HETATM   24  C22 UNL     1       1.998  14.728  18.314  1.00  0.00     0.042 C 
BRANCH  24  25
HETATM   25  C23 UNL     1       2.442  15.355  19.606  1.00  0.00    -0.027 C 
HETATM   26  C24 UNL     1       1.598  15.835  20.538  1.00  0.00     0.006 C 
BRANCH  26  27
HETATM   27  C25 UNL     1       1.965  16.449  21.874  1.00  0.00     0.068 C 
HETATM   28  C26 UNL     1       1.553  17.920  21.914  1.00  0.00     0.050 C 
HETATM   29  C27 UNL     1       3.468  16.307  22.134  1.00  0.00     0.050 C 
BRANCH  27  30
HETATM   30  O3  UNL     1       1.270  15.785  22.933  1.00  0.00    -0.387 OA
HETATM   31  H42 UNL     1       1.536  14.849  22.902  1.00  0.00     0.211 HD
ENDBRANCH  27  30
ENDBRANCH  26  27
ENDBRANCH  24  25
ENDBRANCH  23  24
BRANCH  23  32
HETATM   32  C28 UNL     1       3.224  12.815  19.229  1.00  0.00     0.264 C 
HETATM   33  O4  UNL     1       4.423  12.879  18.991  1.00  0.00    -0.265 OA
BRANCH  32  34
HETATM   34  O5  UNL     1       2.691  12.457  20.432  1.00  0.00    -0.308 OA
BRANCH  34  35
HETATM   35  C29 UNL     1       3.411  11.403  21.127  1.00  0.00     0.218 C 
HETATM   36  C30 UNL     1       2.477  10.188  21.157  1.00  0.00     0.183 C 
HETATM   37  C31 UNL     1       2.946   9.185  22.206  1.00  0.00     0.173 C 
HETATM   38  C32 UNL     1       2.975   9.834  23.592  1.00  0.00     0.205 C 
HETATM   39  O8  UNL     1       2.890  11.267  23.536  1.00  0.00    -0.356 OA
HETATM   40  C33 UNL     1       3.781  11.828  22.568  1.00  0.00     0.288 C 
BRANCH  36  41
HETATM   41  O6  UNL     1       2.464   9.530  19.878  1.00  0.00    -0.390 OA
HETATM   42  H45 UNL     1       1.540   9.564  19.553  1.00  0.00     0.210 HD
ENDBRANCH  36  41
BRANCH  37  43
HETATM   43  O7  UNL     1       2.082   8.047  22.209  1.00  0.00    -0.391 OA
HETATM   44  H47 UNL     1       2.083   7.719  21.288  1.00  0.00     0.210 HD
ENDBRANCH  37  43
BRANCH  40  45
HETATM   45  O9  UNL     1       5.115  11.443  22.875  1.00  0.00    -0.369 OA
HETATM   46  H51 UNL     1       5.429  12.092  23.529  1.00  0.00     0.212 HD
ENDBRANCH  40  45
ENDBRANCH  34  35
ENDBRANCH  32  34
ENDBRANCH  23  32
ENDBRANCH  18  23
BRANCH   1  47
HETATM   47  O2  UNL     1      -4.593   5.226  13.724  1.00  0.00    -0.316 OA
BRANCH  47  48
HETATM   48  C2  UNL     1      -4.507   4.536  12.549  1.00  0.00     0.255 C 
HETATM   49  C1  UNL     1      -5.797   3.812  12.300  1.00  0.00     0.126 C 
HETATM   50  O1  UNL     1      -3.537   4.502  11.806  1.00  0.00    -0.266 OA
ENDBRANCH  47  48
ENDBRANCH   1  47
TORSDOF 13
ENDMDL
MODEL 7
REMARK minimizedAffinity -9.95477772
REMARK CNNscore 0.264881968
REMARK CNNaffinity 6.97564936
REMARK  13 active torsions:
REMARK  status: ('A' for Active; 'I' for Inactive)
REMARK    1  A    between atoms: C2_2  and  O2_4 
REMARK    2  A    between atoms: O2_4  and  C3_5 
REMARK    3  A    between atoms: C20_22  and  C21_23 
REMARK    4  A    between atoms: C21_23  and  C22_24 
REMARK    5  A    between atoms: C21_23  and  C28_31 
REMARK    6  A    between atoms: C22_24  and  C23_25 
REMARK    7  A    between atoms: C24_26  and  C25_27 
REMARK    8  A    between atoms: C25_27  and  O3_30 
REMARK    9  A    between atoms: C28_31  and  O5_33 
REMARK   10  A    between atoms: O5_33  and  C29_34 
REMARK   11  A    between atoms: C30_35  and  O6_36 
REMARK   12  A    between atoms: C31_37  and  O7_38 
REMARK   13  A    between atoms: C33_41  and  O9_42 
ROOT
HETATM    1  C3  UNL     1      -5.291   4.479  12.834  1.00  0.00     0.140 C 
HETATM    2  C4  UNL     1      -5.319   6.002  12.764  1.00  0.00     0.034 C 
HETATM    3  C5  UNL     1      -4.026   6.671  13.243  1.00  0.00     0.016 C 
HETATM    4  C6  UNL     1      -2.719   5.837  13.073  1.00  0.00    -0.016 C 
HETATM    5  C7  UNL     1      -2.416   5.067  14.385  1.00  0.00     0.020 C 
HETATM    6  C8  UNL     1      -1.500   6.771  12.822  1.00  0.00    -0.068 C 
HETATM    7  C9  UNL     1      -0.565   6.498  11.873  1.00  0.00    -0.068 C 
HETATM    8  C10 UNL     1      -0.597   5.271  10.987  1.00  0.00     0.036 C 
HETATM    9  C11 UNL     1      -1.611   4.219  11.417  1.00  0.00     0.011 C 
HETATM   10  C12 UNL     1      -2.931   4.884  11.842  1.00  0.00     0.008 C 
HETATM   11  C13 UNL     1      -4.145   3.882  11.951  1.00  0.00    -0.016 C 
HETATM   12  C14 UNL     1      -3.752   2.504  12.536  1.00  0.00     0.018 C 
HETATM   13  C15 UNL     1      -4.661   3.608  10.507  1.00  0.00     0.018 C 
HETATM   14  C16 UNL     1       0.547   7.503  11.584  1.00  0.00    -0.013 C 
HETATM   15  C17 UNL     1      -0.056   8.464  10.511  1.00  0.00     0.021 C 
HETATM   16  C18 UNL     1       1.893   6.996  11.032  1.00  0.00     0.015 C 
HETATM   17  C19 UNL     1       2.906   8.101  11.381  1.00  0.00     0.007 C 
HETATM   18  C20 UNL     1       2.227   9.059  12.398  1.00  0.00     0.009 C 
HETATM   19  C34 UNL     1       1.029   8.195  12.914  1.00  0.00    -0.028 C 
HETATM   20  C35 UNL     1       1.544   7.185  13.992  1.00  0.00     0.016 C 
HETATM   21  C36 UNL     1      -0.169   8.945  13.492  1.00  0.00     0.015 C 
HETATM   22  C37 UNL     1      -1.384   8.017  13.712  1.00  0.00     0.036 C 
ENDROOT
BRANCH  18  23
HETATM   23  C21 UNL     1       3.217   9.650  13.440  1.00  0.00     0.094 C 
BRANCH  23  24
HETATM   24  C22 UNL     1       3.311   8.861  14.771  1.00  0.00     0.042 C 
BRANCH  24  25
HETATM   25  C23 UNL     1       3.163   9.676  16.026  1.00  0.00    -0.027 C 
HETATM   26  C24 UNL     1       2.019   9.774  16.728  1.00  0.00     0.006 C 
BRANCH  26  27
HETATM   27  C25 UNL     1       1.800  10.545  18.015  1.00  0.00     0.068 C 
HETATM   28  C26 UNL     1       0.305  10.720  18.281  1.00  0.00     0.050 C 
HETATM   29  C27 UNL     1       2.494  11.908  17.947  1.00  0.00     0.050 C 
BRANCH  27  30
HETATM   30  O3  UNL     1       2.346   9.826  19.123  1.00  0.00    -0.387 OA
HETATM   31  H42 UNL     1       3.298   9.716  18.948  1.00  0.00     0.211 HD
ENDBRANCH  27  30
ENDBRANCH  26  27
ENDBRANCH  24  25
ENDBRANCH  23  24
BRANCH  23  32
HETATM   32  C28 UNL     1       4.636   9.727  12.901  1.00  0.00     0.264 C 
HETATM   33  O4  UNL     1       4.907   9.899  11.721  1.00  0.00    -0.265 OA
BRANCH  32  34
HETATM   34  O5  UNL     1       5.558   9.636  13.902  1.00  0.00    -0.308 OA
BRANCH  34  35
HETATM   35  C29 UNL     1       6.467   8.507  13.793  1.00  0.00     0.218 C 
HETATM   36  C30 UNL     1       7.188   8.399  15.140  1.00  0.00     0.183 C 
HETATM   37  C31 UNL     1       8.440   7.538  15.003  1.00  0.00     0.173 C 
HETATM   38  C32 UNL     1       9.393   8.139  13.967  1.00  0.00     0.205 C 
HETATM   39  O8  UNL     1       8.764   9.139  13.150  1.00  0.00    -0.356 OA
HETATM   40  C33 UNL     1       7.491   8.717  12.653  1.00  0.00     0.288 C 
BRANCH  36  41
HETATM   41  O6  UNL     1       6.331   7.795  16.124  1.00  0.00    -0.390 OA
HETATM   42  H45 UNL     1       6.216   8.453  16.842  1.00  0.00     0.210 HD
ENDBRANCH  36  41
BRANCH  37  43
HETATM   43  O7  UNL     1       9.091   7.425  16.270  1.00  0.00    -0.391 OA
HETATM   44  H47 UNL     1       8.412   7.078  16.881  1.00  0.00     0.210 HD
ENDBRANCH  37  43
BRANCH  40  45
HETATM   45  O9  UNL     1       7.653   7.521  11.899  1.00  0.00    -0.369 OA
HETATM   46  H51 UNL     1       7.899   7.810  11.003  1.00  0.00     0.212 HD
ENDBRANCH  40  45
ENDBRANCH  34  35
ENDBRANCH  32  34
ENDBRANCH  23  32
ENDBRANCH  18  23
BRANCH   1  47
HETATM   47  O2  UNL     1      -6.568   3.978  12.380  1.00  0.00    -0.316 OA
BRANCH  47  48
HETATM   48  C2  UNL     1      -7.290   3.210  13.247  1.00  0.00     0.255 C 
HETATM   49  C1  UNL     1      -7.429   3.932  14.555  1.00  0.00     0.126 C 
HETATM   50  O1  UNL     1      -7.756   2.105  13.011  1.00  0.00    -0.266 OA
ENDBRANCH  47  48
ENDBRANCH   1  47
TORSDOF 13
ENDMDL
MODEL 8
REMARK minimizedAffinity -7.81038618
REMARK CNNscore 0.243500456
REMARK CNNaffinity 5.81098032
REMARK  13 active torsions:
REMARK  status: ('A' for Active; 'I' for Inactive)
REMARK    1  A    between atoms: C2_2  and  O2_4 
REMARK    2  A    between atoms: O2_4  and  C3_5 
REMARK    3  A    between atoms: C20_22  and  C21_23 
REMARK    4  A    between atoms: C21_23  and  C22_24 
REMARK    5  A    between atoms: C21_23  and  C28_31 
REMARK    6  A    between atoms: C22_24  and  C23_25 
REMARK    7  A    between atoms: C24_26  and  C25_27 
REMARK    8  A    between atoms: C25_27  and  O3_30 
REMARK    9  A    between atoms: C28_31  and  O5_33 
REMARK   10  A    between atoms: O5_33  and  C29_34 
REMARK   11  A    between atoms: C30_35  and  O6_36 
REMARK   12  A    between atoms: C31_37  and  O7_38 
REMARK   13  A    between atoms: C33_41  and  O9_42 
ROOT
HETATM    1  C3  UNL     1      -0.683   9.949  15.712  1.00  0.00     0.140 C 
HETATM    2  C4  UNL     1       0.561   9.094  15.919  1.00  0.00     0.034 C 
HETATM    3  C5  UNL     1       1.732   9.845  16.562  1.00  0.00     0.016 C 
HETATM    4  C6  UNL     1       1.353  11.034  17.497  1.00  0.00    -0.016 C 
HETATM    5  C7  UNL     1       1.376  12.360  16.693  1.00  0.00     0.020 C 
HETATM    6  C8  UNL     1       2.403  11.193  18.635  1.00  0.00    -0.068 C 
HETATM    7  C9  UNL     1       2.040  11.417  19.926  1.00  0.00    -0.068 C 
HETATM    8  C10 UNL     1       0.603  11.549  20.387  1.00  0.00     0.036 C 
HETATM    9  C11 UNL     1      -0.404  11.682  19.252  1.00  0.00     0.011 C 
HETATM   10  C12 UNL     1      -0.059  10.715  18.107  1.00  0.00     0.008 C 
HETATM   11  C13 UNL     1      -1.227  10.515  17.066  1.00  0.00    -0.016 C 
HETATM   12  C14 UNL     1      -2.011  11.816  16.767  1.00  0.00     0.018 C 
HETATM   13  C15 UNL     1      -2.254   9.526  17.693  1.00  0.00     0.018 C 
HETATM   14  C16 UNL     1       3.100  11.450  21.024  1.00  0.00    -0.013 C 
HETATM   15  C17 UNL     1       3.252   9.961  21.473  1.00  0.00     0.021 C 
HETATM   16  C18 UNL     1       2.840  12.281  22.295  1.00  0.00     0.015 C 
HETATM   17  C19 UNL     1       4.236  12.550  22.884  1.00  0.00     0.007 C 
HETATM   18  C20 UNL     1       5.286  12.171  21.804  1.00  0.00     0.009 C 
HETATM   19  C34 UNL     1       4.418  12.135  20.502  1.00  0.00    -0.028 C 
HETATM   20  C35 UNL     1       4.199  13.594  19.983  1.00  0.00     0.016 C 
HETATM   21  C36 UNL     1       4.940  11.286  19.345  1.00  0.00     0.015 C 
HETATM   22  C37 UNL     1       3.883  11.108  18.233  1.00  0.00     0.036 C 
ENDROOT
BRANCH  18  23
HETATM   23  C21 UNL     1       6.546  13.079  21.828  1.00  0.00     0.094 C 
BRANCH  23  24
HETATM   24  C22 UNL     1       6.589  14.105  22.989  1.00  0.00     0.042 C 
BRANCH  24  25
HETATM   25  C23 UNL     1       7.425  15.331  22.747  1.00  0.00    -0.027 C 
HETATM   26  C24 UNL     1       8.378  15.769  23.590  1.00  0.00     0.006 C 
BRANCH  26  27
HETATM   27  C25 UNL     1       9.282  16.972  23.403  1.00  0.00     0.068 C 
HETATM   28  C26 UNL     1       9.800  17.463  24.754  1.00  0.00     0.050 C 
HETATM   29  C27 UNL     1       8.535  18.094  22.676  1.00  0.00     0.050 C 
BRANCH  27  30
HETATM   30  O3  UNL     1      10.421  16.619  22.615  1.00  0.00    -0.387 OA
HETATM   31  H42 UNL     1      10.085  16.306  21.755  1.00  0.00     0.211 HD
ENDBRANCH  27  30
ENDBRANCH  26  27
ENDBRANCH  24  25
ENDBRANCH  23  24
BRANCH  23  32
HETATM   32  C28 UNL     1       7.830  12.272  21.938  1.00  0.00     0.264 C 
HETATM   33  O4  UNL     1       8.538  12.254  22.936  1.00  0.00    -0.265 OA
BRANCH  32  34
HETATM   34  O5  UNL     1       8.057  11.535  20.813  1.00  0.00    -0.308 OA
BRANCH  34  35
HETATM   35  C29 UNL     1       9.075  12.076  19.927  1.00  0.00     0.218 C 
HETATM   36  C30 UNL     1       9.199  11.091  18.759  1.00  0.00     0.183 C 
HETATM   37  C31 UNL     1      10.503  11.329  18.003  1.00  0.00     0.173 C 
HETATM   38  C32 UNL     1      11.703  11.158  18.937  1.00  0.00     0.205 C 
HETATM   39  O8  UNL     1      11.329  11.154  20.325  1.00  0.00    -0.356 OA
HETATM   40  C33 UNL     1      10.434  12.220  20.652  1.00  0.00     0.288 C 
BRANCH  36  41
HETATM   41  O6  UNL     1       8.107  11.260  17.839  1.00  0.00    -0.390 OA
HETATM   42  H45 UNL     1       7.626  10.406  17.812  1.00  0.00     0.210 HD
ENDBRANCH  36  41
BRANCH  37  43
HETATM   43  O7  UNL     1      10.596  10.422  16.903  1.00  0.00    -0.391 OA
HETATM   44  H47 UNL     1       9.781  10.560  16.382  1.00  0.00     0.210 HD
ENDBRANCH  37  43
BRANCH  40  45
HETATM   45  O9  UNL     1      11.043  13.464  20.327  1.00  0.00    -0.369 OA
HETATM   46  H51 UNL     1      11.589  13.695  21.099  1.00  0.00     0.212 HD
ENDBRANCH  40  45
ENDBRANCH  34  35
ENDBRANCH  32  34
ENDBRANCH  23  32
ENDBRANCH  18  23
BRANCH   1  47
HETATM   47  O2  UNL     1      -1.698   9.134  15.082  1.00  0.00    -0.316 OA
BRANCH  47  48
HETATM   48  C2  UNL     1      -2.064   9.454  13.806  1.00  0.00     0.255 C 
HETATM   49  C1  UNL     1      -3.399   8.843  13.502  1.00  0.00     0.126 C 
HETATM   50  O1  UNL     1      -1.415  10.131  13.023  1.00  0.00    -0.266 OA
ENDBRANCH  47  48
ENDBRANCH   1  47
TORSDOF 13
ENDMDL
MODEL 9
REMARK minimizedAffinity -8.68662643
REMARK CNNscore 0.220306084
REMARK CNNaffinity 6.81005907
REMARK  13 active torsions:
REMARK  status: ('A' for Active; 'I' for Inactive)
REMARK    1  A    between atoms: C2_2  and  O2_4 
REMARK    2  A    between atoms: O2_4  and  C3_5 
REMARK    3  A    between atoms: C20_22  and  C21_23 
REMARK    4  A    between atoms: C21_23  and  C22_24 
REMARK    5  A    between atoms: C21_23  and  C28_31 
REMARK    6  A    between atoms: C22_24  and  C23_25 
REMARK    7  A    between atoms: C24_26  and  C25_27 
REMARK    8  A    between atoms: C25_27  and  O3_30 
REMARK    9  A    between atoms: C28_31  and  O5_33 
REMARK   10  A    between atoms: O5_33  and  C29_34 
REMARK   11  A    between atoms: C30_35  and  O6_36 
REMARK   12  A    between atoms: C31_37  and  O7_38 
REMARK   13  A    between atoms: C33_41  and  O9_42 
ROOT
HETATM    1  C3  UNL     1      -6.473   5.815  13.737  1.00  0.00     0.140 C 
HETATM    2  C4  UNL     1      -5.266   4.937  13.429  1.00  0.00     0.034 C 
HETATM    3  C5  UNL     1      -3.993   5.724  13.096  1.00  0.00     0.016 C 
HETATM    4  C6  UNL     1      -3.872   7.138  13.743  1.00  0.00    -0.016 C 
HETATM    5  C7  UNL     1      -4.397   8.211  12.754  1.00  0.00     0.020 C 
HETATM    6  C8  UNL     1      -2.382   7.489  14.021  1.00  0.00    -0.068 C 
HETATM    7  C9  UNL     1      -1.981   8.061  15.187  1.00  0.00    -0.068 C 
HETATM    8  C10 UNL     1      -2.923   8.426  16.315  1.00  0.00     0.036 C 
HETATM    9  C11 UNL     1      -4.397   8.354  15.941  1.00  0.00     0.011 C 
HETATM   10  C12 UNL     1      -4.679   7.104  15.091  1.00  0.00     0.008 C 
HETATM   11  C13 UNL     1      -6.210   6.748  14.966  1.00  0.00    -0.016 C 
HETATM   12  C14 UNL     1      -7.120   7.994  14.830  1.00  0.00     0.018 C 
HETATM   13  C15 UNL     1      -6.640   6.040  16.285  1.00  0.00     0.018 C 
HETATM   14  C16 UNL     1      -0.494   8.279  15.460  1.00  0.00    -0.013 C 
HETATM   15  C17 UNL     1      -0.011   6.944  16.112  1.00  0.00     0.021 C 
HETATM   16  C18 UNL     1      -0.063   9.423  16.398  1.00  0.00     0.015 C 
HETATM   17  C19 UNL     1       1.401   9.712  16.021  1.00  0.00     0.007 C 
HETATM   18  C20 UNL     1       1.696   8.985  14.681  1.00  0.00     0.009 C 
HETATM   19  C34 UNL     1       0.257   8.696  14.141  1.00  0.00    -0.028 C 
HETATM   20  C35 UNL     1      -0.319   9.990  13.477  1.00  0.00     0.016 C 
HETATM   21  C36 UNL     1       0.106   7.541  13.152  1.00  0.00     0.015 C 
HETATM   22  C37 UNL     1      -1.375   7.180  12.903  1.00  0.00     0.036 C 
ENDROOT
BRANCH  18  23
HETATM   23  C21 UNL     1       2.688   9.759  13.768  1.00  0.00     0.094 C 
BRANCH  23  24
HETATM   24  C22 UNL     1       3.539  10.833  14.493  1.00  0.00     0.042 C 
BRANCH  24  25
HETATM   25  C23 UNL     1       3.662  10.675  15.982  1.00  0.00    -0.027 C 
HETATM   26  C24 UNL     1       3.872  11.698  16.832  1.00  0.00     0.006 C 
BRANCH  26  27
HETATM   27  C25 UNL     1       3.974  11.625  18.342  1.00  0.00     0.068 C 
HETATM   28  C26 UNL     1       3.205  12.780  18.983  1.00  0.00     0.050 C 
HETATM   29  C27 UNL     1       5.441  11.651  18.781  1.00  0.00     0.050 C 
BRANCH  27  30
HETATM   30  O3  UNL     1       3.392  10.410  18.822  1.00  0.00    -0.387 OA
HETATM   31  H42 UNL     1       3.885   9.678  18.410  1.00  0.00     0.211 HD
ENDBRANCH  27  30
ENDBRANCH  26  27
ENDBRANCH  24  25
ENDBRANCH  23  24
BRANCH  23  32
HETATM   32  C28 UNL     1       3.681   8.832  13.086  1.00  0.00     0.264 C 
HETATM   33  O4  UNL     1       3.358   7.823  12.474  1.00  0.00    -0.265 OA
BRANCH  32  34
HETATM   34  O5  UNL     1       4.958   9.297  13.195  1.00  0.00    -0.308 OA
BRANCH  34  35
HETATM   35  C29 UNL     1       5.980   8.264  13.244  1.00  0.00     0.218 C 
HETATM   36  C30 UNL     1       6.555   8.291  14.664  1.00  0.00     0.183 C 
HETATM   37  C31 UNL     1       7.893   7.559  14.708  1.00  0.00     0.173 C 
HETATM   38  C32 UNL     1       8.891   8.210  13.746  1.00  0.00     0.205 C 
HETATM   39  O8  UNL     1       8.261   9.103  12.813  1.00  0.00    -0.356 OA
HETATM   40  C33 UNL     1       7.098   8.529  12.209  1.00  0.00     0.288 C 
BRANCH  36  41
HETATM   41  O6  UNL     1       5.658   7.646  15.584  1.00  0.00    -0.390 OA
HETATM   42  H45 UNL     1       5.401   8.320  16.248  1.00  0.00     0.210 HD
ENDBRANCH  36  41
BRANCH  37  43
HETATM   43  O7  UNL     1       8.409   7.571  16.040  1.00  0.00    -0.391 OA
HETATM   44  H47 UNL     1       7.703   7.183  16.594  1.00  0.00     0.210 HD
ENDBRANCH  37  43
BRANCH  40  45
HETATM   45  O9  UNL     1       7.458   7.324  11.544  1.00  0.00    -0.369 OA
HETATM   46  H51 UNL     1       7.773   7.597  10.664  1.00  0.00     0.212 HD
ENDBRANCH  40  45
ENDBRANCH  34  35
ENDBRANCH  32  34
ENDBRANCH  23  32
ENDBRANCH  18  23
BRANCH   1  47
HETATM   47  O2  UNL     1      -7.604   4.958  14.010  1.00  0.00    -0.316 OA
BRANCH  47  48
HETATM   48  C2  UNL     1      -8.283   4.447  12.940  1.00  0.00     0.255 C 
HETATM   49  C1  UNL     1      -8.623   5.557  11.990  1.00  0.00     0.126 C 
HETATM   50  O1  UNL     1      -8.575   3.273  12.770  1.00  0.00    -0.266 OA
ENDBRANCH  47  48
ENDBRANCH   1  47
TORSDOF 13
ENDMDL
