MODEL 1
REMARK minimizedAffinity -9.28223705
REMARK  6 active torsions:
REMARK  status: ('A' for Active; 'I' for Inactive)
REMARK    1  A    between atoms: C2_2  and  C4_4 
REMARK    2  A    between atoms: C4_4  and  O1_5 
REMARK    3  A    between atoms: C4_4  and  C5_6 
REMARK    4  A    between atoms: C5_6  and  C6_7 
REMARK    5  A    between atoms: C6_7  and  C7_8 
REMARK    6  A    between atoms: C7_8  and  C9_10 
ROOT
HETATM    1  C9  UNL     1      -0.455  51.332 -21.090  1.00  0.00    -0.001 C 
HETATM    2  C10 UNL     1      -0.931  52.090 -19.816  1.00  0.00     0.007 C 
HETATM    3  C11 UNL     1      -2.282  51.486 -19.393  1.00  0.00     0.024 C 
HETATM    4  C12 UNL     1      -2.441  50.268 -20.275  1.00  0.00     0.092 C 
HETATM    5  C13 UNL     1      -1.756  49.019 -19.657  1.00  0.00     0.272 C 
HETATM    6  O2  UNL     1      -0.821  48.987 -18.876  1.00  0.00    -0.264 OA
HETATM    7  O3  UNL     1      -2.388  47.888 -20.144  1.00  0.00    -0.305 OA
HETATM    8  C14 UNL     1      -3.456  48.296 -21.032  1.00  0.00     0.113 C 
HETATM    9  C15 UNL     1      -2.816  48.450 -22.449  1.00  0.00     0.043 C 
HETATM   10  C16 UNL     1      -1.552  49.356 -22.461  1.00  0.00     0.014 C 
HETATM   11  C17 UNL     1      -1.753  50.651 -21.630  1.00  0.00    -0.020 C 
HETATM   12  C18 UNL     1      -2.591  51.634 -22.476  1.00  0.00     0.017 C 
HETATM   13  C19 UNL     1      -3.771  49.661 -20.494  1.00  0.00     0.137 A 
HETATM   14  O4  UNL     1      -4.876  50.406 -20.969  1.00  0.00    -0.364 OA
HETATM   15  C20 UNL     1      -4.972  49.930 -19.612  1.00  0.00     0.162 A 
HETATM   16  C21 UNL     1      -5.984  48.848 -19.385  1.00  0.00     0.042 C 
HETATM   17  C22 UNL     1      -5.314  47.462 -19.498  1.00  0.00     0.014 C 
HETATM   18  C23 UNL     1      -6.167  46.259 -18.968  1.00  0.00     0.018 C 
HETATM   19  C24 UNL     1      -6.498  46.462 -17.472  1.00  0.00     0.023 C 
HETATM   20  C25 UNL     1      -7.482  46.020 -19.722  1.00  0.00     0.023 C 
HETATM   21  C26 UNL     1      -5.330  44.972 -19.067  1.00  0.00     0.135 C 
HETATM   22  O5  UNL     1      -5.725  43.903 -18.598  1.00  0.00    -0.297 OA
HETATM   23  C27 UNL     1      -3.985  45.062 -19.751  1.00  0.00     0.080 C 
HETATM   24  C28 UNL     1      -4.145  45.801 -21.071  1.00  0.00     0.020 C 
HETATM   25  C29 UNL     1      -4.652  47.271 -20.925  1.00  0.00    -0.004 C 
HETATM   26  C30 UNL     1      -5.639  47.526 -22.095  1.00  0.00     0.019 C 
ENDROOT
BRANCH   1  27
HETATM   27  C7  UNL     1       0.505  52.174 -21.985  1.00  0.00    -0.014 C 
HETATM   28  C8  UNL     1       1.034  53.485 -21.391  1.00  0.00     0.010 C 
BRANCH  27  29
HETATM   29  C6  UNL     1      -0.092  52.405 -23.390  1.00  0.00     0.007 C 
BRANCH  29  30
HETATM   30  C5  UNL     1       0.858  53.017 -24.435  1.00  0.00     0.036 C 
BRANCH  30  31
HETATM   31  C4  UNL     1       0.348  52.951 -25.883  1.00  0.00     0.146 C 
BRANCH  31  32
HETATM   32  C2  UNL     1       1.156  52.005 -26.750  1.00  0.00    -0.065 C 
HETATM   33  C1  UNL     1       2.266  51.407 -26.283  1.00  0.00     0.016 C 
HETATM   34  C3  UNL     1       0.680  51.739 -28.153  1.00  0.00     0.045 C 
ENDBRANCH  31  32
BRANCH  31  35
HETATM   35  O1  UNL     1       0.355  54.245 -26.476  1.00  0.00    -0.391 OA
HETATM   36  H7  UNL     1       1.237  54.627 -26.346  1.00  0.00     0.210 HD
ENDBRANCH  31  35
ENDBRANCH  30  31
ENDBRANCH  29  30
ENDBRANCH  27  29
ENDBRANCH   1  27
TORSDOF 6
ENDMDL
MODEL 2
REMARK minimizedAffinity -9.14394474
REMARK  6 active torsions:
REMARK  status: ('A' for Active; 'I' for Inactive)
REMARK    1  A    between atoms: C2_2  and  C4_4 
REMARK    2  A    between atoms: C4_4  and  O1_5 
REMARK    3  A    between atoms: C4_4  and  C5_6 
REMARK    4  A    between atoms: C5_6  and  C6_7 
REMARK    5  A    between atoms: C6_7  and  C7_8 
REMARK    6  A    between atoms: C7_8  and  C9_10 
ROOT
HETATM    1  C9  UNL     1      -0.983  50.921 -21.354  1.00  0.00    -0.001 C 
HETATM    2  C10 UNL     1      -1.442  51.729 -20.106  1.00  0.00     0.007 C 
HETATM    3  C11 UNL     1      -2.910  51.361 -19.828  1.00  0.00     0.024 C 
HETATM    4  C12 UNL     1      -3.190  50.204 -20.759  1.00  0.00     0.092 C 
HETATM    5  C13 UNL     1      -2.791  48.845 -20.122  1.00  0.00     0.272 C 
HETATM    6  O2  UNL     1      -1.954  48.640 -19.260  1.00  0.00    -0.264 OA
HETATM    7  O3  UNL     1      -3.557  47.849 -20.700  1.00  0.00    -0.305 OA
HETATM    8  C14 UNL     1      -4.450  48.450 -21.668  1.00  0.00     0.113 C 
HETATM    9  C15 UNL     1      -3.661  48.513 -23.016  1.00  0.00     0.043 C 
HETATM   10  C16 UNL     1      -2.265  49.186 -22.883  1.00  0.00     0.014 C 
HETATM   11  C17 UNL     1      -2.320  50.483 -22.032  1.00  0.00    -0.020 C 
HETATM   12  C18 UNL     1      -2.894  51.610 -22.920  1.00  0.00     0.017 C 
HETATM   13  C19 UNL     1      -4.577  49.840 -21.118  1.00  0.00     0.137 A 
HETATM   14  O4  UNL     1      -5.489  50.772 -21.667  1.00  0.00    -0.364 OA
HETATM   15  C20 UNL     1      -5.793  50.298 -20.341  1.00  0.00     0.162 A 
HETATM   16  C21 UNL     1      -6.992  49.404 -20.242  1.00  0.00     0.042 C 
HETATM   17  C22 UNL     1      -6.561  47.925 -20.337  1.00  0.00     0.014 C 
HETATM   18  C23 UNL     1      -7.654  46.880 -19.927  1.00  0.00     0.018 C 
HETATM   19  C24 UNL     1      -8.087  47.113 -18.461  1.00  0.00     0.023 C 
HETATM   20  C25 UNL     1      -8.912  46.884 -20.805  1.00  0.00     0.023 C 
HETATM   21  C26 UNL     1      -7.044  45.470 -19.991  1.00  0.00     0.135 C 
HETATM   22  O5  UNL     1      -7.658  44.478 -19.594  1.00  0.00    -0.297 OA
HETATM   23  C27 UNL     1      -5.644  45.336 -20.545  1.00  0.00     0.080 C 
HETATM   24  C28 UNL     1      -5.549  46.112 -21.851  1.00  0.00     0.020 C 
HETATM   25  C29 UNL     1      -5.809  47.645 -21.704  1.00  0.00    -0.004 C 
HETATM   26  C30 UNL     1      -6.621  48.086 -22.950  1.00  0.00     0.019 C 
ENDROOT
BRANCH   1  27
HETATM   27  C7  UNL     1       0.187  51.598 -22.130  1.00  0.00    -0.014 C 
HETATM   28  C8  UNL     1       1.040  52.609 -21.354  1.00  0.00     0.010 C 
BRANCH  27  29
HETATM   29  C6  UNL     1      -0.295  52.194 -23.470  1.00  0.00     0.007 C 
BRANCH  29  30
HETATM   30  C5  UNL     1       0.807  52.593 -24.468  1.00  0.00     0.036 C 
BRANCH  30  31
HETATM   31  C4  UNL     1       0.330  52.761 -25.919  1.00  0.00     0.146 C 
BRANCH  31  32
HETATM   32  C2  UNL     1       1.129  51.930 -26.903  1.00  0.00    -0.065 C 
HETATM   33  C1  UNL     1       0.683  51.708 -28.153  1.00  0.00     0.016 C 
HETATM   34  C3  UNL     1       2.448  51.362 -26.453  1.00  0.00     0.045 C 
ENDBRANCH  31  32
BRANCH  31  35
HETATM   35  O1  UNL     1       0.388  54.129 -26.310  1.00  0.00    -0.391 OA
HETATM   36  H7  UNL     1       1.278  54.457 -26.108  1.00  0.00     0.210 HD
ENDBRANCH  31  35
ENDBRANCH  30  31
ENDBRANCH  29  30
ENDBRANCH  27  29
ENDBRANCH   1  27
TORSDOF 6
ENDMDL
MODEL 3
REMARK minimizedAffinity -8.99764919
REMARK  6 active torsions:
REMARK  status: ('A' for Active; 'I' for Inactive)
REMARK    1  A    between atoms: C2_2  and  C4_4 
REMARK    2  A    between atoms: C4_4  and  O1_5 
REMARK    3  A    between atoms: C4_4  and  C5_6 
REMARK    4  A    between atoms: C5_6  and  C6_7 
REMARK    5  A    between atoms: C6_7  and  C7_8 
REMARK    6  A    between atoms: C7_8  and  C9_10 
ROOT
HETATM    1  C9  UNL     1      -0.913  50.348 -21.438  1.00  0.00    -0.001 C 
HETATM    2  C10 UNL     1      -0.492  48.903 -21.043  1.00  0.00     0.007 C 
HETATM    3  C11 UNL     1      -1.771  48.131 -20.673  1.00  0.00     0.024 C 
HETATM    4  C12 UNL     1      -2.897  49.055 -21.076  1.00  0.00     0.092 C 
HETATM    5  C13 UNL     1      -3.287  48.869 -22.567  1.00  0.00     0.272 C 
HETATM    6  O2  UNL     1      -2.588  48.460 -23.478  1.00  0.00    -0.264 OA
HETATM    7  O3  UNL     1      -4.606  49.254 -22.725  1.00  0.00    -0.305 OA
HETATM    8  C14 UNL     1      -5.128  49.671 -21.441  1.00  0.00     0.113 C 
HETATM    9  C15 UNL     1      -4.787  51.189 -21.298  1.00  0.00     0.043 C 
HETATM   10  C16 UNL     1      -3.286  51.510 -21.547  1.00  0.00     0.014 C 
HETATM   11  C17 UNL     1      -2.345  50.502 -20.834  1.00  0.00    -0.020 C 
HETATM   12  C18 UNL     1      -2.285  50.884 -19.339  1.00  0.00     0.017 C 
HETATM   13  C19 UNL     1      -4.251  48.889 -20.508  1.00  0.00     0.137 A 
HETATM   14  O4  UNL     1      -4.492  48.864 -19.113  1.00  0.00    -0.364 OA
HETATM   15  C20 UNL     1      -4.723  47.627 -19.816  1.00  0.00     0.162 A 
HETATM   16  C21 UNL     1      -6.159  47.213 -19.924  1.00  0.00     0.042 C 
HETATM   17  C22 UNL     1      -6.760  47.720 -21.253  1.00  0.00     0.014 C 
HETATM   18  C23 UNL     1      -8.139  47.092 -21.648  1.00  0.00     0.018 C 
HETATM   19  C24 UNL     1      -8.003  45.559 -21.791  1.00  0.00     0.023 C 
HETATM   20  C25 UNL     1      -9.285  47.383 -20.670  1.00  0.00     0.023 C 
HETATM   21  C26 UNL     1      -8.555  47.631 -23.028  1.00  0.00     0.135 C 
HETATM   22  O5  UNL     1      -9.542  47.197 -23.624  1.00  0.00    -0.297 OA
HETATM   23  C27 UNL     1      -7.697  48.710 -23.646  1.00  0.00     0.080 C 
HETATM   24  C28 UNL     1      -7.435  49.794 -22.611  1.00  0.00     0.020 C 
HETATM   25  C29 UNL     1      -6.661  49.299 -21.348  1.00  0.00    -0.004 C 
HETATM   26  C30 UNL     1      -7.281  50.025 -20.125  1.00  0.00     0.019 C 
ENDROOT
BRANCH   1  27
HETATM   27  C7  UNL     1       0.220  51.399 -21.231  1.00  0.00    -0.014 C 
HETATM   28  C8  UNL     1       0.212  52.175 -19.908  1.00  0.00     0.010 C 
BRANCH  27  29
HETATM   29  C6  UNL     1       0.324  52.361 -22.435  1.00  0.00     0.007 C 
BRANCH  29  30
HETATM   30  C5  UNL     1      -0.359  51.894 -23.733  1.00  0.00     0.036 C 
BRANCH  30  31
HETATM   31  C4  UNL     1       0.178  52.552 -25.014  1.00  0.00     0.146 C 
BRANCH  31  32
HETATM   32  C2  UNL     1       0.712  51.545 -26.014  1.00  0.00    -0.065 C 
HETATM   33  C1  UNL     1      -0.106  50.673 -26.629  1.00  0.00     0.016 C 
HETATM   34  C3  UNL     1       2.186  51.550 -26.315  1.00  0.00     0.045 C 
ENDBRANCH  31  32
BRANCH  31  35
HETATM   35  O1  UNL     1       1.204  53.488 -24.703  1.00  0.00    -0.391 OA
HETATM   36  H7  UNL     1       1.856  53.039 -24.143  1.00  0.00     0.210 HD
ENDBRANCH  31  35
ENDBRANCH  30  31
ENDBRANCH  29  30
ENDBRANCH  27  29
ENDBRANCH   1  27
TORSDOF 6
ENDMDL
MODEL 4
REMARK minimizedAffinity -8.97066116
REMARK  6 active torsions:
REMARK  status: ('A' for Active; 'I' for Inactive)
REMARK    1  A    between atoms: C2_2  and  C4_4 
REMARK    2  A    between atoms: C4_4  and  O1_5 
REMARK    3  A    between atoms: C4_4  and  C5_6 
REMARK    4  A    between atoms: C5_6  and  C6_7 
REMARK    5  A    between atoms: C6_7  and  C7_8 
REMARK    6  A    between atoms: C7_8  and  C9_10 
ROOT
HETATM    1  C9  UNL     1      -2.941  50.998 -23.866  1.00  0.00    -0.001 C 
HETATM    2  C10 UNL     1      -4.129  51.948 -24.197  1.00  0.00     0.007 C 
HETATM    3  C11 UNL     1      -5.412  51.293 -23.654  1.00  0.00     0.024 C 
HETATM    4  C12 UNL     1      -4.919  50.121 -22.837  1.00  0.00     0.092 C 
HETATM    5  C13 UNL     1      -4.584  50.537 -21.379  1.00  0.00     0.272 C 
HETATM    6  O2  UNL     1      -4.260  51.639 -20.971  1.00  0.00    -0.264 OA
HETATM    7  O3  UNL     1      -4.710  49.424 -20.567  1.00  0.00    -0.305 OA
HETATM    8  C14 UNL     1      -5.119  48.298 -21.379  1.00  0.00     0.113 C 
HETATM    9  C15 UNL     1      -3.808  47.649 -21.927  1.00  0.00     0.043 C 
HETATM   10  C16 UNL     1      -2.859  48.667 -22.622  1.00  0.00     0.014 C 
HETATM   11  C17 UNL     1      -3.626  49.626 -23.572  1.00  0.00    -0.020 C 
HETATM   12  C18 UNL     1      -3.929  48.859 -24.878  1.00  0.00     0.017 C 
HETATM   13  C19 UNL     1      -5.819  48.997 -22.507  1.00  0.00     0.137 A 
HETATM   14  O4  UNL     1      -6.529  48.276 -23.498  1.00  0.00    -0.364 OA
HETATM   15  C20 UNL     1      -7.329  49.074 -22.604  1.00  0.00     0.162 A 
HETATM   16  C21 UNL     1      -8.176  48.298 -21.640  1.00  0.00     0.042 C 
HETATM   17  C22 UNL     1      -7.424  48.111 -20.304  1.00  0.00     0.014 C 
HETATM   18  C23 UNL     1      -8.301  47.611 -19.106  1.00  0.00     0.018 C 
HETATM   19  C24 UNL     1      -9.441  48.616 -18.826  1.00  0.00     0.023 C 
HETATM   20  C25 UNL     1      -8.923  46.221 -19.299  1.00  0.00     0.023 C 
HETATM   21  C26 UNL     1      -7.431  47.562 -17.838  1.00  0.00     0.135 C 
HETATM   22  O5  UNL     1      -7.912  47.321 -16.730  1.00  0.00    -0.297 OA
HETATM   23  C27 UNL     1      -5.954  47.839 -17.991  1.00  0.00     0.080 C 
HETATM   24  C28 UNL     1      -5.409  47.014 -19.149  1.00  0.00     0.020 C 
HETATM   25  C29 UNL     1      -6.054  47.348 -20.531  1.00  0.00    -0.004 C 
HETATM   26  C30 UNL     1      -6.222  46.003 -21.287  1.00  0.00     0.019 C 
ENDROOT
BRANCH   1  27
HETATM   27  C7  UNL     1      -1.733  51.160 -24.839  1.00  0.00    -0.014 C 
HETATM   28  C8  UNL     1      -1.527  50.051 -25.878  1.00  0.00     0.010 C 
BRANCH  27  29
HETATM   29  C6  UNL     1      -0.425  51.448 -24.070  1.00  0.00     0.007 C 
BRANCH  29  30
HETATM   30  C5  UNL     1       0.428  52.614 -24.602  1.00  0.00     0.036 C 
BRANCH  30  31
HETATM   31  C4  UNL     1       0.109  53.036 -26.046  1.00  0.00     0.146 C 
BRANCH  31  32
HETATM   32  C2  UNL     1       0.982  52.337 -27.070  1.00  0.00    -0.065 C 
HETATM   33  C1  UNL     1       0.624  52.276 -28.365  1.00  0.00     0.016 C 
HETATM   34  C3  UNL     1       2.272  51.717 -26.606  1.00  0.00     0.045 C 
ENDBRANCH  31  32
BRANCH  31  35
HETATM   35  O1  UNL     1       0.250  54.444 -26.198  1.00  0.00    -0.391 OA
HETATM   36  H7  UNL     1       1.123  54.693 -25.858  1.00  0.00     0.210 HD
ENDBRANCH  31  35
ENDBRANCH  30  31
ENDBRANCH  29  30
ENDBRANCH  27  29
ENDBRANCH   1  27
TORSDOF 6
ENDMDL
MODEL 5
REMARK minimizedAffinity -8.8393507
REMARK  6 active torsions:
REMARK  status: ('A' for Active; 'I' for Inactive)
REMARK    1  A    between atoms: C2_2  and  C4_4 
REMARK    2  A    between atoms: C4_4  and  O1_5 
REMARK    3  A    between atoms: C4_4  and  C5_6 
REMARK    4  A    between atoms: C5_6  and  C6_7 
REMARK    5  A    between atoms: C6_7  and  C7_8 
REMARK    6  A    between atoms: C7_8  and  C9_10 
ROOT
HETATM    1  C9  UNL     1      -1.594  51.192 -22.301  1.00  0.00    -0.001 C 
HETATM    2  C10 UNL     1      -1.849  50.510 -23.676  1.00  0.00     0.007 C 
HETATM    3  C11 UNL     1      -2.781  49.309 -23.434  1.00  0.00     0.024 C 
HETATM    4  C12 UNL     1      -3.218  49.457 -21.994  1.00  0.00     0.092 C 
HETATM    5  C13 UNL     1      -4.464  50.374 -21.864  1.00  0.00     0.272 C 
HETATM    6  O2  UNL     1      -4.822  51.261 -22.619  1.00  0.00    -0.264 OA
HETATM    7  O3  UNL     1      -5.144  50.027 -20.710  1.00  0.00    -0.305 OA
HETATM    8  C14 UNL     1      -4.447  48.932 -20.070  1.00  0.00     0.113 C 
HETATM    9  C15 UNL     1      -3.369  49.579 -19.142  1.00  0.00     0.043 C 
HETATM   10  C16 UNL     1      -2.465  50.613 -19.873  1.00  0.00     0.014 C 
HETATM   11  C17 UNL     1      -1.991  50.099 -21.259  1.00  0.00    -0.020 C 
HETATM   12  C18 UNL     1      -0.836  49.100 -21.026  1.00  0.00     0.017 C 
HETATM   13  C19 UNL     1      -3.757  48.303 -21.245  1.00  0.00     0.137 A 
HETATM   14  O4  UNL     1      -3.054  47.081 -21.123  1.00  0.00    -0.364 OA
HETATM   15  C20 UNL     1      -4.265  47.038 -21.903  1.00  0.00     0.162 A 
HETATM   16  C21 UNL     1      -5.399  46.280 -21.281  1.00  0.00     0.042 C 
HETATM   17  C22 UNL     1      -6.310  47.242 -20.489  1.00  0.00     0.014 C 
HETATM   18  C23 UNL     1      -7.697  46.653 -20.063  1.00  0.00     0.018 C 
HETATM   19  C24 UNL     1      -8.500  46.226 -21.313  1.00  0.00     0.023 C 
HETATM   20  C25 UNL     1      -7.623  45.455 -19.107  1.00  0.00     0.023 C 
HETATM   21  C26 UNL     1      -8.514  47.756 -19.367  1.00  0.00     0.135 C 
HETATM   22  O5  UNL     1      -9.692  47.587 -19.047  1.00  0.00    -0.297 OA
HETATM   23  C27 UNL     1      -7.827  49.075 -19.100  1.00  0.00     0.080 C 
HETATM   24  C28 UNL     1      -6.471  48.810 -18.460  1.00  0.00     0.020 C 
HETATM   25  C29 UNL     1      -5.491  47.987 -19.355  1.00  0.00    -0.004 C 
HETATM   26  C30 UNL     1      -4.729  47.016 -18.414  1.00  0.00     0.019 C 
ENDROOT
BRANCH   1  27
HETATM   27  C7  UNL     1      -0.249  51.979 -22.244  1.00  0.00    -0.014 C 
HETATM   28  C8  UNL     1       0.048  52.750 -20.952  1.00  0.00     0.010 C 
BRANCH  27  29
HETATM   29  C6  UNL     1      -0.073  52.885 -23.482  1.00  0.00     0.007 C 
BRANCH  29  30
HETATM   30  C5  UNL     1       0.852  52.345 -24.587  1.00  0.00     0.036 C 
BRANCH  30  31
HETATM   31  C4  UNL     1       0.400  52.674 -26.019  1.00  0.00     0.146 C 
BRANCH  31  32
HETATM   32  C2  UNL     1       1.224  51.963 -27.075  1.00  0.00    -0.065 C 
HETATM   33  C1  UNL     1       0.761  51.801 -28.328  1.00  0.00     0.016 C 
HETATM   34  C3  UNL     1       2.585  51.447 -26.693  1.00  0.00     0.045 C 
ENDBRANCH  31  32
BRANCH  31  35
HETATM   35  O1  UNL     1       0.457  54.077 -26.252  1.00  0.00    -0.391 OA
HETATM   36  H7  UNL     1       1.341  54.385 -25.997  1.00  0.00     0.210 HD
ENDBRANCH  31  35
ENDBRANCH  30  31
ENDBRANCH  29  30
ENDBRANCH  27  29
ENDBRANCH   1  27
TORSDOF 6
ENDMDL
MODEL 6
REMARK minimizedAffinity -8.7498579
REMARK  6 active torsions:
REMARK  status: ('A' for Active; 'I' for Inactive)
REMARK    1  A    between atoms: C2_2  and  C4_4 
REMARK    2  A    between atoms: C4_4  and  O1_5 
REMARK    3  A    between atoms: C4_4  and  C5_6 
REMARK    4  A    between atoms: C5_6  and  C6_7 
REMARK    5  A    between atoms: C6_7  and  C7_8 
REMARK    6  A    between atoms: C7_8  and  C9_10 
ROOT
HETATM    1  C9  UNL     1      -6.137  49.134 -23.020  1.00  0.00    -0.001 C 
HETATM    2  C10 UNL     1      -6.918  49.953 -21.952  1.00  0.00     0.007 C 
HETATM    3  C11 UNL     1      -5.887  50.538 -20.971  1.00  0.00     0.024 C 
HETATM    4  C12 UNL     1      -4.549  50.243 -21.610  1.00  0.00     0.092 C 
HETATM    5  C13 UNL     1      -4.135  51.353 -22.614  1.00  0.00     0.272 C 
HETATM    6  O2  UNL     1      -4.862  52.110 -23.233  1.00  0.00    -0.264 OA
HETATM    7  O3  UNL     1      -2.755  51.361 -22.712  1.00  0.00    -0.305 OA
HETATM    8  C14 UNL     1      -2.219  50.344 -21.833  1.00  0.00     0.113 C 
HETATM    9  C15 UNL     1      -2.189  49.018 -22.660  1.00  0.00     0.043 C 
HETATM   10  C16 UNL     1      -3.551  48.676 -23.328  1.00  0.00     0.014 C 
HETATM   11  C17 UNL     1      -4.746  48.879 -22.358  1.00  0.00    -0.020 C 
HETATM   12  C18 UNL     1      -4.793  47.667 -21.402  1.00  0.00     0.017 C 
HETATM   13  C19 UNL     1      -3.309  50.247 -20.806  1.00  0.00     0.137 A 
HETATM   14  O4  UNL     1      -3.158  49.462 -19.639  1.00  0.00    -0.364 OA
HETATM   15  C20 UNL     1      -3.197  50.889 -19.439  1.00  0.00     0.162 A 
HETATM   16  C21 UNL     1      -1.900  51.509 -19.014  1.00  0.00     0.042 C 
HETATM   17  C22 UNL     1      -1.123  52.014 -20.248  1.00  0.00     0.014 C 
HETATM   18  C23 UNL     1       0.082  52.966 -19.939  1.00  0.00     0.018 C 
HETATM   19  C24 UNL     1      -0.414  54.226 -19.193  1.00  0.00     0.023 C 
HETATM   20  C25 UNL     1       1.209  52.332 -19.112  1.00  0.00     0.023 C 
HETATM   21  C26 UNL     1       0.691  53.447 -21.267  1.00  0.00     0.135 C 
HETATM   22  O5  UNL     1       1.575  54.306 -21.303  1.00  0.00    -0.297 OA
HETATM   23  C27 UNL     1       0.156  52.842 -22.544  1.00  0.00     0.080 C 
HETATM   24  C28 UNL     1       0.109  51.328 -22.396  1.00  0.00     0.020 C 
HETATM   25  C29 UNL     1      -0.830  50.825 -21.254  1.00  0.00    -0.004 C 
HETATM   26  C30 UNL     1      -0.120  49.619 -20.584  1.00  0.00     0.019 C 
ENDROOT
BRANCH   1  27
HETATM   27  C7  UNL     1      -6.990  48.006 -23.677  1.00  0.00    -0.014 C 
HETATM   28  C8  UNL     1      -6.954  46.629 -23.003  1.00  0.00     0.010 C 
BRANCH  27  29
HETATM   29  C6  UNL     1      -6.702  47.889 -25.190  1.00  0.00     0.007 C 
BRANCH  29  30
HETATM   30  C5  UNL     1      -7.915  48.055 -26.122  1.00  0.00     0.036 C 
BRANCH  30  31
HETATM   31  C4  UNL     1      -9.160  48.662 -25.455  1.00  0.00     0.146 C 
BRANCH  31  32
HETATM   32  C2  UNL     1     -10.396  47.800 -25.620  1.00  0.00    -0.065 C 
HETATM   33  C1  UNL     1     -10.666  46.797 -24.766  1.00  0.00     0.016 C 
HETATM   34  C3  UNL     1     -11.329  48.098 -26.763  1.00  0.00     0.045 C 
ENDBRANCH  31  32
BRANCH  31  35
HETATM   35  O1  UNL     1      -9.425  49.959 -25.976  1.00  0.00    -0.391 OA
HETATM   36  H7  UNL     1      -9.443  49.892 -26.944  1.00  0.00     0.210 HD
ENDBRANCH  31  35
ENDBRANCH  30  31
ENDBRANCH  29  30
ENDBRANCH  27  29
ENDBRANCH   1  27
TORSDOF 6
ENDMDL
MODEL 7
REMARK minimizedAffinity -8.65790844
REMARK  6 active torsions:
REMARK  status: ('A' for Active; 'I' for Inactive)
REMARK    1  A    between atoms: C2_2  and  C4_4 
REMARK    2  A    between atoms: C4_4  and  O1_5 
REMARK    3  A    between atoms: C4_4  and  C5_6 
REMARK    4  A    between atoms: C5_6  and  C6_7 
REMARK    5  A    between atoms: C6_7  and  C7_8 
REMARK    6  A    between atoms: C7_8  and  C9_10 
ROOT
HETATM    1  C9  UNL     1      -6.023  48.956 -22.591  1.00  0.00    -0.001 C 
HETATM    2  C10 UNL     1      -6.828  49.880 -21.631  1.00  0.00     0.007 C 
HETATM    3  C11 UNL     1      -5.819  50.563 -20.690  1.00  0.00     0.024 C 
HETATM    4  C12 UNL     1      -4.468  50.205 -21.264  1.00  0.00     0.092 C 
HETATM    5  C13 UNL     1      -4.028  51.208 -22.366  1.00  0.00     0.272 C 
HETATM    6  O2  UNL     1      -4.739  51.897 -23.077  1.00  0.00    -0.264 OA
HETATM    7  O3  UNL     1      -2.646  51.207 -22.432  1.00  0.00    -0.305 OA
HETATM    8  C14 UNL     1      -2.133  50.285 -21.441  1.00  0.00     0.113 C 
HETATM    9  C15 UNL     1      -2.084  48.882 -22.127  1.00  0.00     0.043 C 
HETATM   10  C16 UNL     1      -3.431  48.472 -22.789  1.00  0.00     0.014 C 
HETATM   11  C17 UNL     1      -4.648  48.772 -21.873  1.00  0.00    -0.020 C 
HETATM   12  C18 UNL     1      -4.720  47.664 -20.800  1.00  0.00     0.017 C 
HETATM   13  C19 UNL     1      -3.247  50.293 -20.436  1.00  0.00     0.137 A 
HETATM   14  O4  UNL     1      -3.124  49.631 -19.191  1.00  0.00    -0.364 OA
HETATM   15  C20 UNL     1      -3.166  51.071 -19.139  1.00  0.00     0.162 A 
HETATM   16  C21 UNL     1      -1.879  51.733 -18.749  1.00  0.00     0.042 C 
HETATM   17  C22 UNL     1      -1.072  52.110 -20.010  1.00  0.00     0.014 C 
HETATM   18  C23 UNL     1       0.127  53.089 -19.770  1.00  0.00     0.018 C 
HETATM   19  C24 UNL     1      -0.385  54.418 -19.169  1.00  0.00     0.023 C 
HETATM   20  C25 UNL     1       1.233  52.544 -18.857  1.00  0.00     0.023 C 
HETATM   21  C26 UNL     1       0.768  53.433 -21.126  1.00  0.00     0.135 C 
HETATM   22  O5  UNL     1       1.653  54.285 -21.229  1.00  0.00    -0.297 OA
HETATM   23  C27 UNL     1       0.262  52.700 -22.347  1.00  0.00     0.080 C 
HETATM   24  C28 UNL     1       0.210  51.209 -22.046  1.00  0.00     0.020 C 
HETATM   25  C29 UNL     1      -0.757  50.824 -20.881  1.00  0.00    -0.004 C 
HETATM   26  C30 UNL     1      -0.065  49.694 -20.075  1.00  0.00     0.019 C 
ENDROOT
BRANCH   1  27
HETATM   27  C7  UNL     1      -6.862  47.766 -23.149  1.00  0.00    -0.014 C 
HETATM   28  C8  UNL     1      -6.963  46.516 -22.267  1.00  0.00     0.010 C 
BRANCH  27  29
HETATM   29  C6  UNL     1      -6.430  47.396 -24.585  1.00  0.00     0.007 C 
BRANCH  29  30
HETATM   30  C5  UNL     1      -5.754  48.516 -25.396  1.00  0.00     0.036 C 
BRANCH  30  31
HETATM   31  C4  UNL     1      -5.143  48.062 -26.731  1.00  0.00     0.146 C 
BRANCH  31  32
HETATM   32  C2  UNL     1      -3.843  48.773 -27.057  1.00  0.00    -0.065 C 
HETATM   33  C1  UNL     1      -3.741  49.583 -28.126  1.00  0.00     0.016 C 
HETATM   34  C3  UNL     1      -2.664  48.559 -26.147  1.00  0.00     0.045 C 
ENDBRANCH  31  32
BRANCH  31  35
HETATM   35  O1  UNL     1      -6.064  48.265 -27.798  1.00  0.00    -0.391 OA
HETATM   36  H7  UNL     1      -6.371  49.184 -27.754  1.00  0.00     0.210 HD
ENDBRANCH  31  35
ENDBRANCH  30  31
ENDBRANCH  29  30
ENDBRANCH  27  29
ENDBRANCH   1  27
TORSDOF 6
ENDMDL
MODEL 8
REMARK minimizedAffinity -8.65347862
REMARK  6 active torsions:
REMARK  status: ('A' for Active; 'I' for Inactive)
REMARK    1  A    between atoms: C2_2  and  C4_4 
REMARK    2  A    between atoms: C4_4  and  O1_5 
REMARK    3  A    between atoms: C4_4  and  C5_6 
REMARK    4  A    between atoms: C5_6  and  C6_7 
REMARK    5  A    between atoms: C6_7  and  C7_8 
REMARK    6  A    between atoms: C7_8  and  C9_10 
ROOT
HETATM    1  C9  UNL     1      -2.894  51.028 -24.271  1.00  0.00    -0.001 C 
HETATM    2  C10 UNL     1      -4.092  51.984 -24.541  1.00  0.00     0.007 C 
HETATM    3  C11 UNL     1      -5.349  51.337 -23.932  1.00  0.00     0.024 C 
HETATM    4  C12 UNL     1      -4.821  50.161 -23.142  1.00  0.00     0.092 C 
HETATM    5  C13 UNL     1      -4.410  50.575 -21.703  1.00  0.00     0.272 C 
HETATM    6  O2  UNL     1      -4.059  51.675 -21.312  1.00  0.00    -0.264 OA
HETATM    7  O3  UNL     1      -4.501  49.463 -20.885  1.00  0.00    -0.305 OA
HETATM    8  C14 UNL     1      -4.958  48.339 -21.675  1.00  0.00     0.113 C 
HETATM    9  C15 UNL     1      -3.680  47.683 -22.289  1.00  0.00     0.043 C 
HETATM   10  C16 UNL     1      -2.762  48.695 -23.032  1.00  0.00     0.014 C 
HETATM   11  C17 UNL     1      -3.571  49.659 -23.942  1.00  0.00    -0.020 C 
HETATM   12  C18 UNL     1      -3.945  48.895 -25.231  1.00  0.00     0.017 C 
HETATM   13  C19 UNL     1      -5.711  49.042 -22.766  1.00  0.00     0.137 A 
HETATM   14  O4  UNL     1      -6.473  48.325 -23.719  1.00  0.00    -0.364 OA
HETATM   15  C20 UNL     1      -7.222  49.128 -22.785  1.00  0.00     0.162 A 
HETATM   16  C21 UNL     1      -8.023  48.357 -21.780  1.00  0.00     0.042 C 
HETATM   17  C22 UNL     1      -7.206  48.166 -20.484  1.00  0.00     0.014 C 
HETATM   18  C23 UNL     1      -8.023  47.669 -19.243  1.00  0.00     0.018 C 
HETATM   19  C24 UNL     1      -9.141  48.681 -18.905  1.00  0.00     0.023 C 
HETATM   20  C25 UNL     1      -8.661  46.284 -19.403  1.00  0.00     0.023 C 
HETATM   21  C26 UNL     1      -7.090  47.615 -18.021  1.00  0.00     0.135 C 
HETATM   22  O5  UNL     1      -7.515  47.377 -16.889  1.00  0.00    -0.297 OA
HETATM   23  C27 UNL     1      -5.620  47.884 -18.249  1.00  0.00     0.080 C 
HETATM   24  C28 UNL     1      -5.140  47.057 -19.433  1.00  0.00     0.020 C 
HETATM   25  C29 UNL     1      -5.854  47.394 -20.781  1.00  0.00    -0.004 C 
HETATM   26  C30 UNL     1      -6.067  46.050 -21.527  1.00  0.00     0.019 C 
ENDROOT
BRANCH   1  27
HETATM   27  C7  UNL     1      -1.737  51.183 -25.304  1.00  0.00    -0.014 C 
HETATM   28  C8  UNL     1      -1.554  50.046 -26.316  1.00  0.00     0.010 C 
BRANCH  27  29
HETATM   29  C6  UNL     1      -0.401  51.522 -24.607  1.00  0.00     0.007 C 
BRANCH  29  30
HETATM   30  C5  UNL     1      -0.442  51.604 -23.071  1.00  0.00     0.036 C 
BRANCH  30  31
HETATM   31  C4  UNL     1       0.697  52.420 -22.440  1.00  0.00     0.146 C 
BRANCH  31  32
HETATM   32  C2  UNL     1       0.440  52.765 -20.986  1.00  0.00    -0.065 C 
HETATM   33  C1  UNL     1      -0.240  51.929 -20.181  1.00  0.00     0.016 C 
HETATM   34  C3  UNL     1       0.975  54.067 -20.455  1.00  0.00     0.045 C 
ENDBRANCH  31  32
BRANCH  31  35
HETATM   35  O1  UNL     1       0.916  53.622 -23.171  1.00  0.00    -0.391 OA
HETATM   36  H7  UNL     1       0.062  54.073 -23.263  1.00  0.00     0.210 HD
ENDBRANCH  31  35
ENDBRANCH  30  31
ENDBRANCH  29  30
ENDBRANCH  27  29
ENDBRANCH   1  27
TORSDOF 6
ENDMDL
MODEL 9
REMARK minimizedAffinity -8.62742805
REMARK  6 active torsions:
REMARK  status: ('A' for Active; 'I' for Inactive)
REMARK    1  A    between atoms: C2_2  and  C4_4 
REMARK    2  A    between atoms: C4_4  and  O1_5 
REMARK    3  A    between atoms: C4_4  and  C5_6 
REMARK    4  A    between atoms: C5_6  and  C6_7 
REMARK    5  A    between atoms: C6_7  and  C7_8 
REMARK    6  A    between atoms: C7_8  and  C9_10 
ROOT
HETATM    1  C9  UNL     1      -3.451  51.082 -23.609  1.00  0.00    -0.001 C 
HETATM    2  C10 UNL     1      -4.955  51.475 -23.676  1.00  0.00     0.007 C 
HETATM    3  C11 UNL     1      -5.749  50.406 -22.905  1.00  0.00     0.024 C 
HETATM    4  C12 UNL     1      -4.690  49.565 -22.230  1.00  0.00     0.092 C 
HETATM    5  C13 UNL     1      -4.273  50.160 -20.857  1.00  0.00     0.272 C 
HETATM    6  O2  UNL     1      -4.335  51.323 -20.496  1.00  0.00    -0.264 OA
HETATM    7  O3  UNL     1      -3.795  49.133 -20.063  1.00  0.00    -0.305 OA
HETATM    8  C14 UNL     1      -3.878  47.893 -20.804  1.00  0.00     0.113 C 
HETATM    9  C15 UNL     1      -2.548  47.774 -21.615  1.00  0.00     0.043 C 
HETATM   10  C16 UNL     1      -2.226  49.040 -22.461  1.00  0.00     0.014 C 
HETATM   11  C17 UNL     1      -3.473  49.571 -23.217  1.00  0.00    -0.020 C 
HETATM   12  C18 UNL     1      -3.695  48.674 -24.455  1.00  0.00     0.017 C 
HETATM   13  C19 UNL     1      -4.997  48.200 -21.755  1.00  0.00     0.137 A 
HETATM   14  O4  UNL     1      -5.542  47.205 -22.602  1.00  0.00    -0.364 OA
HETATM   15  C20 UNL     1      -6.404  47.679 -21.549  1.00  0.00     0.162 A 
HETATM   16  C21 UNL     1      -6.678  46.691 -20.455  1.00  0.00     0.042 C 
HETATM   17  C22 UNL     1      -5.674  46.887 -19.299  1.00  0.00     0.014 C 
HETATM   18  C23 UNL     1      -6.038  46.153 -17.963  1.00  0.00     0.018 C 
HETATM   19  C24 UNL     1      -7.405  46.651 -17.440  1.00  0.00     0.023 C 
HETATM   20  C25 UNL     1      -6.090  44.623 -18.062  1.00  0.00     0.023 C 
HETATM   21  C26 UNL     1      -4.994  46.518 -16.894  1.00  0.00     0.135 C 
HETATM   22  O5  UNL     1      -5.120  46.172 -15.718  1.00  0.00    -0.297 OA
HETATM   23  C27 UNL     1      -3.802  47.338 -17.329  1.00  0.00     0.080 C 
HETATM   24  C28 UNL     1      -3.210  46.726 -18.591  1.00  0.00     0.020 C 
HETATM   25  C29 UNL     1      -4.185  46.704 -19.810  1.00  0.00    -0.004 C 
HETATM   26  C30 UNL     1      -3.953  45.359 -20.549  1.00  0.00     0.019 C 
ENDROOT
BRANCH   1  27
HETATM   27  C7  UNL     1      -2.613  51.645 -24.797  1.00  0.00    -0.014 C 
HETATM   28  C8  UNL     1      -3.263  51.602 -26.185  1.00  0.00     0.010 C 
BRANCH  27  29
HETATM   29  C6  UNL     1      -1.197  51.030 -24.830  1.00  0.00     0.007 C 
BRANCH  29  30
HETATM   30  C5  UNL     1      -0.026  52.029 -24.819  1.00  0.00     0.036 C 
BRANCH  30  31
HETATM   31  C4  UNL     1       0.230  52.733 -26.162  1.00  0.00     0.146 C 
BRANCH  31  32
HETATM   32  C2  UNL     1       1.188  51.969 -27.055  1.00  0.00    -0.065 C 
HETATM   33  C1  UNL     1       0.952  51.829 -28.372  1.00  0.00     0.016 C 
HETATM   34  C3  UNL     1       2.423  51.374 -26.435  1.00  0.00     0.045 C 
ENDBRANCH  31  32
BRANCH  31  35
HETATM   35  O1  UNL     1       0.738  54.045 -25.950  1.00  0.00    -0.391 OA
HETATM   36  H7  UNL     1       1.495  53.977 -25.348  1.00  0.00     0.210 HD
ENDBRANCH  31  35
ENDBRANCH  30  31
ENDBRANCH  29  30
ENDBRANCH  27  29
ENDBRANCH   1  27
TORSDOF 6
ENDMDL
