MODEL 1
REMARK minimizedAffinity -7.27919722
REMARK CNNscore 0.271010637
REMARK CNNaffinity 6.76747131
REMARK  10 active torsions:
REMARK  status: ('A' for Active; 'I' for Inactive)
REMARK    1  A    between atoms: O1_2  and  C2_3 
REMARK    2  A    between atoms: C2_3  and  C3_4 
REMARK    3  A    between atoms: C3_4  and  C4_5 
REMARK    4  A    between atoms: C4_5  and  O2_6 
REMARK    5  A    between atoms: O2_6  and  C5_7 
REMARK    6  A    between atoms: C29_35  and  O6_36 
REMARK    7  A    between atoms: C30_38  and  O7_39 
REMARK    8  A    between atoms: C31_40  and  O8_42 
REMARK    9  A    between atoms: C38_48  and  O9_49 
REMARK   10  A    between atoms: C39_50  and  C40_51 
ROOT
HETATM    1  C5  UNL     1     -16.558   1.967  30.594  1.00  0.00     0.122 C 
HETATM    2  C6  UNL     1     -17.012   3.432  30.497  1.00  0.00     0.033 C 
HETATM    3  C7  UNL     1     -17.067   3.948  29.060  1.00  0.00     0.014 C 
HETATM    4  C8  UNL     1     -15.683   3.862  28.328  1.00  0.00    -0.010 C 
HETATM    5  C9  UNL     1     -14.857   5.075  28.844  1.00  0.00     0.018 C 
HETATM    6  C10 UNL     1     -14.871   2.611  28.813  1.00  0.00     0.073 C 
HETATM    7  C11 UNL     1     -15.769   1.496  29.363  1.00  0.00     0.045 C 
HETATM    8  C12 UNL     1     -13.828   2.058  27.841  1.00  0.00     0.161 C 
HETATM    9  O3  UNL     1     -13.115   1.104  28.161  1.00  0.00    -0.292 OA
HETATM   10  C13 UNL     1     -13.639   2.669  26.493  1.00  0.00    -0.005 C 
HETATM   11  C14 UNL     1     -14.580   3.509  26.010  1.00  0.00    -0.013 C 
HETATM   12  C15 UNL     1     -15.884   3.864  26.729  1.00  0.00     0.058 C 
HETATM   13  C16 UNL     1     -16.858   2.763  26.387  1.00  0.00    -0.091 C 
HETATM   14  C17 UNL     1     -17.707   1.920  26.251  1.00  0.00    -0.104 C 
HETATM   15  C18 UNL     1     -18.783   0.925  26.334  1.00  0.00     0.115 C 
HETATM   16  C19 UNL     1     -19.230   0.649  24.939  1.00  0.00     0.090 A 
HETATM   17  C20 UNL     1     -20.618   0.138  24.719  1.00  0.00     0.120 A 
HETATM   18  N1  UNL     1     -20.195   1.406  24.194  1.00  0.00    -0.243 NA
HETATM   19  C21 UNL     1     -20.772   2.602  24.640  1.00  0.00     0.233 C 
HETATM   20  O4  UNL     1     -21.124   2.812  25.799  1.00  0.00    -0.277 OA
HETATM   21  C22 UNL     1     -21.058   3.559  23.448  1.00  0.00     0.309 C 
HETATM   22  C23 UNL     1     -19.952   3.481  22.376  1.00  0.00     0.053 C 
HETATM   23  C24 UNL     1     -19.968   4.719  21.470  1.00  0.00     0.028 C 
HETATM   24  C25 UNL     1     -18.828   4.714  20.458  1.00  0.00     0.020 C 
HETATM   25  C26 UNL     1     -19.211   5.542  19.231  1.00  0.00     0.013 C 
HETATM   26  C27 UNL     1     -17.688   5.277  21.320  1.00  0.00     0.158 C 
HETATM   27  O5  UNL     1     -18.291   6.287  22.152  1.00  0.00    -0.373 OA
HETATM   28  C28 UNL     1     -19.701   5.981  22.303  1.00  0.00     0.185 C 
HETATM   29  C29 UNL     1     -20.106   5.772  23.793  1.00  0.00     0.384 C 
HETATM   30  N2  UNL     1     -21.301   4.949  23.920  1.00  0.00     0.128 N 
HETATM   31  C30 UNL     1     -16.415   5.762  20.581  1.00  0.00     0.181 C 
HETATM   32  C31 UNL     1     -15.176   6.189  21.494  1.00  0.00     0.087 C 
HETATM   33  C32 UNL     1     -14.019   6.505  20.518  1.00  0.00     0.049 C 
HETATM   34  C33 UNL     1     -14.778   5.105  22.555  1.00  0.00     0.035 C 
HETATM   35  C34 UNL     1     -13.436   4.270  22.433  1.00  0.00     0.016 C 
HETATM   36  C35 UNL     1     -13.128   3.785  23.880  1.00  0.00     0.026 C 
HETATM   37  C36 UNL     1     -12.553   2.402  24.128  1.00  0.00     0.013 C 
HETATM   38  C37 UNL     1     -12.454   2.174  25.664  1.00  0.00     0.043 C 
HETATM   39  C38 UNL     1     -14.478   3.912  24.574  1.00  0.00     0.096 C 
HETATM   40  C39 UNL     1     -14.909   5.349  24.133  1.00  0.00     0.005 C 
HETATM   41  C46 UNL     1     -16.365   5.479  24.662  1.00  0.00     0.016 C 
HETATM   42  C47 UNL     1     -16.533   5.197  26.182  1.00  0.00     0.029 C 
HETATM   43  H38 UNL     1     -22.026   5.356  23.328  1.00  0.00     0.320 HD
ENDROOT
BRANCH   1  44
HETATM   44  O2  UNL     1     -15.720   1.893  31.757  1.00  0.00    -0.386 OA
BRANCH  44  45
HETATM   45  C4  UNL     1     -15.662   3.086  32.536  1.00  0.00     0.170 C 
BRANCH  45  46
HETATM   46  C3  UNL     1     -14.225   3.545  32.747  1.00  0.00     0.052 C 
BRANCH  46  47
HETATM   47  C2  UNL     1     -13.365   2.468  33.394  1.00  0.00     0.169 C 
BRANCH  47  48
HETATM   48  O1  UNL     1     -12.311   2.089  32.507  1.00  0.00    -0.396 OA
HETATM   49  C1  UNL     1     -12.311   2.838  31.299  1.00  0.00     0.201 C 
ENDBRANCH  47  48
ENDBRANCH  46  47
ENDBRANCH  45  46
ENDBRANCH  44  45
ENDBRANCH   1  44
BRANCH  39  50
HETATM   50  O9  UNL     1     -15.346   2.934  23.916  1.00  0.00    -0.384 OA
HETATM   51  H53 UNL     1     -15.293   2.088  24.394  1.00  0.00     0.211 HD
ENDBRANCH  39  50
BRANCH  40  52
HETATM   52  C40 UNL     1     -14.018   6.614  24.675  1.00  0.00    -0.002 C 
HETATM   53  C41 UNL     1     -14.733   7.944  25.033  1.00  0.00     0.005 C 
HETATM   54  C42 UNL     1     -13.805   9.007  25.635  1.00  0.00     0.000 C 
HETATM   55  C43 UNL     1     -12.625   9.311  24.730  1.00  0.00     0.000 C 
HETATM   56  C44 UNL     1     -11.878   8.029  24.411  1.00  0.00     0.000 C 
HETATM   57  C45 UNL     1     -12.811   6.988  23.797  1.00  0.00     0.005 C 
ENDBRANCH  40  52
BRANCH  32  58
HETATM   58  O8  UNL     1     -15.522   7.405  22.162  1.00  0.00    -0.387 OA
HETATM   59  H44 UNL     1     -16.449   7.616  21.914  1.00  0.00     0.210 HD
ENDBRANCH  32  58
BRANCH  31  60
HETATM   60  O7  UNL     1     -16.783   6.890  19.763  1.00  0.00    -0.390 OA
HETATM   61  H40 UNL     1     -16.065   7.062  19.132  1.00  0.00     0.210 HD
ENDBRANCH  31  60
BRANCH  29  62
HETATM   62  O6  UNL     1     -20.400   7.016  24.392  1.00  0.00    -0.366 OA
HETATM   63  H37 UNL     1     -21.310   6.902  24.729  1.00  0.00     0.212 HD
ENDBRANCH  29  62
TORSDOF 10
ENDMDL
MODEL 2
REMARK minimizedAffinity -6.64265823
REMARK CNNscore 0.215724289
REMARK CNNaffinity 6.51382828
REMARK  10 active torsions:
REMARK  status: ('A' for Active; 'I' for Inactive)
REMARK    1  A    between atoms: O1_2  and  C2_3 
REMARK    2  A    between atoms: C2_3  and  C3_4 
REMARK    3  A    between atoms: C3_4  and  C4_5 
REMARK    4  A    between atoms: C4_5  and  O2_6 
REMARK    5  A    between atoms: O2_6  and  C5_7 
REMARK    6  A    between atoms: C29_35  and  O6_36 
REMARK    7  A    between atoms: C30_38  and  O7_39 
REMARK    8  A    between atoms: C31_40  and  O8_42 
REMARK    9  A    between atoms: C38_48  and  O9_49 
REMARK   10  A    between atoms: C39_50  and  C40_51 
ROOT
HETATM    1  C5  UNL     1     -17.637   4.974  13.589  1.00  0.00     0.122 C 
HETATM    2  C6  UNL     1     -16.751   4.467  14.737  1.00  0.00     0.033 C 
HETATM    3  C7  UNL     1     -16.053   5.593  15.498  1.00  0.00     0.014 C 
HETATM    4  C8  UNL     1     -15.133   6.470  14.579  1.00  0.00    -0.010 C 
HETATM    5  C9  UNL     1     -13.825   5.648  14.385  1.00  0.00     0.018 C 
HETATM    6  C10 UNL     1     -15.731   6.584  13.134  1.00  0.00     0.073 C 
HETATM    7  C11 UNL     1     -17.250   6.378  13.102  1.00  0.00     0.045 C 
HETATM    8  C12 UNL     1     -15.317   7.812  12.321  1.00  0.00     0.161 C 
HETATM    9  O3  UNL     1     -15.707   7.956  11.160  1.00  0.00    -0.292 OA
HETATM   10  C13 UNL     1     -14.422   8.852  12.908  1.00  0.00    -0.005 C 
HETATM   11  C14 UNL     1     -14.218   8.871  14.243  1.00  0.00    -0.013 C 
HETATM   12  C15 UNL     1     -14.881   7.918  15.241  1.00  0.00     0.058 C 
HETATM   13  C16 UNL     1     -16.229   8.519  15.556  1.00  0.00    -0.091 C 
HETATM   14  C17 UNL     1     -17.351   8.851  15.840  1.00  0.00    -0.104 C 
HETATM   15  C18 UNL     1     -18.775   9.010  16.157  1.00  0.00     0.115 C 
HETATM   16  C19 UNL     1     -18.931  10.342  16.808  1.00  0.00     0.090 A 
HETATM   17  C20 UNL     1     -20.096  10.562  17.719  1.00  0.00     0.120 A 
HETATM   18  N1  UNL     1     -18.745  10.630  18.201  1.00  0.00    -0.243 NA
HETATM   19  C21 UNL     1     -18.265   9.708  19.140  1.00  0.00     0.233 C 
HETATM   20  O4  UNL     1     -18.578   8.520  19.165  1.00  0.00    -0.277 OA
HETATM   21  C22 UNL     1     -17.419  10.417  20.235  1.00  0.00     0.309 C 
HETATM   22  C23 UNL     1     -16.578  11.570  19.649  1.00  0.00     0.053 C 
HETATM   23  C24 UNL     1     -15.422  11.946  20.584  1.00  0.00     0.028 C 
HETATM   24  C25 UNL     1     -14.518  13.020  19.989  1.00  0.00     0.020 C 
HETATM   25  C26 UNL     1     -13.822  13.798  21.107  1.00  0.00     0.013 C 
HETATM   26  C27 UNL     1     -13.608  12.159  19.101  1.00  0.00     0.158 C 
HETATM   27  O5  UNL     1     -13.376  10.945  19.844  1.00  0.00    -0.373 OA
HETATM   28  C28 UNL     1     -14.481  10.746  20.762  1.00  0.00     0.185 C 
HETATM   29  C29 UNL     1     -15.226   9.400  20.510  1.00  0.00     0.384 C 
HETATM   30  N2  UNL     1     -16.597   9.441  20.998  1.00  0.00     0.128 N 
HETATM   31  C30 UNL     1     -12.310  12.816  18.569  1.00  0.00     0.181 C 
HETATM   32  C31 UNL     1     -11.458  11.970  17.516  1.00  0.00     0.087 C 
HETATM   33  C32 UNL     1     -10.305  12.895  17.062  1.00  0.00     0.049 C 
HETATM   34  C33 UNL     1     -12.306  11.441  16.306  1.00  0.00     0.035 C 
HETATM   35  C34 UNL     1     -12.129  12.027  14.844  1.00  0.00     0.016 C 
HETATM   36  C35 UNL     1     -12.656  10.910  13.895  1.00  0.00     0.026 C 
HETATM   37  C36 UNL     1     -13.441  11.262  12.645  1.00  0.00     0.013 C 
HETATM   38  C37 UNL     1     -13.913   9.944  11.968  1.00  0.00     0.043 C 
HETATM   39  C38 UNL     1     -13.515  10.058  14.820  1.00  0.00     0.096 C 
HETATM   40  C39 UNL     1     -12.558   9.881  16.044  1.00  0.00     0.005 C 
HETATM   41  C46 UNL     1     -13.441   9.168  17.106  1.00  0.00     0.016 C 
HETATM   42  C47 UNL     1     -14.109   7.851  16.618  1.00  0.00     0.029 C 
HETATM   43  H38 UNL     1     -16.575   9.747  21.972  1.00  0.00     0.320 HD
ENDROOT
BRANCH   1  44
HETATM   44  O2  UNL     1     -17.467   4.033  12.519  1.00  0.00    -0.386 OA
BRANCH  44  45
HETATM   45  C4  UNL     1     -18.450   3.001  12.460  1.00  0.00     0.170 C 
BRANCH  45  46
HETATM   46  C3  UNL     1     -17.892   1.670  12.948  1.00  0.00     0.052 C 
BRANCH  46  47
HETATM   47  C2  UNL     1     -17.070   0.963  11.878  1.00  0.00     0.169 C 
BRANCH  47  48
HETATM   48  O1  UNL     1     -17.932   0.222  11.013  1.00  0.00    -0.396 OA
HETATM   49  C1  UNL     1     -18.391  -0.989  11.599  1.00  0.00     0.201 C 
ENDBRANCH  47  48
ENDBRANCH  46  47
ENDBRANCH  45  46
ENDBRANCH  44  45
ENDBRANCH   1  44
BRANCH  39  50
HETATM   50  O9  UNL     1     -14.633  10.919  15.213  1.00  0.00    -0.384 OA
HETATM   51  H53 UNL     1     -15.366  10.797  14.583  1.00  0.00     0.211 HD
ENDBRANCH  39  50
BRANCH  40  52
HETATM   52  C40 UNL     1     -11.178   9.025  15.817  1.00  0.00    -0.002 C 
HETATM   53  C41 UNL     1      -9.868   9.782  15.473  1.00  0.00     0.005 C 
HETATM   54  C42 UNL     1      -8.630   8.880  15.400  1.00  0.00     0.000 C 
HETATM   55  C43 UNL     1      -8.813   7.740  14.414  1.00  0.00     0.000 C 
HETATM   56  C44 UNL     1     -10.061   6.953  14.765  1.00  0.00     0.000 C 
HETATM   57  C45 UNL     1     -11.287   7.861  14.817  1.00  0.00     0.005 C 
ENDBRANCH  40  52
BRANCH  32  58
HETATM   58  O8  UNL     1     -10.877  10.864  18.210  1.00  0.00    -0.387 OA
HETATM   59  H44 UNL     1     -11.206  10.900  19.136  1.00  0.00     0.210 HD
ENDBRANCH  32  58
BRANCH  31  60
HETATM   60  O7  UNL     1     -11.468  13.109  19.701  1.00  0.00    -0.390 OA
HETATM   61  H40 UNL     1     -10.764  13.716  19.414  1.00  0.00     0.210 HD
ENDBRANCH  31  60
BRANCH  29  62
HETATM   62  O6  UNL     1     -14.576   8.353  21.200  1.00  0.00    -0.366 OA
HETATM   63  H37 UNL     1     -15.279   7.974  21.761  1.00  0.00     0.212 HD
ENDBRANCH  29  62
TORSDOF 10
ENDMDL
MODEL 3
REMARK minimizedAffinity -7.37014532
REMARK CNNscore 0.184462801
REMARK CNNaffinity 5.93815613
REMARK  10 active torsions:
REMARK  status: ('A' for Active; 'I' for Inactive)
REMARK    1  A    between atoms: O1_2  and  C2_3 
REMARK    2  A    between atoms: C2_3  and  C3_4 
REMARK    3  A    between atoms: C3_4  and  C4_5 
REMARK    4  A    between atoms: C4_5  and  O2_6 
REMARK    5  A    between atoms: O2_6  and  C5_7 
REMARK    6  A    between atoms: C29_35  and  O6_36 
REMARK    7  A    between atoms: C30_38  and  O7_39 
REMARK    8  A    between atoms: C31_40  and  O8_42 
REMARK    9  A    between atoms: C38_48  and  O9_49 
REMARK   10  A    between atoms: C39_50  and  C40_51 
ROOT
HETATM    1  C5  UNL     1      -2.529  12.196  16.080  1.00  0.00     0.122 C 
HETATM    2  C6  UNL     1      -2.931  12.235  17.563  1.00  0.00     0.033 C 
HETATM    3  C7  UNL     1      -1.841  12.810  18.464  1.00  0.00     0.014 C 
HETATM    4  C8  UNL     1      -0.498  12.001  18.388  1.00  0.00    -0.010 C 
HETATM    5  C9  UNL     1      -0.715  10.741  19.275  1.00  0.00     0.018 C 
HETATM    6  C10 UNL     1      -0.275  11.423  16.949  1.00  0.00     0.073 C 
HETATM    7  C11 UNL     1      -1.008  12.224  15.866  1.00  0.00     0.045 C 
HETATM    8  C12 UNL     1       1.173  11.139  16.546  1.00  0.00     0.161 C 
HETATM    9  O3  UNL     1       1.434  10.642  15.448  1.00  0.00    -0.292 OA
HETATM   10  C13 UNL     1       2.299  11.441  17.478  1.00  0.00    -0.005 C 
HETATM   11  C14 UNL     1       2.077  12.237  18.547  1.00  0.00    -0.013 C 
HETATM   12  C15 UNL     1       0.742  12.912  18.870  1.00  0.00     0.058 C 
HETATM   13  C16 UNL     1       0.717  14.186  18.062  1.00  0.00    -0.091 C 
HETATM   14  C17 UNL     1       0.538  15.191  17.424  1.00  0.00    -0.104 C 
HETATM   15  C18 UNL     1       0.085  16.328  16.611  1.00  0.00     0.115 C 
HETATM   16  C19 UNL     1       1.075  17.425  16.807  1.00  0.00     0.090 A 
HETATM   17  C20 UNL     1       0.633  18.836  16.585  1.00  0.00     0.120 A 
HETATM   18  N1  UNL     1       1.075  18.384  17.874  1.00  0.00    -0.243 NA
HETATM   19  C21 UNL     1       0.199  18.348  18.967  1.00  0.00     0.233 C 
HETATM   20  O4  UNL     1      -0.991  18.052  18.891  1.00  0.00    -0.277 OA
HETATM   21  C22 UNL     1       0.890  18.886  20.252  1.00  0.00     0.309 C 
HETATM   22  C23 UNL     1       2.374  18.469  20.319  1.00  0.00     0.053 C 
HETATM   23  C24 UNL     1       2.916  18.573  21.751  1.00  0.00     0.028 C 
HETATM   24  C25 UNL     1       4.353  18.078  21.866  1.00  0.00     0.020 C 
HETATM   25  C26 UNL     1       5.046  18.750  23.052  1.00  0.00     0.013 C 
HETATM   26  C27 UNL     1       4.119  16.566  21.992  1.00  0.00     0.158 C 
HETATM   27  O5  UNL     1       2.936  16.421  22.804  1.00  0.00    -0.373 OA
HETATM   28  C28 UNL     1       2.137  17.625  22.675  1.00  0.00     0.185 C 
HETATM   29  C29 UNL     1       0.712  17.332  22.116  1.00  0.00     0.384 C 
HETATM   30  N2  UNL     1       0.132  18.503  21.472  1.00  0.00     0.128 N 
HETATM   31  C30 UNL     1       5.311  15.703  22.477  1.00  0.00     0.181 C 
HETATM   32  C31 UNL     1       5.109  14.118  22.446  1.00  0.00     0.087 C 
HETATM   33  C32 UNL     1       6.470  13.508  22.852  1.00  0.00     0.049 C 
HETATM   34  C33 UNL     1       4.606  13.579  21.061  1.00  0.00     0.035 C 
HETATM   35  C34 UNL     1       5.542  12.724  20.109  1.00  0.00     0.016 C 
HETATM   36  C35 UNL     1       4.567  11.922  19.197  1.00  0.00     0.026 C 
HETATM   37  C36 UNL     1       4.890  11.689  17.733  1.00  0.00     0.013 C 
HETATM   38  C37 UNL     1       3.690  10.955  17.070  1.00  0.00     0.043 C 
HETATM   39  C38 UNL     1       3.268  12.708  19.319  1.00  0.00     0.096 C 
HETATM   40  C39 UNL     1       3.171  12.894  20.868  1.00  0.00     0.005 C 
HETATM   41  C46 UNL     1       1.956  13.846  21.053  1.00  0.00     0.016 C 
HETATM   42  C47 UNL     1       0.640  13.359  20.382  1.00  0.00     0.029 C 
HETATM   43  H38 UNL     1       0.187  19.282  22.130  1.00  0.00     0.320 HD
ENDROOT
BRANCH   1  44
HETATM   44  O2  UNL     1      -3.063  10.969  15.562  1.00  0.00    -0.386 OA
BRANCH  44  45
HETATM   45  C4  UNL     1      -2.346  10.417  14.459  1.00  0.00     0.170 C 
BRANCH  45  46
HETATM   46  C3  UNL     1      -2.695   8.949  14.245  1.00  0.00     0.052 C 
BRANCH  46  47
HETATM   47  C2  UNL     1      -2.616   8.546  12.779  1.00  0.00     0.169 C 
BRANCH  47  48
HETATM   48  O1  UNL     1      -1.733   9.424  12.079  1.00  0.00    -0.396 OA
HETATM   49  C1  UNL     1      -0.609   8.750  11.529  1.00  0.00     0.201 C 
ENDBRANCH  47  48
ENDBRANCH  46  47
ENDBRANCH  45  46
ENDBRANCH  44  45
ENDBRANCH   1  44
BRANCH  39  50
HETATM   50  O9  UNL     1       3.542  14.008  18.701  1.00  0.00    -0.384 OA
HETATM   51  H53 UNL     1       3.312  13.966  17.756  1.00  0.00     0.211 HD
ENDBRANCH  39  50
BRANCH  40  52
HETATM   52  C40 UNL     1       2.958  11.553  21.787  1.00  0.00    -0.002 C 
HETATM   53  C41 UNL     1       4.168  10.973  22.567  1.00  0.00     0.005 C 
HETATM   54  C42 UNL     1       3.811   9.790  23.476  1.00  0.00     0.000 C 
HETATM   55  C43 UNL     1       3.134   8.667  22.711  1.00  0.00     0.000 C 
HETATM   56  C44 UNL     1       1.916   9.203  21.983  1.00  0.00     0.000 C 
HETATM   57  C45 UNL     1       2.289  10.368  21.070  1.00  0.00     0.005 C 
ENDBRANCH  40  52
BRANCH  32  58
HETATM   58  O8  UNL     1       4.161  13.778  23.461  1.00  0.00    -0.387 OA
HETATM   59  H44 UNL     1       3.857  14.621  23.865  1.00  0.00     0.210 HD
ENDBRANCH  32  58
BRANCH  31  60
HETATM   60  O7  UNL     1       5.617  16.093  23.830  1.00  0.00    -0.390 OA
HETATM   61  H40 UNL     1       6.488  15.732  24.066  1.00  0.00     0.210 HD
ENDBRANCH  31  60
BRANCH  29  62
HETATM   62  O6  UNL     1      -0.155  16.972  23.170  1.00  0.00    -0.366 OA
HETATM   63  H37 UNL     1      -0.886  17.616  23.099  1.00  0.00     0.212 HD
ENDBRANCH  29  62
TORSDOF 10
ENDMDL
MODEL 4
REMARK minimizedAffinity -8.55240631
REMARK CNNscore 0.167710692
REMARK CNNaffinity 6.09916687
REMARK  10 active torsions:
REMARK  status: ('A' for Active; 'I' for Inactive)
REMARK    1  A    between atoms: O1_2  and  C2_3 
REMARK    2  A    between atoms: C2_3  and  C3_4 
REMARK    3  A    between atoms: C3_4  and  C4_5 
REMARK    4  A    between atoms: C4_5  and  O2_6 
REMARK    5  A    between atoms: O2_6  and  C5_7 
REMARK    6  A    between atoms: C29_35  and  O6_36 
REMARK    7  A    between atoms: C30_38  and  O7_39 
REMARK    8  A    between atoms: C31_40  and  O8_42 
REMARK    9  A    between atoms: C38_48  and  O9_49 
REMARK   10  A    between atoms: C39_50  and  C40_51 
ROOT
HETATM    1  C5  UNL     1       7.613  14.090  23.409  1.00  0.00     0.122 C 
HETATM    2  C6  UNL     1       6.918  15.178  22.575  1.00  0.00     0.033 C 
HETATM    3  C7  UNL     1       6.304  14.643  21.283  1.00  0.00     0.014 C 
HETATM    4  C8  UNL     1       7.361  13.967  20.341  1.00  0.00    -0.010 C 
HETATM    5  C9  UNL     1       8.100  15.137  19.630  1.00  0.00     0.018 C 
HETATM    6  C10 UNL     1       8.481  13.257  21.176  1.00  0.00     0.073 C 
HETATM    7  C11 UNL     1       8.013  12.860  22.582  1.00  0.00     0.045 C 
HETATM    8  C12 UNL     1       9.218  12.107  20.488  1.00  0.00     0.161 C 
HETATM    9  O3  UNL     1      10.143  11.524  21.058  1.00  0.00    -0.292 OA
HETATM   10  C13 UNL     1       8.844  11.676  19.109  1.00  0.00    -0.005 C 
HETATM   11  C14 UNL     1       7.672  12.091  18.582  1.00  0.00    -0.013 C 
HETATM   12  C15 UNL     1       6.642  12.953  19.315  1.00  0.00     0.058 C 
HETATM   13  C16 UNL     1       5.804  11.995  20.128  1.00  0.00    -0.091 C 
HETATM   14  C17 UNL     1       5.109  11.354  20.873  1.00  0.00    -0.104 C 
HETATM   15  C18 UNL     1       4.301  10.762  21.946  1.00  0.00     0.115 C 
HETATM   16  C19 UNL     1       3.467   9.694  21.325  1.00  0.00     0.090 A 
HETATM   17  C20 UNL     1       2.189   9.302  21.995  1.00  0.00     0.120 A 
HETATM   18  N1  UNL     1       2.199   9.879  20.680  1.00  0.00    -0.243 NA
HETATM   19  C21 UNL     1       1.614  11.127  20.433  1.00  0.00     0.233 C 
HETATM   20  O4  UNL     1       1.639  12.071  21.219  1.00  0.00    -0.277 OA
HETATM   21  C22 UNL     1       0.795  11.106  19.111  1.00  0.00     0.309 C 
HETATM   22  C23 UNL     1       1.479  10.244  18.030  1.00  0.00     0.053 C 
HETATM   23  C24 UNL     1       0.959  10.593  16.629  1.00  0.00     0.028 C 
HETATM   24  C25 UNL     1       1.683   9.822  15.531  1.00  0.00     0.020 C 
HETATM   25  C26 UNL     1       0.782   9.690  14.302  1.00  0.00     0.013 C 
HETATM   26  C27 UNL     1       2.936  10.693  15.357  1.00  0.00     0.158 C 
HETATM   27  O5  UNL     1       2.486  12.055  15.503  1.00  0.00    -0.373 OA
HETATM   28  C28 UNL     1       1.277  12.060  16.305  1.00  0.00     0.185 C 
HETATM   29  C29 UNL     1       1.432  12.907  17.603  1.00  0.00     0.384 C 
HETATM   30  N2  UNL     1       0.499  12.485  18.639  1.00  0.00     0.128 N 
HETATM   31  C30 UNL     1       3.792  10.456  14.088  1.00  0.00     0.181 C 
HETATM   32  C31 UNL     1       5.176  11.248  13.999  1.00  0.00     0.087 C 
HETATM   33  C32 UNL     1       5.875  10.740  12.717  1.00  0.00     0.049 C 
HETATM   34  C33 UNL     1       6.077  11.077  15.273  1.00  0.00     0.035 C 
HETATM   35  C34 UNL     1       7.420  10.235  15.238  1.00  0.00     0.016 C 
HETATM   36  C35 UNL     1       8.267  10.776  16.428  1.00  0.00     0.026 C 
HETATM   37  C36 UNL     1       9.110   9.836  17.269  1.00  0.00     0.013 C 
HETATM   38  C37 UNL     1       9.750  10.649  18.431  1.00  0.00     0.043 C 
HETATM   39  C38 UNL     1       7.223  11.455  17.305  1.00  0.00     0.096 C 
HETATM   40  C39 UNL     1       6.440  12.297  16.246  1.00  0.00     0.005 C 
HETATM   41  C46 UNL     1       5.242  12.881  17.047  1.00  0.00     0.016 C 
HETATM   42  C47 UNL     1       5.638  13.669  18.327  1.00  0.00     0.029 C 
HETATM   43  H38 UNL     1      -0.438  12.481  18.234  1.00  0.00     0.320 HD
ENDROOT
BRANCH   1  44
HETATM   44  O2  UNL     1       8.789  14.705  23.953  1.00  0.00    -0.386 OA
BRANCH  44  45
HETATM   45  C4  UNL     1       8.662  16.094  24.252  1.00  0.00     0.170 C 
BRANCH  45  46
HETATM   46  C3  UNL     1       9.294  16.436  25.595  1.00  0.00     0.052 C 
BRANCH  46  47
HETATM   47  C2  UNL     1       8.260  16.869  26.626  1.00  0.00     0.169 C 
BRANCH  47  48
HETATM   48  O1  UNL     1       8.422  16.112  27.826  1.00  0.00    -0.396 OA
HETATM   49  C1  UNL     1       7.627  16.602  28.898  1.00  0.00     0.201 C 
ENDBRANCH  47  48
ENDBRANCH  46  47
ENDBRANCH  45  46
ENDBRANCH  44  45
ENDBRANCH   1  44
BRANCH  39  50
HETATM   50  O9  UNL     1       6.358  10.375  17.785  1.00  0.00    -0.384 OA
HETATM   51  H53 UNL     1       6.706  10.040  18.631  1.00  0.00     0.211 HD
ENDBRANCH  39  50
BRANCH  40  52
HETATM   52  C40 UNL     1       7.240  13.516  15.496  1.00  0.00    -0.002 C 
HETATM   53  C41 UNL     1       6.462  14.798  15.099  1.00  0.00     0.005 C 
HETATM   54  C42 UNL     1       7.346  15.905  14.510  1.00  0.00     0.000 C 
HETATM   55  C43 UNL     1       8.143  15.421  13.312  1.00  0.00     0.000 C 
HETATM   56  C44 UNL     1       8.954  14.198  13.694  1.00  0.00     0.000 C 
HETATM   57  C45 UNL     1       8.058  13.099  14.262  1.00  0.00     0.005 C 
ENDBRANCH  40  52
BRANCH  32  58
HETATM   58  O8  UNL     1       4.878  12.633  13.810  1.00  0.00    -0.387 OA
HETATM   59  H44 UNL     1       3.899  12.723  13.838  1.00  0.00     0.210 HD
ENDBRANCH  32  58
BRANCH  31  60
HETATM   60  O7  UNL     1       2.993  10.814  12.943  1.00  0.00    -0.390 OA
HETATM   61  H40 UNL     1       3.422  10.464  12.145  1.00  0.00     0.210 HD
ENDBRANCH  31  60
BRANCH  29  62
HETATM   62  O6  UNL     1       1.153  14.264  17.329  1.00  0.00    -0.366 OA
HETATM   63  H37 UNL     1       0.439  14.486  17.957  1.00  0.00     0.212 HD
ENDBRANCH  29  62
TORSDOF 10
ENDMDL
MODEL 5
REMARK minimizedAffinity -6.2943635
REMARK CNNscore 0.151086986
REMARK CNNaffinity 5.99122381
REMARK  10 active torsions:
REMARK  status: ('A' for Active; 'I' for Inactive)
REMARK    1  A    between atoms: O1_2  and  C2_3 
REMARK    2  A    between atoms: C2_3  and  C3_4 
REMARK    3  A    between atoms: C3_4  and  C4_5 
REMARK    4  A    between atoms: C4_5  and  O2_6 
REMARK    5  A    between atoms: O2_6  and  C5_7 
REMARK    6  A    between atoms: C29_35  and  O6_36 
REMARK    7  A    between atoms: C30_38  and  O7_39 
REMARK    8  A    between atoms: C31_40  and  O8_42 
REMARK    9  A    between atoms: C38_48  and  O9_49 
REMARK   10  A    between atoms: C39_50  and  C40_51 
ROOT
HETATM    1  C5  UNL     1     -16.051   9.401  11.238  1.00  0.00     0.122 C 
HETATM    2  C6  UNL     1     -16.492  10.629  12.050  1.00  0.00     0.033 C 
HETATM    3  C7  UNL     1     -16.204  10.495  13.544  1.00  0.00     0.014 C 
HETATM    4  C8  UNL     1     -16.913   9.255  14.192  1.00  0.00    -0.010 C 
HETATM    5  C9  UNL     1     -18.394   9.682  14.408  1.00  0.00     0.018 C 
HETATM    6  C10 UNL     1     -17.002   8.066  13.174  1.00  0.00     0.073 C 
HETATM    7  C11 UNL     1     -15.919   8.130  12.090  1.00  0.00     0.045 C 
HETATM    8  C12 UNL     1     -17.109   6.663  13.772  1.00  0.00     0.161 C 
HETATM    9  O3  UNL     1     -17.227   5.676  13.043  1.00  0.00    -0.292 OA
HETATM   10  C13 UNL     1     -17.088   6.459  15.251  1.00  0.00    -0.005 C 
HETATM   11  C14 UNL     1     -16.676   7.466  16.051  1.00  0.00    -0.013 C 
HETATM   12  C15 UNL     1     -16.171   8.823  15.556  1.00  0.00     0.058 C 
HETATM   13  C16 UNL     1     -14.707   8.631  15.241  1.00  0.00    -0.091 C 
HETATM   14  C17 UNL     1     -13.557   8.597  14.887  1.00  0.00    -0.104 C 
HETATM   15  C18 UNL     1     -12.234   8.692  14.257  1.00  0.00     0.115 C 
HETATM   16  C19 UNL     1     -11.230   8.315  15.292  1.00  0.00     0.090 A 
HETATM   17  C20 UNL     1      -9.833   8.828  15.155  1.00  0.00     0.120 A 
HETATM   18  N1  UNL     1     -10.657   9.190  16.274  1.00  0.00    -0.243 NA
HETATM   19  C21 UNL     1     -11.058  10.516  16.476  1.00  0.00     0.233 C 
HETATM   20  O4  UNL     1     -11.344  11.299  15.573  1.00  0.00    -0.277 OA
HETATM   21  C22 UNL     1     -10.935  10.912  17.976  1.00  0.00     0.309 C 
HETATM   22  C23 UNL     1     -11.316   9.742  18.907  1.00  0.00     0.053 C 
HETATM   23  C24 UNL     1     -11.655  10.242  20.317  1.00  0.00     0.028 C 
HETATM   24  C25 UNL     1     -12.125   9.120  21.235  1.00  0.00     0.020 C 
HETATM   25  C26 UNL     1     -11.844   9.482  22.693  1.00  0.00     0.013 C 
HETATM   26  C27 UNL     1     -13.605   9.033  20.836  1.00  0.00     0.158 C 
HETATM   27  O5  UNL     1     -14.028  10.393  20.611  1.00  0.00    -0.373 OA
HETATM   28  C28 UNL     1     -12.865  11.186  20.259  1.00  0.00     0.185 C 
HETATM   29  C29 UNL     1     -13.002  11.848  18.855  1.00  0.00     0.384 C 
HETATM   30  N2  UNL     1     -11.702  12.151  18.271  1.00  0.00     0.128 N 
HETATM   31  C30 UNL     1     -14.547   8.241  21.777  1.00  0.00     0.181 C 
HETATM   32  C31 UNL     1     -16.045   8.017  21.270  1.00  0.00     0.087 C 
HETATM   33  C32 UNL     1     -16.718   7.106  22.322  1.00  0.00     0.049 C 
HETATM   34  C33 UNL     1     -16.132   7.418  19.822  1.00  0.00     0.035 C 
HETATM   35  C34 UNL     1     -16.621   5.932  19.562  1.00  0.00     0.016 C 
HETATM   36  C35 UNL     1     -17.118   5.922  18.087  1.00  0.00     0.026 C 
HETATM   37  C36 UNL     1     -16.868   4.721  17.193  1.00  0.00     0.013 C 
HETATM   38  C37 UNL     1     -17.386   5.050  15.763  1.00  0.00     0.043 C 
HETATM   39  C38 UNL     1     -16.442   7.153  17.494  1.00  0.00     0.096 C 
HETATM   40  C39 UNL     1     -16.757   8.225  18.588  1.00  0.00     0.005 C 
HETATM   41  C46 UNL     1     -15.942   9.469  18.133  1.00  0.00     0.016 C 
HETATM   42  C47 UNL     1     -16.226   9.935  16.677  1.00  0.00     0.029 C 
HETATM   43  H38 UNL     1     -11.170  12.692  18.953  1.00  0.00     0.320 HD
ENDROOT
BRANCH   1  44
HETATM   44  O2  UNL     1     -17.065   9.206  10.241  1.00  0.00    -0.386 OA
BRANCH  44  45
HETATM   45  C4  UNL     1     -18.257   9.964  10.437  1.00  0.00     0.170 C 
BRANCH  45  46
HETATM   46  C3  UNL     1     -19.480   9.228   9.903  1.00  0.00     0.052 C 
BRANCH  46  47
HETATM   47  C2  UNL     1     -19.800   9.609   8.464  1.00  0.00     0.169 C 
BRANCH  47  48
HETATM   48  O1  UNL     1     -18.604  10.000   7.787  1.00  0.00    -0.396 OA
HETATM   49  C1  UNL     1     -18.819  11.048   6.851  1.00  0.00     0.201 C 
ENDBRANCH  47  48
ENDBRANCH  46  47
ENDBRANCH  45  46
ENDBRANCH  44  45
ENDBRANCH   1  44
BRANCH  39  50
HETATM   50  O9  UNL     1     -15.008   6.857  17.518  1.00  0.00    -0.384 OA
HETATM   51  H53 UNL     1     -14.755   6.437  16.677  1.00  0.00     0.211 HD
ENDBRANCH  39  50
BRANCH  40  52
HETATM   52  C40 UNL     1     -18.324   8.651  18.811  1.00  0.00    -0.002 C 
HETATM   53  C41 UNL     1     -19.171   7.888  19.865  1.00  0.00     0.005 C 
HETATM   54  C42 UNL     1     -20.582   8.457  20.058  1.00  0.00     0.000 C 
HETATM   55  C43 UNL     1     -21.356   8.517  18.753  1.00  0.00     0.000 C 
HETATM   56  C44 UNL     1     -20.569   9.307  17.725  1.00  0.00     0.000 C 
HETATM   57  C45 UNL     1     -19.174   8.718  17.531  1.00  0.00     0.005 C 
ENDBRANCH  40  52
BRANCH  32  58
HETATM   58  O8  UNL     1     -16.712   9.281  21.302  1.00  0.00    -0.387 OA
HETATM   59  H44 UNL     1     -16.047   9.950  21.580  1.00  0.00     0.210 HD
ENDBRANCH  32  58
BRANCH  31  60
HETATM   60  O7  UNL     1     -14.596   8.935  23.039  1.00  0.00    -0.390 OA
HETATM   61  H40 UNL     1     -14.992   8.344  23.701  1.00  0.00     0.210 HD
ENDBRANCH  31  60
BRANCH  29  62
HETATM   62  O6  UNL     1     -13.697  13.072  18.965  1.00  0.00    -0.366 OA
HETATM   63  H37 UNL     1     -13.083  13.724  18.576  1.00  0.00     0.212 HD
ENDBRANCH  29  62
TORSDOF 10
ENDMDL
MODEL 6
REMARK minimizedAffinity -7.93910503
REMARK CNNscore 0.14901492
REMARK CNNaffinity 6.55632544
REMARK  10 active torsions:
REMARK  status: ('A' for Active; 'I' for Inactive)
REMARK    1  A    between atoms: O1_2  and  C2_3 
REMARK    2  A    between atoms: C2_3  and  C3_4 
REMARK    3  A    between atoms: C3_4  and  C4_5 
REMARK    4  A    between atoms: C4_5  and  O2_6 
REMARK    5  A    between atoms: O2_6  and  C5_7 
REMARK    6  A    between atoms: C29_35  and  O6_36 
REMARK    7  A    between atoms: C30_38  and  O7_39 
REMARK    8  A    between atoms: C31_40  and  O8_42 
REMARK    9  A    between atoms: C38_48  and  O9_49 
REMARK   10  A    between atoms: C39_50  and  C40_51 
ROOT
HETATM    1  C5  UNL     1      -0.640  11.718  17.029  1.00  0.00     0.122 C 
HETATM    2  C6  UNL     1      -0.231  13.198  16.962  1.00  0.00     0.033 C 
HETATM    3  C7  UNL     1       1.197  13.447  17.442  1.00  0.00     0.014 C 
HETATM    4  C8  UNL     1       1.431  12.987  18.923  1.00  0.00    -0.010 C 
HETATM    5  C9  UNL     1       0.824  14.110  19.814  1.00  0.00     0.018 C 
HETATM    6  C10 UNL     1       0.568  11.723  19.259  1.00  0.00     0.073 C 
HETATM    7  C11 UNL     1       0.207  10.901  18.015  1.00  0.00     0.045 C 
HETATM    8  C12 UNL     1       1.081  10.828  20.388  1.00  0.00     0.161 C 
HETATM    9  O3  UNL     1       0.439   9.838  20.746  1.00  0.00    -0.292 OA
HETATM   10  C13 UNL     1       2.360  11.141  21.091  1.00  0.00    -0.005 C 
HETATM   11  C14 UNL     1       3.214  12.032  20.543  1.00  0.00    -0.013 C 
HETATM   12  C15 UNL     1       2.999  12.735  19.200  1.00  0.00     0.058 C 
HETATM   13  C16 UNL     1       3.503  11.779  18.147  1.00  0.00    -0.091 C 
HETATM   14  C17 UNL     1       3.804  11.088  17.208  1.00  0.00    -0.104 C 
HETATM   15  C18 UNL     1       3.954  10.329  15.960  1.00  0.00     0.115 C 
HETATM   16  C19 UNL     1       5.376   9.888  15.886  1.00  0.00     0.090 A 
HETATM   17  C20 UNL     1       5.967   9.598  14.544  1.00  0.00     0.120 A 
HETATM   18  N1  UNL     1       6.474  10.655  15.373  1.00  0.00    -0.243 NA
HETATM   19  C21 UNL     1       6.382  11.994  14.974  1.00  0.00     0.233 C 
HETATM   20  O4  UNL     1       5.430  12.469  14.358  1.00  0.00    -0.277 OA
HETATM   21  C22 UNL     1       7.706  12.755  15.267  1.00  0.00     0.309 C 
HETATM   22  C23 UNL     1       8.350  12.290  16.590  1.00  0.00     0.053 C 
HETATM   23  C24 UNL     1       9.352  13.327  17.114  1.00  0.00     0.028 C 
HETATM   24  C25 UNL     1       9.936  12.938  18.467  1.00  0.00     0.020 C 
HETATM   25  C26 UNL     1      11.310  13.584  18.651  1.00  0.00     0.013 C 
HETATM   26  C27 UNL     1       8.827  13.438  19.404  1.00  0.00     0.158 C 
HETATM   27  O5  UNL     1       8.357  14.673  18.827  1.00  0.00    -0.373 OA
HETATM   28  C28 UNL     1       8.632  14.652  17.403  1.00  0.00     0.185 C 
HETATM   29  C29 UNL     1       7.337  14.791  16.548  1.00  0.00     0.384 C 
HETATM   30  N2  UNL     1       7.505  14.228  15.215  1.00  0.00     0.128 N 
HETATM   31  C30 UNL     1       9.170  13.551  20.911  1.00  0.00     0.181 C 
HETATM   32  C31 UNL     1       7.965  13.912  21.895  1.00  0.00     0.087 C 
HETATM   33  C32 UNL     1       8.548  13.836  23.326  1.00  0.00     0.049 C 
HETATM   34  C33 UNL     1       6.712  12.985  21.716  1.00  0.00     0.035 C 
HETATM   35  C34 UNL     1       6.298  11.919  22.814  1.00  0.00     0.016 C 
HETATM   36  C35 UNL     1       4.782  11.657  22.573  1.00  0.00     0.026 C 
HETATM   37  C36 UNL     1       4.202  10.264  22.727  1.00  0.00     0.013 C 
HETATM   38  C37 UNL     1       2.700  10.304  22.323  1.00  0.00     0.043 C 
HETATM   39  C38 UNL     1       4.579  12.144  21.144  1.00  0.00     0.096 C 
HETATM   40  C39 UNL     1       5.300  13.530  21.191  1.00  0.00     0.005 C 
HETATM   41  C46 UNL     1       5.286  14.007  19.712  1.00  0.00     0.016 C 
HETATM   42  C47 UNL     1       3.878  14.039  19.052  1.00  0.00     0.029 C 
HETATM   43  H38 UNL     1       8.341  14.642  14.803  1.00  0.00     0.320 HD
ENDROOT
BRANCH   1  44
HETATM   44  O2  UNL     1      -2.011  11.710  17.455  1.00  0.00    -0.386 OA
BRANCH  44  45
HETATM   45  C4  UNL     1      -2.685  10.463  17.300  1.00  0.00     0.170 C 
BRANCH  45  46
HETATM   46  C3  UNL     1      -3.897  10.593  16.387  1.00  0.00     0.052 C 
BRANCH  46  47
HETATM   47  C2  UNL     1      -3.694   9.885  15.054  1.00  0.00     0.169 C 
BRANCH  47  48
HETATM   48  O1  UNL     1      -4.713   8.902  14.864  1.00  0.00    -0.396 OA
HETATM   49  C1  UNL     1      -4.811   8.464  13.515  1.00  0.00     0.201 C 
ENDBRANCH  47  48
ENDBRANCH  46  47
ENDBRANCH  45  46
ENDBRANCH  44  45
ENDBRANCH   1  44
BRANCH  39  50
HETATM   50  O9  UNL     1       5.361  11.230  20.308  1.00  0.00    -0.384 OA
HETATM   51  H53 UNL     1       4.794  10.489  20.030  1.00  0.00     0.211 HD
ENDBRANCH  39  50
BRANCH  40  52
HETATM   52  C40 UNL     1       4.654  14.696  22.146  1.00  0.00    -0.002 C 
HETATM   53  C41 UNL     1       5.442  15.169  23.397  1.00  0.00     0.005 C 
HETATM   54  C42 UNL     1       4.784  16.340  24.139  1.00  0.00     0.000 C 
HETATM   55  C43 UNL     1       3.356  16.027  24.546  1.00  0.00     0.000 C 
HETATM   56  C44 UNL     1       2.554  15.614  23.326  1.00  0.00     0.000 C 
HETATM   57  C45 UNL     1       3.211  14.437  22.609  1.00  0.00     0.005 C 
ENDBRANCH  40  52
BRANCH  32  58
HETATM   58  O8  UNL     1       7.591  15.270  21.651  1.00  0.00    -0.387 OA
HETATM   59  H44 UNL     1       8.147  15.592  20.907  1.00  0.00     0.210 HD
ENDBRANCH  32  58
BRANCH  31  60
HETATM   60  O7  UNL     1      10.190  14.559  21.057  1.00  0.00    -0.390 OA
HETATM   61  H40 UNL     1      10.573  14.484  21.947  1.00  0.00     0.210 HD
ENDBRANCH  31  60
BRANCH  29  62
HETATM   62  O6  UNL     1       7.015  16.155  16.378  1.00  0.00    -0.366 OA
HETATM   63  H37 UNL     1       6.977  16.266  15.409  1.00  0.00     0.212 HD
ENDBRANCH  29  62
TORSDOF 10
ENDMDL
MODEL 7
REMARK minimizedAffinity -6.83177567
REMARK CNNscore 0.143908903
REMARK CNNaffinity 6.39833307
REMARK  10 active torsions:
REMARK  status: ('A' for Active; 'I' for Inactive)
REMARK    1  A    between atoms: O1_2  and  C2_3 
REMARK    2  A    between atoms: C2_3  and  C3_4 
REMARK    3  A    between atoms: C3_4  and  C4_5 
REMARK    4  A    between atoms: C4_5  and  O2_6 
REMARK    5  A    between atoms: O2_6  and  C5_7 
REMARK    6  A    between atoms: C29_35  and  O6_36 
REMARK    7  A    between atoms: C30_38  and  O7_39 
REMARK    8  A    between atoms: C31_40  and  O8_42 
REMARK    9  A    between atoms: C38_48  and  O9_49 
REMARK   10  A    between atoms: C39_50  and  C40_51 
ROOT
HETATM    1  C5  UNL     1      -0.478   9.438  16.743  1.00  0.00     0.122 C 
HETATM    2  C6  UNL     1       0.719  10.067  16.013  1.00  0.00     0.033 C 
HETATM    3  C7  UNL     1       1.411  11.157  16.828  1.00  0.00     0.014 C 
HETATM    4  C8  UNL     1       0.450  12.338  17.207  1.00  0.00    -0.010 C 
HETATM    5  C9  UNL     1       0.338  13.217  15.928  1.00  0.00     0.018 C 
HETATM    6  C10 UNL     1      -1.009  11.817  17.442  1.00  0.00     0.073 C 
HETATM    7  C11 UNL     1      -1.055  10.338  17.845  1.00  0.00     0.045 C 
HETATM    8  C12 UNL     1      -1.899  12.669  18.349  1.00  0.00     0.161 C 
HETATM    9  O3  UNL     1      -3.074  12.355  18.551  1.00  0.00    -0.292 OA
HETATM   10  C13 UNL     1      -1.370  13.906  18.995  1.00  0.00    -0.005 C 
HETATM   11  C14 UNL     1      -0.036  14.115  19.028  1.00  0.00    -0.013 C 
HETATM   12  C15 UNL     1       1.014  13.144  18.484  1.00  0.00     0.058 C 
HETATM   13  C16 UNL     1       1.261  12.142  19.586  1.00  0.00    -0.091 C 
HETATM   14  C17 UNL     1       1.501  11.242  20.349  1.00  0.00    -0.104 C 
HETATM   15  C18 UNL     1       1.781   9.997  21.075  1.00  0.00     0.115 C 
HETATM   16  C19 UNL     1       2.334  10.382  22.405  1.00  0.00     0.090 A 
HETATM   17  C20 UNL     1       3.206   9.406  23.127  1.00  0.00     0.120 A 
HETATM   18  N1  UNL     1       3.707  10.681  22.696  1.00  0.00    -0.243 NA
HETATM   19  C21 UNL     1       4.715  10.772  21.729  1.00  0.00     0.233 C 
HETATM   20  O4  UNL     1       4.818  10.019  20.763  1.00  0.00    -0.277 OA
HETATM   21  C22 UNL     1       5.774  11.839  22.127  1.00  0.00     0.309 C 
HETATM   22  C23 UNL     1       5.124  13.058  22.815  1.00  0.00     0.053 C 
HETATM   23  C24 UNL     1       6.052  14.279  22.774  1.00  0.00     0.028 C 
HETATM   24  C25 UNL     1       5.400  15.524  23.364  1.00  0.00     0.020 C 
HETATM   25  C26 UNL     1       6.472  16.481  23.885  1.00  0.00     0.013 C 
HETATM   26  C27 UNL     1       4.591  16.016  22.154  1.00  0.00     0.158 C 
HETATM   27  O5  UNL     1       5.420  15.762  21.002  1.00  0.00    -0.373 OA
HETATM   28  C28 UNL     1       6.330  14.677  21.317  1.00  0.00     0.185 C 
HETATM   29  C29 UNL     1       6.159  13.462  20.356  1.00  0.00     0.384 C 
HETATM   30  N2  UNL     1       6.618  12.221  20.964  1.00  0.00     0.128 N 
HETATM   31  C30 UNL     1       4.038  17.461  22.211  1.00  0.00     0.181 C 
HETATM   32  C31 UNL     1       3.062  17.903  21.026  1.00  0.00     0.087 C 
HETATM   33  C32 UNL     1       2.565  19.321  21.391  1.00  0.00     0.049 C 
HETATM   34  C33 UNL     1       1.877  16.903  20.786  1.00  0.00     0.035 C 
HETATM   35  C34 UNL     1       0.381  17.279  21.150  1.00  0.00     0.016 C 
HETATM   36  C35 UNL     1      -0.498  16.348  20.264  1.00  0.00     0.026 C 
HETATM   37  C36 UNL     1      -1.783  15.749  20.804  1.00  0.00     0.013 C 
HETATM   38  C37 UNL     1      -2.375  14.792  19.731  1.00  0.00     0.043 C 
HETATM   39  C38 UNL     1       0.469  15.233  19.884  1.00  0.00     0.096 C 
HETATM   40  C39 UNL     1       1.720  16.058  19.434  1.00  0.00     0.005 C 
HETATM   41  C46 UNL     1       2.813  14.977  19.201  1.00  0.00     0.016 C 
HETATM   42  C47 UNL     1       2.406  13.842  18.219  1.00  0.00     0.029 C 
HETATM   43  H38 UNL     1       7.568  12.372  21.306  1.00  0.00     0.320 HD
ENDROOT
BRANCH   1  44
HETATM   44  O2  UNL     1      -1.476   9.214  15.736  1.00  0.00    -0.386 OA
BRANCH  44  45
HETATM   45  C4  UNL     1      -2.349   8.114  15.985  1.00  0.00     0.170 C 
BRANCH  45  46
HETATM   46  C3  UNL     1      -2.102   6.973  15.005  1.00  0.00     0.052 C 
BRANCH  46  47
HETATM   47  C2  UNL     1      -3.391   6.265  14.609  1.00  0.00     0.169 C 
BRANCH  47  48
HETATM   48  O1  UNL     1      -3.088   5.031  13.956  1.00  0.00    -0.396 OA
HETATM   49  C1  UNL     1      -4.098   4.630  13.041  1.00  0.00     0.201 C 
ENDBRANCH  47  48
ENDBRANCH  46  47
ENDBRANCH  45  46
ENDBRANCH  44  45
ENDBRANCH   1  44
BRANCH  39  50
HETATM   50  O9  UNL     1       0.780  14.546  21.139  1.00  0.00    -0.384 OA
HETATM   51  H53 UNL     1       0.148  13.817  21.268  1.00  0.00     0.211 HD
ENDBRANCH  39  50
BRANCH  40  52
HETATM   52  C40 UNL     1       1.578  16.990  18.093  1.00  0.00    -0.002 C 
HETATM   53  C41 UNL     1       1.086  18.454  18.240  1.00  0.00     0.005 C 
HETATM   54  C42 UNL     1       1.108  19.251  16.930  1.00  0.00     0.000 C 
HETATM   55  C43 UNL     1       0.307  18.570  15.835  1.00  0.00     0.000 C 
HETATM   56  C44 UNL     1       0.809  17.153  15.638  1.00  0.00     0.000 C 
HETATM   57  C45 UNL     1       0.765  16.367  16.946  1.00  0.00     0.005 C 
ENDBRANCH  40  52
BRANCH  32  58
HETATM   58  O8  UNL     1       3.842  18.012  19.833  1.00  0.00    -0.387 OA
HETATM   59  H44 UNL     1       4.757  17.734  20.062  1.00  0.00     0.210 HD
ENDBRANCH  32  58
BRANCH  31  60
HETATM   60  O7  UNL     1       5.162  18.363  22.231  1.00  0.00    -0.390 OA
HETATM   61  H40 UNL     1       4.846  19.245  22.492  1.00  0.00     0.210 HD
ENDBRANCH  31  60
BRANCH  29  62
HETATM   62  O6  UNL     1       6.932  13.658  19.191  1.00  0.00    -0.366 OA
HETATM   63  H37 UNL     1       7.506  12.868  19.157  1.00  0.00     0.212 HD
ENDBRANCH  29  62
TORSDOF 10
ENDMDL
MODEL 8
REMARK minimizedAffinity -6.49718475
REMARK CNNscore 0.13481696
REMARK CNNaffinity 5.60255384
REMARK  10 active torsions:
REMARK  status: ('A' for Active; 'I' for Inactive)
REMARK    1  A    between atoms: O1_2  and  C2_3 
REMARK    2  A    between atoms: C2_3  and  C3_4 
REMARK    3  A    between atoms: C3_4  and  C4_5 
REMARK    4  A    between atoms: C4_5  and  O2_6 
REMARK    5  A    between atoms: O2_6  and  C5_7 
REMARK    6  A    between atoms: C29_35  and  O6_36 
REMARK    7  A    between atoms: C30_38  and  O7_39 
REMARK    8  A    between atoms: C31_40  and  O8_42 
REMARK    9  A    between atoms: C38_48  and  O9_49 
REMARK   10  A    between atoms: C39_50  and  C40_51 
ROOT
HETATM    1  C5  UNL     1     -12.398  -8.646   8.146  1.00  0.00     0.122 C 
HETATM    2  C6  UNL     1     -12.849  -9.992   7.556  1.00  0.00     0.033 C 
HETATM    3  C7  UNL     1     -12.205 -10.301   6.207  1.00  0.00     0.014 C 
HETATM    4  C8  UNL     1     -12.514  -9.213   5.120  1.00  0.00    -0.010 C 
HETATM    5  C9  UNL     1     -13.957  -9.515   4.620  1.00  0.00     0.018 C 
HETATM    6  C10 UNL     1     -12.624  -7.790   5.769  1.00  0.00     0.073 C 
HETATM    7  C11 UNL     1     -11.850  -7.677   7.088  1.00  0.00     0.045 C 
HETATM    8  C12 UNL     1     -12.340  -6.600   4.852  1.00  0.00     0.161 C 
HETATM    9  O3  UNL     1     -12.448  -5.445   5.271  1.00  0.00    -0.292 OA
HETATM   10  C13 UNL     1     -11.942  -6.809   3.429  1.00  0.00    -0.005 C 
HETATM   11  C14 UNL     1     -11.541  -8.034   3.028  1.00  0.00    -0.013 C 
HETATM   12  C15 UNL     1     -11.412  -9.254   3.944  1.00  0.00     0.058 C 
HETATM   13  C16 UNL     1     -10.051  -9.146   4.587  1.00  0.00    -0.091 C 
HETATM   14  C17 UNL     1      -9.026  -9.146   5.219  1.00  0.00    -0.104 C 
HETATM   15  C18 UNL     1      -7.923  -9.212   6.185  1.00  0.00     0.115 C 
HETATM   16  C19 UNL     1      -6.657  -9.244   5.400  1.00  0.00     0.090 A 
HETATM   17  C20 UNL     1      -5.442  -9.853   6.024  1.00  0.00     0.120 A 
HETATM   18  N1  UNL     1      -6.036 -10.412   4.842  1.00  0.00    -0.243 NA
HETATM   19  C21 UNL     1      -6.608 -11.690   4.855  1.00  0.00     0.233 C 
HETATM   20  O4  UNL     1      -7.229 -12.161   5.806  1.00  0.00    -0.277 OA
HETATM   21  C22 UNL     1      -6.213 -12.489   3.580  1.00  0.00     0.309 C 
HETATM   22  C23 UNL     1      -6.155 -11.582   2.334  1.00  0.00     0.053 C 
HETATM   23  C24 UNL     1      -6.243 -12.405   1.043  1.00  0.00     0.028 C 
HETATM   24  C25 UNL     1      -6.282 -11.529  -0.204  1.00  0.00     0.020 C 
HETATM   25  C26 UNL     1      -5.740 -12.303  -1.406  1.00  0.00     0.013 C 
HETATM   26  C27 UNL     1      -7.775 -11.174  -0.250  1.00  0.00     0.158 C 
HETATM   27  O5  UNL     1      -8.472 -12.366   0.165  1.00  0.00    -0.373 OA
HETATM   28  C28 UNL     1      -7.581 -13.158   0.992  1.00  0.00     0.185 C 
HETATM   29  C29 UNL     1      -8.153 -13.393   2.422  1.00  0.00     0.384 C 
HETATM   30  N2  UNL     1      -7.099 -13.669   3.389  1.00  0.00     0.128 N 
HETATM   31  C30 UNL     1      -8.319 -10.567  -1.568  1.00  0.00     0.181 C 
HETATM   32  C31 UNL     1      -9.830 -10.049  -1.549  1.00  0.00     0.087 C 
HETATM   33  C32 UNL     1     -10.069  -9.389  -2.926  1.00  0.00     0.049 C 
HETATM   34  C33 UNL     1     -10.141  -9.073  -0.361  1.00  0.00     0.035 C 
HETATM   35  C34 UNL     1     -10.406  -7.528  -0.597  1.00  0.00     0.016 C 
HETATM   36  C35 UNL     1     -11.221  -7.062   0.646  1.00  0.00     0.026 C 
HETATM   37  C36 UNL     1     -10.976  -5.699   1.266  1.00  0.00     0.013 C 
HETATM   38  C37 UNL     1     -11.860  -5.568   2.540  1.00  0.00     0.043 C 
HETATM   39  C38 UNL     1     -10.929  -8.153   1.669  1.00  0.00     0.096 C 
HETATM   40  C39 UNL     1     -11.167  -9.441   0.814  1.00  0.00     0.005 C 
HETATM   41  C46 UNL     1     -10.713 -10.596   1.749  1.00  0.00     0.016 C 
HETATM   42  C47 UNL     1     -11.403 -10.615   3.142  1.00  0.00     0.029 C 
HETATM   43  H38 UNL     1      -6.527 -14.430   3.021  1.00  0.00     0.320 HD
ENDROOT
BRANCH   1  44
HETATM   44  O2  UNL     1     -13.563  -8.077   8.759  1.00  0.00    -0.386 OA
BRANCH  44  45
HETATM   45  C4  UNL     1     -14.765  -8.826   8.584  1.00  0.00     0.170 C 
BRANCH  45  46
HETATM   46  C3  UNL     1     -15.966  -7.913   8.369  1.00  0.00     0.052 C 
BRANCH  46  47
HETATM   47  C2  UNL     1     -16.213  -7.624   6.895  1.00  0.00     0.169 C 
BRANCH  47  48
HETATM   48  O1  UNL     1     -15.533  -6.427   6.512  1.00  0.00    -0.396 OA
HETATM   49  C1  UNL     1     -15.686  -5.380   7.462  1.00  0.00     0.201 C 
ENDBRANCH  47  48
ENDBRANCH  46  47
ENDBRANCH  45  46
ENDBRANCH  44  45
ENDBRANCH   1  44
BRANCH  39  50
HETATM   50  O9  UNL     1      -9.499  -8.037   1.963  1.00  0.00    -0.384 OA
HETATM   51  H53 UNL     1      -9.377  -7.434   2.718  1.00  0.00     0.211 HD
ENDBRANCH  39  50
BRANCH  40  52
HETATM   52  C40 UNL     1     -12.690  -9.734   0.283  1.00  0.00    -0.002 C 
HETATM   53  C41 UNL     1     -13.181 -11.202   0.173  1.00  0.00     0.005 C 
HETATM   54  C42 UNL     1     -14.657 -11.336  -0.224  1.00  0.00     0.000 C 
HETATM   55  C43 UNL     1     -14.965 -10.614  -1.524  1.00  0.00     0.000 C 
HETATM   56  C44 UNL     1     -14.541  -9.162  -1.417  1.00  0.00     0.000 C 
HETATM   57  C45 UNL     1     -13.067  -9.045  -1.039  1.00  0.00     0.005 C 
ENDBRANCH  40  52
BRANCH  32  58
HETATM   58  O8  UNL     1     -10.684 -11.192  -1.462  1.00  0.00    -0.387 OA
HETATM   59  H44 UNL     1     -10.102 -11.981  -1.387  1.00  0.00     0.210 HD
ENDBRANCH  32  58
BRANCH  31  60
HETATM   60  O7  UNL     1      -8.197 -11.568  -2.597  1.00  0.00    -0.390 OA
HETATM   61  H40 UNL     1      -8.317 -11.139  -3.461  1.00  0.00     0.210 HD
ENDBRANCH  31  60
BRANCH  29  62
HETATM   62  O6  UNL     1      -9.010 -14.516   2.420  1.00  0.00    -0.366 OA
HETATM   63  H37 UNL     1      -8.626 -15.101   3.101  1.00  0.00     0.212 HD
ENDBRANCH  29  62
TORSDOF 10
ENDMDL
MODEL 9
REMARK minimizedAffinity -6.99239779
REMARK CNNscore 0.131898209
REMARK CNNaffinity 6.15630674
REMARK  10 active torsions:
REMARK  status: ('A' for Active; 'I' for Inactive)
REMARK    1  A    between atoms: O1_2  and  C2_3 
REMARK    2  A    between atoms: C2_3  and  C3_4 
REMARK    3  A    between atoms: C3_4  and  C4_5 
REMARK    4  A    between atoms: C4_5  and  O2_6 
REMARK    5  A    between atoms: O2_6  and  C5_7 
REMARK    6  A    between atoms: C29_35  and  O6_36 
REMARK    7  A    between atoms: C30_38  and  O7_39 
REMARK    8  A    between atoms: C31_40  and  O8_42 
REMARK    9  A    between atoms: C38_48  and  O9_49 
REMARK   10  A    between atoms: C39_50  and  C40_51 
ROOT
HETATM    1  C5  UNL     1      19.748  -1.683   8.353  1.00  0.00     0.122 C 
HETATM    2  C6  UNL     1      20.503  -2.608   7.386  1.00  0.00     0.033 C 
HETATM    3  C7  UNL     1      19.581  -3.337   6.411  1.00  0.00     0.014 C 
HETATM    4  C8  UNL     1      18.511  -4.228   7.134  1.00  0.00    -0.010 C 
HETATM    5  C9  UNL     1      19.261  -5.524   7.559  1.00  0.00     0.018 C 
HETATM    6  C10 UNL     1      18.069  -3.579   8.491  1.00  0.00     0.073 C 
HETATM    7  C11 UNL     1      18.268  -2.059   8.516  1.00  0.00     0.045 C 
HETATM    8  C12 UNL     1      16.685  -3.968   9.012  1.00  0.00     0.161 C 
HETATM    9  O3  UNL     1      16.277  -3.538  10.093  1.00  0.00    -0.292 OA
HETATM   10  C13 UNL     1      15.805  -4.888   8.233  1.00  0.00    -0.005 C 
HETATM   11  C14 UNL     1      16.094  -5.140   6.938  1.00  0.00    -0.013 C 
HETATM   12  C15 UNL     1      17.255  -4.509   6.164  1.00  0.00     0.058 C 
HETATM   13  C16 UNL     1      16.748  -3.176   5.671  1.00  0.00    -0.091 C 
HETATM   14  C17 UNL     1      16.496  -2.066   5.278  1.00  0.00    -0.104 C 
HETATM   15  C18 UNL     1      16.421  -0.655   4.882  1.00  0.00     0.115 C 
HETATM   16  C19 UNL     1      15.276  -0.528   3.935  1.00  0.00     0.090 A 
HETATM   17  C20 UNL     1      15.277   0.603   2.957  1.00  0.00     0.120 A 
HETATM   18  N1  UNL     1      15.317  -0.765   2.521  1.00  0.00    -0.243 NA
HETATM   19  C21 UNL     1      16.430  -1.274   1.839  1.00  0.00     0.233 C 
HETATM   20  O4  UNL     1      17.593  -0.958   2.078  1.00  0.00    -0.277 OA
HETATM   21  C22 UNL     1      15.989  -2.162   0.640  1.00  0.00     0.309 C 
HETATM   22  C23 UNL     1      14.729  -2.986   0.974  1.00  0.00     0.053 C 
HETATM   23  C24 UNL     1      14.574  -4.176   0.018  1.00  0.00     0.028 C 
HETATM   24  C25 UNL     1      13.389  -5.063   0.381  1.00  0.00     0.020 C 
HETATM   25  C26 UNL     1      12.887  -5.802  -0.861  1.00  0.00     0.013 C 
HETATM   26  C27 UNL     1      14.017  -5.937   1.476  1.00  0.00     0.158 C 
HETATM   27  O5  UNL     1      15.369  -6.190   1.043  1.00  0.00    -0.373 OA
HETATM   28  C28 UNL     1      15.780  -5.118   0.157  1.00  0.00     0.185 C 
HETATM   29  C29 UNL     1      17.033  -4.359   0.687  1.00  0.00     0.384 C 
HETATM   30  N2  UNL     1      17.113  -3.006   0.154  1.00  0.00     0.128 N 
HETATM   31  C30 UNL     1      13.249  -7.218   1.887  1.00  0.00     0.181 C 
HETATM   32  C31 UNL     1      13.825  -8.029   3.138  1.00  0.00     0.087 C 
HETATM   33  C32 UNL     1      12.816  -9.169   3.406  1.00  0.00     0.049 C 
HETATM   34  C33 UNL     1      14.064  -7.136   4.405  1.00  0.00     0.035 C 
HETATM   35  C34 UNL     1      13.155  -7.263   5.698  1.00  0.00     0.016 C 
HETATM   36  C35 UNL     1      14.023  -6.698   6.861  1.00  0.00     0.026 C 
HETATM   37  C36 UNL     1      13.395  -5.869   7.966  1.00  0.00     0.013 C 
HETATM   38  C37 UNL     1      14.523  -5.368   8.913  1.00  0.00     0.043 C 
HETATM   39  C38 UNL     1      15.070  -5.868   6.127  1.00  0.00     0.096 C 
HETATM   40  C39 UNL     1      15.522  -6.868   5.013  1.00  0.00     0.005 C 
HETATM   41  C46 UNL     1      16.465  -6.020   4.114  1.00  0.00     0.016 C 
HETATM   42  C47 UNL     1      17.636  -5.330   4.869  1.00  0.00     0.029 C 
HETATM   43  H38 UNL     1      17.040  -3.065  -0.863  1.00  0.00     0.320 HD
ENDROOT
BRANCH   1  44
HETATM   44  O2  UNL     1      20.415  -1.811   9.617  1.00  0.00    -0.386 OA
BRANCH  44  45
HETATM   45  C4  UNL     1      21.422  -2.820   9.670  1.00  0.00     0.170 C 
BRANCH  45  46
HETATM   46  C3  UNL     1      21.290  -3.676  10.923  1.00  0.00     0.052 C 
BRANCH  46  47
HETATM   47  C2  UNL     1      19.848  -3.775  11.404  1.00  0.00     0.169 C 
BRANCH  47  48
HETATM   48  O1  UNL     1      19.674  -4.959  12.183  1.00  0.00    -0.396 OA
HETATM   49  C1  UNL     1      18.872  -5.935  11.532  1.00  0.00     0.201 C 
ENDBRANCH  47  48
ENDBRANCH  46  47
ENDBRANCH  45  46
ENDBRANCH  44  45
ENDBRANCH   1  44
BRANCH  39  50
HETATM   50  O9  UNL     1      14.328  -4.769   5.507  1.00  0.00    -0.384 OA
HETATM   51  H53 UNL     1      14.304  -4.014   6.121  1.00  0.00     0.211 HD
ENDBRANCH  39  50
BRANCH  40  52
HETATM   52  C40 UNL     1      16.296  -8.235   5.481  1.00  0.00    -0.002 C 
HETATM   53  C41 UNL     1      16.899  -8.309   6.909  1.00  0.00     0.005 C 
HETATM   54  C42 UNL     1      17.494  -9.679   7.261  1.00  0.00     0.000 C 
HETATM   55  C43 UNL     1      18.545 -10.119   6.259  1.00  0.00     0.000 C 
HETATM   56  C44 UNL     1      17.959 -10.105   4.860  1.00  0.00     0.000 C 
HETATM   57  C45 UNL     1      17.387  -8.731   4.518  1.00  0.00     0.005 C 
ENDBRANCH  40  52
BRANCH  32  58
HETATM   58  O8  UNL     1      15.060  -8.629   2.739  1.00  0.00    -0.387 OA
HETATM   59  H44 UNL     1      15.240  -8.334   1.819  1.00  0.00     0.210 HD
ENDBRANCH  32  58
BRANCH  31  60
HETATM   60  O7  UNL     1      13.223  -8.102   0.749  1.00  0.00    -0.390 OA
HETATM   61  H40 UNL     1      12.564  -8.797   0.913  1.00  0.00     0.210 HD
ENDBRANCH  31  60
BRANCH  29  62
HETATM   62  O6  UNL     1      18.209  -5.029   0.282  1.00  0.00    -0.366 OA
HETATM   63  H37 UNL     1      18.711  -4.344  -0.201  1.00  0.00     0.212 HD
ENDBRANCH  29  62
TORSDOF 10
ENDMDL
