MODEL 1
REMARK minimizedAffinity -9.12639999
REMARK CNNscore 0.506561399
REMARK CNNaffinity 7.17898989
REMARK  14 active torsions:
REMARK  status: ('A' for Active; 'I' for Inactive)
REMARK    1  A    between atoms: C2_2  and  C3_3 
REMARK    2  A    between atoms: C2_2  and  C35_44 
REMARK    3  A    between atoms: C3_3  and  C4_4 
REMARK    4  A    between atoms: C4_4  and  C5_5 
REMARK    5  A    between atoms: C5_5  and  C6_6 
REMARK    6  A    between atoms: C5_5  and  C7_9 
REMARK    7  A    between atoms: C6_6  and  O2_8 
REMARK    8  A    between atoms: C28_31  and  O4_32 
REMARK    9  A    between atoms: O4_32  and  C29_33 
REMARK   10  A    between atoms: C30_35  and  C31_36 
REMARK   11  A    between atoms: C31_36  and  O6_37 
REMARK   12  A    between atoms: C32_38  and  O7_39 
REMARK   13  A    between atoms: C33_40  and  O8_41 
REMARK   14  A    between atoms: C34_42  and  O9_43 
ROOT
HETATM    1  C7  UNL     1       0.322  52.089 -20.460  1.00  0.00     0.009 C 
HETATM    2  C8  UNL     1      -0.314  53.054 -19.432  1.00  0.00     0.007 C 
HETATM    3  C9  UNL     1      -1.380  52.238 -18.665  1.00  0.00     0.015 C 
HETATM    4  C10 UNL     1      -1.180  50.768 -19.095  1.00  0.00    -0.010 C 
HETATM    5  C11 UNL     1      -0.059  50.157 -18.186  1.00  0.00     0.021 C 
HETATM    6  C12 UNL     1      -2.354  49.782 -19.015  1.00  0.00    -0.039 C 
HETATM    7  C13 UNL     1      -2.403  48.732 -19.878  1.00  0.00    -0.066 C 
HETATM    8  C14 UNL     1      -1.309  48.537 -20.954  1.00  0.00     0.036 C 
HETATM    9  C15 UNL     1      -0.252  49.645 -21.140  1.00  0.00     0.015 C 
HETATM   10  C16 UNL     1      -0.756  50.980 -20.595  1.00  0.00    -0.028 C 
HETATM   11  C17 UNL     1      -1.928  51.471 -21.501  1.00  0.00     0.016 C 
HETATM   12  C18 UNL     1      -3.552  47.674 -19.865  1.00  0.00    -0.015 C 
HETATM   13  C19 UNL     1      -4.017  47.459 -21.327  1.00  0.00     0.020 C 
HETATM   14  C20 UNL     1      -2.944  46.363 -19.291  1.00  0.00     0.021 C 
HETATM   15  C21 UNL     1      -3.945  45.238 -19.106  1.00  0.00     0.080 C 
HETATM   16  C22 UNL     1      -5.084  45.679 -18.220  1.00  0.00     0.135 C 
HETATM   17  O3  UNL     1      -5.438  44.974 -17.273  1.00  0.00    -0.297 OA
HETATM   18  C23 UNL     1      -5.834  46.957 -18.625  1.00  0.00     0.018 C 
HETATM   19  C24 UNL     1      -6.772  46.601 -19.801  1.00  0.00     0.023 C 
HETATM   20  C25 UNL     1      -6.782  47.366 -17.465  1.00  0.00     0.023 C 
HETATM   21  C26 UNL     1      -4.791  48.109 -18.979  1.00  0.00     0.016 C 
HETATM   22  C27 UNL     1      -4.287  48.807 -17.700  1.00  0.00     0.043 C 
HETATM   23  C28 UNL     1      -3.415  50.035 -17.960  1.00  0.00     0.155 C 
ENDROOT
BRANCH  23  24
HETATM   24  O4  UNL     1      -2.782  50.410 -16.728  1.00  0.00    -0.349 OA
BRANCH  24  25
HETATM   25  C29 UNL     1      -2.868  49.419 -15.692  1.00  0.00     0.292 C 
HETATM   26  O5  UNL     1      -1.730  48.549 -15.693  1.00  0.00    -0.348 OA
HETATM   27  C30 UNL     1      -0.677  48.995 -14.823  1.00  0.00     0.179 C 
HETATM   28  C32 UNL     1      -1.135  48.882 -13.351  1.00  0.00     0.180 C 
HETATM   29  C33 UNL     1      -2.621  49.284 -13.191  1.00  0.00     0.183 C 
HETATM   30  C34 UNL     1      -3.075  50.167 -14.344  1.00  0.00     0.204 C 
BRANCH  27  31
HETATM   31  C31 UNL     1       0.594  48.194 -15.125  1.00  0.00     0.198 C 
BRANCH  31  32
HETATM   32  O6  UNL     1       1.558  48.368 -14.094  1.00  0.00    -0.398 OA
HETATM   33  H45 UNL     1       2.419  48.132 -14.480  1.00  0.00     0.209 HD
ENDBRANCH  31  32
ENDBRANCH  27  31
BRANCH  28  34
HETATM   34  O7  UNL     1      -1.012  47.536 -12.849  1.00  0.00    -0.390 OA
HETATM   35  H47 UNL     1      -1.116  47.595 -11.877  1.00  0.00     0.210 HD
ENDBRANCH  28  34
BRANCH  29  36
HETATM   36  O8  UNL     1      -3.460  48.123 -13.125  1.00  0.00    -0.390 OA
HETATM   37  H49 UNL     1      -2.856  47.357 -13.224  1.00  0.00     0.210 HD
ENDBRANCH  29  36
BRANCH  30  38
HETATM   38  O9  UNL     1      -2.336  51.401 -14.310  1.00  0.00    -0.388 OA
HETATM   39  H51 UNL     1      -2.462  51.796 -15.198  1.00  0.00     0.210 HD
ENDBRANCH  30  38
ENDBRANCH  24  25
ENDBRANCH  23  24
BRANCH   1  40
HETATM   40  C5  UNL     1       0.908  52.708 -21.758  1.00  0.00     0.089 C 
BRANCH  40  41
HETATM   41  C4  UNL     1      -0.033  52.831 -22.973  1.00  0.00     0.020 C 
BRANCH  41  42
HETATM   42  C3  UNL     1       0.632  52.522 -24.334  1.00  0.00     0.034 C 
BRANCH  42  43
HETATM   43  C2  UNL     1       0.023  51.445 -25.216  1.00  0.00    -0.086 C 
HETATM   44  C1  UNL     1      -1.167  50.868 -24.964  1.00  0.00     0.014 C 
BRANCH  43  45
HETATM   45  C35 UNL     1       0.803  51.039 -26.466  1.00  0.00     0.005 C 
HETATM   46  C36 UNL     1       0.190  51.615 -27.748  1.00  0.00     0.014 C 
HETATM   47  C37 UNL     1       2.286  51.404 -26.353  1.00  0.00     0.014 C 
ENDBRANCH  43  45
ENDBRANCH  42  43
ENDBRANCH  41  42
ENDBRANCH  40  41
BRANCH  40  48
HETATM   48  C6  UNL     1       1.488  54.065 -21.391  1.00  0.00     0.144 C 
HETATM   49  O1  UNL     1       1.603  55.023 -22.137  1.00  0.00    -0.650 OA
BRANCH  48  50
HETATM   50  O2  UNL     1       1.954  54.136 -20.127  1.00  0.00    -0.776 OA
HETATM   51  H8  UNL     1       2.318  55.044 -20.057  1.00  0.00     0.167 HD
ENDBRANCH  48  50
ENDBRANCH  40  48
ENDBRANCH   1  40
TORSDOF 14
ENDMDL
MODEL 2
REMARK minimizedAffinity -7.39328623
REMARK CNNscore 0.397723556
REMARK CNNaffinity 6.41066504
REMARK  14 active torsions:
REMARK  status: ('A' for Active; 'I' for Inactive)
REMARK    1  A    between atoms: C2_2  and  C3_3 
REMARK    2  A    between atoms: C2_2  and  C35_44 
REMARK    3  A    between atoms: C3_3  and  C4_4 
REMARK    4  A    between atoms: C4_4  and  C5_5 
REMARK    5  A    between atoms: C5_5  and  C6_6 
REMARK    6  A    between atoms: C5_5  and  C7_9 
REMARK    7  A    between atoms: C6_6  and  O2_8 
REMARK    8  A    between atoms: C28_31  and  O4_32 
REMARK    9  A    between atoms: O4_32  and  C29_33 
REMARK   10  A    between atoms: C30_35  and  C31_36 
REMARK   11  A    between atoms: C31_36  and  O6_37 
REMARK   12  A    between atoms: C32_38  and  O7_39 
REMARK   13  A    between atoms: C33_40  and  O8_41 
REMARK   14  A    between atoms: C34_42  and  O9_43 
ROOT
HETATM    1  C7  UNL     1      -9.209  46.673 -24.502  1.00  0.00     0.009 C 
HETATM    2  C8  UNL     1      -8.767  45.273 -24.018  1.00  0.00     0.007 C 
HETATM    3  C9  UNL     1      -7.551  45.492 -23.088  1.00  0.00     0.015 C 
HETATM    4  C10 UNL     1      -7.459  47.017 -22.864  1.00  0.00    -0.010 C 
HETATM    5  C11 UNL     1      -8.425  47.383 -21.686  1.00  0.00     0.021 C 
HETATM    6  C12 UNL     1      -6.111  47.656 -22.500  1.00  0.00    -0.039 C 
HETATM    7  C13 UNL     1      -5.862  48.943 -22.862  1.00  0.00    -0.066 C 
HETATM    8  C14 UNL     1      -6.906  49.758 -23.661  1.00  0.00     0.036 C 
HETATM    9  C15 UNL     1      -8.166  49.034 -24.182  1.00  0.00     0.015 C 
HETATM   10  C16 UNL     1      -7.932  47.528 -24.274  1.00  0.00    -0.028 C 
HETATM   11  C17 UNL     1      -6.892  47.259 -25.406  1.00  0.00     0.016 C 
HETATM   12  C18 UNL     1      -4.525  49.677 -22.527  1.00  0.00    -0.015 C 
HETATM   13  C19 UNL     1      -4.042  50.394 -23.814  1.00  0.00     0.020 C 
HETATM   14  C20 UNL     1      -4.853  50.715 -21.418  1.00  0.00     0.021 C 
HETATM   15  C21 UNL     1      -3.645  51.464 -20.885  1.00  0.00     0.080 C 
HETATM   16  C22 UNL     1      -2.608  50.500 -20.365  1.00  0.00     0.135 C 
HETATM   17  O3  UNL     1      -2.111  50.673 -19.250  1.00  0.00    -0.297 OA
HETATM   18  C23 UNL     1      -2.133  49.396 -21.320  1.00  0.00     0.018 C 
HETATM   19  C24 UNL     1      -1.156  50.036 -22.332  1.00  0.00     0.023 C 
HETATM   20  C25 UNL     1      -1.274  48.380 -20.519  1.00  0.00     0.023 C 
HETATM   21  C26 UNL     1      -3.389  48.700 -22.014  1.00  0.00     0.016 C 
HETATM   22  C27 UNL     1      -4.008  47.635 -21.087  1.00  0.00     0.043 C 
HETATM   23  C28 UNL     1      -5.110  46.803 -21.741  1.00  0.00     0.155 C 
ENDROOT
BRANCH  23  24
HETATM   24  O4  UNL     1      -5.793  46.068 -20.715  1.00  0.00    -0.349 OA
BRANCH  24  25
HETATM   25  C29 UNL     1      -5.302  46.309 -19.387  1.00  0.00     0.292 C 
HETATM   26  O5  UNL     1      -6.084  47.295 -18.702  1.00  0.00    -0.348 OA
HETATM   27  C30 UNL     1      -7.152  46.728 -17.926  1.00  0.00     0.179 C 
HETATM   28  C32 UNL     1      -6.566  45.935 -16.735  1.00  0.00     0.180 C 
HETATM   29  C33 UNL     1      -5.289  45.163 -17.147  1.00  0.00     0.183 C 
HETATM   30  C34 UNL     1      -5.247  44.940 -18.651  1.00  0.00     0.204 C 
BRANCH  27  31
HETATM   31  C31 UNL     1      -8.106  47.847 -17.496  1.00  0.00     0.198 C 
BRANCH  31  32
HETATM   32  O6  UNL     1      -8.829  47.476 -16.330  1.00  0.00    -0.398 OA
HETATM   33  H45 UNL     1      -9.619  48.042 -16.302  1.00  0.00     0.209 HD
ENDBRANCH  31  32
ENDBRANCH  27  31
BRANCH  28  34
HETATM   34  O7  UNL     1      -6.197  46.797 -15.641  1.00  0.00    -0.390 OA
HETATM   35  H47 UNL     1      -6.041  46.212 -14.871  1.00  0.00     0.210 HD
ENDBRANCH  28  34
BRANCH  29  36
HETATM   36  O8  UNL     1      -4.111  45.872 -16.739  1.00  0.00    -0.390 OA
HETATM   37  H49 UNL     1      -4.434  46.695 -16.314  1.00  0.00     0.210 HD
ENDBRANCH  29  36
BRANCH  30  38
HETATM   38  O9  UNL     1      -6.347  44.095 -19.032  1.00  0.00    -0.388 OA
HETATM   39  H51 UNL     1      -6.429  44.210 -20.002  1.00  0.00     0.210 HD
ENDBRANCH  30  38
ENDBRANCH  24  25
ENDBRANCH  23  24
BRANCH   1  40
HETATM   40  C5  UNL     1      -9.920  46.766 -25.879  1.00  0.00     0.089 C 
BRANCH  40  41
HETATM   41  C4  UNL     1     -10.306  45.441 -26.569  1.00  0.00     0.020 C 
BRANCH  41  42
HETATM   42  C3  UNL     1     -10.889  45.605 -27.992  1.00  0.00     0.034 C 
BRANCH  42  43
HETATM   43  C2  UNL     1     -12.234  44.972 -28.307  1.00  0.00    -0.086 C 
HETATM   44  C1  UNL     1     -12.570  43.724 -27.930  1.00  0.00     0.014 C 
BRANCH  43  45
HETATM   45  C35 UNL     1     -13.252  45.827 -29.062  1.00  0.00     0.005 C 
HETATM   46  C36 UNL     1     -14.697  45.489 -28.673  1.00  0.00     0.014 C 
HETATM   47  C37 UNL     1     -12.972  47.323 -28.893  1.00  0.00     0.014 C 
ENDBRANCH  43  45
ENDBRANCH  42  43
ENDBRANCH  41  42
ENDBRANCH  40  41
BRANCH  40  48
HETATM   48  C6  UNL     1     -11.145  47.650 -25.698  1.00  0.00     0.144 C 
HETATM   49  O1  UNL     1     -12.174  47.344 -25.120  1.00  0.00    -0.650 OA
BRANCH  48  50
HETATM   50  O2  UNL     1     -11.044  48.851 -26.305  1.00  0.00    -0.776 OA
HETATM   51  H8  UNL     1     -11.908  49.281 -26.128  1.00  0.00     0.167 HD
ENDBRANCH  48  50
ENDBRANCH  40  48
ENDBRANCH   1  40
TORSDOF 14
ENDMDL
MODEL 3
REMARK minimizedAffinity -9.16240883
REMARK CNNscore 0.31647107
REMARK CNNaffinity 6.91286612
REMARK  14 active torsions:
REMARK  status: ('A' for Active; 'I' for Inactive)
REMARK    1  A    between atoms: C2_2  and  C3_3 
REMARK    2  A    between atoms: C2_2  and  C35_44 
REMARK    3  A    between atoms: C3_3  and  C4_4 
REMARK    4  A    between atoms: C4_4  and  C5_5 
REMARK    5  A    between atoms: C5_5  and  C6_6 
REMARK    6  A    between atoms: C5_5  and  C7_9 
REMARK    7  A    between atoms: C6_6  and  O2_8 
REMARK    8  A    between atoms: C28_31  and  O4_32 
REMARK    9  A    between atoms: O4_32  and  C29_33 
REMARK   10  A    between atoms: C30_35  and  C31_36 
REMARK   11  A    between atoms: C31_36  and  O6_37 
REMARK   12  A    between atoms: C32_38  and  O7_39 
REMARK   13  A    between atoms: C33_40  and  O8_41 
REMARK   14  A    between atoms: C34_42  and  O9_43 
ROOT
HETATM    1  C7  UNL     1      -1.547  50.585 -23.607  1.00  0.00     0.009 C 
HETATM    2  C8  UNL     1      -1.148  51.405 -22.358  1.00  0.00     0.007 C 
HETATM    3  C9  UNL     1      -1.940  50.811 -21.170  1.00  0.00     0.015 C 
HETATM    4  C10 UNL     1      -2.598  49.519 -21.702  1.00  0.00    -0.010 C 
HETATM    5  C11 UNL     1      -1.546  48.365 -21.576  1.00  0.00     0.021 C 
HETATM    6  C12 UNL     1      -3.875  48.983 -21.040  1.00  0.00    -0.039 C 
HETATM    7  C13 UNL     1      -4.761  48.266 -21.781  1.00  0.00    -0.066 C 
HETATM    8  C14 UNL     1      -4.512  48.010 -23.286  1.00  0.00     0.036 C 
HETATM    9  C15 UNL     1      -3.326  48.723 -23.969  1.00  0.00     0.015 C 
HETATM   10  C16 UNL     1      -2.904  49.960 -23.181  1.00  0.00    -0.028 C 
HETATM   11  C17 UNL     1      -4.043  51.022 -23.282  1.00  0.00     0.016 C 
HETATM   12  C18 UNL     1      -6.079  47.673 -21.191  1.00  0.00    -0.015 C 
HETATM   13  C19 UNL     1      -7.231  48.006 -22.173  1.00  0.00     0.020 C 
HETATM   14  C20 UNL     1      -5.874  46.135 -21.097  1.00  0.00     0.021 C 
HETATM   15  C21 UNL     1      -7.024  45.389 -20.445  1.00  0.00     0.080 C 
HETATM   16  C22 UNL     1      -7.297  45.933 -19.065  1.00  0.00     0.135 C 
HETATM   17  O3  UNL     1      -7.406  45.162 -18.109  1.00  0.00    -0.297 OA
HETATM   18  C23 UNL     1      -7.545  47.443 -18.941  1.00  0.00     0.018 C 
HETATM   19  C24 UNL     1      -8.982  47.728 -19.432  1.00  0.00     0.023 C 
HETATM   20  C25 UNL     1      -7.551  47.825 -17.436  1.00  0.00     0.023 C 
HETATM   21  C26 UNL     1      -6.432  48.244 -19.756  1.00  0.00     0.016 C 
HETATM   22  C27 UNL     1      -5.140  48.386 -18.928  1.00  0.00     0.043 C 
HETATM   23  C28 UNL     1      -4.084  49.286 -19.567  1.00  0.00     0.155 C 
ENDROOT
BRANCH  23  24
HETATM   24  O4  UNL     1      -2.846  49.105 -18.863  1.00  0.00    -0.349 OA
BRANCH  24  25
HETATM   25  C29 UNL     1      -2.955  49.218 -17.435  1.00  0.00     0.292 C 
HETATM   26  O5  UNL     1      -1.863  48.577 -16.766  1.00  0.00    -0.348 OA
HETATM   27  C30 UNL     1      -0.768  49.465 -16.495  1.00  0.00     0.179 C 
HETATM   28  C32 UNL     1      -1.193  50.508 -15.435  1.00  0.00     0.180 C 
HETATM   29  C33 UNL     1      -2.653  50.973 -15.657  1.00  0.00     0.183 C 
HETATM   30  C34 UNL     1      -3.091  50.730 -17.094  1.00  0.00     0.204 C 
BRANCH  27  31
HETATM   31  C31 UNL     1       0.453  48.641 -16.075  1.00  0.00     0.198 C 
BRANCH  31  32
HETATM   32  O6  UNL     1       0.057  47.475 -15.363  1.00  0.00    -0.398 OA
HETATM   33  H45 UNL     1       0.831  47.187 -14.852  1.00  0.00     0.209 HD
ENDBRANCH  31  32
ENDBRANCH  27  31
BRANCH  28  34
HETATM   34  O7  UNL     1      -1.124  49.977 -14.097  1.00  0.00    -0.390 OA
HETATM   35  H47 UNL     1      -1.202  50.743 -13.493  1.00  0.00     0.210 HD
ENDBRANCH  28  34
BRANCH  29  36
HETATM   36  O8  UNL     1      -3.547  50.291 -14.768  1.00  0.00    -0.390 OA
HETATM   37  H49 UNL     1      -2.985  49.675 -14.252  1.00  0.00     0.210 HD
ENDBRANCH  29  36
BRANCH  30  38
HETATM   38  O9  UNL     1      -2.290  51.539 -17.973  1.00  0.00    -0.388 OA
HETATM   39  H51 UNL     1      -2.419  51.150 -18.863  1.00  0.00     0.210 HD
ENDBRANCH  30  38
ENDBRANCH  24  25
ENDBRANCH  23  24
BRANCH   1  40
HETATM   40  C5  UNL     1      -1.463  51.291 -24.986  1.00  0.00     0.089 C 
BRANCH  40  41
HETATM   41  C4  UNL     1      -1.901  50.484 -26.225  1.00  0.00     0.020 C 
BRANCH  41  42
HETATM   42  C3  UNL     1      -1.293  50.975 -27.559  1.00  0.00     0.034 C 
BRANCH  42  43
HETATM   43  C2  UNL     1      -0.137  51.959 -27.517  1.00  0.00    -0.086 C 
HETATM   44  C1  UNL     1      -0.256  53.255 -27.864  1.00  0.00     0.014 C 
BRANCH  43  45
HETATM   45  C35 UNL     1       1.211  51.438 -27.020  1.00  0.00     0.005 C 
HETATM   46  C36 UNL     1       2.340  51.693 -28.027  1.00  0.00     0.014 C 
HETATM   47  C37 UNL     1       1.564  52.004 -25.642  1.00  0.00     0.014 C 
ENDBRANCH  43  45
ENDBRANCH  42  43
ENDBRANCH  41  42
ENDBRANCH  40  41
BRANCH  40  48
HETATM   48  C6  UNL     1      -2.258  52.584 -24.884  1.00  0.00     0.144 C 
HETATM   49  O1  UNL     1      -2.023  53.514 -24.131  1.00  0.00    -0.650 OA
BRANCH  48  50
HETATM   50  O2  UNL     1      -3.343  52.622 -25.684  1.00  0.00    -0.776 OA
HETATM   51  H8  UNL     1      -3.759  53.487 -25.481  1.00  0.00     0.167 HD
ENDBRANCH  48  50
ENDBRANCH  40  48
ENDBRANCH   1  40
TORSDOF 14
ENDMDL
MODEL 4
REMARK minimizedAffinity -7.60551262
REMARK CNNscore 0.293677986
REMARK CNNaffinity 6.42317247
REMARK  14 active torsions:
REMARK  status: ('A' for Active; 'I' for Inactive)
REMARK    1  A    between atoms: C2_2  and  C3_3 
REMARK    2  A    between atoms: C2_2  and  C35_44 
REMARK    3  A    between atoms: C3_3  and  C4_4 
REMARK    4  A    between atoms: C4_4  and  C5_5 
REMARK    5  A    between atoms: C5_5  and  C6_6 
REMARK    6  A    between atoms: C5_5  and  C7_9 
REMARK    7  A    between atoms: C6_6  and  O2_8 
REMARK    8  A    between atoms: C28_31  and  O4_32 
REMARK    9  A    between atoms: O4_32  and  C29_33 
REMARK   10  A    between atoms: C30_35  and  C31_36 
REMARK   11  A    between atoms: C31_36  and  O6_37 
REMARK   12  A    between atoms: C32_38  and  O7_39 
REMARK   13  A    between atoms: C33_40  and  O8_41 
REMARK   14  A    between atoms: C34_42  and  O9_43 
ROOT
HETATM    1  C7  UNL     1      -8.121  47.760 -24.466  1.00  0.00     0.009 C 
HETATM    2  C8  UNL     1      -7.960  46.301 -23.981  1.00  0.00     0.007 C 
HETATM    3  C9  UNL     1      -6.981  46.340 -22.785  1.00  0.00     0.015 C 
HETATM    4  C10 UNL     1      -6.778  47.835 -22.452  1.00  0.00    -0.010 C 
HETATM    5  C11 UNL     1      -7.949  48.273 -21.507  1.00  0.00     0.021 C 
HETATM    6  C12 UNL     1      -5.493  48.294 -21.750  1.00  0.00    -0.039 C 
HETATM    7  C13 UNL     1      -5.027  49.554 -21.965  1.00  0.00    -0.066 C 
HETATM    8  C14 UNL     1      -5.760  50.515 -22.931  1.00  0.00     0.036 C 
HETATM    9  C15 UNL     1      -6.933  49.966 -23.770  1.00  0.00     0.015 C 
HETATM   10  C16 UNL     1      -6.849  48.447 -23.899  1.00  0.00    -0.028 C 
HETATM   11  C17 UNL     1      -5.607  48.095 -24.777  1.00  0.00     0.016 C 
HETATM   12  C18 UNL     1      -3.735  50.110 -21.288  1.00  0.00    -0.015 C 
HETATM   13  C19 UNL     1      -2.889  50.809 -22.383  1.00  0.00     0.020 C 
HETATM   14  C20 UNL     1      -4.200  51.141 -20.222  1.00  0.00     0.021 C 
HETATM   15  C21 UNL     1      -3.077  51.721 -19.381  1.00  0.00     0.080 C 
HETATM   16  C22 UNL     1      -2.302  50.623 -18.697  1.00  0.00     0.135 C 
HETATM   17  O3  UNL     1      -2.066  50.695 -17.490  1.00  0.00    -0.297 OA
HETATM   18  C23 UNL     1      -1.739  49.503 -19.584  1.00  0.00     0.018 C 
HETATM   19  C24 UNL     1      -0.487  50.056 -20.304  1.00  0.00     0.023 C 
HETATM   20  C25 UNL     1      -1.207  48.364 -18.672  1.00  0.00     0.023 C 
HETATM   21  C26 UNL     1      -2.864  48.987 -20.589  1.00  0.00     0.016 C 
HETATM   22  C27 UNL     1      -3.796  47.973 -19.896  1.00  0.00     0.043 C 
HETATM   23  C28 UNL     1      -4.797  47.302 -20.836  1.00  0.00     0.155 C 
ENDROOT
BRANCH  23  24
HETATM   24  O4  UNL     1      -5.777  46.618 -20.041  1.00  0.00    -0.349 OA
BRANCH  24  25
HETATM   25  C29 UNL     1      -5.732  46.938 -18.641  1.00  0.00     0.292 C 
HETATM   26  O5  UNL     1      -6.897  47.658 -18.222  1.00  0.00    -0.348 OA
HETATM   27  C30 UNL     1      -7.942  46.804 -17.730  1.00  0.00     0.179 C 
HETATM   28  C32 UNL     1      -7.499  46.155 -16.397  1.00  0.00     0.180 C 
HETATM   29  C33 UNL     1      -6.003  45.763 -16.432  1.00  0.00     0.183 C 
HETATM   30  C34 UNL     1      -5.511  45.609 -17.864  1.00  0.00     0.204 C 
BRANCH  27  31
HETATM   31  C31 UNL     1      -9.236  47.615 -17.607  1.00  0.00     0.198 C 
BRANCH  31  32
HETATM   32  O6  UNL     1     -10.065  47.421 -18.745  1.00  0.00    -0.398 OA
HETATM   33  H45 UNL     1     -10.674  48.178 -18.775  1.00  0.00     0.209 HD
ENDBRANCH  31  32
ENDBRANCH  27  31
BRANCH  28  34
HETATM   34  O7  UNL     1      -7.671  47.048 -15.279  1.00  0.00    -0.390 OA
HETATM   35  H47 UNL     1      -7.572  46.501 -14.473  1.00  0.00     0.210 HD
ENDBRANCH  28  34
BRANCH  29  36
HETATM   36  O8  UNL     1      -5.202  46.745 -15.760  1.00  0.00    -0.390 OA
HETATM   37  H49 UNL     1      -5.830  47.439 -15.466  1.00  0.00     0.210 HD
ENDBRANCH  29  36
BRANCH  30  38
HETATM   38  O9  UNL     1      -6.210  44.516 -18.485  1.00  0.00    -0.388 OA
HETATM   39  H51 UNL     1      -6.064  44.636 -19.447  1.00  0.00     0.210 HD
ENDBRANCH  30  38
ENDBRANCH  24  25
ENDBRANCH  23  24
BRANCH   1  40
HETATM   40  C5  UNL     1      -8.475  47.985 -25.961  1.00  0.00     0.089 C 
BRANCH  40  41
HETATM   41  C4  UNL     1      -8.559  46.739 -26.865  1.00  0.00     0.020 C 
BRANCH  41  42
HETATM   42  C3  UNL     1      -8.551  47.044 -28.381  1.00  0.00     0.034 C 
BRANCH  42  43
HETATM   43  C2  UNL     1      -9.442  46.222 -29.297  1.00  0.00    -0.086 C 
HETATM   44  C1  UNL     1      -8.967  45.319 -30.175  1.00  0.00     0.014 C 
BRANCH  43  45
HETATM   45  C35 UNL     1     -10.952  46.424 -29.172  1.00  0.00     0.005 C 
HETATM   46  C36 UNL     1     -11.382  47.848 -29.548  1.00  0.00     0.014 C 
HETATM   47  C37 UNL     1     -11.732  45.383 -29.980  1.00  0.00     0.014 C 
ENDBRANCH  43  45
ENDBRANCH  42  43
ENDBRANCH  41  42
ENDBRANCH  40  41
BRANCH  40  48
HETATM   48  C6  UNL     1      -9.779  48.766 -26.006  1.00  0.00     0.144 C 
HETATM   49  O1  UNL     1     -10.902  48.291 -26.026  1.00  0.00    -0.650 OA
BRANCH  48  50
HETATM   50  O2  UNL     1      -9.612  50.103 -26.088  1.00  0.00    -0.776 OA
HETATM   51  H8  UNL     1     -10.526  50.455 -26.141  1.00  0.00     0.167 HD
ENDBRANCH  48  50
ENDBRANCH  40  48
ENDBRANCH   1  40
TORSDOF 14
ENDMDL
MODEL 5
REMARK minimizedAffinity -9.93046188
REMARK CNNscore 0.291414827
REMARK CNNaffinity 6.8892417
REMARK  14 active torsions:
REMARK  status: ('A' for Active; 'I' for Inactive)
REMARK    1  A    between atoms: C2_2  and  C3_3 
REMARK    2  A    between atoms: C2_2  and  C35_44 
REMARK    3  A    between atoms: C3_3  and  C4_4 
REMARK    4  A    between atoms: C4_4  and  C5_5 
REMARK    5  A    between atoms: C5_5  and  C6_6 
REMARK    6  A    between atoms: C5_5  and  C7_9 
REMARK    7  A    between atoms: C6_6  and  O2_8 
REMARK    8  A    between atoms: C28_31  and  O4_32 
REMARK    9  A    between atoms: O4_32  and  C29_33 
REMARK   10  A    between atoms: C30_35  and  C31_36 
REMARK   11  A    between atoms: C31_36  and  O6_37 
REMARK   12  A    between atoms: C32_38  and  O7_39 
REMARK   13  A    between atoms: C33_40  and  O8_41 
REMARK   14  A    between atoms: C34_42  and  O9_43 
ROOT
HETATM    1  C7  UNL     1       0.521  52.182 -22.182  1.00  0.00     0.009 C 
HETATM    2  C8  UNL     1       0.299  52.952 -20.860  1.00  0.00     0.007 C 
HETATM    3  C9  UNL     1      -0.925  52.303 -20.172  1.00  0.00     0.015 C 
HETATM    4  C10 UNL     1      -1.242  51.029 -20.985  1.00  0.00    -0.010 C 
HETATM    5  C11 UNL     1      -0.327  49.879 -20.441  1.00  0.00     0.021 C 
HETATM    6  C12 UNL     1      -2.665  50.455 -20.982  1.00  0.00    -0.039 C 
HETATM    7  C13 UNL     1      -3.108  49.761 -22.065  1.00  0.00    -0.066 C 
HETATM    8  C14 UNL     1      -2.207  49.571 -23.308  1.00  0.00     0.036 C 
HETATM    9  C15 UNL     1      -0.859  50.322 -23.364  1.00  0.00     0.015 C 
HETATM   10  C16 UNL     1      -0.866  51.529 -22.429  1.00  0.00    -0.028 C 
HETATM   11  C17 UNL     1      -1.868  52.584 -22.994  1.00  0.00     0.016 C 
HETATM   12  C18 UNL     1      -4.536  49.134 -22.147  1.00  0.00    -0.015 C 
HETATM   13  C19 UNL     1      -5.135  49.498 -23.529  1.00  0.00     0.020 C 
HETATM   14  C20 UNL     1      -4.353  47.595 -22.023  1.00  0.00     0.021 C 
HETATM   15  C21 UNL     1      -5.653  46.813 -21.980  1.00  0.00     0.080 C 
HETATM   16  C22 UNL     1      -6.529  47.296 -20.850  1.00  0.00     0.135 C 
HETATM   17  O3  UNL     1      -7.032  46.485 -20.071  1.00  0.00    -0.297 OA
HETATM   18  C23 UNL     1      -6.845  48.798 -20.800  1.00  0.00     0.018 C 
HETATM   19  C24 UNL     1      -7.918  49.091 -21.873  1.00  0.00     0.023 C 
HETATM   20  C25 UNL     1      -7.533  49.117 -19.445  1.00  0.00     0.023 C 
HETATM   21  C26 UNL     1      -5.507  49.642 -21.004  1.00  0.00     0.016 C 
HETATM   22  C27 UNL     1      -4.725  49.759 -19.681  1.00  0.00     0.043 C 
HETATM   23  C28 UNL     1      -3.519  50.695 -19.750  1.00  0.00     0.155 C 
ENDROOT
BRANCH  23  24
HETATM   24  O4  UNL     1      -2.721  50.495 -18.573  1.00  0.00    -0.349 OA
BRANCH  24  25
HETATM   25  C29 UNL     1      -2.652  49.130 -18.130  1.00  0.00     0.292 C 
HETATM   26  O5  UNL     1      -1.325  48.770 -17.727  1.00  0.00    -0.348 OA
HETATM   27  C30 UNL     1      -1.089  48.967 -16.323  1.00  0.00     0.179 C 
HETATM   28  C32 UNL     1      -1.932  47.959 -15.507  1.00  0.00     0.180 C 
HETATM   29  C33 UNL     1      -3.334  47.763 -16.131  1.00  0.00     0.183 C 
HETATM   30  C34 UNL     1      -3.713  48.947 -17.008  1.00  0.00     0.204 C 
BRANCH  27  31
HETATM   31  C31 UNL     1       0.415  48.859 -16.049  1.00  0.00     0.198 C 
BRANCH  31  32
HETATM   32  O6  UNL     1       1.037  50.136 -16.130  1.00  0.00    -0.398 OA
HETATM   33  H45 UNL     1       1.983  49.973 -16.282  1.00  0.00     0.209 HD
ENDBRANCH  31  32
ENDBRANCH  27  31
BRANCH  28  34
HETATM   34  O7  UNL     1      -1.314  46.659 -15.452  1.00  0.00    -0.390 OA
HETATM   35  H47 UNL     1      -1.790  46.157 -14.759  1.00  0.00     0.210 HD
ENDBRANCH  28  34
BRANCH  29  36
HETATM   36  O8  UNL     1      -3.381  46.561 -16.912  1.00  0.00    -0.390 OA
HETATM   37  H49 UNL     1      -2.479  46.180 -16.862  1.00  0.00     0.210 HD
ENDBRANCH  29  36
BRANCH  30  38
HETATM   38  O9  UNL     1      -3.818  50.124 -16.188  1.00  0.00    -0.388 OA
HETATM   39  H51 UNL     1      -3.789  50.875 -16.818  1.00  0.00     0.210 HD
ENDBRANCH  30  38
ENDBRANCH  24  25
ENDBRANCH  23  24
BRANCH   1  40
HETATM   40  C5  UNL     1       1.194  52.946 -23.353  1.00  0.00     0.089 C 
BRANCH  40  41
HETATM   41  C4  UNL     1       0.507  52.878 -24.732  1.00  0.00     0.020 C 
BRANCH  41  42
HETATM   42  C3  UNL     1       0.917  51.661 -25.594  1.00  0.00     0.034 C 
BRANCH  42  43
HETATM   43  C2  UNL     1       1.193  51.873 -27.073  1.00  0.00    -0.086 C 
HETATM   44  C1  UNL     1       2.427  51.817 -27.610  1.00  0.00     0.014 C 
BRANCH  43  45
HETATM   45  C35 UNL     1      -0.009  52.128 -27.982  1.00  0.00     0.005 C 
HETATM   46  C36 UNL     1      -1.256  51.359 -27.526  1.00  0.00     0.014 C 
HETATM   47  C37 UNL     1      -0.305  53.623 -28.125  1.00  0.00     0.014 C 
ENDBRANCH  43  45
ENDBRANCH  42  43
ENDBRANCH  41  42
ENDBRANCH  40  41
BRANCH  40  48
HETATM   48  C6  UNL     1       1.366  54.392 -22.913  1.00  0.00     0.144 C 
HETATM   49  O1  UNL     1       1.592  54.776 -21.778  1.00  0.00    -0.650 OA
BRANCH  48  50
HETATM   50  O2  UNL     1       1.182  55.289 -23.904  1.00  0.00    -0.776 OA
HETATM   51  H8  UNL     1       1.292  56.158 -23.463  1.00  0.00     0.167 HD
ENDBRANCH  48  50
ENDBRANCH  40  48
ENDBRANCH   1  40
TORSDOF 14
ENDMDL
MODEL 6
REMARK minimizedAffinity -8.86009693
REMARK CNNscore 0.284543633
REMARK CNNaffinity 6.60261869
REMARK  14 active torsions:
REMARK  status: ('A' for Active; 'I' for Inactive)
REMARK    1  A    between atoms: C2_2  and  C3_3 
REMARK    2  A    between atoms: C2_2  and  C35_44 
REMARK    3  A    between atoms: C3_3  and  C4_4 
REMARK    4  A    between atoms: C4_4  and  C5_5 
REMARK    5  A    between atoms: C5_5  and  C6_6 
REMARK    6  A    between atoms: C5_5  and  C7_9 
REMARK    7  A    between atoms: C6_6  and  O2_8 
REMARK    8  A    between atoms: C28_31  and  O4_32 
REMARK    9  A    between atoms: O4_32  and  C29_33 
REMARK   10  A    between atoms: C30_35  and  C31_36 
REMARK   11  A    between atoms: C31_36  and  O6_37 
REMARK   12  A    between atoms: C32_38  and  O7_39 
REMARK   13  A    between atoms: C33_40  and  O8_41 
REMARK   14  A    between atoms: C34_42  and  O9_43 
ROOT
HETATM    1  C7  UNL     1      -1.861  50.389 -23.703  1.00  0.00     0.009 C 
HETATM    2  C8  UNL     1      -1.528  51.124 -22.385  1.00  0.00     0.007 C 
HETATM    3  C9  UNL     1      -2.480  50.551 -21.309  1.00  0.00     0.015 C 
HETATM    4  C10 UNL     1      -3.178  49.338 -21.963  1.00  0.00    -0.010 C 
HETATM    5  C11 UNL     1      -2.236  48.098 -21.789  1.00  0.00     0.021 C 
HETATM    6  C12 UNL     1      -4.552  48.882 -21.454  1.00  0.00    -0.039 C 
HETATM    7  C13 UNL     1      -5.411  48.268 -22.311  1.00  0.00    -0.066 C 
HETATM    8  C14 UNL     1      -5.032  48.052 -23.795  1.00  0.00     0.036 C 
HETATM    9  C15 UNL     1      -3.732  48.692 -24.325  1.00  0.00     0.015 C 
HETATM   10  C16 UNL     1      -3.298  49.860 -23.442  1.00  0.00    -0.028 C 
HETATM   11  C17 UNL     1      -4.336  51.014 -23.604  1.00  0.00     0.016 C 
HETATM   12  C18 UNL     1      -6.824  47.761 -21.881  1.00  0.00    -0.015 C 
HETATM   13  C19 UNL     1      -7.842  48.224 -22.955  1.00  0.00     0.020 C 
HETATM   14  C20 UNL     1      -6.748  46.210 -21.840  1.00  0.00     0.021 C 
HETATM   15  C21 UNL     1      -8.012  45.534 -21.340  1.00  0.00     0.080 C 
HETATM   16  C22 UNL     1      -8.381  46.043 -19.969  1.00  0.00     0.135 C 
HETATM   17  O3  UNL     1      -8.645  45.247 -19.066  1.00  0.00    -0.297 OA
HETATM   18  C23 UNL     1      -8.523  47.563 -19.799  1.00  0.00     0.018 C 
HETATM   19  C24 UNL     1      -9.878  47.982 -20.415  1.00  0.00     0.023 C 
HETATM   20  C25 UNL     1      -8.652  47.885 -18.286  1.00  0.00     0.023 C 
HETATM   21  C26 UNL     1      -7.276  48.303 -20.463  1.00  0.00     0.016 C 
HETATM   22  C27 UNL     1      -6.067  48.306 -19.507  1.00  0.00     0.043 C 
HETATM   23  C28 UNL     1      -4.886  49.143 -19.996  1.00  0.00     0.155 C 
ENDROOT
BRANCH  23  24
HETATM   24  O4  UNL     1      -3.743  48.835 -19.184  1.00  0.00    -0.349 OA
BRANCH  24  25
HETATM   25  C29 UNL     1      -4.051  48.120 -17.977  1.00  0.00     0.292 C 
HETATM   26  O5  UNL     1      -4.487  46.782 -18.247  1.00  0.00    -0.348 OA
HETATM   27  C30 UNL     1      -3.414  45.826 -18.235  1.00  0.00     0.179 C 
HETATM   28  C32 UNL     1      -2.869  45.675 -16.795  1.00  0.00     0.180 C 
HETATM   29  C33 UNL     1      -2.824  47.039 -16.065  1.00  0.00     0.183 C 
HETATM   30  C34 UNL     1      -2.798  48.191 -17.058  1.00  0.00     0.204 C 
BRANCH  27  31
HETATM   31  C31 UNL     1      -3.913  44.508 -18.834  1.00  0.00     0.198 C 
BRANCH  31  32
HETATM   32  O6  UNL     1      -3.808  44.524 -20.252  1.00  0.00    -0.398 OA
HETATM   33  H45 UNL     1      -4.420  43.845 -20.582  1.00  0.00     0.209 HD
ENDBRANCH  31  32
ENDBRANCH  27  31
BRANCH  28  34
HETATM   34  O7  UNL     1      -3.689  44.801 -15.996  1.00  0.00    -0.390 OA
HETATM   35  H47 UNL     1      -3.170  44.597 -15.191  1.00  0.00     0.210 HD
ENDBRANCH  28  34
BRANCH  29  36
HETATM   36  O8  UNL     1      -3.954  47.189 -15.194  1.00  0.00    -0.390 OA
HETATM   37  H49 UNL     1      -4.486  46.373 -15.312  1.00  0.00     0.210 HD
ENDBRANCH  29  36
BRANCH  30  38
HETATM   38  O9  UNL     1      -1.582  48.124 -17.824  1.00  0.00    -0.388 OA
HETATM   39  H51 UNL     1      -1.742  48.697 -18.602  1.00  0.00     0.210 HD
ENDBRANCH  30  38
ENDBRANCH  24  25
ENDBRANCH  23  24
BRANCH   1  40
HETATM   40  C5  UNL     1      -1.583  51.139 -25.033  1.00  0.00     0.089 C 
BRANCH  40  41
HETATM   41  C4  UNL     1      -1.812  50.364 -26.347  1.00  0.00     0.020 C 
BRANCH  41  42
HETATM   42  C3  UNL     1      -1.245  51.056 -27.608  1.00  0.00     0.034 C 
BRANCH  42  43
HETATM   43  C2  UNL     1      -0.081  52.020 -27.451  1.00  0.00    -0.086 C 
HETATM   44  C1  UNL     1      -0.159  53.328 -27.762  1.00  0.00     0.014 C 
BRANCH  43  45
HETATM   45  C35 UNL     1       1.221  51.462 -26.877  1.00  0.00     0.005 C 
HETATM   46  C36 UNL     1       2.417  51.705 -27.806  1.00  0.00     0.014 C 
HETATM   47  C37 UNL     1       1.497  52.002 -25.471  1.00  0.00     0.014 C 
ENDBRANCH  43  45
ENDBRANCH  42  43
ENDBRANCH  41  42
ENDBRANCH  40  41
BRANCH  40  48
HETATM   48  C6  UNL     1      -2.412  52.415 -25.016  1.00  0.00     0.144 C 
HETATM   49  O1  UNL     1      -3.456  52.603 -25.617  1.00  0.00    -0.650 OA
BRANCH  48  50
HETATM   50  O2  UNL     1      -1.859  53.414 -24.297  1.00  0.00    -0.776 OA
HETATM   51  H8  UNL     1      -2.483  54.162 -24.409  1.00  0.00     0.167 HD
ENDBRANCH  48  50
ENDBRANCH  40  48
ENDBRANCH   1  40
TORSDOF 14
ENDMDL
MODEL 7
REMARK minimizedAffinity -9.23808098
REMARK CNNscore 0.283701181
REMARK CNNaffinity 6.88644981
REMARK  14 active torsions:
REMARK  status: ('A' for Active; 'I' for Inactive)
REMARK    1  A    between atoms: C2_2  and  C3_3 
REMARK    2  A    between atoms: C2_2  and  C35_44 
REMARK    3  A    between atoms: C3_3  and  C4_4 
REMARK    4  A    between atoms: C4_4  and  C5_5 
REMARK    5  A    between atoms: C5_5  and  C6_6 
REMARK    6  A    between atoms: C5_5  and  C7_9 
REMARK    7  A    between atoms: C6_6  and  O2_8 
REMARK    8  A    between atoms: C28_31  and  O4_32 
REMARK    9  A    between atoms: O4_32  and  C29_33 
REMARK   10  A    between atoms: C30_35  and  C31_36 
REMARK   11  A    between atoms: C31_36  and  O6_37 
REMARK   12  A    between atoms: C32_38  and  O7_39 
REMARK   13  A    between atoms: C33_40  and  O8_41 
REMARK   14  A    between atoms: C34_42  and  O9_43 
ROOT
HETATM    1  C7  UNL     1      -2.627  51.546 -24.848  1.00  0.00     0.009 C 
HETATM    2  C8  UNL     1      -2.859  52.750 -23.905  1.00  0.00     0.007 C 
HETATM    3  C9  UNL     1      -3.217  52.162 -22.520  1.00  0.00     0.015 C 
HETATM    4  C10 UNL     1      -2.958  50.643 -22.625  1.00  0.00    -0.010 C 
HETATM    5  C11 UNL     1      -1.438  50.400 -22.333  1.00  0.00     0.021 C 
HETATM    6  C12 UNL     1      -3.711  49.674 -21.702  1.00  0.00    -0.039 C 
HETATM    7  C13 UNL     1      -3.961  48.407 -22.126  1.00  0.00    -0.066 C 
HETATM    8  C14 UNL     1      -3.524  47.941 -23.535  1.00  0.00     0.036 C 
HETATM    9  C15 UNL     1      -2.947  48.987 -24.512  1.00  0.00     0.015 C 
HETATM   10  C16 UNL     1      -3.379  50.398 -24.120  1.00  0.00    -0.028 C 
HETATM   11  C17 UNL     1      -4.917  50.526 -24.355  1.00  0.00     0.016 C 
HETATM   12  C18 UNL     1      -4.711  47.350 -21.254  1.00  0.00    -0.015 C 
HETATM   13  C19 UNL     1      -5.779  46.669 -22.147  1.00  0.00     0.020 C 
HETATM   14  C20 UNL     1      -3.646  46.315 -20.796  1.00  0.00     0.021 C 
HETATM   15  C21 UNL     1      -4.172  45.255 -19.845  1.00  0.00     0.080 C 
HETATM   16  C22 UNL     1      -4.792  45.893 -18.627  1.00  0.00     0.135 C 
HETATM   17  O3  UNL     1      -4.481  45.501 -17.501  1.00  0.00    -0.297 OA
HETATM   18  C23 UNL     1      -5.887  46.943 -18.864  1.00  0.00     0.018 C 
HETATM   19  C24 UNL     1      -7.186  46.194 -19.240  1.00  0.00     0.023 C 
HETATM   20  C25 UNL     1      -6.203  47.646 -17.516  1.00  0.00     0.023 C 
HETATM   21  C26 UNL     1      -5.414  47.978 -19.981  1.00  0.00     0.016 C 
HETATM   22  C27 UNL     1      -4.502  49.063 -19.374  1.00  0.00     0.043 C 
HETATM   23  C28 UNL     1      -4.143  50.190 -20.341  1.00  0.00     0.155 C 
ENDROOT
BRANCH  23  24
HETATM   24  O4  UNL     1      -3.078  50.961 -19.765  1.00  0.00    -0.349 OA
BRANCH  24  25
HETATM   25  C29 UNL     1      -2.122  50.188 -19.022  1.00  0.00     0.292 C 
HETATM   26  O5  UNL     1      -0.800  50.728 -19.133  1.00  0.00    -0.348 OA
HETATM   27  C30 UNL     1      -0.479  51.655 -18.084  1.00  0.00     0.179 C 
HETATM   28  C32 UNL     1      -0.380  50.903 -16.736  1.00  0.00     0.180 C 
HETATM   29  C33 UNL     1      -1.466  49.806 -16.623  1.00  0.00     0.183 C 
HETATM   30  C34 UNL     1      -2.633  50.094 -17.556  1.00  0.00     0.204 C 
BRANCH  27  31
HETATM   31  C31 UNL     1       0.805  52.404 -18.454  1.00  0.00     0.198 C 
BRANCH  31  32
HETATM   32  O6  UNL     1       0.505  53.663 -19.043  1.00  0.00    -0.398 OA
HETATM   33  H45 UNL     1       1.294  53.929 -19.544  1.00  0.00     0.209 HD
ENDBRANCH  31  32
ENDBRANCH  27  31
BRANCH  28  34
HETATM   34  O7  UNL     1       0.893  50.246 -16.577  1.00  0.00    -0.390 OA
HETATM   35  H47 UNL     1       0.950  49.982 -15.636  1.00  0.00     0.210 HD
ENDBRANCH  28  34
BRANCH  29  36
HETATM   36  O8  UNL     1      -0.923  48.515 -16.929  1.00  0.00    -0.390 OA
HETATM   37  H49 UNL     1       0.018  48.674 -17.158  1.00  0.00     0.210 HD
ENDBRANCH  29  36
BRANCH  30  38
HETATM   38  O9  UNL     1      -3.274  51.315 -17.145  1.00  0.00    -0.388 OA
HETATM   39  H51 UNL     1      -3.817  51.587 -17.914  1.00  0.00     0.210 HD
ENDBRANCH  30  38
ENDBRANCH  24  25
ENDBRANCH  23  24
BRANCH   1  40
HETATM   40  C5  UNL     1      -2.895  51.758 -26.362  1.00  0.00     0.089 C 
BRANCH  40  41
HETATM   41  C4  UNL     1      -2.015  52.786 -27.101  1.00  0.00     0.020 C 
BRANCH  41  42
HETATM   42  C3  UNL     1      -0.786  53.273 -26.300  1.00  0.00     0.034 C 
BRANCH  42  43
HETATM   43  C2  UNL     1       0.367  52.310 -26.073  1.00  0.00    -0.086 C 
HETATM   44  C1  UNL     1       0.806  51.958 -24.850  1.00  0.00     0.014 C 
BRANCH  43  45
HETATM   45  C35 UNL     1       1.023  51.697 -27.310  1.00  0.00     0.005 C 
HETATM   46  C36 UNL     1       0.654  52.448 -28.596  1.00  0.00     0.014 C 
HETATM   47  C37 UNL     1       2.541  51.589 -27.151  1.00  0.00     0.014 C 
ENDBRANCH  43  45
ENDBRANCH  42  43
ENDBRANCH  41  42
ENDBRANCH  40  41
BRANCH  40  48
HETATM   48  C6  UNL     1      -2.804  50.396 -27.033  1.00  0.00     0.144 C 
HETATM   49  O1  UNL     1      -1.816  49.685 -27.085  1.00  0.00    -0.650 OA
BRANCH  48  50
HETATM   50  O2  UNL     1      -3.939  50.021 -27.661  1.00  0.00    -0.776 OA
HETATM   51  H8  UNL     1      -3.713  49.156 -28.064  1.00  0.00     0.167 HD
ENDBRANCH  48  50
ENDBRANCH  40  48
ENDBRANCH   1  40
TORSDOF 14
ENDMDL
MODEL 8
REMARK minimizedAffinity -7.45064974
REMARK CNNscore 0.280371398
REMARK CNNaffinity 6.83441496
REMARK  14 active torsions:
REMARK  status: ('A' for Active; 'I' for Inactive)
REMARK    1  A    between atoms: C2_2  and  C3_3 
REMARK    2  A    between atoms: C2_2  and  C35_44 
REMARK    3  A    between atoms: C3_3  and  C4_4 
REMARK    4  A    between atoms: C4_4  and  C5_5 
REMARK    5  A    between atoms: C5_5  and  C6_6 
REMARK    6  A    between atoms: C5_5  and  C7_9 
REMARK    7  A    between atoms: C6_6  and  O2_8 
REMARK    8  A    between atoms: C28_31  and  O4_32 
REMARK    9  A    between atoms: O4_32  and  C29_33 
REMARK   10  A    between atoms: C30_35  and  C31_36 
REMARK   11  A    between atoms: C31_36  and  O6_37 
REMARK   12  A    between atoms: C32_38  and  O7_39 
REMARK   13  A    between atoms: C33_40  and  O8_41 
REMARK   14  A    between atoms: C34_42  and  O9_43 
ROOT
HETATM    1  C7  UNL     1       1.779  54.797  -8.468  1.00  0.00     0.009 C 
HETATM    2  C8  UNL     1       0.365  55.406  -8.603  1.00  0.00     0.007 C 
HETATM    3  C9  UNL     1      -0.359  54.600  -9.707  1.00  0.00     0.015 C 
HETATM    4  C10 UNL     1       0.558  53.399 -10.024  1.00  0.00    -0.010 C 
HETATM    5  C11 UNL     1       0.234  52.269  -8.988  1.00  0.00     0.021 C 
HETATM    6  C12 UNL     1       0.485  52.724 -11.401  1.00  0.00    -0.039 C 
HETATM    7  C13 UNL     1       1.592  52.117 -11.907  1.00  0.00    -0.066 C 
HETATM    8  C14 UNL     1       2.928  52.125 -11.126  1.00  0.00     0.036 C 
HETATM    9  C15 UNL     1       3.026  52.974  -9.842  1.00  0.00     0.015 C 
HETATM   10  C16 UNL     1       1.966  54.073  -9.829  1.00  0.00    -0.028 C 
HETATM   11  C17 UNL     1       2.313  55.106 -10.948  1.00  0.00     0.016 C 
HETATM   12  C18 UNL     1       1.609  51.398 -13.293  1.00  0.00    -0.015 C 
HETATM   13  C19 UNL     1       2.879  51.860 -14.052  1.00  0.00     0.020 C 
HETATM   14  C20 UNL     1       1.675  49.873 -13.003  1.00  0.00     0.021 C 
HETATM   15  C21 UNL     1       1.597  48.997 -14.240  1.00  0.00     0.080 C 
HETATM   16  C22 UNL     1       0.343  49.293 -15.024  1.00  0.00     0.135 C 
HETATM   17  O3  UNL     1      -0.385  48.370 -15.394  1.00  0.00    -0.297 OA
HETATM   18  C23 UNL     1       0.096  50.754 -15.427  1.00  0.00     0.018 C 
HETATM   19  C24 UNL     1       1.023  51.078 -16.621  1.00  0.00     0.023 C 
HETATM   20  C25 UNL     1      -1.345  50.878 -15.993  1.00  0.00     0.023 C 
HETATM   21  C26 UNL     1       0.330  51.711 -14.173  1.00  0.00     0.016 C 
HETATM   22  C27 UNL     1      -0.919  51.746 -13.270  1.00  0.00     0.043 C 
HETATM   23  C28 UNL     1      -0.841  52.770 -12.138  1.00  0.00     0.155 C 
ENDROOT
BRANCH  23  24
HETATM   24  O4  UNL     1      -1.908  52.507 -11.214  1.00  0.00    -0.349 OA
BRANCH  24  25
HETATM   25  C29 UNL     1      -2.541  51.230 -11.389  1.00  0.00     0.292 C 
HETATM   26  O5  UNL     1      -2.180  50.310 -10.352  1.00  0.00    -0.348 OA
HETATM   27  C30 UNL     1      -3.094  50.323  -9.244  1.00  0.00     0.179 C 
HETATM   28  C32 UNL     1      -4.459  49.747  -9.688  1.00  0.00     0.180 C 
HETATM   29  C33 UNL     1      -4.825  50.208 -11.119  1.00  0.00     0.183 C 
HETATM   30  C34 UNL     1      -4.074  51.477 -11.494  1.00  0.00     0.204 C 
BRANCH  27  31
HETATM   31  C31 UNL     1      -2.469  49.560  -8.071  1.00  0.00     0.198 C 
BRANCH  31  32
HETATM   32  O6  UNL     1      -2.056  50.456  -7.047  1.00  0.00    -0.398 OA
HETATM   33  H45 UNL     1      -1.395  49.981  -6.515  1.00  0.00     0.209 HD
ENDBRANCH  31  32
ENDBRANCH  27  31
BRANCH  28  34
HETATM   34  O7  UNL     1      -4.458  48.306  -9.701  1.00  0.00    -0.390 OA
HETATM   35  H47 UNL     1      -5.394  48.032  -9.784  1.00  0.00     0.210 HD
ENDBRANCH  28  34
BRANCH  29  36
HETATM   36  O8  UNL     1      -4.530  49.182 -12.077  1.00  0.00    -0.390 OA
HETATM   37  H49 UNL     1      -4.141  48.445 -11.560  1.00  0.00     0.210 HD
ENDBRANCH  29  36
BRANCH  30  38
HETATM   38  O9  UNL     1      -4.492  52.545 -10.626  1.00  0.00    -0.388 OA
HETATM   39  H51 UNL     1      -3.804  53.235 -10.724  1.00  0.00     0.210 HD
ENDBRANCH  30  38
ENDBRANCH  24  25
ENDBRANCH  23  24
BRANCH   1  40
HETATM   40  C5  UNL     1       2.917  55.727  -7.967  1.00  0.00     0.089 C 
BRANCH  40  41
HETATM   41  C4  UNL     1       3.597  56.640  -9.007  1.00  0.00     0.020 C 
BRANCH  41  42
HETATM   42  C3  UNL     1       4.900  56.065  -9.610  1.00  0.00     0.034 C 
BRANCH  42  43
HETATM   43  C2  UNL     1       5.785  55.190  -8.739  1.00  0.00    -0.086 C 
HETATM   44  C1  UNL     1       6.627  54.264  -9.235  1.00  0.00     0.014 C 
BRANCH  43  45
HETATM   45  C35 UNL     1       5.725  55.415  -7.228  1.00  0.00     0.005 C 
HETATM   46  C36 UNL     1       5.950  54.119  -6.438  1.00  0.00     0.014 C 
HETATM   47  C37 UNL     1       6.696  56.510  -6.779  1.00  0.00     0.014 C 
ENDBRANCH  43  45
ENDBRANCH  42  43
ENDBRANCH  41  42
ENDBRANCH  40  41
BRANCH  40  48
HETATM   48  C6  UNL     1       2.355  56.552  -6.819  1.00  0.00     0.144 C 
HETATM   49  O1  UNL     1       1.818  56.116  -5.815  1.00  0.00    -0.650 OA
BRANCH  48  50
HETATM   50  O2  UNL     1       2.438  57.885  -7.014  1.00  0.00    -0.776 OA
HETATM   51  H8  UNL     1       2.013  58.269  -6.218  1.00  0.00     0.167 HD
ENDBRANCH  48  50
ENDBRANCH  40  48
ENDBRANCH   1  40
TORSDOF 14
ENDMDL
MODEL 9
REMARK minimizedAffinity -8.86772633
REMARK CNNscore 0.273550123
REMARK CNNaffinity 6.60888529
REMARK  14 active torsions:
REMARK  status: ('A' for Active; 'I' for Inactive)
REMARK    1  A    between atoms: C2_2  and  C3_3 
REMARK    2  A    between atoms: C2_2  and  C35_44 
REMARK    3  A    between atoms: C3_3  and  C4_4 
REMARK    4  A    between atoms: C4_4  and  C5_5 
REMARK    5  A    between atoms: C5_5  and  C6_6 
REMARK    6  A    between atoms: C5_5  and  C7_9 
REMARK    7  A    between atoms: C6_6  and  O2_8 
REMARK    8  A    between atoms: C28_31  and  O4_32 
REMARK    9  A    between atoms: O4_32  and  C29_33 
REMARK   10  A    between atoms: C30_35  and  C31_36 
REMARK   11  A    between atoms: C31_36  and  O6_37 
REMARK   12  A    between atoms: C32_38  and  O7_39 
REMARK   13  A    between atoms: C33_40  and  O8_41 
REMARK   14  A    between atoms: C34_42  and  O9_43 
ROOT
HETATM    1  C7  UNL     1      -0.741  52.321 -20.969  1.00  0.00     0.009 C 
HETATM    2  C8  UNL     1      -0.372  51.610 -22.291  1.00  0.00     0.007 C 
HETATM    3  C9  UNL     1      -1.271  50.355 -22.382  1.00  0.00     0.015 C 
HETATM    4  C10 UNL     1      -2.302  50.488 -21.239  1.00  0.00    -0.010 C 
HETATM    5  C11 UNL     1      -3.483  51.372 -21.766  1.00  0.00     0.021 C 
HETATM    6  C12 UNL     1      -2.960  49.231 -20.654  1.00  0.00    -0.039 C 
HETATM    7  C13 UNL     1      -3.370  49.234 -19.357  1.00  0.00    -0.066 C 
HETATM    8  C14 UNL     1      -3.152  50.474 -18.459  1.00  0.00     0.036 C 
HETATM    9  C15 UNL     1      -2.316  51.647 -19.012  1.00  0.00     0.015 C 
HETATM   10  C16 UNL     1      -1.407  51.183 -20.148  1.00  0.00    -0.028 C 
HETATM   11  C17 UNL     1      -0.317  50.238 -19.553  1.00  0.00     0.016 C 
HETATM   12  C18 UNL     1      -4.058  48.006 -18.680  1.00  0.00    -0.015 C 
HETATM   13  C19 UNL     1      -3.384  47.784 -17.303  1.00  0.00     0.020 C 
HETATM   14  C20 UNL     1      -5.555  48.380 -18.497  1.00  0.00     0.021 C 
HETATM   15  C21 UNL     1      -6.417  47.261 -17.941  1.00  0.00     0.080 C 
HETATM   16  C22 UNL     1      -6.320  46.032 -18.810  1.00  0.00     0.135 C 
HETATM   17  O3  UNL     1      -7.346  45.456 -19.178  1.00  0.00    -0.297 OA
HETATM   18  C23 UNL     1      -4.915  45.487 -19.103  1.00  0.00     0.018 C 
HETATM   19  C24 UNL     1      -4.427  44.738 -17.842  1.00  0.00     0.023 C 
HETATM   20  C25 UNL     1      -5.023  44.395 -20.202  1.00  0.00     0.023 C 
HETATM   21  C26 UNL     1      -3.949  46.679 -19.538  1.00  0.00     0.016 C 
HETATM   22  C27 UNL     1      -4.132  47.016 -21.031  1.00  0.00     0.043 C 
HETATM   23  C28 UNL     1      -3.124  48.031 -21.570  1.00  0.00     0.155 C 
ENDROOT
BRANCH  23  24
HETATM   24  O4  UNL     1      -3.572  48.474 -22.860  1.00  0.00    -0.349 OA
BRANCH  24  25
HETATM   25  C29 UNL     1      -4.833  47.923 -23.270  1.00  0.00     0.292 C 
HETATM   26  O5  UNL     1      -5.884  48.263 -22.358  1.00  0.00    -0.348 OA
HETATM   27  C30 UNL     1      -6.582  49.464 -22.725  1.00  0.00     0.179 C 
HETATM   28  C32 UNL     1      -7.384  49.224 -24.025  1.00  0.00     0.180 C 
HETATM   29  C33 UNL     1      -6.591  48.344 -25.021  1.00  0.00     0.183 C 
HETATM   30  C34 UNL     1      -5.099  48.396 -24.728  1.00  0.00     0.204 C 
BRANCH  27  31
HETATM   31  C31 UNL     1      -7.457  49.912 -21.549  1.00  0.00     0.198 C 
BRANCH  31  32
HETATM   32  O6  UNL     1      -6.695  50.656 -20.607  1.00  0.00    -0.398 OA
HETATM   33  H45 UNL     1      -7.184  50.621 -19.768  1.00  0.00     0.209 HD
ENDBRANCH  31  32
ENDBRANCH  27  31
BRANCH  28  34
HETATM   34  O7  UNL     1      -8.631  48.547 -23.773  1.00  0.00    -0.390 OA
HETATM   35  H47 UNL     1      -9.156  48.625 -24.596  1.00  0.00     0.210 HD
ENDBRANCH  28  34
BRANCH  29  36
HETATM   36  O8  UNL     1      -7.037  46.982 -24.966  1.00  0.00    -0.390 OA
HETATM   37  H49 UNL     1      -7.732  46.961 -24.275  1.00  0.00     0.210 HD
ENDBRANCH  29  36
BRANCH  30  38
HETATM   38  O9  UNL     1      -4.625  49.738 -24.938  1.00  0.00    -0.388 OA
HETATM   39  H51 UNL     1      -3.757  49.774 -24.485  1.00  0.00     0.210 HD
ENDBRANCH  30  38
ENDBRANCH  24  25
ENDBRANCH  23  24
BRANCH   1  40
HETATM   40  C5  UNL     1       0.357  53.178 -20.284  1.00  0.00     0.089 C 
BRANCH  40  41
HETATM   41  C4  UNL     1       1.282  52.471 -19.274  1.00  0.00     0.020 C 
BRANCH  41  42
HETATM   42  C3  UNL     1       0.963  52.772 -17.791  1.00  0.00     0.034 C 
BRANCH  42  43
HETATM   43  C2  UNL     1       1.960  52.344 -16.728  1.00  0.00    -0.086 C 
HETATM   44  C1  UNL     1       3.222  52.810 -16.667  1.00  0.00     0.014 C 
BRANCH  43  45
HETATM   45  C35 UNL     1       1.472  51.360 -15.664  1.00  0.00     0.005 C 
HETATM   46  C36 UNL     1       0.872  52.073 -14.445  1.00  0.00     0.014 C 
HETATM   47  C37 UNL     1       0.490  50.339 -16.243  1.00  0.00     0.014 C 
ENDBRANCH  43  45
ENDBRANCH  42  43
ENDBRANCH  41  42
ENDBRANCH  40  41
BRANCH  40  48
HETATM   48  C6  UNL     1       1.173  53.835 -21.387  1.00  0.00     0.144 C 
HETATM   49  O1  UNL     1       2.190  54.491 -21.235  1.00  0.00    -0.650 OA
BRANCH  48  50
HETATM   50  O2  UNL     1       0.642  53.690 -22.619  1.00  0.00    -0.776 OA
HETATM   51  H8  UNL     1       1.254  54.187 -23.202  1.00  0.00     0.167 HD
ENDBRANCH  48  50
ENDBRANCH  40  48
ENDBRANCH   1  40
TORSDOF 14
ENDMDL
