MODEL 1
REMARK minimizedAffinity -7.92513657
REMARK CNNscore 0.283597976
REMARK CNNaffinity 6.3276782
REMARK  15 active torsions:
REMARK  status: ('A' for Active; 'I' for Inactive)
REMARK    1  A    between atoms: C2_2  and  C3_3 
REMARK    2  A    between atoms: C2_2  and  C35_44 
REMARK    3  A    between atoms: C3_3  and  C4_4 
REMARK    4  A    between atoms: C4_4  and  C5_5 
REMARK    5  A    between atoms: C5_5  and  C7_7 
REMARK    6  A    between atoms: C9_9  and  O1_10 
REMARK    7  A    between atoms: C10_11  and  C11_12 
REMARK    8  A    between atoms: C11_12  and  O3_14 
REMARK    9  A    between atoms: C22_25  and  O4_26 
REMARK   10  A    between atoms: O4_26  and  C23_27 
REMARK   11  A    between atoms: C24_29  and  C25_30 
REMARK   12  A    between atoms: C25_30  and  O6_31 
REMARK   13  A    between atoms: C26_32  and  O7_33 
REMARK   14  A    between atoms: C28_35  and  O8_36 
REMARK   15  A    between atoms: C29_37  and  O9_38 
ROOT
HETATM    1  C7  UNL     1       5.215   8.060  12.026  1.00  0.00     0.001 C 
HETATM    2  C8  UNL     1       3.888   8.115  12.842  1.00  0.00     0.039 C 
HETATM    3  C9  UNL     1       4.190   8.909  14.142  1.00  0.00     0.142 C 
HETATM    4  C10 UNL     1       5.591   9.536  13.888  1.00  0.00     0.102 C 
HETATM    5  C12 UNL     1       6.458  10.048  15.046  1.00  0.00    -0.054 C 
HETATM    6  C13 UNL     1       7.814  10.017  14.956  1.00  0.00    -0.067 C 
HETATM    7  C14 UNL     1       8.530   9.391  13.751  1.00  0.00     0.036 C 
HETATM    8  C15 UNL     1       7.655   8.876  12.588  1.00  0.00     0.015 C 
HETATM    9  C16 UNL     1       6.304   8.365  13.095  1.00  0.00    -0.016 C 
HETATM   10  C17 UNL     1       6.599   7.108  13.968  1.00  0.00     0.017 C 
HETATM   11  C18 UNL     1       8.718  10.563  16.097  1.00  0.00    -0.013 C 
HETATM   12  C19 UNL     1       9.138   9.298  16.895  1.00  0.00     0.021 C 
HETATM   13  C20 UNL     1       9.968  11.309  15.525  1.00  0.00     0.017 C 
HETATM   14  C21 UNL     1      10.479  12.507  16.343  1.00  0.00     0.037 C 
HETATM   15  C22 UNL     1      10.284  12.352  17.850  1.00  0.00     0.153 C 
HETATM   16  C30 UNL     1       8.807  12.155  18.149  1.00  0.00    -0.055 C 
HETATM   17  C31 UNL     1       8.302  12.604  19.314  1.00  0.00     0.017 C 
HETATM   18  C32 UNL     1       7.946  11.581  17.009  1.00  0.00     0.029 C 
HETATM   19  C33 UNL     1       6.594  10.997  17.430  1.00  0.00     0.014 C 
HETATM   20  C34 UNL     1       5.732  10.674  16.210  1.00  0.00     0.036 C 
ENDROOT
BRANCH  15  21
HETATM   21  O4  UNL     1      11.069  11.227  18.238  1.00  0.00    -0.349 OA
BRANCH  21  22
HETATM   22  C23 UNL     1      12.480  11.447  18.290  1.00  0.00     0.292 C 
HETATM   23  O5  UNL     1      12.902  12.313  17.244  1.00  0.00    -0.348 OA
HETATM   24  C24 UNL     1      14.312  12.603  17.258  1.00  0.00     0.179 C 
HETATM   25  C26 UNL     1      15.045  12.305  18.587  1.00  0.00     0.183 C 
HETATM   26  C28 UNL     1      14.139  12.763  19.743  1.00  0.00     0.183 C 
HETATM   27  C29 UNL     1      12.752  12.108  19.661  1.00  0.00     0.204 C 
BRANCH  24  28
HETATM   28  C25 UNL     1      14.959  11.857  16.084  1.00  0.00     0.198 C 
BRANCH  28  29
HETATM   29  O6  UNL     1      14.041  10.897  15.552  1.00  0.00    -0.398 OA
HETATM   30  H36 UNL     1      13.515  10.578  16.312  1.00  0.00     0.209 HD
ENDBRANCH  28  29
ENDBRANCH  24  28
BRANCH  25  31
HETATM   31  O7  UNL     1      16.310  12.985  18.520  1.00  0.00    -0.385 OA
HETATM   32  C27 UNL     1      16.247  14.383  18.758  1.00  0.00     0.202 C 
ENDBRANCH  25  31
BRANCH  26  33
HETATM   33  O8  UNL     1      14.703  12.420  21.019  1.00  0.00    -0.390 OA
HETATM   34  H42 UNL     1      14.147  12.876  21.681  1.00  0.00     0.210 HD
ENDBRANCH  26  33
BRANCH  27  35
HETATM   35  O9  UNL     1      11.769  13.124  19.959  1.00  0.00    -0.388 OA
HETATM   36  H44 UNL     1      10.967  12.853  19.463  1.00  0.00     0.210 HD
ENDBRANCH  27  35
ENDBRANCH  21  22
ENDBRANCH  15  21
BRANCH   4  37
HETATM   37  C11 UNL     1       5.406  10.836  13.031  1.00  0.00     0.156 C 
HETATM   38  O2  UNL     1       6.210  11.341  12.257  1.00  0.00    -0.649 OA
BRANCH  37  39
HETATM   39  O3  UNL     1       4.229  11.473  13.196  1.00  0.00    -0.775 OA
HETATM   40  H16 UNL     1       4.315  12.257  12.610  1.00  0.00     0.167 HD
ENDBRANCH  37  39
ENDBRANCH   4  37
BRANCH   3  41
HETATM   41  O1  UNL     1       4.163   7.975  15.226  1.00  0.00    -0.394 OA
HETATM   42  H15 UNL     1       3.819   8.430  16.012  1.00  0.00     0.210 HD
ENDBRANCH   3  41
BRANCH   1  43
HETATM   43  C5  UNL     1       5.290   6.861  11.036  1.00  0.00    -0.013 C 
HETATM   44  C6  UNL     1       6.460   5.930  11.381  1.00  0.00     0.010 C 
BRANCH  43  45
HETATM   45  C4  UNL     1       3.995   6.047  10.814  1.00  0.00     0.009 C 
BRANCH  45  46
HETATM   46  C3  UNL     1       3.310   6.290   9.453  1.00  0.00     0.034 C 
BRANCH  46  47
HETATM   47  C2  UNL     1       1.833   6.675   9.443  1.00  0.00    -0.086 C 
HETATM   48  C1  UNL     1       0.982   6.284  10.409  1.00  0.00     0.014 C 
BRANCH  47  49
HETATM   49  C35 UNL     1       1.405   7.522   8.240  1.00  0.00     0.005 C 
HETATM   50  C36 UNL     1       2.508   8.386   7.612  1.00  0.00     0.014 C 
HETATM   51  C37 UNL     1       0.214   8.415   8.608  1.00  0.00     0.014 C 
ENDBRANCH  47  49
ENDBRANCH  46  47
ENDBRANCH  45  46
ENDBRANCH  43  45
ENDBRANCH   1  43
TORSDOF 15
ENDMDL
MODEL 2
REMARK minimizedAffinity -7.96918774
REMARK CNNscore 0.264967829
REMARK CNNaffinity 6.11079979
REMARK  15 active torsions:
REMARK  status: ('A' for Active; 'I' for Inactive)
REMARK    1  A    between atoms: C2_2  and  C3_3 
REMARK    2  A    between atoms: C2_2  and  C35_44 
REMARK    3  A    between atoms: C3_3  and  C4_4 
REMARK    4  A    between atoms: C4_4  and  C5_5 
REMARK    5  A    between atoms: C5_5  and  C7_7 
REMARK    6  A    between atoms: C9_9  and  O1_10 
REMARK    7  A    between atoms: C10_11  and  C11_12 
REMARK    8  A    between atoms: C11_12  and  O3_14 
REMARK    9  A    between atoms: C22_25  and  O4_26 
REMARK   10  A    between atoms: O4_26  and  C23_27 
REMARK   11  A    between atoms: C24_29  and  C25_30 
REMARK   12  A    between atoms: C25_30  and  O6_31 
REMARK   13  A    between atoms: C26_32  and  O7_33 
REMARK   14  A    between atoms: C28_35  and  O8_36 
REMARK   15  A    between atoms: C29_37  and  O9_38 
ROOT
HETATM    1  C7  UNL     1       5.416   8.883  12.303  1.00  0.00     0.001 C 
HETATM    2  C8  UNL     1       4.636  10.234  12.271  1.00  0.00     0.039 C 
HETATM    3  C9  UNL     1       5.632  11.340  12.715  1.00  0.00     0.142 C 
HETATM    4  C10 UNL     1       7.019  10.635  12.695  1.00  0.00     0.102 C 
HETATM    5  C12 UNL     1       8.219  11.215  13.453  1.00  0.00    -0.054 C 
HETATM    6  C13 UNL     1       9.181  10.393  13.951  1.00  0.00    -0.067 C 
HETATM    7  C14 UNL     1       9.064   8.864  13.861  1.00  0.00     0.036 C 
HETATM    8  C15 UNL     1       7.854   8.284  13.099  1.00  0.00     0.015 C 
HETATM    9  C16 UNL     1       6.630   9.195  13.226  1.00  0.00    -0.016 C 
HETATM   10  C17 UNL     1       6.210   9.173  14.727  1.00  0.00     0.017 C 
HETATM   11  C18 UNL     1      10.429  10.953  14.691  1.00  0.00    -0.013 C 
HETATM   12  C19 UNL     1      10.081  10.806  16.198  1.00  0.00     0.021 C 
HETATM   13  C20 UNL     1      11.717  10.145  14.327  1.00  0.00     0.017 C 
HETATM   14  C21 UNL     1      13.030  10.944  14.279  1.00  0.00     0.037 C 
HETATM   15  C22 UNL     1      13.088  12.097  15.278  1.00  0.00     0.153 C 
HETATM   16  C30 UNL     1      11.932  13.048  15.018  1.00  0.00    -0.055 C 
HETATM   17  C31 UNL     1      12.082  14.360  15.280  1.00  0.00     0.017 C 
HETATM   18  C32 UNL     1      10.699  12.453  14.313  1.00  0.00     0.029 C 
HETATM   19  C33 UNL     1       9.409  13.271  14.433  1.00  0.00     0.014 C 
HETATM   20  C34 UNL     1       8.321  12.718  13.513  1.00  0.00     0.036 C 
ENDROOT
BRANCH  15  21
HETATM   21  O4  UNL     1      13.018  11.503  16.573  1.00  0.00    -0.349 OA
BRANCH  21  22
HETATM   22  C23 UNL     1      14.181  11.660  17.388  1.00  0.00     0.292 C 
HETATM   23  O5  UNL     1      15.094  12.581  16.805  1.00  0.00    -0.348 OA
HETATM   24  C24 UNL     1      16.276  12.812  17.594  1.00  0.00     0.179 C 
HETATM   25  C26 UNL     1      16.185  12.389  19.079  1.00  0.00     0.183 C 
HETATM   26  C28 UNL     1      14.799  12.799  19.605  1.00  0.00     0.183 C 
HETATM   27  C29 UNL     1      13.674  12.209  18.742  1.00  0.00     0.204 C 
BRANCH  24  28
HETATM   28  C25 UNL     1      17.454  12.126  16.890  1.00  0.00     0.198 C 
BRANCH  28  29
HETATM   29  O6  UNL     1      18.033  11.144  17.754  1.00  0.00    -0.398 OA
HETATM   30  H36 UNL     1      17.935  11.494  18.662  1.00  0.00     0.209 HD
ENDBRANCH  28  29
ENDBRANCH  24  28
BRANCH  25  31
HETATM   31  O7  UNL     1      17.287  13.019  19.754  1.00  0.00    -0.385 OA
HETATM   32  C27 UNL     1      16.920  13.829  20.861  1.00  0.00     0.202 C 
ENDBRANCH  25  31
BRANCH  26  33
HETATM   33  O8  UNL     1      14.593  12.342  20.952  1.00  0.00    -0.390 OA
HETATM   34  H42 UNL     1      13.767  12.771  21.250  1.00  0.00     0.210 HD
ENDBRANCH  26  33
BRANCH  27  35
HETATM   35  O9  UNL     1      12.680  13.240  18.553  1.00  0.00    -0.388 OA
HETATM   36  H44 UNL     1      12.270  13.039  17.684  1.00  0.00     0.210 HD
ENDBRANCH  27  35
ENDBRANCH  21  22
ENDBRANCH  15  21
BRANCH   4  37
HETATM   37  C11 UNL     1       7.550  10.624  11.220  1.00  0.00     0.156 C 
HETATM   38  O2  UNL     1       6.934  10.316  10.206  1.00  0.00    -0.649 OA
BRANCH  37  39
HETATM   39  O3  UNL     1       8.844  10.972  11.070  1.00  0.00    -0.775 OA
HETATM   40  H16 UNL     1       8.990  10.880  10.103  1.00  0.00     0.167 HD
ENDBRANCH  37  39
ENDBRANCH   4  37
BRANCH   3  41
HETATM   41  O1  UNL     1       5.226  11.779  14.015  1.00  0.00    -0.394 OA
HETATM   42  H15 UNL     1       5.423  12.727  14.091  1.00  0.00     0.210 HD
ENDBRANCH   3  41
BRANCH   1  43
HETATM   43  C5  UNL     1       4.500   7.637  12.472  1.00  0.00    -0.013 C 
HETATM   44  C6  UNL     1       3.138   8.027  13.060  1.00  0.00     0.010 C 
BRANCH  43  45
HETATM   45  C4  UNL     1       4.317   6.722  11.239  1.00  0.00     0.009 C 
BRANCH  45  46
HETATM   46  C3  UNL     1       4.004   7.470   9.927  1.00  0.00     0.034 C 
BRANCH  46  47
HETATM   47  C2  UNL     1       3.074   6.804   8.916  1.00  0.00    -0.086 C 
HETATM   48  C1  UNL     1       3.041   5.470   8.741  1.00  0.00     0.014 C 
BRANCH  47  49
HETATM   49  C35 UNL     1       2.205   7.778   8.114  1.00  0.00     0.005 C 
HETATM   50  C36 UNL     1       0.857   8.144   8.753  1.00  0.00     0.014 C 
HETATM   51  C37 UNL     1       1.962   7.241   6.698  1.00  0.00     0.014 C 
ENDBRANCH  47  49
ENDBRANCH  46  47
ENDBRANCH  45  46
ENDBRANCH  43  45
ENDBRANCH   1  43
TORSDOF 15
ENDMDL
MODEL 3
REMARK minimizedAffinity -8.03047657
REMARK CNNscore 0.262574732
REMARK CNNaffinity 6.72018766
REMARK  15 active torsions:
REMARK  status: ('A' for Active; 'I' for Inactive)
REMARK    1  A    between atoms: C2_2  and  C3_3 
REMARK    2  A    between atoms: C2_2  and  C35_44 
REMARK    3  A    between atoms: C3_3  and  C4_4 
REMARK    4  A    between atoms: C4_4  and  C5_5 
REMARK    5  A    between atoms: C5_5  and  C7_7 
REMARK    6  A    between atoms: C9_9  and  O1_10 
REMARK    7  A    between atoms: C10_11  and  C11_12 
REMARK    8  A    between atoms: C11_12  and  O3_14 
REMARK    9  A    between atoms: C22_25  and  O4_26 
REMARK   10  A    between atoms: O4_26  and  C23_27 
REMARK   11  A    between atoms: C24_29  and  C25_30 
REMARK   12  A    between atoms: C25_30  and  O6_31 
REMARK   13  A    between atoms: C26_32  and  O7_33 
REMARK   14  A    between atoms: C28_35  and  O8_36 
REMARK   15  A    between atoms: C29_37  and  O9_38 
ROOT
HETATM    1  C7  UNL     1      -1.652   5.939  12.868  1.00  0.00     0.001 C 
HETATM    2  C8  UNL     1      -0.511   6.513  11.974  1.00  0.00     0.039 C 
HETATM    3  C9  UNL     1      -0.121   7.893  12.570  1.00  0.00     0.142 C 
HETATM    4  C10 UNL     1      -0.837   7.927  13.951  1.00  0.00     0.102 C 
HETATM    5  C12 UNL     1      -1.073   9.248  14.694  1.00  0.00    -0.054 C 
HETATM    6  C13 UNL     1      -2.151   9.396  15.510  1.00  0.00    -0.067 C 
HETATM    7  C14 UNL     1      -3.215   8.297  15.651  1.00  0.00     0.036 C 
HETATM    8  C15 UNL     1      -2.974   6.970  14.900  1.00  0.00     0.015 C 
HETATM    9  C16 UNL     1      -2.199   7.200  13.600  1.00  0.00    -0.016 C 
HETATM   10  C17 UNL     1      -3.129   8.030  12.665  1.00  0.00     0.017 C 
HETATM   11  C18 UNL     1      -2.397  10.709  16.305  1.00  0.00    -0.013 C 
HETATM   12  C19 UNL     1      -3.436  11.487  15.452  1.00  0.00     0.021 C 
HETATM   13  C20 UNL     1      -2.952  10.412  17.737  1.00  0.00     0.017 C 
HETATM   14  C21 UNL     1      -2.518  11.381  18.850  1.00  0.00     0.037 C 
HETATM   15  C22 UNL     1      -2.317  12.817  18.373  1.00  0.00     0.153 C 
HETATM   16  C30 UNL     1      -1.269  12.840  17.272  1.00  0.00    -0.055 C 
HETATM   17  C31 UNL     1      -0.483  13.925  17.130  1.00  0.00     0.017 C 
HETATM   18  C32 UNL     1      -1.074  11.534  16.482  1.00  0.00     0.029 C 
HETATM   19  C33 UNL     1      -0.352  11.674  15.138  1.00  0.00     0.014 C 
HETATM   20  C34 UNL     1      -0.006  10.305  14.555  1.00  0.00     0.036 C 
ENDROOT
BRANCH  15  21
HETATM   21  O4  UNL     1      -3.591  13.265  17.915  1.00  0.00    -0.349 OA
BRANCH  21  22
HETATM   22  C23 UNL     1      -4.386  13.956  18.881  1.00  0.00     0.292 C 
HETATM   23  O5  UNL     1      -4.622  13.144  20.023  1.00  0.00    -0.348 OA
HETATM   24  C24 UNL     1      -5.392  13.793  21.053  1.00  0.00     0.179 C 
HETATM   25  C26 UNL     1      -5.470  15.335  20.961  1.00  0.00     0.183 C 
HETATM   26  C28 UNL     1      -4.075  15.859  20.577  1.00  0.00     0.183 C 
HETATM   27  C29 UNL     1      -3.567  15.204  19.283  1.00  0.00     0.204 C 
BRANCH  24  28
HETATM   28  C25 UNL     1      -6.791  13.163  21.064  1.00  0.00     0.198 C 
BRANCH  28  29
HETATM   29  O6  UNL     1      -7.222  12.959  22.412  1.00  0.00    -0.398 OA
HETATM   30  H36 UNL     1      -6.415  12.754  22.925  1.00  0.00     0.209 HD
ENDBRANCH  28  29
ENDBRANCH  24  28
BRANCH  25  31
HETATM   31  O7  UNL     1      -5.948  15.799  22.235  1.00  0.00    -0.385 OA
HETATM   32  C27 UNL     1      -5.027  15.648  23.305  1.00  0.00     0.202 C 
ENDBRANCH  25  31
BRANCH  26  33
HETATM   33  O8  UNL     1      -4.090  17.280  20.364  1.00  0.00    -0.390 OA
HETATM   34  H42 UNL     1      -3.151  17.540  20.277  1.00  0.00     0.210 HD
ENDBRANCH  26  33
BRANCH  27  35
HETATM   35  O9  UNL     1      -2.173  14.880  19.475  1.00  0.00    -0.388 OA
HETATM   36  H44 UNL     1      -2.015  14.097  18.905  1.00  0.00     0.210 HD
ENDBRANCH  27  35
ENDBRANCH  21  22
ENDBRANCH  15  21
BRANCH   4  37
HETATM   37  C11 UNL     1       0.036   7.134  14.984  1.00  0.00     0.156 C 
HETATM   38  O2  UNL     1       1.258   7.118  15.073  1.00  0.00    -0.649 OA
BRANCH  37  39
HETATM   39  O3  UNL     1      -0.653   6.365  15.852  1.00  0.00    -0.775 OA
HETATM   40  H16 UNL     1       0.054   5.940  16.384  1.00  0.00     0.167 HD
ENDBRANCH  37  39
ENDBRANCH   4  37
BRANCH   3  41
HETATM   41  O1  UNL     1      -0.579   8.894  11.657  1.00  0.00    -0.394 OA
HETATM   42  H15 UNL     1       0.049   9.635  11.677  1.00  0.00     0.210 HD
ENDBRANCH   3  41
BRANCH   1  43
HETATM   43  C5  UNL     1      -2.558   4.904  12.139  1.00  0.00    -0.013 C 
HETATM   44  C6  UNL     1      -1.734   4.014  11.200  1.00  0.00     0.010 C 
BRANCH  43  45
HETATM   45  C4  UNL     1      -3.497   4.046  13.018  1.00  0.00     0.009 C 
BRANCH  45  46
HETATM   46  C3  UNL     1      -4.976   4.479  12.987  1.00  0.00     0.034 C 
BRANCH  46  47
HETATM   47  C2  UNL     1      -5.948   3.683  12.120  1.00  0.00    -0.086 C 
HETATM   48  C1  UNL     1      -5.550   3.019  11.019  1.00  0.00     0.014 C 
BRANCH  47  49
HETATM   49  C35 UNL     1      -7.404   3.720  12.598  1.00  0.00     0.005 C 
HETATM   50  C36 UNL     1      -8.159   5.027  12.317  1.00  0.00     0.014 C 
HETATM   51  C37 UNL     1      -7.487   3.401  14.095  1.00  0.00     0.014 C 
ENDBRANCH  47  49
ENDBRANCH  46  47
ENDBRANCH  45  46
ENDBRANCH  43  45
ENDBRANCH   1  43
TORSDOF 15
ENDMDL
MODEL 4
REMARK minimizedAffinity -7.44919205
REMARK CNNscore 0.231014222
REMARK CNNaffinity 7.14413881
REMARK  15 active torsions:
REMARK  status: ('A' for Active; 'I' for Inactive)
REMARK    1  A    between atoms: C2_2  and  C3_3 
REMARK    2  A    between atoms: C2_2  and  C35_44 
REMARK    3  A    between atoms: C3_3  and  C4_4 
REMARK    4  A    between atoms: C4_4  and  C5_5 
REMARK    5  A    between atoms: C5_5  and  C7_7 
REMARK    6  A    between atoms: C9_9  and  O1_10 
REMARK    7  A    between atoms: C10_11  and  C11_12 
REMARK    8  A    between atoms: C11_12  and  O3_14 
REMARK    9  A    between atoms: C22_25  and  O4_26 
REMARK   10  A    between atoms: O4_26  and  C23_27 
REMARK   11  A    between atoms: C24_29  and  C25_30 
REMARK   12  A    between atoms: C25_30  and  O6_31 
REMARK   13  A    between atoms: C26_32  and  O7_33 
REMARK   14  A    between atoms: C28_35  and  O8_36 
REMARK   15  A    between atoms: C29_37  and  O9_38 
ROOT
HETATM    1  C7  UNL     1     -13.818  10.459  14.676  1.00  0.00     0.001 C 
HETATM    2  C8  UNL     1     -14.183  10.252  13.175  1.00  0.00     0.039 C 
HETATM    3  C9  UNL     1     -13.164   9.232  12.598  1.00  0.00     0.142 C 
HETATM    4  C10 UNL     1     -12.442   8.665  13.854  1.00  0.00     0.102 C 
HETATM    5  C12 UNL     1     -11.090   7.948  13.741  1.00  0.00    -0.054 C 
HETATM    6  C13 UNL     1     -10.198   7.997  14.765  1.00  0.00    -0.067 C 
HETATM    7  C14 UNL     1     -10.458   8.836  16.025  1.00  0.00     0.036 C 
HETATM    8  C15 UNL     1     -11.819   9.556  16.135  1.00  0.00     0.015 C 
HETATM    9  C16 UNL     1     -12.345   9.962  14.755  1.00  0.00    -0.016 C 
HETATM   10  C17 UNL     1     -11.362  11.037  14.201  1.00  0.00     0.017 C 
HETATM   11  C18 UNL     1      -8.835   7.251  14.695  1.00  0.00    -0.013 C 
HETATM   12  C19 UNL     1      -7.816   8.348  14.280  1.00  0.00     0.021 C 
HETATM   13  C20 UNL     1      -8.458   6.625  16.078  1.00  0.00     0.017 C 
HETATM   14  C21 UNL     1      -7.682   5.297  16.034  1.00  0.00     0.037 C 
HETATM   15  C22 UNL     1      -6.743   5.171  14.837  1.00  0.00     0.153 C 
HETATM   16  C30 UNL     1      -7.543   5.308  13.552  1.00  0.00    -0.055 C 
HETATM   17  C31 UNL     1      -7.139   4.651  12.448  1.00  0.00     0.017 C 
HETATM   18  C32 UNL     1      -8.871   6.081  13.649  1.00  0.00     0.029 C 
HETATM   19  C33 UNL     1      -9.447   6.576  12.319  1.00  0.00     0.014 C 
HETATM   20  C34 UNL     1     -10.864   7.117  12.502  1.00  0.00     0.036 C 
ENDROOT
BRANCH  15  21
HETATM   21  O4  UNL     1      -5.773   6.206  14.983  1.00  0.00    -0.349 OA
BRANCH  21  22
HETATM   22  C23 UNL     1      -4.419   5.825  14.730  1.00  0.00     0.292 C 
HETATM   23  O5  UNL     1      -4.135   5.845  13.338  1.00  0.00    -0.348 OA
HETATM   24  C24 UNL     1      -2.774   5.502  13.014  1.00  0.00     0.179 C 
HETATM   25  C26 UNL     1      -1.765   5.587  14.183  1.00  0.00     0.183 C 
HETATM   26  C28 UNL     1      -2.082   6.856  14.993  1.00  0.00     0.183 C 
HETATM   27  C29 UNL     1      -3.545   6.872  15.460  1.00  0.00     0.204 C 
BRANCH  24  28
HETATM   28  C25 UNL     1      -2.777   4.105  12.381  1.00  0.00     0.198 C 
BRANCH  28  29
HETATM   29  O6  UNL     1      -3.640   4.089  11.240  1.00  0.00    -0.398 OA
HETATM   30  H36 UNL     1      -4.368   4.710  11.445  1.00  0.00     0.209 HD
ENDBRANCH  28  29
ENDBRANCH  24  28
BRANCH  25  31
HETATM   31  O7  UNL     1      -0.453   5.571  13.595  1.00  0.00    -0.385 OA
HETATM   32  C27 UNL     1      -0.002   6.829  13.115  1.00  0.00     0.202 C 
ENDBRANCH  25  31
BRANCH  26  33
HETATM   33  O8  UNL     1      -1.255   6.951  16.164  1.00  0.00    -0.390 OA
HETATM   34  H42 UNL     1      -1.417   7.845  16.526  1.00  0.00     0.210 HD
ENDBRANCH  26  33
BRANCH  27  35
HETATM   35  O9  UNL     1      -4.053   8.210  15.264  1.00  0.00    -0.388 OA
HETATM   36  H44 UNL     1      -5.015   8.094  15.104  1.00  0.00     0.210 HD
ENDBRANCH  27  35
ENDBRANCH  21  22
ENDBRANCH  15  21
BRANCH   4  37
HETATM   37  C11 UNL     1     -13.343   7.545  14.482  1.00  0.00     0.156 C 
HETATM   38  O2  UNL     1     -14.566   7.504  14.520  1.00  0.00    -0.649 OA
BRANCH  37  39
HETATM   39  O3  UNL     1     -12.676   6.528  15.067  1.00  0.00    -0.775 OA
HETATM   40  H16 UNL     1     -13.397   5.959  15.414  1.00  0.00     0.167 HD
ENDBRANCH  37  39
ENDBRANCH   4  37
BRANCH   3  41
HETATM   41  O1  UNL     1     -12.302   9.950  11.711  1.00  0.00    -0.394 OA
HETATM   42  H15 UNL     1     -12.052   9.358  10.983  1.00  0.00     0.210 HD
ENDBRANCH   3  41
BRANCH   1  43
HETATM   43  C5  UNL     1     -14.303  11.819  15.256  1.00  0.00    -0.013 C 
HETATM   44  C6  UNL     1     -13.877  11.979  16.721  1.00  0.00     0.010 C 
BRANCH  43  45
HETATM   45  C4  UNL     1     -13.960  13.093  14.449  1.00  0.00     0.009 C 
BRANCH  45  46
HETATM   46  C3  UNL     1     -15.153  14.042  14.213  1.00  0.00     0.034 C 
BRANCH  46  47
HETATM   47  C2  UNL     1     -15.943  13.906  12.915  1.00  0.00    -0.086 C 
HETATM   48  C1  UNL     1     -16.962  13.036  12.781  1.00  0.00     0.014 C 
BRANCH  47  49
HETATM   49  C35 UNL     1     -15.468  14.822  11.782  1.00  0.00     0.005 C 
HETATM   50  C36 UNL     1     -15.655  16.327  12.026  1.00  0.00     0.014 C 
HETATM   51  C37 UNL     1     -16.144  14.437  10.460  1.00  0.00     0.014 C 
ENDBRANCH  47  49
ENDBRANCH  46  47
ENDBRANCH  45  46
ENDBRANCH  43  45
ENDBRANCH   1  43
TORSDOF 15
ENDMDL
MODEL 5
REMARK minimizedAffinity -7.34548807
REMARK CNNscore 0.230094343
REMARK CNNaffinity 6.05963326
REMARK  15 active torsions:
REMARK  status: ('A' for Active; 'I' for Inactive)
REMARK    1  A    between atoms: C2_2  and  C3_3 
REMARK    2  A    between atoms: C2_2  and  C35_44 
REMARK    3  A    between atoms: C3_3  and  C4_4 
REMARK    4  A    between atoms: C4_4  and  C5_5 
REMARK    5  A    between atoms: C5_5  and  C7_7 
REMARK    6  A    between atoms: C9_9  and  O1_10 
REMARK    7  A    between atoms: C10_11  and  C11_12 
REMARK    8  A    between atoms: C11_12  and  O3_14 
REMARK    9  A    between atoms: C22_25  and  O4_26 
REMARK   10  A    between atoms: O4_26  and  C23_27 
REMARK   11  A    between atoms: C24_29  and  C25_30 
REMARK   12  A    between atoms: C25_30  and  O6_31 
REMARK   13  A    between atoms: C26_32  and  O7_33 
REMARK   14  A    between atoms: C28_35  and  O8_36 
REMARK   15  A    between atoms: C29_37  and  O9_38 
ROOT
HETATM    1  C7  UNL     1       4.115   8.419  12.551  1.00  0.00     0.001 C 
HETATM    2  C8  UNL     1       3.563   7.924  13.922  1.00  0.00     0.039 C 
HETATM    3  C9  UNL     1       4.589   8.355  15.004  1.00  0.00     0.142 C 
HETATM    4  C10 UNL     1       5.537   9.338  14.260  1.00  0.00     0.102 C 
HETATM    5  C12 UNL     1       6.926   9.681  14.815  1.00  0.00    -0.054 C 
HETATM    6  C13 UNL     1       7.945   9.995  13.972  1.00  0.00    -0.067 C 
HETATM    7  C14 UNL     1       7.782   9.931  12.446  1.00  0.00     0.036 C 
HETATM    8  C15 UNL     1       6.383   9.585  11.892  1.00  0.00     0.015 C 
HETATM    9  C16 UNL     1       5.628   8.648  12.838  1.00  0.00    -0.016 C 
HETATM   10  C17 UNL     1       6.406   7.297  12.847  1.00  0.00     0.017 C 
HETATM   11  C18 UNL     1       9.353  10.384  14.505  1.00  0.00    -0.013 C 
HETATM   12  C19 UNL     1      10.185   9.077  14.385  1.00  0.00     0.021 C 
HETATM   13  C20 UNL     1       9.986  11.534  13.656  1.00  0.00     0.017 C 
HETATM   14  C21 UNL     1      10.880  12.528  14.417  1.00  0.00     0.037 C 
HETATM   15  C22 UNL     1      11.647  11.903  15.579  1.00  0.00     0.153 C 
HETATM   16  C30 UNL     1      10.662  11.288  16.560  1.00  0.00    -0.055 C 
HETATM   17  C31 UNL     1      10.970  11.249  17.870  1.00  0.00     0.017 C 
HETATM   18  C32 UNL     1       9.290  10.884  15.992  1.00  0.00     0.029 C 
HETATM   19  C33 UNL     1       8.482   9.903  16.848  1.00  0.00     0.014 C 
HETATM   20  C34 UNL     1       7.057   9.755  16.316  1.00  0.00     0.036 C 
ENDROOT
BRANCH  15  21
HETATM   21  O4  UNL     1      12.516  10.930  15.003  1.00  0.00    -0.349 OA
BRANCH  21  22
HETATM   22  C23 UNL     1      13.804  11.408  14.609  1.00  0.00     0.292 C 
HETATM   23  O5  UNL     1      14.838  10.722  15.303  1.00  0.00    -0.348 OA
HETATM   24  C24 UNL     1      16.166  11.133  14.927  1.00  0.00     0.179 C 
HETATM   25  C26 UNL     1      16.278  11.899  13.588  1.00  0.00     0.183 C 
HETATM   26  C28 UNL     1      15.352  11.212  12.569  1.00  0.00     0.183 C 
HETATM   27  C29 UNL     1      13.911  11.123  13.092  1.00  0.00     0.204 C 
BRANCH  24  28
HETATM   28  C25 UNL     1      16.753  11.948  16.087  1.00  0.00     0.198 C 
BRANCH  28  29
HETATM   29  O6  UNL     1      17.854  11.243  16.668  1.00  0.00    -0.398 OA
HETATM   30  H36 UNL     1      17.638  10.293  16.588  1.00  0.00     0.209 HD
ENDBRANCH  28  29
ENDBRANCH  24  28
BRANCH  25  31
HETATM   31  O7  UNL     1      17.669  11.892  13.225  1.00  0.00    -0.385 OA
HETATM   32  C27 UNL     1      18.208  13.167  12.913  1.00  0.00     0.202 C 
ENDBRANCH  25  31
BRANCH  26  33
HETATM   33  O8  UNL     1      15.316  11.932  11.326  1.00  0.00    -0.390 OA
HETATM   34  H42 UNL     1      14.835  11.352  10.703  1.00  0.00     0.210 HD
ENDBRANCH  26  33
BRANCH  27  35
HETATM   35  O9  UNL     1      13.407   9.809  12.767  1.00  0.00    -0.388 OA
HETATM   36  H44 UNL     1      12.751   9.609  13.469  1.00  0.00     0.210 HD
ENDBRANCH  27  35
ENDBRANCH  21  22
ENDBRANCH  15  21
BRANCH   4  37
HETATM   37  C11 UNL     1       4.855  10.750  14.216  1.00  0.00     0.156 C 
HETATM   38  O2  UNL     1       3.778  11.044  13.713  1.00  0.00    -0.649 OA
BRANCH  37  39
HETATM   39  O3  UNL     1       5.563  11.750  14.781  1.00  0.00    -0.775 OA
HETATM   40  H16 UNL     1       4.995  12.537  14.632  1.00  0.00     0.167 HD
ENDBRANCH  37  39
ENDBRANCH   4  37
BRANCH   3  41
HETATM   41  O1  UNL     1       5.238   7.168  15.471  1.00  0.00    -0.394 OA
HETATM   42  H15 UNL     1       5.441   7.282  16.413  1.00  0.00     0.210 HD
ENDBRANCH   3  41
BRANCH   1  43
HETATM   43  C5  UNL     1       3.580   7.611  11.333  1.00  0.00    -0.013 C 
HETATM   44  C6  UNL     1       4.511   6.439  10.995  1.00  0.00     0.010 C 
BRANCH  43  45
HETATM   45  C4  UNL     1       2.110   7.139  11.390  1.00  0.00     0.009 C 
BRANCH  45  46
HETATM   46  C3  UNL     1       1.536   6.664  10.039  1.00  0.00     0.034 C 
BRANCH  46  47
HETATM   47  C2  UNL     1       1.076   7.718   9.036  1.00  0.00    -0.086 C 
HETATM   48  C1  UNL     1       0.021   8.521   9.271  1.00  0.00     0.014 C 
BRANCH  47  49
HETATM   49  C35 UNL     1       1.898   7.770   7.745  1.00  0.00     0.005 C 
HETATM   50  C36 UNL     1       2.389   6.414   7.217  1.00  0.00     0.014 C 
HETATM   51  C37 UNL     1       3.098   8.711   7.909  1.00  0.00     0.014 C 
ENDBRANCH  47  49
ENDBRANCH  46  47
ENDBRANCH  45  46
ENDBRANCH  43  45
ENDBRANCH   1  43
TORSDOF 15
ENDMDL
MODEL 6
REMARK minimizedAffinity -7.28662777
REMARK CNNscore 0.226349503
REMARK CNNaffinity 6.52582026
REMARK  15 active torsions:
REMARK  status: ('A' for Active; 'I' for Inactive)
REMARK    1  A    between atoms: C2_2  and  C3_3 
REMARK    2  A    between atoms: C2_2  and  C35_44 
REMARK    3  A    between atoms: C3_3  and  C4_4 
REMARK    4  A    between atoms: C4_4  and  C5_5 
REMARK    5  A    between atoms: C5_5  and  C7_7 
REMARK    6  A    between atoms: C9_9  and  O1_10 
REMARK    7  A    between atoms: C10_11  and  C11_12 
REMARK    8  A    between atoms: C11_12  and  O3_14 
REMARK    9  A    between atoms: C22_25  and  O4_26 
REMARK   10  A    between atoms: O4_26  and  C23_27 
REMARK   11  A    between atoms: C24_29  and  C25_30 
REMARK   12  A    between atoms: C25_30  and  O6_31 
REMARK   13  A    between atoms: C26_32  and  O7_33 
REMARK   14  A    between atoms: C28_35  and  O8_36 
REMARK   15  A    between atoms: C29_37  and  O9_38 
ROOT
HETATM    1  C7  UNL     1       4.628   8.637  12.075  1.00  0.00     0.001 C 
HETATM    2  C8  UNL     1       3.860   9.992  12.001  1.00  0.00     0.039 C 
HETATM    3  C9  UNL     1       4.883  11.110  12.337  1.00  0.00     0.142 C 
HETATM    4  C10 UNL     1       6.262  10.389  12.296  1.00  0.00     0.102 C 
HETATM    5  C12 UNL     1       7.500  10.998  12.966  1.00  0.00    -0.054 C 
HETATM    6  C13 UNL     1       8.476  10.194  13.466  1.00  0.00    -0.067 C 
HETATM    7  C14 UNL     1       8.342   8.665  13.469  1.00  0.00     0.036 C 
HETATM    8  C15 UNL     1       7.094   8.056  12.795  1.00  0.00     0.015 C 
HETATM    9  C16 UNL     1       5.884   8.986  12.925  1.00  0.00    -0.016 C 
HETATM   10  C17 UNL     1       5.533   9.054  14.442  1.00  0.00     0.017 C 
HETATM   11  C18 UNL     1       9.760  10.781  14.117  1.00  0.00    -0.013 C 
HETATM   12  C19 UNL     1       9.480  10.723  15.644  1.00  0.00     0.021 C 
HETATM   13  C20 UNL     1      11.024   9.939  13.743  1.00  0.00     0.017 C 
HETATM   14  C21 UNL     1      12.341  10.719  13.591  1.00  0.00     0.037 C 
HETATM   15  C22 UNL     1      12.454  11.926  14.520  1.00  0.00     0.153 C 
HETATM   16  C30 UNL     1      11.295  12.874  14.257  1.00  0.00    -0.055 C 
HETATM   17  C31 UNL     1      11.468  14.197  14.438  1.00  0.00     0.017 C 
HETATM   18  C32 UNL     1      10.027  12.254  13.643  1.00  0.00     0.029 C 
HETATM   19  C33 UNL     1       8.751  13.092  13.773  1.00  0.00     0.014 C 
HETATM   20  C34 UNL     1       7.618  12.501  12.935  1.00  0.00     0.036 C 
ENDROOT
BRANCH  15  21
HETATM   21  O4  UNL     1      12.437  11.407  15.848  1.00  0.00    -0.349 OA
BRANCH  21  22
HETATM   22  C23 UNL     1      12.119  12.348  16.875  1.00  0.00     0.292 C 
HETATM   23  O5  UNL     1      10.738  12.296  17.207  1.00  0.00    -0.348 OA
HETATM   24  C24 UNL     1      10.355  13.198  18.262  1.00  0.00     0.179 C 
HETATM   25  C26 UNL     1      11.512  13.743  19.132  1.00  0.00     0.183 C 
HETATM   26  C28 UNL     1      12.486  12.584  19.406  1.00  0.00     0.183 C 
HETATM   27  C29 UNL     1      12.969  11.937  18.100  1.00  0.00     0.204 C 
BRANCH  24  28
HETATM   28  C25 UNL     1       9.543  14.338  17.635  1.00  0.00     0.198 C 
BRANCH  28  29
HETATM   29  O6  UNL     1       8.461  14.698  18.500  1.00  0.00    -0.398 OA
HETATM   30  H36 UNL     1       8.183  13.871  18.942  1.00  0.00     0.209 HD
ENDBRANCH  28  29
ENDBRANCH  24  28
BRANCH  25  31
HETATM   31  O7  UNL     1      10.911  14.305  20.311  1.00  0.00    -0.385 OA
HETATM   32  C27 UNL     1      10.132  13.393  21.072  1.00  0.00     0.202 C 
ENDBRANCH  25  31
BRANCH  26  33
HETATM   33  O8  UNL     1      13.649  13.035  20.120  1.00  0.00    -0.390 OA
HETATM   34  H42 UNL     1      14.128  12.223  20.378  1.00  0.00     0.210 HD
ENDBRANCH  26  33
BRANCH  27  35
HETATM   35  O9  UNL     1      12.958  10.505  18.291  1.00  0.00    -0.388 OA
HETATM   36  H44 UNL     1      12.796  10.132  17.397  1.00  0.00     0.210 HD
ENDBRANCH  27  35
ENDBRANCH  21  22
ENDBRANCH  15  21
BRANCH   4  37
HETATM   37  C11 UNL     1       6.726  10.289  10.801  1.00  0.00     0.156 C 
HETATM   38  O2  UNL     1       6.031  10.072   9.816  1.00  0.00    -0.649 OA
BRANCH  37  39
HETATM   39  O3  UNL     1       8.051  10.436  10.598  1.00  0.00    -0.775 OA
HETATM   40  H16 UNL     1       8.143  10.317   9.627  1.00  0.00     0.167 HD
ENDBRANCH  37  39
ENDBRANCH   4  37
BRANCH   3  41
HETATM   41  O1  UNL     1       4.540  11.626  13.627  1.00  0.00    -0.394 OA
HETATM   42  H15 UNL     1       4.749  12.575  13.640  1.00  0.00     0.210 HD
ENDBRANCH   3  41
BRANCH   1  43
HETATM   43  C5  UNL     1       3.709   7.412  12.355  1.00  0.00    -0.013 C 
HETATM   44  C6  UNL     1       2.699   7.721  13.468  1.00  0.00     0.010 C 
BRANCH  43  45
HETATM   45  C4  UNL     1       3.000   6.769  11.141  1.00  0.00     0.009 C 
BRANCH  45  46
HETATM   46  C3  UNL     1       3.581   7.174   9.771  1.00  0.00     0.034 C 
BRANCH  46  47
HETATM   47  C2  UNL     1       2.888   6.665   8.510  1.00  0.00    -0.086 C 
HETATM   48  C1  UNL     1       2.978   5.383   8.109  1.00  0.00     0.014 C 
BRANCH  47  49
HETATM   49  C35 UNL     1       2.105   7.732   7.739  1.00  0.00     0.005 C 
HETATM   50  C36 UNL     1       0.855   8.276   8.446  1.00  0.00     0.014 C 
HETATM   51  C37 UNL     1       1.715   7.214   6.350  1.00  0.00     0.014 C 
ENDBRANCH  47  49
ENDBRANCH  46  47
ENDBRANCH  45  46
ENDBRANCH  43  45
ENDBRANCH   1  43
TORSDOF 15
ENDMDL
MODEL 7
REMARK minimizedAffinity -8.00561905
REMARK CNNscore 0.221013054
REMARK CNNaffinity 7.18631315
REMARK  15 active torsions:
REMARK  status: ('A' for Active; 'I' for Inactive)
REMARK    1  A    between atoms: C2_2  and  C3_3 
REMARK    2  A    between atoms: C2_2  and  C35_44 
REMARK    3  A    between atoms: C3_3  and  C4_4 
REMARK    4  A    between atoms: C4_4  and  C5_5 
REMARK    5  A    between atoms: C5_5  and  C7_7 
REMARK    6  A    between atoms: C9_9  and  O1_10 
REMARK    7  A    between atoms: C10_11  and  C11_12 
REMARK    8  A    between atoms: C11_12  and  O3_14 
REMARK    9  A    between atoms: C22_25  and  O4_26 
REMARK   10  A    between atoms: O4_26  and  C23_27 
REMARK   11  A    between atoms: C24_29  and  C25_30 
REMARK   12  A    between atoms: C25_30  and  O6_31 
REMARK   13  A    between atoms: C26_32  and  O7_33 
REMARK   14  A    between atoms: C28_35  and  O8_36 
REMARK   15  A    between atoms: C29_37  and  O9_38 
ROOT
HETATM    1  C7  UNL     1     -13.218  10.122  14.957  1.00  0.00     0.001 C 
HETATM    2  C8  UNL     1     -13.685   9.890  13.487  1.00  0.00     0.039 C 
HETATM    3  C9  UNL     1     -12.699   8.870  12.856  1.00  0.00     0.142 C 
HETATM    4  C10 UNL     1     -11.887   8.326  14.066  1.00  0.00     0.102 C 
HETATM    5  C12 UNL     1     -10.540   7.618  13.870  1.00  0.00    -0.054 C 
HETATM    6  C13 UNL     1      -9.579   7.689  14.829  1.00  0.00    -0.067 C 
HETATM    7  C14 UNL     1      -9.759   8.544  16.092  1.00  0.00     0.036 C 
HETATM    8  C15 UNL     1     -11.115   9.256  16.286  1.00  0.00     0.015 C 
HETATM    9  C16 UNL     1     -11.738   9.638  14.940  1.00  0.00    -0.016 C 
HETATM   10  C17 UNL     1     -10.805  10.712  14.303  1.00  0.00     0.017 C 
HETATM   11  C18 UNL     1      -8.219   6.952  14.675  1.00  0.00    -0.013 C 
HETATM   12  C19 UNL     1      -7.240   8.050  14.174  1.00  0.00     0.021 C 
HETATM   13  C20 UNL     1      -7.741   6.350  16.037  1.00  0.00     0.017 C 
HETATM   14  C21 UNL     1      -6.959   5.027  15.958  1.00  0.00     0.037 C 
HETATM   15  C22 UNL     1      -6.104   4.890  14.701  1.00  0.00     0.153 C 
HETATM   16  C30 UNL     1      -6.992   5.002  13.473  1.00  0.00    -0.055 C 
HETATM   17  C31 UNL     1      -6.661   4.332  12.353  1.00  0.00     0.017 C 
HETATM   18  C32 UNL     1      -8.316   5.767  13.651  1.00  0.00     0.029 C 
HETATM   19  C33 UNL     1      -8.988   6.237  12.357  1.00  0.00     0.014 C 
HETATM   20  C34 UNL     1     -10.394   6.771  12.631  1.00  0.00     0.036 C 
ENDROOT
BRANCH  15  21
HETATM   21  O4  UNL     1      -5.135   5.935  14.764  1.00  0.00    -0.349 OA
BRANCH  21  22
HETATM   22  C23 UNL     1      -3.798   5.559  14.429  1.00  0.00     0.292 C 
HETATM   23  O5  UNL     1      -3.555   5.721  13.038  1.00  0.00    -0.348 OA
HETATM   24  C24 UNL     1      -2.212   5.391  12.636  1.00  0.00     0.179 C 
HETATM   25  C26 UNL     1      -1.166   5.333  13.774  1.00  0.00     0.183 C 
HETATM   26  C28 UNL     1      -1.433   6.514  14.723  1.00  0.00     0.183 C 
HETATM   27  C29 UNL     1      -2.880   6.506  15.236  1.00  0.00     0.204 C 
BRANCH  24  28
HETATM   28  C25 UNL     1      -2.264   4.069  11.859  1.00  0.00     0.198 C 
BRANCH  28  29
HETATM   29  O6  UNL     1      -1.335   4.107  10.771  1.00  0.00    -0.398 OA
HETATM   30  H36 UNL     1      -1.313   5.037  10.469  1.00  0.00     0.209 HD
ENDBRANCH  28  29
ENDBRANCH  24  28
BRANCH  25  31
HETATM   31  O7  UNL     1       0.126   5.357  13.146  1.00  0.00    -0.385 OA
HETATM   32  C27 UNL     1       0.456   6.583  12.511  1.00  0.00     0.202 C 
ENDBRANCH  25  31
BRANCH  26  33
HETATM   33  O8  UNL     1      -0.569   6.470  15.871  1.00  0.00    -0.390 OA
HETATM   34  H42 UNL     1      -0.700   7.323  16.330  1.00  0.00     0.210 HD
ENDBRANCH  26  33
BRANCH  27  35
HETATM   35  O9  UNL     1      -3.366   7.866  15.200  1.00  0.00    -0.388 OA
HETATM   36  H44 UNL     1      -4.334   7.786  15.060  1.00  0.00     0.210 HD
ENDBRANCH  27  35
ENDBRANCH  21  22
ENDBRANCH  15  21
BRANCH   4  37
HETATM   37  C11 UNL     1     -12.732   7.209  14.772  1.00  0.00     0.156 C 
HETATM   38  O2  UNL     1     -13.704   7.357  15.502  1.00  0.00    -0.649 OA
BRANCH  37  39
HETATM   39  O3  UNL     1     -12.310   5.945  14.558  1.00  0.00    -0.775 OA
HETATM   40  H16 UNL     1     -12.936   5.409  15.092  1.00  0.00     0.167 HD
ENDBRANCH  37  39
ENDBRANCH   4  37
BRANCH   3  41
HETATM   41  O1  UNL     1     -11.907   9.581  11.901  1.00  0.00    -0.394 OA
HETATM   42  H15 UNL     1     -11.703   8.979  11.166  1.00  0.00     0.210 HD
ENDBRANCH   3  41
BRANCH   1  43
HETATM   43  C5  UNL     1     -13.672  11.487  15.549  1.00  0.00    -0.013 C 
HETATM   44  C6  UNL     1     -14.713  12.163  14.647  1.00  0.00     0.010 C 
BRANCH  43  45
HETATM   45  C4  UNL     1     -14.143  11.496  17.022  1.00  0.00     0.009 C 
BRANCH  45  46
HETATM   46  C3  UNL     1     -13.001  11.506  18.059  1.00  0.00     0.034 C 
BRANCH  46  47
HETATM   47  C2  UNL     1     -12.065  12.711  18.095  1.00  0.00    -0.086 C 
HETATM   48  C1  UNL     1     -12.508  13.971  17.931  1.00  0.00     0.014 C 
BRANCH  47  49
HETATM   49  C35 UNL     1     -10.589  12.363  18.315  1.00  0.00     0.005 C 
HETATM   50  C36 UNL     1      -9.927  13.019  19.535  1.00  0.00     0.014 C 
HETATM   51  C37 UNL     1      -9.768  12.687  17.060  1.00  0.00     0.014 C 
ENDBRANCH  47  49
ENDBRANCH  46  47
ENDBRANCH  45  46
ENDBRANCH  43  45
ENDBRANCH   1  43
TORSDOF 15
ENDMDL
MODEL 8
REMARK minimizedAffinity -8.29608154
REMARK CNNscore 0.215535581
REMARK CNNaffinity 6.34896278
REMARK  15 active torsions:
REMARK  status: ('A' for Active; 'I' for Inactive)
REMARK    1  A    between atoms: C2_2  and  C3_3 
REMARK    2  A    between atoms: C2_2  and  C35_44 
REMARK    3  A    between atoms: C3_3  and  C4_4 
REMARK    4  A    between atoms: C4_4  and  C5_5 
REMARK    5  A    between atoms: C5_5  and  C7_7 
REMARK    6  A    between atoms: C9_9  and  O1_10 
REMARK    7  A    between atoms: C10_11  and  C11_12 
REMARK    8  A    between atoms: C11_12  and  O3_14 
REMARK    9  A    between atoms: C22_25  and  O4_26 
REMARK   10  A    between atoms: O4_26  and  C23_27 
REMARK   11  A    between atoms: C24_29  and  C25_30 
REMARK   12  A    between atoms: C25_30  and  O6_31 
REMARK   13  A    between atoms: C26_32  and  O7_33 
REMARK   14  A    between atoms: C28_35  and  O8_36 
REMARK   15  A    between atoms: C29_37  and  O9_38 
ROOT
HETATM    1  C7  UNL     1      -3.852   8.924  14.899  1.00  0.00     0.001 C 
HETATM    2  C8  UNL     1      -4.363   9.469  16.267  1.00  0.00     0.039 C 
HETATM    3  C9  UNL     1      -3.140  10.097  16.989  1.00  0.00     0.142 C 
HETATM    4  C10 UNL     1      -2.040  10.160  15.890  1.00  0.00     0.102 C 
HETATM    5  C12 UNL     1      -0.559  10.317  16.254  1.00  0.00    -0.054 C 
HETATM    6  C13 UNL     1       0.406   9.785  15.456  1.00  0.00    -0.067 C 
HETATM    7  C14 UNL     1       0.058   8.936  14.224  1.00  0.00     0.036 C 
HETATM    8  C15 UNL     1      -1.434   8.779  13.863  1.00  0.00     0.015 C 
HETATM    9  C16 UNL     1      -2.315   8.807  15.115  1.00  0.00    -0.016 C 
HETATM   10  C17 UNL     1      -1.961   7.531  15.938  1.00  0.00     0.017 C 
HETATM   11  C18 UNL     1       1.917   9.960  15.777  1.00  0.00    -0.013 C 
HETATM   12  C19 UNL     1       2.318   8.630  16.475  1.00  0.00     0.021 C 
HETATM   13  C20 UNL     1       2.753  10.189  14.476  1.00  0.00     0.017 C 
HETATM   14  C21 UNL     1       3.975  11.113  14.606  1.00  0.00     0.037 C 
HETATM   15  C22 UNL     1       4.657  11.045  15.971  1.00  0.00     0.153 C 
HETATM   16  C30 UNL     1       3.655  11.409  17.054  1.00  0.00    -0.055 C 
HETATM   17  C31 UNL     1       4.086  12.015  18.176  1.00  0.00     0.017 C 
HETATM   18  C32 UNL     1       2.169  11.193  16.715  1.00  0.00     0.029 C 
HETATM   19  C33 UNL     1       1.216  11.152  17.914  1.00  0.00     0.014 C 
HETATM   20  C34 UNL     1      -0.242  11.170  17.457  1.00  0.00     0.036 C 
ENDROOT
BRANCH  15  21
HETATM   21  O4  UNL     1       5.138   9.709  16.107  1.00  0.00    -0.349 OA
BRANCH  21  22
HETATM   22  C23 UNL     1       6.236   9.359  15.262  1.00  0.00     0.292 C 
HETATM   23  O5  UNL     1       7.439   9.241  16.010  1.00  0.00    -0.348 OA
HETATM   24  C24 UNL     1       8.582   8.857  15.222  1.00  0.00     0.179 C 
HETATM   25  C26 UNL     1       8.267   8.235  13.841  1.00  0.00     0.183 C 
HETATM   26  C28 UNL     1       7.075   7.278  14.012  1.00  0.00     0.183 C 
HETATM   27  C29 UNL     1       5.868   7.992  14.640  1.00  0.00     0.204 C 
BRANCH  24  28
HETATM   28  C25 UNL     1       9.496  10.081  15.088  1.00  0.00     0.198 C 
BRANCH  28  29
HETATM   29  O6  UNL     1       8.764  11.271  15.397  1.00  0.00    -0.398 OA
HETATM   30  H36 UNL     1       7.848  11.109  15.097  1.00  0.00     0.209 HD
ENDBRANCH  28  29
ENDBRANCH  24  28
BRANCH  25  31
HETATM   31  O7  UNL     1       9.476   7.602  13.390  1.00  0.00    -0.385 OA
HETATM   32  C27 UNL     1      10.665   8.097  13.988  1.00  0.00     0.202 C 
ENDBRANCH  25  31
BRANCH  26  33
HETATM   33  O8  UNL     1       6.649   6.741  12.749  1.00  0.00    -0.390 OA
HETATM   34  H42 UNL     1       6.001   6.041  12.968  1.00  0.00     0.210 HD
ENDBRANCH  26  33
BRANCH  27  35
HETATM   35  O9  UNL     1       5.297   7.103  15.625  1.00  0.00    -0.388 OA
HETATM   36  H44 UNL     1       4.893   7.695  16.295  1.00  0.00     0.210 HD
ENDBRANCH  27  35
ENDBRANCH  21  22
ENDBRANCH  15  21
BRANCH   4  37
HETATM   37  C11 UNL     1      -2.289  11.434  15.011  1.00  0.00     0.156 C 
HETATM   38  O2  UNL     1      -1.786  11.703  13.927  1.00  0.00    -0.649 OA
BRANCH  37  39
HETATM   39  O3  UNL     1      -3.138  12.341  15.536  1.00  0.00    -0.775 OA
HETATM   40  H16 UNL     1      -3.140  13.059  14.865  1.00  0.00     0.167 HD
ENDBRANCH  37  39
ENDBRANCH   4  37
BRANCH   3  41
HETATM   41  O1  UNL     1      -2.811   9.242  18.088  1.00  0.00    -0.394 OA
HETATM   42  H15 UNL     1      -2.478   9.793  18.814  1.00  0.00     0.210 HD
ENDBRANCH   3  41
BRANCH   1  43
HETATM   43  C5  UNL     1      -4.730   7.781  14.313  1.00  0.00    -0.013 C 
HETATM   44  C6  UNL     1      -5.172   8.103  12.879  1.00  0.00     0.010 C 
BRANCH  43  45
HETATM   45  C4  UNL     1      -4.168   6.344  14.399  1.00  0.00     0.009 C 
BRANCH  45  46
HETATM   46  C3  UNL     1      -3.652   5.776  13.061  1.00  0.00     0.034 C 
BRANCH  46  47
HETATM   47  C2  UNL     1      -4.210   4.441  12.576  1.00  0.00    -0.086 C 
HETATM   48  C1  UNL     1      -5.507   4.110  12.718  1.00  0.00     0.014 C 
BRANCH  47  49
HETATM   49  C35 UNL     1      -3.172   3.512  11.937  1.00  0.00     0.005 C 
HETATM   50  C36 UNL     1      -2.744   3.880  10.509  1.00  0.00     0.014 C 
HETATM   51  C37 UNL     1      -3.664   2.060  11.959  1.00  0.00     0.014 C 
ENDBRANCH  47  49
ENDBRANCH  46  47
ENDBRANCH  45  46
ENDBRANCH  43  45
ENDBRANCH   1  43
TORSDOF 15
ENDMDL
MODEL 9
REMARK minimizedAffinity -7.46849918
REMARK CNNscore 0.202640846
REMARK CNNaffinity 5.97548056
REMARK  15 active torsions:
REMARK  status: ('A' for Active; 'I' for Inactive)
REMARK    1  A    between atoms: C2_2  and  C3_3 
REMARK    2  A    between atoms: C2_2  and  C35_44 
REMARK    3  A    between atoms: C3_3  and  C4_4 
REMARK    4  A    between atoms: C4_4  and  C5_5 
REMARK    5  A    between atoms: C5_5  and  C7_7 
REMARK    6  A    between atoms: C9_9  and  O1_10 
REMARK    7  A    between atoms: C10_11  and  C11_12 
REMARK    8  A    between atoms: C11_12  and  O3_14 
REMARK    9  A    between atoms: C22_25  and  O4_26 
REMARK   10  A    between atoms: O4_26  and  C23_27 
REMARK   11  A    between atoms: C24_29  and  C25_30 
REMARK   12  A    between atoms: C25_30  and  O6_31 
REMARK   13  A    between atoms: C26_32  and  O7_33 
REMARK   14  A    between atoms: C28_35  and  O8_36 
REMARK   15  A    between atoms: C29_37  and  O9_38 
ROOT
HETATM    1  C7  UNL     1     -17.378   2.563  15.319  1.00  0.00     0.001 C 
HETATM    2  C8  UNL     1     -17.525   1.973  16.755  1.00  0.00     0.039 C 
HETATM    3  C9  UNL     1     -17.009   0.509  16.696  1.00  0.00     0.142 C 
HETATM    4  C10 UNL     1     -16.308   0.407  15.311  1.00  0.00     0.102 C 
HETATM    5  C12 UNL     1     -16.024  -0.952  14.659  1.00  0.00    -0.054 C 
HETATM    6  C13 UNL     1     -16.003  -1.074  13.305  1.00  0.00    -0.067 C 
HETATM    7  C14 UNL     1     -16.349   0.103  12.381  1.00  0.00     0.036 C 
HETATM    8  C15 UNL     1     -16.635   1.469  13.041  1.00  0.00     0.015 C 
HETATM    9  C16 UNL     1     -17.273   1.295  14.422  1.00  0.00    -0.016 C 
HETATM   10  C17 UNL     1     -18.675   0.656  14.190  1.00  0.00     0.017 C 
HETATM   11  C18 UNL     1     -15.681  -2.429  12.614  1.00  0.00    -0.013 C 
HETATM   12  C19 UNL     1     -17.073  -3.015  12.248  1.00  0.00     0.021 C 
HETATM   13  C20 UNL     1     -14.802  -2.223  11.337  1.00  0.00     0.017 C 
HETATM   14  C21 UNL     1     -13.787  -3.335  11.024  1.00  0.00     0.037 C 
HETATM   15  C22 UNL     1     -14.254  -4.730  11.433  1.00  0.00     0.153 C 
HETATM   16  C30 UNL     1     -14.545  -4.746  12.925  1.00  0.00    -0.055 C 
HETATM   17  C31 UNL     1     -14.359  -5.882  13.623  1.00  0.00     0.017 C 
HETATM   18  C32 UNL     1     -14.893  -3.392  13.571  1.00  0.00     0.029 C 
HETATM   19  C33 UNL     1     -15.585  -3.468  14.936  1.00  0.00     0.014 C 
HETATM   20  C34 UNL     1     -15.670  -2.088  15.585  1.00  0.00     0.036 C 
ENDROOT
BRANCH  15  21
HETATM   21  O4  UNL     1     -15.415  -5.005  10.653  1.00  0.00    -0.349 OA
BRANCH  21  22
HETATM   22  C23 UNL     1     -15.171  -5.536   9.349  1.00  0.00     0.292 C 
HETATM   23  O5  UNL     1     -14.286  -4.702   8.614  1.00  0.00    -0.348 OA
HETATM   24  C24 UNL     1     -13.971  -5.198   7.299  1.00  0.00     0.179 C 
HETATM   25  C26 UNL     1     -14.272  -6.696   7.057  1.00  0.00     0.183 C 
HETATM   26  C28 UNL     1     -13.844  -7.475   8.313  1.00  0.00     0.183 C 
HETATM   27  C29 UNL     1     -14.522  -6.922   9.575  1.00  0.00     0.204 C 
BRANCH  24  28
HETATM   28  C25 UNL     1     -14.691  -4.312   6.276  1.00  0.00     0.198 C 
BRANCH  28  29
HETATM   29  O6  UNL     1     -13.962  -4.299   5.045  1.00  0.00    -0.398 OA
HETATM   30  H36 UNL     1     -13.018  -4.370   5.290  1.00  0.00     0.209 HD
ENDBRANCH  28  29
ENDBRANCH  24  28
BRANCH  25  31
HETATM   31  O7  UNL     1     -13.569  -7.068   5.860  1.00  0.00    -0.385 OA
HETATM   32  C27 UNL     1     -12.169  -7.235   6.020  1.00  0.00     0.202 C 
ENDBRANCH  25  31
BRANCH  26  33
HETATM   33  O8  UNL     1     -14.192  -8.866   8.211  1.00  0.00    -0.390 OA
HETATM   34  H42 UNL     1     -13.754  -9.301   8.969  1.00  0.00     0.210 HD
ENDBRANCH  26  33
BRANCH  27  35
HETATM   35  O9  UNL     1     -13.527  -6.872  10.621  1.00  0.00    -0.388 OA
HETATM   36  H44 UNL     1     -13.806  -6.130  11.200  1.00  0.00     0.210 HD
ENDBRANCH  27  35
ENDBRANCH  21  22
ENDBRANCH  15  21
BRANCH   4  37
HETATM   37  C11 UNL     1     -14.864   1.006  15.438  1.00  0.00     0.156 C 
HETATM   38  O2  UNL     1     -14.029   0.764  16.301  1.00  0.00    -0.649 OA
BRANCH  37  39
HETATM   39  O3  UNL     1     -14.529   1.910  14.494  1.00  0.00    -0.775 OA
HETATM   40  H16 UNL     1     -13.622   2.180  14.757  1.00  0.00     0.167 HD
ENDBRANCH  37  39
ENDBRANCH   4  37
BRANCH   3  41
HETATM   41  O1  UNL     1     -18.147  -0.347  16.832  1.00  0.00    -0.394 OA
HETATM   42  H15 UNL     1     -17.872  -1.144  17.316  1.00  0.00     0.210 HD
ENDBRANCH   3  41
BRANCH   1  43
HETATM   43  C5  UNL     1     -18.344   3.748  15.028  1.00  0.00    -0.013 C 
HETATM   44  C6  UNL     1     -19.275   4.008  16.220  1.00  0.00     0.010 C 
BRANCH  43  45
HETATM   45  C4  UNL     1     -17.712   5.069  14.534  1.00  0.00     0.009 C 
BRANCH  45  46
HETATM   46  C3  UNL     1     -16.241   4.948  14.087  1.00  0.00     0.034 C 
BRANCH  46  47
HETATM   47  C2  UNL     1     -15.199   5.825  14.776  1.00  0.00    -0.086 C 
HETATM   48  C1  UNL     1     -15.349   6.262  16.040  1.00  0.00     0.014 C 
BRANCH  47  49
HETATM   49  C35 UNL     1     -13.988   6.177  13.905  1.00  0.00     0.005 C 
HETATM   50  C36 UNL     1     -12.821   6.855  14.636  1.00  0.00     0.014 C 
HETATM   51  C37 UNL     1     -14.415   7.050  12.718  1.00  0.00     0.014 C 
ENDBRANCH  47  49
ENDBRANCH  46  47
ENDBRANCH  45  46
ENDBRANCH  43  45
ENDBRANCH   1  43
TORSDOF 15
ENDMDL
