MODEL 1
REMARK minimizedAffinity -7.76432753
REMARK CNNscore 0.496560186
REMARK CNNaffinity 6.26126909
REMARK  13 active torsions:
REMARK  status: ('A' for Active; 'I' for Inactive)
REMARK    1  A    between atoms: C3_3  and  O1_4 
REMARK    2  A    between atoms: N1_14  and  O2_16 
REMARK    3  A    between atoms: O2_16  and  C13_17 
REMARK    4  A    between atoms: C13_17  and  C14_18 
REMARK       I    between atoms: C14_18  and  N2_20 
REMARK    5  A    between atoms: N2_20  and  C15_21 
REMARK    6  A    between atoms: C15_21  and  C16_22 
REMARK    7  A    between atoms: C15_21  and  C21_32 
REMARK       I    between atoms: C16_22  and  N3_24 
REMARK    8  A    between atoms: N3_24  and  C17_25 
REMARK    9  A    between atoms: C17_25  and  C18_26 
REMARK   10  A    between atoms: C17_25  and  C19_28 
REMARK   11  A    between atoms: C18_26  and  S1_27 
REMARK   12  A    between atoms: C19_28  and  C20_29 
REMARK   13  A    between atoms: C20_29  and  O6_31 
ROOT
HETATM    1  C1  UNL     1      -1.618   5.771  12.438  1.00  0.00     0.015 C 
HETATM    2  C2  UNL     1      -2.198   6.659  13.000  1.00  0.00    -0.078 C 
HETATM    3  C3  UNL     1      -2.859   7.799  13.659  1.00  0.00     0.128 C 
HETATM    4  C4  UNL     1      -4.283   8.013  13.140  1.00  0.00     0.052 C 
HETATM    5  C5  UNL     1      -5.023   8.776  14.247  1.00  0.00     0.010 C 
HETATM    6  C6  UNL     1      -4.151   8.699  15.519  1.00  0.00     0.002 C 
HETATM    7  C7  UNL     1      -3.714  10.073  16.117  1.00  0.00    -0.004 C 
HETATM    8  C8  UNL     1      -3.312  11.192  15.131  1.00  0.00     0.010 C 
HETATM    9  C9  UNL     1      -2.959  12.504  15.832  1.00  0.00     0.035 C 
HETATM   10  C10 UNL     1      -1.967  12.331  16.958  1.00  0.00    -0.069 C 
HETATM   11  C11 UNL     1      -0.905  13.147  17.052  1.00  0.00     0.030 C 
HETATM   12  C12 UNL     1       0.006  13.105  18.226  1.00  0.00     0.032 C 
HETATM   13  N1  UNL     1       1.117  13.784  18.162  1.00  0.00    -0.271 N 
ATOM     14  H1  UNL     1       1.398  14.347  17.359  1.00  0.00     0.194 HD
HETATM   15  C24 UNL     1      -0.453  12.309  19.431  1.00  0.00     0.060 C 
HETATM   16  C25 UNL     1      -1.084  11.010  18.949  1.00  0.00     0.020 C 
HETATM   17  C26 UNL     1      -2.270  11.219  17.959  1.00  0.00    -0.016 C 
HETATM   18  C27 UNL     1      -3.493  11.652  18.814  1.00  0.00     0.020 C 
HETATM   19  C28 UNL     1      -2.612   9.874  17.196  1.00  0.00     0.002 C 
HETATM   20  C29 UNL     1      -1.410   9.186  16.513  1.00  0.00     0.007 C 
HETATM   21  C30 UNL     1      -1.764   7.786  16.027  1.00  0.00     0.014 C 
HETATM   22  C31 UNL     1      -3.052   7.641  15.196  1.00  0.00     0.003 C 
HETATM   23  C32 UNL     1      -3.628   6.224  15.523  1.00  0.00     0.020 C 
ENDROOT
BRANCH   3  24
HETATM   24  O1  UNL     1      -2.108   8.962  13.336  1.00  0.00    -0.377 OA
HETATM   25  H2  UNL     1      -1.190   8.809  13.609  1.00  0.00     0.211 HD
ENDBRANCH   3  24
BRANCH  13  26
HETATM   26  O2  UNL     1       1.877  13.646  19.332  1.00  0.00    -0.271 OA
BRANCH  26  27
HETATM   27  C13 UNL     1       3.142  13.071  19.020  1.00  0.00     0.303 C 
BRANCH  27  28
HETATM   28  C14 UNL     1       3.773  12.431  20.249  1.00  0.00     0.244 C 
HETATM   29  O3  UNL     1       4.830  11.804  20.199  1.00  0.00    -0.271 OA
HETATM   30  N2  UNL     1       3.081  12.659  21.421  1.00  0.00    -0.346 N 
HETATM   31  H16 UNL     1       2.100  12.901  21.275  1.00  0.00     0.163 HD
BRANCH  30  32
HETATM   32  C15 UNL     1       3.408  11.897  22.624  1.00  0.00     0.180 C 
BRANCH  32  33
HETATM   33  C16 UNL     1       4.906  12.135  22.924  1.00  0.00     0.241 C 
HETATM   34  O4  UNL     1       5.662  11.233  23.289  1.00  0.00    -0.271 OA
HETATM   35  N3  UNL     1       5.330  13.436  22.756  1.00  0.00    -0.353 N 
HETATM   36  H18 UNL     1       4.668  14.138  22.456  1.00  0.00     0.163 HD
BRANCH  35  37
HETATM   37  C17 UNL     1       6.737  13.821  22.926  1.00  0.00     0.103 C 
BRANCH  37  38
HETATM   38  C18 UNL     1       6.906  15.354  22.852  1.00  0.00     0.096 C 
BRANCH  38  39
HETATM   39  S1  UNL     1       7.904  16.012  24.228  1.00  0.00    -0.180 SA
HETATM   40  H22 UNL     1       9.002  15.276  23.964  1.00  0.00     0.101 HD
ENDBRANCH  38  39
ENDBRANCH  37  38
BRANCH  37  41
HETATM   41  C19 UNL     1       7.607  13.132  21.861  1.00  0.00     0.136 C 
BRANCH  41  42
HETATM   42  C20 UNL     1       8.853  12.538  22.457  1.00  0.00     0.141 C 
HETATM   43  O5  UNL     1       9.363  12.815  23.528  1.00  0.00    -0.650 OA
BRANCH  42  44
HETATM   44  O6  UNL     1       9.403  11.607  21.651  1.00  0.00    -0.776 OA
HETATM   45  H25 UNL     1      10.151  11.246  22.168  1.00  0.00     0.167 HD
ENDBRANCH  42  44
ENDBRANCH  41  42
ENDBRANCH  37  41
ENDBRANCH  35  37
ENDBRANCH  32  33
BRANCH  32  46
HETATM   46  C21 UNL     1       3.037  10.407  22.468  1.00  0.00     0.009 C 
HETATM   47  C22 UNL     1       4.280   9.536  22.258  1.00  0.00     0.012 C 
HETATM   48  C23 UNL     1       2.014  10.134  21.360  1.00  0.00     0.012 C 
ENDBRANCH  32  46
ENDBRANCH  30  32
ENDBRANCH  27  28
ENDBRANCH  26  27
ENDBRANCH  13  26
TORSDOF 13
ENDMDL
MODEL 2
REMARK minimizedAffinity -7.70688581
REMARK CNNscore 0.384371459
REMARK CNNaffinity 7.08992147
REMARK  13 active torsions:
REMARK  status: ('A' for Active; 'I' for Inactive)
REMARK    1  A    between atoms: C3_3  and  O1_4 
REMARK    2  A    between atoms: N1_14  and  O2_16 
REMARK    3  A    between atoms: O2_16  and  C13_17 
REMARK    4  A    between atoms: C13_17  and  C14_18 
REMARK       I    between atoms: C14_18  and  N2_20 
REMARK    5  A    between atoms: N2_20  and  C15_21 
REMARK    6  A    between atoms: C15_21  and  C16_22 
REMARK    7  A    between atoms: C15_21  and  C21_32 
REMARK       I    between atoms: C16_22  and  N3_24 
REMARK    8  A    between atoms: N3_24  and  C17_25 
REMARK    9  A    between atoms: C17_25  and  C18_26 
REMARK   10  A    between atoms: C17_25  and  C19_28 
REMARK   11  A    between atoms: C18_26  and  S1_27 
REMARK   12  A    between atoms: C19_28  and  C20_29 
REMARK   13  A    between atoms: C20_29  and  O6_31 
ROOT
HETATM    1  C1  UNL     1       3.437   4.708   7.933  1.00  0.00     0.015 C 
HETATM    2  C2  UNL     1       3.274   5.308   8.960  1.00  0.00    -0.078 C 
HETATM    3  C3  UNL     1       3.036   5.981  10.248  1.00  0.00     0.128 C 
HETATM    4  C4  UNL     1       4.343   6.276  10.989  1.00  0.00     0.052 C 
HETATM    5  C5  UNL     1       4.030   7.433  11.947  1.00  0.00     0.010 C 
HETATM    6  C6  UNL     1       2.669   8.025  11.523  1.00  0.00     0.002 C 
HETATM    7  C7  UNL     1       1.559   8.014  12.621  1.00  0.00    -0.004 C 
HETATM    8  C8  UNL     1       1.462   6.770  13.532  1.00  0.00     0.010 C 
HETATM    9  C9  UNL     1       0.378   6.900  14.602  1.00  0.00     0.035 C 
HETATM   10  C10 UNL     1      -0.961   7.327  14.047  1.00  0.00    -0.069 C 
HETATM   11  C11 UNL     1      -2.078   6.675  14.407  1.00  0.00     0.030 C 
HETATM   12  C12 UNL     1      -3.425   7.159  14.002  1.00  0.00     0.032 C 
HETATM   13  N1  UNL     1      -4.445   6.378  14.220  1.00  0.00    -0.271 N 
ATOM     14  H1  UNL     1      -4.379   5.458  14.655  1.00  0.00     0.194 HD
HETATM   15  C24 UNL     1      -3.511   8.549  13.407  1.00  0.00     0.060 C 
HETATM   16  C25 UNL     1      -2.345   8.746  12.447  1.00  0.00     0.020 C 
HETATM   17  C26 UNL     1      -0.949   8.528  13.105  1.00  0.00    -0.016 C 
HETATM   18  C27 UNL     1      -0.648   9.801  13.943  1.00  0.00     0.020 C 
HETATM   19  C28 UNL     1       0.173   8.348  12.002  1.00  0.00     0.002 C 
HETATM   20  C29 UNL     1      -0.130   7.276  10.932  1.00  0.00     0.007 C 
HETATM   21  C30 UNL     1       0.861   7.341   9.776  1.00  0.00     0.014 C 
HETATM   22  C31 UNL     1       2.357   7.377  10.139  1.00  0.00     0.003 C 
HETATM   23  C32 UNL     1       3.057   8.231   9.032  1.00  0.00     0.020 C 
ENDROOT
BRANCH   3  24
HETATM   24  O1  UNL     1       2.283   5.085  11.055  1.00  0.00    -0.377 OA
HETATM   25  H2  UNL     1       1.480   4.847  10.566  1.00  0.00     0.211 HD
ENDBRANCH   3  24
BRANCH  13  26
HETATM   26  O2  UNL     1      -5.644   6.957  13.782  1.00  0.00    -0.271 OA
BRANCH  26  27
HETATM   27  C13 UNL     1      -6.654   5.959  13.681  1.00  0.00     0.303 C 
BRANCH  27  28
HETATM   28  C14 UNL     1      -8.029   6.535  13.990  1.00  0.00     0.244 C 
HETATM   29  O3  UNL     1      -8.704   7.125  13.147  1.00  0.00    -0.271 OA
HETATM   30  N2  UNL     1      -8.466   6.294  15.277  1.00  0.00    -0.346 N 
HETATM   31  H16 UNL     1      -7.709   6.092  15.932  1.00  0.00     0.163 HD
BRANCH  30  32
HETATM   32  C15 UNL     1      -9.630   7.003  15.800  1.00  0.00     0.180 C 
BRANCH  32  33
HETATM   33  C16 UNL     1     -10.765   6.851  14.761  1.00  0.00     0.241 C 
HETATM   34  O4  UNL     1     -10.608   6.271  13.685  1.00  0.00    -0.271 OA
HETATM   35  N3  UNL     1     -11.967   7.417  15.130  1.00  0.00    -0.353 N 
HETATM   36  H18 UNL     1     -12.042   7.882  16.024  1.00  0.00     0.163 HD
BRANCH  35  37
HETATM   37  C17 UNL     1     -13.168   7.299  14.294  1.00  0.00     0.103 C 
BRANCH  37  38
HETATM   38  C18 UNL     1     -13.652   5.835  14.219  1.00  0.00     0.096 C 
BRANCH  38  39
HETATM   39  S1  UNL     1     -15.389   5.648  14.740  1.00  0.00    -0.180 SA
HETATM   40  H22 UNL     1     -15.898   6.492  13.822  1.00  0.00     0.101 HD
ENDBRANCH  38  39
ENDBRANCH  37  38
BRANCH  37  41
HETATM   41  C19 UNL     1     -12.887   7.843  12.883  1.00  0.00     0.136 C 
BRANCH  41  42
HETATM   42  C20 UNL     1     -13.935   8.828  12.445  1.00  0.00     0.141 C 
HETATM   43  O5  UNL     1     -13.858  10.043  12.461  1.00  0.00    -0.650 OA
BRANCH  42  44
HETATM   44  O6  UNL     1     -15.050   8.213  12.001  1.00  0.00    -0.776 OA
HETATM   45  H25 UNL     1     -15.621   8.940  11.680  1.00  0.00     0.167 HD
ENDBRANCH  42  44
ENDBRANCH  41  42
ENDBRANCH  37  41
ENDBRANCH  35  37
ENDBRANCH  32  33
BRANCH  32  46
HETATM   46  C21 UNL     1      -9.293   8.472  16.137  1.00  0.00     0.009 C 
HETATM   47  C22 UNL     1     -10.101   8.973  17.340  1.00  0.00     0.012 C 
HETATM   48  C23 UNL     1      -9.461   9.434  14.957  1.00  0.00     0.012 C 
ENDBRANCH  32  46
ENDBRANCH  30  32
ENDBRANCH  27  28
ENDBRANCH  26  27
ENDBRANCH  13  26
TORSDOF 13
ENDMDL
MODEL 3
REMARK minimizedAffinity -9.54493904
REMARK CNNscore 0.369763434
REMARK CNNaffinity 7.1938529
REMARK  13 active torsions:
REMARK  status: ('A' for Active; 'I' for Inactive)
REMARK    1  A    between atoms: C3_3  and  O1_4 
REMARK    2  A    between atoms: N1_14  and  O2_16 
REMARK    3  A    between atoms: O2_16  and  C13_17 
REMARK    4  A    between atoms: C13_17  and  C14_18 
REMARK       I    between atoms: C14_18  and  N2_20 
REMARK    5  A    between atoms: N2_20  and  C15_21 
REMARK    6  A    between atoms: C15_21  and  C16_22 
REMARK    7  A    between atoms: C15_21  and  C21_32 
REMARK       I    between atoms: C16_22  and  N3_24 
REMARK    8  A    between atoms: N3_24  and  C17_25 
REMARK    9  A    between atoms: C17_25  and  C18_26 
REMARK   10  A    between atoms: C17_25  and  C19_28 
REMARK   11  A    between atoms: C18_26  and  S1_27 
REMARK   12  A    between atoms: C19_28  and  C20_29 
REMARK   13  A    between atoms: C20_29  and  O6_31 
ROOT
HETATM    1  C1  UNL     1       2.660   5.517   6.699  1.00  0.00     0.015 C 
HETATM    2  C2  UNL     1       2.762   5.880   7.839  1.00  0.00    -0.078 C 
HETATM    3  C3  UNL     1       2.840   6.266   9.258  1.00  0.00     0.128 C 
HETATM    4  C4  UNL     1       4.254   6.099   9.820  1.00  0.00     0.052 C 
HETATM    5  C5  UNL     1       4.338   7.039  11.031  1.00  0.00     0.010 C 
HETATM    6  C6  UNL     1       3.121   7.985  10.964  1.00  0.00     0.002 C 
HETATM    7  C7  UNL     1       2.172   7.949  12.202  1.00  0.00    -0.004 C 
HETATM    8  C8  UNL     1       1.881   6.575  12.846  1.00  0.00     0.010 C 
HETATM    9  C9  UNL     1       0.988   6.675  14.082  1.00  0.00     0.035 C 
HETATM   10  C10 UNL     1      -0.263   7.490  13.851  1.00  0.00    -0.069 C 
HETATM   11  C11 UNL     1      -1.456   7.021  14.249  1.00  0.00     0.030 C 
HETATM   12  C12 UNL     1      -2.684   7.858  14.175  1.00  0.00     0.032 C 
HETATM   13  N1  UNL     1      -3.831   7.279  14.394  1.00  0.00    -0.271 N 
ATOM     14  H1  UNL     1      -3.940   6.290  14.617  1.00  0.00     0.194 HD
HETATM   15  C24 UNL     1      -2.499   9.335  13.897  1.00  0.00     0.060 C 
HETATM   16  C25 UNL     1      -1.436   9.503  12.819  1.00  0.00     0.020 C 
HETATM   17  C26 UNL     1      -0.068   8.849  13.183  1.00  0.00    -0.016 C 
HETATM   18  C27 UNL     1       0.622   9.798  14.201  1.00  0.00     0.020 C 
HETATM   19  C28 UNL     1       0.846   8.702  11.899  1.00  0.00     0.002 C 
HETATM   20  C29 UNL     1       0.176   7.999  10.697  1.00  0.00     0.007 C 
HETATM   21  C30 UNL     1       1.017   8.124   9.433  1.00  0.00     0.014 C 
HETATM   22  C31 UNL     1       2.509   7.759   9.547  1.00  0.00     0.003 C 
HETATM   23  C32 UNL     1       3.264   8.683   8.537  1.00  0.00     0.020 C 
ENDROOT
BRANCH   3  24
HETATM   24  O1  UNL     1       1.989   5.385   9.980  1.00  0.00    -0.377 OA
HETATM   25  H2  UNL     1       1.103   5.442   9.589  1.00  0.00     0.211 HD
ENDBRANCH   3  24
BRANCH  13  26
HETATM   26  O2  UNL     1      -4.897   8.183  14.284  1.00  0.00    -0.271 OA
BRANCH  26  27
HETATM   27  C13 UNL     1      -5.662   8.175  15.485  1.00  0.00     0.303 C 
BRANCH  27  28
HETATM   28  C14 UNL     1      -6.739   7.099  15.443  1.00  0.00     0.244 C 
HETATM   29  O3  UNL     1      -7.358   6.742  16.444  1.00  0.00    -0.271 OA
HETATM   30  N2  UNL     1      -6.987   6.599  14.181  1.00  0.00    -0.346 N 
HETATM   31  H16 UNL     1      -6.215   6.738  13.528  1.00  0.00     0.163 HD
BRANCH  30  32
HETATM   32  C15 UNL     1      -7.789   5.389  14.017  1.00  0.00     0.180 C 
BRANCH  32  33
HETATM   33  C16 UNL     1      -6.907   4.349  13.289  1.00  0.00     0.241 C 
HETATM   34  O4  UNL     1      -7.350   3.280  12.866  1.00  0.00    -0.271 OA
HETATM   35  N3  UNL     1      -5.582   4.708  13.154  1.00  0.00    -0.353 N 
HETATM   36  H18 UNL     1      -5.270   5.596  13.521  1.00  0.00     0.163 HD
BRANCH  35  37
HETATM   37  C17 UNL     1      -4.622   3.869  12.423  1.00  0.00     0.103 C 
BRANCH  37  38
HETATM   38  C18 UNL     1      -3.384   4.687  11.996  1.00  0.00     0.096 C 
BRANCH  38  39
HETATM   39  S1  UNL     1      -1.846   3.712  12.069  1.00  0.00    -0.180 SA
HETATM   40  H22 UNL     1      -2.252   2.752  11.215  1.00  0.00     0.101 HD
ENDBRANCH  38  39
ENDBRANCH  37  38
BRANCH  37  41
HETATM   41  C19 UNL     1      -5.299   3.238  11.195  1.00  0.00     0.136 C 
BRANCH  41  42
HETATM   42  C20 UNL     1      -5.228   1.737  11.230  1.00  0.00     0.141 C 
HETATM   43  O5  UNL     1      -6.155   0.952  11.134  1.00  0.00    -0.650 OA
BRANCH  42  44
HETATM   44  O6  UNL     1      -3.964   1.294  11.388  1.00  0.00    -0.776 OA
HETATM   45  H25 UNL     1      -4.034   0.321  11.322  1.00  0.00     0.167 HD
ENDBRANCH  42  44
ENDBRANCH  41  42
ENDBRANCH  37  41
ENDBRANCH  35  37
ENDBRANCH  32  33
BRANCH  32  46
HETATM   46  C21 UNL     1      -9.119   5.687  13.292  1.00  0.00     0.009 C 
HETATM   47  C22 UNL     1      -8.918   5.825  11.779  1.00  0.00     0.012 C 
HETATM   48  C23 UNL     1      -9.862   6.912  13.836  1.00  0.00     0.012 C 
ENDBRANCH  32  46
ENDBRANCH  30  32
ENDBRANCH  27  28
ENDBRANCH  26  27
ENDBRANCH  13  26
TORSDOF 13
ENDMDL
MODEL 4
REMARK minimizedAffinity -7.2290349
REMARK CNNscore 0.315400511
REMARK CNNaffinity 6.04397011
REMARK  13 active torsions:
REMARK  status: ('A' for Active; 'I' for Inactive)
REMARK    1  A    between atoms: C3_3  and  O1_4 
REMARK    2  A    between atoms: N1_14  and  O2_16 
REMARK    3  A    between atoms: O2_16  and  C13_17 
REMARK    4  A    between atoms: C13_17  and  C14_18 
REMARK       I    between atoms: C14_18  and  N2_20 
REMARK    5  A    between atoms: N2_20  and  C15_21 
REMARK    6  A    between atoms: C15_21  and  C16_22 
REMARK    7  A    between atoms: C15_21  and  C21_32 
REMARK       I    between atoms: C16_22  and  N3_24 
REMARK    8  A    between atoms: N3_24  and  C17_25 
REMARK    9  A    between atoms: C17_25  and  C18_26 
REMARK   10  A    between atoms: C17_25  and  C19_28 
REMARK   11  A    between atoms: C18_26  and  S1_27 
REMARK   12  A    between atoms: C19_28  and  C20_29 
REMARK   13  A    between atoms: C20_29  and  O6_31 
ROOT
HETATM    1  C1  UNL     1     -10.562   0.216  -4.760  1.00  0.00     0.015 C 
HETATM    2  C2  UNL     1     -10.795  -0.902  -5.131  1.00  0.00    -0.078 C 
HETATM    3  C3  UNL     1     -11.108  -2.289  -5.515  1.00  0.00     0.128 C 
HETATM    4  C4  UNL     1     -12.196  -2.353  -6.590  1.00  0.00     0.052 C 
HETATM    5  C5  UNL     1     -12.012  -3.706  -7.292  1.00  0.00     0.010 C 
HETATM    6  C6  UNL     1     -10.635  -4.261  -6.868  1.00  0.00     0.002 C 
HETATM    7  C7  UNL     1     -10.660  -5.654  -6.165  1.00  0.00    -0.004 C 
HETATM    8  C8  UNL     1     -11.801  -5.933  -5.161  1.00  0.00     0.010 C 
HETATM    9  C9  UNL     1     -11.750  -7.348  -4.583  1.00  0.00     0.035 C 
HETATM   10  C10 UNL     1     -10.391  -7.724  -4.044  1.00  0.00    -0.069 C 
HETATM   11  C11 UNL     1     -10.280  -8.294  -2.833  1.00  0.00     0.030 C 
HETATM   12  C12 UNL     1      -8.978  -8.814  -2.336  1.00  0.00     0.032 C 
HETATM   13  N1  UNL     1      -8.903  -9.175  -1.086  1.00  0.00    -0.271 N 
ATOM     14  H1  UNL     1      -9.682  -9.128  -0.428  1.00  0.00     0.194 HD
HETATM   15  C24 UNL     1      -7.849  -8.928  -3.339  1.00  0.00     0.060 C 
HETATM   16  C25 UNL     1      -7.849  -7.688  -4.222  1.00  0.00     0.020 C 
HETATM   17  C26 UNL     1      -9.201  -7.445  -4.959  1.00  0.00    -0.016 C 
HETATM   18  C27 UNL     1      -9.250  -8.451  -6.142  1.00  0.00     0.020 C 
HETATM   19  C28 UNL     1      -9.279  -5.968  -5.523  1.00  0.00     0.002 C 
HETATM   20  C29 UNL     1      -8.982  -4.858  -4.491  1.00  0.00     0.007 C 
HETATM   21  C30 UNL     1      -8.824  -3.497  -5.157  1.00  0.00     0.014 C 
HETATM   22  C31 UNL     1      -9.923  -3.074  -6.149  1.00  0.00     0.003 C 
HETATM   23  C32 UNL     1      -9.219  -2.198  -7.237  1.00  0.00     0.020 C 
ENDROOT
BRANCH   3  24
HETATM   24  O1  UNL     1     -11.615  -2.939  -4.357  1.00  0.00    -0.377 OA
HETATM   25  H2  UNL     1     -10.955  -2.850  -3.653  1.00  0.00     0.211 HD
ENDBRANCH   3  24
BRANCH  13  26
HETATM   26  O2  UNL     1      -7.621  -9.636  -0.755  1.00  0.00    -0.271 OA
BRANCH  26  27
HETATM   27  C13 UNL     1      -7.459  -9.640   0.659  1.00  0.00     0.303 C 
BRANCH  27  28
HETATM   28  C14 UNL     1      -6.308 -10.544   1.079  1.00  0.00     0.244 C 
HETATM   29  O3  UNL     1      -5.711 -11.268   0.283  1.00  0.00    -0.271 OA
HETATM   30  N2  UNL     1      -5.967 -10.441   2.412  1.00  0.00    -0.346 N 
HETATM   31  H16 UNL     1      -6.718 -10.070   2.997  1.00  0.00     0.163 HD
BRANCH  30  32
HETATM   32  C15 UNL     1      -5.074 -11.425   3.018  1.00  0.00     0.180 C 
BRANCH  32  33
HETATM   33  C16 UNL     1      -5.439 -11.513   4.518  1.00  0.00     0.241 C 
HETATM   34  O4  UNL     1      -5.807 -12.561   5.052  1.00  0.00    -0.271 OA
HETATM   35  N3  UNL     1      -5.327 -10.327   5.212  1.00  0.00    -0.353 N 
HETATM   36  H18 UNL     1      -5.022  -9.496   4.724  1.00  0.00     0.163 HD
BRANCH  35  37
HETATM   37  C17 UNL     1      -5.563 -10.250   6.659  1.00  0.00     0.103 C 
BRANCH  37  38
HETATM   38  C18 UNL     1      -6.284  -8.937   7.034  1.00  0.00     0.096 C 
BRANCH  38  39
HETATM   39  S1  UNL     1      -6.651  -8.828   8.816  1.00  0.00    -0.180 SA
HETATM   40  H22 UNL     1      -5.373  -8.946   9.226  1.00  0.00     0.101 HD
ENDBRANCH  38  39
ENDBRANCH  37  38
BRANCH  37  41
HETATM   41  C19 UNL     1      -4.232 -10.367   7.420  1.00  0.00     0.136 C 
BRANCH  41  42
HETATM   42  C20 UNL     1      -3.133  -9.597   6.743  1.00  0.00     0.141 C 
HETATM   43  O5  UNL     1      -3.173  -8.444   6.352  1.00  0.00    -0.650 OA
BRANCH  42  44
HETATM   44  O6  UNL     1      -2.017 -10.339   6.591  1.00  0.00    -0.776 OA
HETATM   45  H25 UNL     1      -1.360  -9.720   6.214  1.00  0.00     0.167 HD
ENDBRANCH  42  44
ENDBRANCH  41  42
ENDBRANCH  37  41
ENDBRANCH  35  37
ENDBRANCH  32  33
BRANCH  32  46
HETATM   46  C21 UNL     1      -3.592 -11.077   2.762  1.00  0.00     0.009 C 
HETATM   47  C22 UNL     1      -2.654 -11.959   3.594  1.00  0.00     0.012 C 
HETATM   48  C23 UNL     1      -3.254  -9.599   2.983  1.00  0.00     0.012 C 
ENDBRANCH  32  46
ENDBRANCH  30  32
ENDBRANCH  27  28
ENDBRANCH  26  27
ENDBRANCH  13  26
TORSDOF 13
ENDMDL
MODEL 5
REMARK minimizedAffinity -8.14056301
REMARK CNNscore 0.304134429
REMARK CNNaffinity 6.42182302
REMARK  13 active torsions:
REMARK  status: ('A' for Active; 'I' for Inactive)
REMARK    1  A    between atoms: C3_3  and  O1_4 
REMARK    2  A    between atoms: N1_14  and  O2_16 
REMARK    3  A    between atoms: O2_16  and  C13_17 
REMARK    4  A    between atoms: C13_17  and  C14_18 
REMARK       I    between atoms: C14_18  and  N2_20 
REMARK    5  A    between atoms: N2_20  and  C15_21 
REMARK    6  A    between atoms: C15_21  and  C16_22 
REMARK    7  A    between atoms: C15_21  and  C21_32 
REMARK       I    between atoms: C16_22  and  N3_24 
REMARK    8  A    between atoms: N3_24  and  C17_25 
REMARK    9  A    between atoms: C17_25  and  C18_26 
REMARK   10  A    between atoms: C17_25  and  C19_28 
REMARK   11  A    between atoms: C18_26  and  S1_27 
REMARK   12  A    between atoms: C19_28  and  C20_29 
REMARK   13  A    between atoms: C20_29  and  O6_31 
ROOT
HETATM    1  C1  UNL     1      -8.027   6.965  16.646  1.00  0.00     0.015 C 
HETATM    2  C2  UNL     1      -7.061   6.706  15.982  1.00  0.00    -0.078 C 
HETATM    3  C3  UNL     1      -5.839   6.368  15.233  1.00  0.00     0.128 C 
HETATM    4  C4  UNL     1      -6.056   5.180  14.291  1.00  0.00     0.052 C 
HETATM    5  C5  UNL     1      -4.978   5.304  13.204  1.00  0.00     0.010 C 
HETATM    6  C6  UNL     1      -4.374   6.721  13.317  1.00  0.00     0.002 C 
HETATM    7  C7  UNL     1      -2.835   6.776  13.572  1.00  0.00    -0.004 C 
HETATM    8  C8  UNL     1      -2.230   5.742  14.547  1.00  0.00     0.010 C 
HETATM    9  C9  UNL     1      -0.711   5.860  14.671  1.00  0.00     0.035 C 
HETATM   10  C10 UNL     1      -0.242   7.269  14.947  1.00  0.00    -0.069 C 
HETATM   11  C11 UNL     1       0.655   7.503  15.918  1.00  0.00     0.030 C 
HETATM   12  C12 UNL     1       1.251   8.851  16.117  1.00  0.00     0.032 C 
HETATM   13  N1  UNL     1       1.962   9.052  17.190  1.00  0.00    -0.271 N 
ATOM     14  H1  UNL     1       2.140   8.341  17.900  1.00  0.00     0.194 HD
HETATM   15  C24 UNL     1       1.022   9.877  15.026  1.00  0.00     0.060 C 
HETATM   16  C25 UNL     1      -0.423   9.781  14.556  1.00  0.00     0.020 C 
HETATM   17  C26 UNL     1      -0.823   8.360  14.051  1.00  0.00    -0.016 C 
HETATM   18  C27 UNL     1      -0.210   8.204  12.632  1.00  0.00     0.020 C 
HETATM   19  C28 UNL     1      -2.397   8.216  13.962  1.00  0.00     0.002 C 
HETATM   20  C29 UNL     1      -3.162   8.604  15.247  1.00  0.00     0.007 C 
HETATM   21  C30 UNL     1      -4.664   8.685  15.003  1.00  0.00     0.014 C 
HETATM   22  C31 UNL     1      -5.321   7.491  14.287  1.00  0.00     0.003 C 
HETATM   23  C32 UNL     1      -6.505   8.078  13.450  1.00  0.00     0.020 C 
ENDROOT
BRANCH   3  24
HETATM   24  O1  UNL     1      -4.857   5.982  16.186  1.00  0.00    -0.377 OA
HETATM   25  H2  UNL     1      -4.759   6.708  16.821  1.00  0.00     0.211 HD
ENDBRANCH   3  24
BRANCH  13  26
HETATM   26  O2  UNL     1       2.453  10.364  17.249  1.00  0.00    -0.271 OA
BRANCH  26  27
HETATM   27  C13 UNL     1       1.853  11.054  18.340  1.00  0.00     0.303 C 
BRANCH  27  28
HETATM   28  C14 UNL     1       2.818  11.178  19.511  1.00  0.00     0.244 C 
HETATM   29  O3  UNL     1       4.023  10.954  19.402  1.00  0.00    -0.271 OA
HETATM   30  N2  UNL     1       2.230  11.606  20.684  1.00  0.00    -0.346 N 
HETATM   31  H16 UNL     1       1.223  11.446  20.717  1.00  0.00     0.163 HD
BRANCH  30  32
HETATM   32  C15 UNL     1       2.962  11.517  21.945  1.00  0.00     0.180 C 
BRANCH  32  33
HETATM   33  C16 UNL     1       4.007  12.656  21.950  1.00  0.00     0.241 C 
HETATM   34  O4  UNL     1       3.889  13.671  21.262  1.00  0.00    -0.271 OA
HETATM   35  N3  UNL     1       5.086  12.446  22.783  1.00  0.00    -0.353 N 
HETATM   36  H18 UNL     1       5.135  11.595  23.325  1.00  0.00     0.163 HD
BRANCH  35  37
HETATM   37  C17 UNL     1       6.134  13.460  22.964  1.00  0.00     0.103 C 
BRANCH  37  38
HETATM   38  C18 UNL     1       5.615  14.867  22.596  1.00  0.00     0.096 C 
BRANCH  38  39
HETATM   39  S1  UNL     1       6.181  16.145  23.766  1.00  0.00    -0.180 SA
HETATM   40  H22 UNL     1       7.497  15.927  23.580  1.00  0.00     0.101 HD
ENDBRANCH  38  39
ENDBRANCH  37  38
BRANCH  37  41
HETATM   41  C19 UNL     1       7.367  13.104  22.116  1.00  0.00     0.136 C 
BRANCH  41  42
HETATM   42  C20 UNL     1       8.648  13.373  22.855  1.00  0.00     0.141 C 
HETATM   43  O5  UNL     1       9.225  12.627  23.627  1.00  0.00    -0.650 OA
BRANCH  42  44
HETATM   44  O6  UNL     1       9.144  14.595  22.577  1.00  0.00    -0.776 OA
HETATM   45  H25 UNL     1      10.001  14.626  23.048  1.00  0.00     0.167 HD
ENDBRANCH  42  44
ENDBRANCH  41  42
ENDBRANCH  37  41
ENDBRANCH  35  37
ENDBRANCH  32  33
BRANCH  32  46
HETATM   46  C21 UNL     1       3.574  10.114  22.145  1.00  0.00     0.009 C 
HETATM   47  C22 UNL     1       2.499   9.022  22.120  1.00  0.00     0.012 C 
HETATM   48  C23 UNL     1       4.424   9.982  23.413  1.00  0.00     0.012 C 
ENDBRANCH  32  46
ENDBRANCH  30  32
ENDBRANCH  27  28
ENDBRANCH  26  27
ENDBRANCH  13  26
TORSDOF 13
ENDMDL
MODEL 6
REMARK minimizedAffinity -8.09685135
REMARK CNNscore 0.297917217
REMARK CNNaffinity 6.92454958
REMARK  13 active torsions:
REMARK  status: ('A' for Active; 'I' for Inactive)
REMARK    1  A    between atoms: C3_3  and  O1_4 
REMARK    2  A    between atoms: N1_14  and  O2_16 
REMARK    3  A    between atoms: O2_16  and  C13_17 
REMARK    4  A    between atoms: C13_17  and  C14_18 
REMARK       I    between atoms: C14_18  and  N2_20 
REMARK    5  A    between atoms: N2_20  and  C15_21 
REMARK    6  A    between atoms: C15_21  and  C16_22 
REMARK    7  A    between atoms: C15_21  and  C21_32 
REMARK       I    between atoms: C16_22  and  N3_24 
REMARK    8  A    between atoms: N3_24  and  C17_25 
REMARK    9  A    between atoms: C17_25  and  C18_26 
REMARK   10  A    between atoms: C17_25  and  C19_28 
REMARK   11  A    between atoms: C18_26  and  S1_27 
REMARK   12  A    between atoms: C19_28  and  C20_29 
REMARK   13  A    between atoms: C20_29  and  O6_31 
ROOT
HETATM    1  C1  UNL     1      -1.937   9.221  17.632  1.00  0.00     0.015 C 
HETATM    2  C2  UNL     1      -2.028   8.860  16.491  1.00  0.00    -0.078 C 
HETATM    3  C3  UNL     1      -2.100   8.352  15.110  1.00  0.00     0.128 C 
HETATM    4  C4  UNL     1      -3.540   8.050  14.686  1.00  0.00     0.052 C 
HETATM    5  C5  UNL     1      -3.546   8.109  13.152  1.00  0.00     0.010 C 
HETATM    6  C6  UNL     1      -2.223   8.771  12.712  1.00  0.00     0.002 C 
HETATM    7  C7  UNL     1      -1.322   7.912  11.771  1.00  0.00    -0.004 C 
HETATM    8  C8  UNL     1      -1.215   6.399  12.062  1.00  0.00     0.010 C 
HETATM    9  C9  UNL     1      -0.352   5.657  11.041  1.00  0.00     0.035 C 
HETATM   10  C10 UNL     1       0.992   6.306  10.812  1.00  0.00    -0.069 C 
HETATM   11  C11 UNL     1       2.110   5.561  10.817  1.00  0.00     0.030 C 
HETATM   12  C12 UNL     1       3.430   6.138  10.447  1.00  0.00     0.032 C 
HETATM   13  N1  UNL     1       4.493   5.415  10.659  1.00  0.00    -0.271 N 
ATOM     14  H1  UNL     1       4.477   4.477  11.058  1.00  0.00     0.194 HD
HETATM   15  C24 UNL     1       3.430   7.510   9.804  1.00  0.00     0.060 C 
HETATM   16  C25 UNL     1       2.426   8.394  10.532  1.00  0.00     0.020 C 
HETATM   17  C26 UNL     1       0.980   7.810  10.554  1.00  0.00    -0.016 C 
HETATM   18  C27 UNL     1       0.379   8.059   9.144  1.00  0.00     0.020 C 
HETATM   19  C28 UNL     1       0.093   8.545  11.641  1.00  0.00     0.002 C 
HETATM   20  C29 UNL     1       0.709   8.604  13.056  1.00  0.00     0.007 C 
HETATM   21  C30 UNL     1      -0.075   9.537  13.971  1.00  0.00     0.014 C 
HETATM   22  C31 UNL     1      -1.602   9.347  14.022  1.00  0.00     0.003 C 
HETATM   23  C32 UNL     1      -2.213  10.765  14.269  1.00  0.00     0.020 C 
ENDROOT
BRANCH   3  24
HETATM   24  O1  UNL     1      -1.381   7.126  15.077  1.00  0.00    -0.377 OA
HETATM   25  H2  UNL     1      -0.484   7.299  15.402  1.00  0.00     0.211 HD
ENDBRANCH   3  24
BRANCH  13  26
HETATM   26  O2  UNL     1       5.662   6.086  10.271  1.00  0.00    -0.271 OA
BRANCH  26  27
HETATM   27  C13 UNL     1       6.510   6.269  11.400  1.00  0.00     0.303 C 
BRANCH  27  28
HETATM   28  C14 UNL     1       6.469   7.710  11.889  1.00  0.00     0.244 C 
HETATM   29  O3  UNL     1       7.222   8.580  11.453  1.00  0.00    -0.271 OA
HETATM   30  N2  UNL     1       5.486   7.959  12.826  1.00  0.00    -0.346 N 
HETATM   31  H16 UNL     1       5.167   7.122  13.315  1.00  0.00     0.163 HD
BRANCH  30  32
HETATM   32  C15 UNL     1       5.493   9.210  13.580  1.00  0.00     0.180 C 
BRANCH  32  33
HETATM   33  C16 UNL     1       6.386   8.991  14.823  1.00  0.00     0.241 C 
HETATM   34  O4  UNL     1       5.938   8.602  15.903  1.00  0.00    -0.271 OA
HETATM   35  N3  UNL     1       7.723   9.269  14.631  1.00  0.00    -0.353 N 
HETATM   36  H18 UNL     1       8.037   9.587  13.725  1.00  0.00     0.163 HD
BRANCH  35  37
HETATM   37  C17 UNL     1       8.720   9.044  15.685  1.00  0.00     0.103 C 
BRANCH  37  38
HETATM   38  C18 UNL     1       9.396  10.368  16.102  1.00  0.00     0.096 C 
BRANCH  38  39
HETATM   39  S1  UNL     1       9.810  10.411  17.876  1.00  0.00    -0.180 SA
HETATM   40  H22 UNL     1      10.598   9.318  17.859  1.00  0.00     0.101 HD
ENDBRANCH  38  39
ENDBRANCH  37  38
BRANCH  37  41
HETATM   41  C19 UNL     1       9.775   8.031  15.208  1.00  0.00     0.136 C 
BRANCH  41  42
HETATM   42  C20 UNL     1      10.471   8.496  13.960  1.00  0.00     0.141 C 
HETATM   43  O5  UNL     1      10.035   9.252  13.110  1.00  0.00    -0.650 OA
BRANCH  42  44
HETATM   44  O6  UNL     1      11.708   7.971  13.846  1.00  0.00    -0.776 OA
HETATM   45  H25 UNL     1      12.084   8.397  13.050  1.00  0.00     0.167 HD
ENDBRANCH  42  44
ENDBRANCH  41  42
ENDBRANCH  37  41
ENDBRANCH  35  37
ENDBRANCH  32  33
BRANCH  32  46
HETATM   46  C21 UNL     1       4.060   9.673  13.921  1.00  0.00     0.009 C 
HETATM   47  C22 UNL     1       3.950  11.201  13.937  1.00  0.00     0.012 C 
HETATM   48  C23 UNL     1       3.517   9.096  15.233  1.00  0.00     0.012 C 
ENDBRANCH  32  46
ENDBRANCH  30  32
ENDBRANCH  27  28
ENDBRANCH  26  27
ENDBRANCH  13  26
TORSDOF 13
ENDMDL
MODEL 7
REMARK minimizedAffinity -7.27614355
REMARK CNNscore 0.242056742
REMARK CNNaffinity 6.85141611
REMARK  13 active torsions:
REMARK  status: ('A' for Active; 'I' for Inactive)
REMARK    1  A    between atoms: C3_3  and  O1_4 
REMARK    2  A    between atoms: N1_14  and  O2_16 
REMARK    3  A    between atoms: O2_16  and  C13_17 
REMARK    4  A    between atoms: C13_17  and  C14_18 
REMARK       I    between atoms: C14_18  and  N2_20 
REMARK    5  A    between atoms: N2_20  and  C15_21 
REMARK    6  A    between atoms: C15_21  and  C16_22 
REMARK    7  A    between atoms: C15_21  and  C21_32 
REMARK       I    between atoms: C16_22  and  N3_24 
REMARK    8  A    between atoms: N3_24  and  C17_25 
REMARK    9  A    between atoms: C17_25  and  C18_26 
REMARK   10  A    between atoms: C17_25  and  C19_28 
REMARK   11  A    between atoms: C18_26  and  S1_27 
REMARK   12  A    between atoms: C19_28  and  C20_29 
REMARK   13  A    between atoms: C20_29  and  O6_31 
ROOT
HETATM    1  C1  UNL     1       2.324   6.001   6.527  1.00  0.00     0.015 C 
HETATM    2  C2  UNL     1       2.476   6.125   7.711  1.00  0.00    -0.078 C 
HETATM    3  C3  UNL     1       2.598   6.232   9.175  1.00  0.00     0.128 C 
HETATM    4  C4  UNL     1       3.886   5.583   9.690  1.00  0.00     0.052 C 
HETATM    5  C5  UNL     1       4.177   6.245  11.044  1.00  0.00     0.010 C 
HETATM    6  C6  UNL     1       3.275   7.494  11.148  1.00  0.00     0.002 C 
HETATM    7  C7  UNL     1       2.302   7.520  12.369  1.00  0.00    -0.004 C 
HETATM    8  C8  UNL     1       1.614   6.196  12.769  1.00  0.00     0.010 C 
HETATM    9  C9  UNL     1       0.733   6.335  14.010  1.00  0.00     0.035 C 
HETATM   10  C10 UNL     1      -0.230   7.496  13.931  1.00  0.00    -0.069 C 
HETATM   11  C11 UNL     1      -1.523   7.322  14.251  1.00  0.00     0.030 C 
HETATM   12  C12 UNL     1      -2.465   8.471  14.330  1.00  0.00     0.032 C 
HETATM   13  N1  UNL     1      -3.736   8.210  14.454  1.00  0.00    -0.271 N 
ATOM     14  H1  UNL     1      -4.125   7.268  14.505  1.00  0.00     0.194 HD
HETATM   15  C24 UNL     1      -1.865   9.861  14.308  1.00  0.00     0.060 C 
HETATM   16  C25 UNL     1      -0.753   9.900  13.268  1.00  0.00     0.020 C 
HETATM   17  C26 UNL     1       0.362   8.837  13.505  1.00  0.00    -0.016 C 
HETATM   18  C27 UNL     1       1.246   9.370  14.666  1.00  0.00     0.020 C 
HETATM   19  C28 UNL     1       1.252   8.655  12.208  1.00  0.00     0.002 C 
HETATM   20  C29 UNL     1       0.464   8.379  10.908  1.00  0.00     0.007 C 
HETATM   21  C30 UNL     1       1.358   8.471   9.678  1.00  0.00     0.014 C 
HETATM   22  C31 UNL     1       2.684   7.688   9.718  1.00  0.00     0.003 C 
HETATM   23  C32 UNL     1       3.708   8.517   8.876  1.00  0.00     0.020 C 
ENDROOT
BRANCH   3  24
HETATM   24  O1  UNL     1       1.506   5.519   9.740  1.00  0.00    -0.377 OA
HETATM   25  H2  UNL     1       0.688   5.887   9.371  1.00  0.00     0.211 HD
ENDBRANCH   3  24
BRANCH  13  26
HETATM   26  O2  UNL     1      -4.503   9.382  14.509  1.00  0.00    -0.271 OA
BRANCH  26  27
HETATM   27  C13 UNL     1      -4.792   9.707  15.864  1.00  0.00     0.303 C 
BRANCH  27  28
HETATM   28  C14 UNL     1      -4.142  11.023  16.266  1.00  0.00     0.244 C 
HETATM   29  O3  UNL     1      -4.280  12.057  15.613  1.00  0.00    -0.271 OA
HETATM   30  N2  UNL     1      -3.427  10.962  17.445  1.00  0.00    -0.346 N 
HETATM   31  H16 UNL     1      -3.136  10.016  17.697  1.00  0.00     0.163 HD
BRANCH  30  32
HETATM   32  C15 UNL     1      -2.535  12.056  17.819  1.00  0.00     0.180 C 
BRANCH  32  33
HETATM   33  C16 UNL     1      -1.150  11.437  18.116  1.00  0.00     0.241 C 
HETATM   34  O4  UNL     1      -0.802  10.342  17.673  1.00  0.00    -0.271 OA
HETATM   35  N3  UNL     1      -0.334  12.205  18.920  1.00  0.00    -0.353 N 
HETATM   36  H18 UNL     1      -0.669  13.097  19.258  1.00  0.00     0.163 HD
BRANCH  35  37
HETATM   37  C17 UNL     1       1.042  11.801  19.240  1.00  0.00     0.103 C 
BRANCH  37  38
HETATM   38  C18 UNL     1       1.656  10.967  18.094  1.00  0.00     0.096 C 
BRANCH  38  39
HETATM   39  S1  UNL     1       3.110  11.773  17.348  1.00  0.00    -0.180 SA
HETATM   40  H22 UNL     1       3.827  11.843  18.487  1.00  0.00     0.101 HD
ENDBRANCH  38  39
ENDBRANCH  37  38
BRANCH  37  41
HETATM   41  C19 UNL     1       1.067  11.006  20.556  1.00  0.00     0.136 C 
BRANCH  41  42
HETATM   42  C20 UNL     1       2.437  10.461  20.852  1.00  0.00     0.141 C 
HETATM   43  O5  UNL     1       3.464  11.097  21.015  1.00  0.00    -0.650 OA
BRANCH  42  44
HETATM   44  O6  UNL     1       2.440   9.115  20.928  1.00  0.00    -0.776 OA
HETATM   45  H25 UNL     1       3.352   8.886  21.194  1.00  0.00     0.167 HD
ENDBRANCH  42  44
ENDBRANCH  41  42
ENDBRANCH  37  41
ENDBRANCH  35  37
ENDBRANCH  32  33
BRANCH  32  46
HETATM   46  C21 UNL     1      -3.110  12.878  18.992  1.00  0.00     0.009 C 
HETATM   47  C22 UNL     1      -4.452  12.314  19.472  1.00  0.00     0.012 C 
HETATM   48  C23 UNL     1      -3.249  14.375  18.693  1.00  0.00     0.012 C 
ENDBRANCH  32  46
ENDBRANCH  30  32
ENDBRANCH  27  28
ENDBRANCH  26  27
ENDBRANCH  13  26
TORSDOF 13
ENDMDL
MODEL 8
REMARK minimizedAffinity -7.65607977
REMARK CNNscore 0.239541128
REMARK CNNaffinity 6.02217674
REMARK  13 active torsions:
REMARK  status: ('A' for Active; 'I' for Inactive)
REMARK    1  A    between atoms: C3_3  and  O1_4 
REMARK    2  A    between atoms: N1_14  and  O2_16 
REMARK    3  A    between atoms: O2_16  and  C13_17 
REMARK    4  A    between atoms: C13_17  and  C14_18 
REMARK       I    between atoms: C14_18  and  N2_20 
REMARK    5  A    between atoms: N2_20  and  C15_21 
REMARK    6  A    between atoms: C15_21  and  C16_22 
REMARK    7  A    between atoms: C15_21  and  C21_32 
REMARK       I    between atoms: C16_22  and  N3_24 
REMARK    8  A    between atoms: N3_24  and  C17_25 
REMARK    9  A    between atoms: C17_25  and  C18_26 
REMARK   10  A    between atoms: C17_25  and  C19_28 
REMARK   11  A    between atoms: C18_26  and  S1_27 
REMARK   12  A    between atoms: C19_28  and  C20_29 
REMARK   13  A    between atoms: C20_29  and  O6_31 
ROOT
HETATM    1  C1  UNL     1       1.794   8.097  23.012  1.00  0.00     0.015 C 
HETATM    2  C2  UNL     1       2.204   9.051  22.409  1.00  0.00    -0.078 C 
HETATM    3  C3  UNL     1       2.740  10.172  21.619  1.00  0.00     0.128 C 
HETATM    4  C4  UNL     1       1.626  11.008  20.984  1.00  0.00     0.052 C 
HETATM    5  C5  UNL     1       2.239  12.390  20.717  1.00  0.00     0.010 C 
HETATM    6  C6  UNL     1       3.569  12.460  21.498  1.00  0.00     0.002 C 
HETATM    7  C7  UNL     1       4.841  12.734  20.635  1.00  0.00    -0.004 C 
HETATM    8  C8  UNL     1       4.940  12.037  19.260  1.00  0.00     0.010 C 
HETATM    9  C9  UNL     1       6.200  12.426  18.486  1.00  0.00     0.035 C 
HETATM   10  C10 UNL     1       7.465  12.298  19.301  1.00  0.00    -0.069 C 
HETATM   11  C11 UNL     1       8.539  11.679  18.785  1.00  0.00     0.030 C 
HETATM   12  C12 UNL     1       9.845  11.666  19.497  1.00  0.00     0.032 C 
HETATM   13  N1  UNL     1      10.784  10.890  19.035  1.00  0.00    -0.271 N 
ATOM     14  H1  UNL     1      10.682  10.293  18.214  1.00  0.00     0.194 HD
HETATM   15  C24 UNL     1       9.997  12.599  20.681  1.00  0.00     0.060 C 
HETATM   16  C25 UNL     1       8.717  12.560  21.504  1.00  0.00     0.020 C 
HETATM   17  C26 UNL     1       7.439  12.927  20.691  1.00  0.00    -0.016 C 
HETATM   18  C27 UNL     1       7.445  14.472  20.527  1.00  0.00     0.020 C 
HETATM   19  C28 UNL     1       6.131  12.487  21.467  1.00  0.00     0.002 C 
HETATM   20  C29 UNL     1       6.111  11.013  21.930  1.00  0.00     0.007 C 
HETATM   21  C30 UNL     1       4.952  10.738  22.880  1.00  0.00     0.014 C 
HETATM   22  C31 UNL     1       3.556  11.215  22.436  1.00  0.00     0.003 C 
HETATM   23  C32 UNL     1       2.786  11.596  23.743  1.00  0.00     0.020 C 
ENDROOT
BRANCH   3  24
HETATM   24  O1  UNL     1       3.506   9.609  20.561  1.00  0.00    -0.377 OA
HETATM   25  H2  UNL     1       4.176   9.030  20.955  1.00  0.00     0.211 HD
ENDBRANCH   3  24
BRANCH  13  26
HETATM   26  O2  UNL     1      11.952  10.974  19.806  1.00  0.00    -0.271 OA
BRANCH  26  27
HETATM   27  C13 UNL     1      12.495  12.287  19.717  1.00  0.00     0.303 C 
BRANCH  27  28
HETATM   28  C14 UNL     1      13.399  12.427  18.500  1.00  0.00     0.244 C 
HETATM   29  O3  UNL     1      13.907  13.498  18.172  1.00  0.00    -0.271 OA
HETATM   30  N2  UNL     1      13.632  11.242  17.832  1.00  0.00    -0.346 N 
HETATM   31  H16 UNL     1      12.923  10.529  18.007  1.00  0.00     0.163 HD
BRANCH  30  32
HETATM   32  C15 UNL     1      14.251  11.257  16.509  1.00  0.00     0.180 C 
BRANCH  32  33
HETATM   33  C16 UNL     1      15.483  12.187  16.589  1.00  0.00     0.241 C 
HETATM   34  O4  UNL     1      15.697  13.080  15.768  1.00  0.00    -0.271 OA
HETATM   35  N3  UNL     1      16.328  11.937  17.650  1.00  0.00    -0.353 N 
HETATM   36  H18 UNL     1      16.107  11.190  18.294  1.00  0.00     0.163 HD
BRANCH  35  37
HETATM   37  C17 UNL     1      17.505  12.773  17.917  1.00  0.00     0.103 C 
BRANCH  37  38
HETATM   38  C18 UNL     1      18.811  11.966  17.747  1.00  0.00     0.096 C 
BRANCH  38  39
HETATM   39  S1  UNL     1      20.258  12.826  18.446  1.00  0.00    -0.180 SA
HETATM   40  H22 UNL     1      19.770  12.916  19.699  1.00  0.00     0.101 HD
ENDBRANCH  38  39
ENDBRANCH  37  38
BRANCH  37  41
HETATM   41  C19 UNL     1      17.423  13.367  19.334  1.00  0.00     0.136 C 
BRANCH  41  42
HETATM   42  C20 UNL     1      16.999  12.339  20.345  1.00  0.00     0.141 C 
HETATM   43  O5  UNL     1      16.624  12.538  21.487  1.00  0.00    -0.650 OA
BRANCH  42  44
HETATM   44  O6  UNL     1      17.074  11.085  19.853  1.00  0.00    -0.776 OA
HETATM   45  H25 UNL     1      16.710  10.520  20.563  1.00  0.00     0.167 HD
ENDBRANCH  42  44
ENDBRANCH  41  42
ENDBRANCH  37  41
ENDBRANCH  35  37
ENDBRANCH  32  33
BRANCH  32  46
HETATM   46  C21 UNL     1      13.239  11.663  15.416  1.00  0.00     0.009 C 
HETATM   47  C22 UNL     1      11.801  11.643  15.945  1.00  0.00     0.012 C 
HETATM   48  C23 UNL     1      13.338  10.827  14.136  1.00  0.00     0.012 C 
ENDBRANCH  32  46
ENDBRANCH  30  32
ENDBRANCH  27  28
ENDBRANCH  26  27
ENDBRANCH  13  26
TORSDOF 13
ENDMDL
MODEL 9
REMARK minimizedAffinity -7.48842049
REMARK CNNscore 0.239377901
REMARK CNNaffinity 5.92210388
REMARK  13 active torsions:
REMARK  status: ('A' for Active; 'I' for Inactive)
REMARK    1  A    between atoms: C3_3  and  O1_4 
REMARK    2  A    between atoms: N1_14  and  O2_16 
REMARK    3  A    between atoms: O2_16  and  C13_17 
REMARK    4  A    between atoms: C13_17  and  C14_18 
REMARK       I    between atoms: C14_18  and  N2_20 
REMARK    5  A    between atoms: N2_20  and  C15_21 
REMARK    6  A    between atoms: C15_21  and  C16_22 
REMARK    7  A    between atoms: C15_21  and  C21_32 
REMARK       I    between atoms: C16_22  and  N3_24 
REMARK    8  A    between atoms: N3_24  and  C17_25 
REMARK    9  A    between atoms: C17_25  and  C18_26 
REMARK   10  A    between atoms: C17_25  and  C19_28 
REMARK   11  A    between atoms: C18_26  and  S1_27 
REMARK   12  A    between atoms: C19_28  and  C20_29 
REMARK   13  A    between atoms: C20_29  and  O6_31 
ROOT
HETATM    1  C1  UNL     1      -2.378   5.454  12.538  1.00  0.00     0.015 C 
HETATM    2  C2  UNL     1      -2.853   6.411  13.084  1.00  0.00    -0.078 C 
HETATM    3  C3  UNL     1      -3.381   7.629  13.723  1.00  0.00     0.128 C 
HETATM    4  C4  UNL     1      -4.775   7.990  13.202  1.00  0.00     0.052 C 
HETATM    5  C5  UNL     1      -5.421   8.852  14.296  1.00  0.00     0.010 C 
HETATM    6  C6  UNL     1      -4.558   8.704  15.567  1.00  0.00     0.002 C 
HETATM    7  C7  UNL     1      -3.968  10.031  16.138  1.00  0.00    -0.004 C 
HETATM    8  C8  UNL     1      -3.449  11.079  15.129  1.00  0.00     0.010 C 
HETATM    9  C9  UNL     1      -2.950  12.358  15.803  1.00  0.00     0.035 C 
HETATM   10  C10 UNL     1      -1.978  12.098  16.930  1.00  0.00    -0.069 C 
HETATM   11  C11 UNL     1      -0.832  12.793  17.006  1.00  0.00     0.030 C 
HETATM   12  C12 UNL     1       0.074  12.671  18.179  1.00  0.00     0.032 C 
HETATM   13  N1  UNL     1       1.253  13.222  18.099  1.00  0.00    -0.271 N 
ATOM     14  H1  UNL     1       1.591  13.734  17.285  1.00  0.00     0.194 HD
HETATM   15  C24 UNL     1      -0.466  11.955  19.400  1.00  0.00     0.060 C 
HETATM   16  C25 UNL     1      -1.238  10.724  18.945  1.00  0.00     0.020 C 
HETATM   17  C26 UNL     1      -2.398  11.045  17.953  1.00  0.00    -0.016 C 
HETATM   18  C27 UNL     1      -3.561  11.627  18.803  1.00  0.00     0.020 C 
HETATM   19  C28 UNL     1      -2.890   9.732  17.218  1.00  0.00     0.002 C 
HETATM   20  C29 UNL     1      -1.775   8.902  16.546  1.00  0.00     0.007 C 
HETATM   21  C30 UNL     1      -2.285   7.541  16.088  1.00  0.00     0.014 C 
HETATM   22  C31 UNL     1      -3.584   7.524  15.262  1.00  0.00     0.003 C 
HETATM   23  C32 UNL     1      -4.312   6.186  15.618  1.00  0.00     0.020 C 
ENDROOT
BRANCH   3  24
HETATM   24  O1  UNL     1      -2.507   8.696  13.375  1.00  0.00    -0.377 OA
HETATM   25  H2  UNL     1      -1.611   8.447  13.649  1.00  0.00     0.211 HD
ENDBRANCH   3  24
BRANCH  13  26
HETATM   26  O2  UNL     1       1.998  13.023  19.270  1.00  0.00    -0.271 OA
BRANCH  26  27
HETATM   27  C13 UNL     1       3.369  12.825  18.941  1.00  0.00     0.303 C 
BRANCH  27  28
HETATM   28  C14 UNL     1       4.275  13.663  19.833  1.00  0.00     0.244 C 
HETATM   29  O3  UNL     1       4.273  14.894  19.809  1.00  0.00    -0.271 OA
HETATM   30  N2  UNL     1       5.058  12.923  20.695  1.00  0.00    -0.346 N 
HETATM   31  H16 UNL     1       5.194  11.957  20.395  1.00  0.00     0.163 HD
BRANCH  30  32
HETATM   32  C15 UNL     1       6.159  13.560  21.414  1.00  0.00     0.180 C 
BRANCH  32  33
HETATM   33  C16 UNL     1       7.395  13.522  20.487  1.00  0.00     0.241 C 
HETATM   34  O4  UNL     1       8.150  14.485  20.344  1.00  0.00    -0.271 OA
HETATM   35  N3  UNL     1       7.587  12.326  19.827  1.00  0.00    -0.353 N 
HETATM   36  H18 UNL     1       6.937  11.567  19.979  1.00  0.00     0.163 HD
BRANCH  35  37
HETATM   37  C17 UNL     1       8.753  12.094  18.966  1.00  0.00     0.103 C 
BRANCH  37  38
HETATM   38  C18 UNL     1       8.330  11.490  17.609  1.00  0.00     0.096 C 
BRANCH  38  39
HETATM   39  S1  UNL     1       9.361  10.066  17.129  1.00  0.00    -0.180 SA
HETATM   40  H22 UNL     1       9.090   9.327  18.222  1.00  0.00     0.101 HD
ENDBRANCH  38  39
ENDBRANCH  37  38
BRANCH  37  41
HETATM   41  C19 UNL     1       9.759  11.171  19.674  1.00  0.00     0.136 C 
BRANCH  41  42
HETATM   42  C20 UNL     1      10.907  11.943  20.263  1.00  0.00     0.141 C 
HETATM   43  O5  UNL     1      10.905  13.107  20.623  1.00  0.00    -0.650 OA
BRANCH  42  44
HETATM   44  O6  UNL     1      12.021  11.191  20.367  1.00  0.00    -0.776 OA
HETATM   45  H25 UNL     1      12.665  11.768  20.823  1.00  0.00     0.167 HD
ENDBRANCH  42  44
ENDBRANCH  41  42
ENDBRANCH  37  41
ENDBRANCH  35  37
ENDBRANCH  32  33
BRANCH  32  46
HETATM   46  C21 UNL     1       6.395  12.896  22.788  1.00  0.00     0.009 C 
HETATM   47  C22 UNL     1       7.890  12.739  23.088  1.00  0.00     0.012 C 
HETATM   48  C23 UNL     1       5.683  11.550  22.959  1.00  0.00     0.012 C 
ENDBRANCH  32  46
ENDBRANCH  30  32
ENDBRANCH  27  28
ENDBRANCH  26  27
ENDBRANCH  13  26
TORSDOF 13
ENDMDL
