MODEL 1
REMARK minimizedAffinity -7.41122627
REMARK CNNscore 0.849743247
REMARK CNNaffinity 7.17099524
REMARK  9 active torsions:
REMARK  status: ('A' for Active; 'I' for Inactive)
REMARK    1  A    between atoms: C2_2  and  C3_3 
REMARK    2  A    between atoms: C2_2  and  C9_12 
REMARK    3  A    between atoms: C3_3  and  C4_4 
REMARK    4  A    between atoms: C4_4  and  C5_5 
REMARK    5  A    between atoms: C5_5  and  O1_6 
REMARK    6  A    between atoms: C5_5  and  C6_7 
REMARK    7  A    between atoms: C6_7  and  O2_9 
REMARK    8  A    between atoms: C6_7  and  C8_10 
REMARK    9  A    between atoms: C8_10  and  O3_11 
ROOT
HETATM    1  C9  UNL     1       4.686  55.341  -8.822  1.00  0.00    -0.002 C 
HETATM    2  C10 UNL     1       3.937  56.550  -8.188  1.00  0.00     0.007 C 
HETATM    3  C11 UNL     1       2.433  56.354  -8.445  1.00  0.00     0.015 C 
HETATM    4  C12 UNL     1       2.353  55.264  -9.527  1.00  0.00    -0.005 C 
HETATM    5  C13 UNL     1       2.580  55.970 -10.901  1.00  0.00     0.021 C 
HETATM    6  C14 UNL     1       1.077  54.458  -9.722  1.00  0.00    -0.000 C 
HETATM    7  C15 UNL     1       1.087  53.173 -10.158  1.00  0.00    -0.060 C 
HETATM    8  C16 UNL     1       2.440  52.493 -10.453  1.00  0.00     0.036 C 
HETATM    9  C17 UNL     1       3.736  53.281 -10.158  1.00  0.00     0.015 C 
HETATM   10  C18 UNL     1       3.528  54.321  -9.054  1.00  0.00    -0.028 C 
HETATM   11  C19 UNL     1       3.221  53.580  -7.714  1.00  0.00     0.016 C 
HETATM   12  C20 UNL     1      -0.196  52.285 -10.290  1.00  0.00    -0.014 C 
HETATM   13  C21 UNL     1      -0.063  51.198  -9.184  1.00  0.00     0.020 C 
HETATM   14  C22 UNL     1      -0.250  51.561 -11.667  1.00  0.00     0.021 C 
HETATM   15  C23 UNL     1      -1.037  52.323 -12.717  1.00  0.00     0.080 C 
HETATM   16  C24 UNL     1      -2.488  52.425 -12.311  1.00  0.00     0.135 C 
HETATM   17  O4  UNL     1      -3.372  52.440 -13.169  1.00  0.00    -0.297 OA
HETATM   18  C25 UNL     1      -2.811  52.517 -10.812  1.00  0.00     0.018 C 
HETATM   19  C26 UNL     1      -3.252  51.122 -10.329  1.00  0.00     0.023 C 
HETATM   20  C27 UNL     1      -4.043  53.438 -10.639  1.00  0.00     0.023 C 
HETATM   21  C28 UNL     1      -1.556  53.069 -10.024  1.00  0.00     0.020 C 
HETATM   22  C29 UNL     1      -1.400  54.579 -10.256  1.00  0.00     0.090 C 
HETATM   23  C30 UNL     1      -0.227  55.133  -9.510  1.00  0.00     0.157 C 
HETATM   24  O5  UNL     1      -0.336  56.146  -8.826  1.00  0.00    -0.293 OA
ENDROOT
BRANCH   1  25
HETATM   25  C2  UNL     1       5.940  54.931  -7.987  1.00  0.00    -0.014 C 
HETATM   26  C1  UNL     1       7.059  54.365  -8.866  1.00  0.00     0.010 C 
BRANCH  25  27
HETATM   27  C3  UNL     1       6.466  56.153  -7.178  1.00  0.00     0.007 C 
BRANCH  27  28
HETATM   28  C4  UNL     1       7.752  55.864  -6.386  1.00  0.00     0.035 C 
BRANCH  28  29
HETATM   29  C5  UNL     1       7.807  56.470  -4.970  1.00  0.00     0.154 C 
BRANCH  29  30
HETATM   30  O1  UNL     1       6.868  57.555  -4.918  1.00  0.00    -0.392 OA
HETATM   31  H10 UNL     1       7.374  58.342  -5.206  1.00  0.00     0.210 HD
ENDBRANCH  29  30
BRANCH  29  32
HETATM   32  C6  UNL     1       9.187  56.967  -4.460  1.00  0.00     0.101 C 
HETATM   33  C7  UNL     1      10.316  56.358  -5.309  1.00  0.00     0.051 C 
BRANCH  32  34
HETATM   34  O2  UNL     1       9.389  56.476  -3.119  1.00  0.00    -0.385 OA
HETATM   35  H14 UNL     1      10.169  56.968  -2.788  1.00  0.00     0.210 HD
ENDBRANCH  32  34
BRANCH  32  36
HETATM   36  C8  UNL     1       9.293  58.504  -4.439  1.00  0.00     0.204 C 
BRANCH  36  37
HETATM   37  O3  UNL     1      10.321  58.922  -5.344  1.00  0.00    -0.398 OA
HETATM   38  H17 UNL     1      10.342  59.895  -5.322  1.00  0.00     0.209 HD
ENDBRANCH  36  37
ENDBRANCH  32  36
ENDBRANCH  29  32
ENDBRANCH  28  29
ENDBRANCH  27  28
ENDBRANCH  25  27
ENDBRANCH   1  25
TORSDOF 9
ENDMDL
MODEL 2
REMARK minimizedAffinity -7.61597729
REMARK CNNscore 0.793422043
REMARK CNNaffinity 7.22431946
REMARK  9 active torsions:
REMARK  status: ('A' for Active; 'I' for Inactive)
REMARK    1  A    between atoms: C2_2  and  C3_3 
REMARK    2  A    between atoms: C2_2  and  C9_12 
REMARK    3  A    between atoms: C3_3  and  C4_4 
REMARK    4  A    between atoms: C4_4  and  C5_5 
REMARK    5  A    between atoms: C5_5  and  O1_6 
REMARK    6  A    between atoms: C5_5  and  C6_7 
REMARK    7  A    between atoms: C6_7  and  O2_9 
REMARK    8  A    between atoms: C6_7  and  C8_10 
REMARK    9  A    between atoms: C8_10  and  O3_11 
ROOT
HETATM    1  C9  UNL     1       1.378  54.791 -10.305  1.00  0.00    -0.002 C 
HETATM    2  C10 UNL     1       2.367  53.871 -11.081  1.00  0.00     0.007 C 
HETATM    3  C11 UNL     1       3.726  53.937 -10.363  1.00  0.00     0.015 C 
HETATM    4  C12 UNL     1       3.625  55.156  -9.431  1.00  0.00    -0.005 C 
HETATM    5  C13 UNL     1       3.929  56.418 -10.298  1.00  0.00     0.021 C 
HETATM    6  C14 UNL     1       4.548  55.291  -8.229  1.00  0.00    -0.000 C 
HETATM    7  C15 UNL     1       4.172  55.923  -7.089  1.00  0.00    -0.060 C 
HETATM    8  C16 UNL     1       2.750  56.514  -6.994  1.00  0.00     0.036 C 
HETATM    9  C17 UNL     1       1.783  56.287  -8.177  1.00  0.00     0.015 C 
HETATM   10  C18 UNL     1       2.126  55.013  -8.954  1.00  0.00    -0.028 C 
HETATM   11  C19 UNL     1       1.890  53.778  -8.027  1.00  0.00     0.016 C 
HETATM   12  C20 UNL     1       5.062  56.009  -5.803  1.00  0.00    -0.014 C 
HETATM   13  C21 UNL     1       4.345  55.121  -4.743  1.00  0.00     0.020 C 
HETATM   14  C22 UNL     1       5.122  57.461  -5.246  1.00  0.00     0.021 C 
HETATM   15  C23 UNL     1       6.312  58.252  -5.755  1.00  0.00     0.080 C 
HETATM   16  C24 UNL     1       7.600  57.630  -5.268  1.00  0.00     0.135 C 
HETATM   17  O4  UNL     1       8.580  58.339  -5.034  1.00  0.00    -0.297 OA
HETATM   18  C25 UNL     1       7.639  56.105  -5.090  1.00  0.00     0.018 C 
HETATM   19  C26 UNL     1       7.461  55.792  -3.592  1.00  0.00     0.023 C 
HETATM   20  C27 UNL     1       9.059  55.613  -5.463  1.00  0.00     0.023 C 
HETATM   21  C28 UNL     1       6.532  55.428  -5.992  1.00  0.00     0.020 C 
HETATM   22  C29 UNL     1       6.964  55.437  -7.466  1.00  0.00     0.090 C 
HETATM   23  C30 UNL     1       5.939  54.789  -8.344  1.00  0.00     0.157 C 
HETATM   24  O5  UNL     1       6.264  53.944  -9.173  1.00  0.00    -0.293 OA
ENDROOT
BRANCH   1  25
HETATM   25  C2  UNL     1      -0.075  54.221 -10.316  1.00  0.00    -0.014 C 
HETATM   26  C1  UNL     1      -1.129  55.326 -10.203  1.00  0.00     0.010 C 
BRANCH  25  27
HETATM   27  C3  UNL     1      -0.314  53.388 -11.610  1.00  0.00     0.007 C 
BRANCH  27  28
HETATM   28  C4  UNL     1      -1.053  52.062 -11.365  1.00  0.00     0.035 C 
BRANCH  28  29
HETATM   29  C5  UNL     1      -2.298  52.156 -10.463  1.00  0.00     0.154 C 
BRANCH  29  30
HETATM   30  O1  UNL     1      -2.431  50.909  -9.764  1.00  0.00    -0.392 OA
HETATM   31  H10 UNL     1      -2.977  50.347 -10.350  1.00  0.00     0.210 HD
ENDBRANCH  29  30
BRANCH  29  32
HETATM   32  C6  UNL     1      -3.650  52.504 -11.145  1.00  0.00     0.101 C 
HETATM   33  C7  UNL     1      -4.194  53.832 -10.593  1.00  0.00     0.051 C 
BRANCH  32  34
HETATM   34  O2  UNL     1      -4.620  51.498 -10.789  1.00  0.00    -0.385 OA
HETATM   35  H14 UNL     1      -5.379  51.662 -11.388  1.00  0.00     0.210 HD
ENDBRANCH  32  34
BRANCH  32  36
HETATM   36  C8  UNL     1      -3.541  52.559 -12.681  1.00  0.00     0.204 C 
BRANCH  36  37
HETATM   37  O3  UNL     1      -4.226  53.720 -13.164  1.00  0.00    -0.398 OA
HETATM   38  H17 UNL     1      -4.116  53.732 -14.132  1.00  0.00     0.209 HD
ENDBRANCH  36  37
ENDBRANCH  32  36
ENDBRANCH  29  32
ENDBRANCH  28  29
ENDBRANCH  27  28
ENDBRANCH  25  27
ENDBRANCH   1  25
TORSDOF 9
ENDMDL
MODEL 3
REMARK minimizedAffinity -7.01525927
REMARK CNNscore 0.566864729
REMARK CNNaffinity 6.75579643
REMARK  9 active torsions:
REMARK  status: ('A' for Active; 'I' for Inactive)
REMARK    1  A    between atoms: C2_2  and  C3_3 
REMARK    2  A    between atoms: C2_2  and  C9_12 
REMARK    3  A    between atoms: C3_3  and  C4_4 
REMARK    4  A    between atoms: C4_4  and  C5_5 
REMARK    5  A    between atoms: C5_5  and  O1_6 
REMARK    6  A    between atoms: C5_5  and  C6_7 
REMARK    7  A    between atoms: C6_7  and  O2_9 
REMARK    8  A    between atoms: C6_7  and  C8_10 
REMARK    9  A    between atoms: C8_10  and  O3_11 
ROOT
HETATM    1  C9  UNL     1       4.961  55.108  -9.091  1.00  0.00    -0.002 C 
HETATM    2  C10 UNL     1       4.311  56.323  -8.366  1.00  0.00     0.007 C 
HETATM    3  C11 UNL     1       2.785  56.195  -8.518  1.00  0.00     0.015 C 
HETATM    4  C12 UNL     1       2.583  55.146  -9.625  1.00  0.00    -0.005 C 
HETATM    5  C13 UNL     1       2.739  55.890 -10.989  1.00  0.00     0.021 C 
HETATM    6  C14 UNL     1       1.264  54.397  -9.751  1.00  0.00    -0.000 C 
HETATM    7  C15 UNL     1       1.189  53.129 -10.227  1.00  0.00    -0.060 C 
HETATM    8  C16 UNL     1       2.488  52.407 -10.641  1.00  0.00     0.036 C 
HETATM    9  C17 UNL     1       3.833  53.133 -10.418  1.00  0.00     0.015 C 
HETATM   10  C18 UNL     1       3.748  54.142  -9.269  1.00  0.00    -0.028 C 
HETATM   11  C19 UNL     1       3.509  53.368  -7.935  1.00  0.00     0.016 C 
HETATM   12  C20 UNL     1      -0.136  52.297 -10.292  1.00  0.00    -0.014 C 
HETATM   13  C21 UNL     1       0.032  51.167  -9.233  1.00  0.00     0.020 C 
HETATM   14  C22 UNL     1      -0.318  51.623 -11.684  1.00  0.00     0.021 C 
HETATM   15  C23 UNL     1      -1.147  52.450 -12.649  1.00  0.00     0.080 C 
HETATM   16  C24 UNL     1      -2.560  52.595 -12.134  1.00  0.00     0.135 C 
HETATM   17  O4  UNL     1      -3.502  52.674 -12.924  1.00  0.00    -0.297 OA
HETATM   18  C25 UNL     1      -2.769  52.648 -10.613  1.00  0.00     0.018 C 
HETATM   19  C26 UNL     1      -3.231  51.255 -10.143  1.00  0.00     0.023 C 
HETATM   20  C27 UNL     1      -3.947  53.610 -10.322  1.00  0.00     0.023 C 
HETATM   21  C28 UNL     1      -1.439  53.123  -9.902  1.00  0.00     0.020 C 
HETATM   22  C29 UNL     1      -1.239  54.633 -10.098  1.00  0.00     0.090 C 
HETATM   23  C30 UNL     1       0.008  55.114  -9.423  1.00  0.00     0.157 C 
HETATM   24  O5  UNL     1      -0.010  56.107  -8.701  1.00  0.00    -0.293 OA
ENDROOT
BRANCH   1  25
HETATM   25  C2  UNL     1       6.254  54.621  -8.364  1.00  0.00    -0.014 C 
HETATM   26  C1  UNL     1       6.026  54.401  -6.865  1.00  0.00     0.010 C 
BRANCH  25  27
HETATM   27  C3  UNL     1       6.776  53.310  -9.020  1.00  0.00     0.007 C 
BRANCH  27  28
HETATM   28  C4  UNL     1       6.980  52.157  -8.024  1.00  0.00     0.035 C 
BRANCH  28  29
HETATM   29  C5  UNL     1       7.218  50.771  -8.656  1.00  0.00     0.154 C 
BRANCH  29  30
HETATM   30  O1  UNL     1       7.270  50.939 -10.080  1.00  0.00    -0.392 OA
HETATM   31  H10 UNL     1       6.343  50.846 -10.381  1.00  0.00     0.210 HD
ENDBRANCH  29  30
BRANCH  29  32
HETATM   32  C6  UNL     1       6.203  49.646  -8.313  1.00  0.00     0.101 C 
HETATM   33  C7  UNL     1       4.895  49.858  -9.092  1.00  0.00     0.051 C 
BRANCH  32  34
HETATM   34  O2  UNL     1       5.855  49.746  -6.917  1.00  0.00    -0.385 OA
HETATM   35  H14 UNL     1       5.374  48.916  -6.720  1.00  0.00     0.210 HD
ENDBRANCH  32  34
BRANCH  32  36
HETATM   36  C8  UNL     1       6.769  48.237  -8.576  1.00  0.00     0.204 C 
BRANCH  36  37
HETATM   37  O3  UNL     1       7.208  48.149  -9.937  1.00  0.00    -0.398 OA
HETATM   38  H17 UNL     1       7.579  47.256 -10.058  1.00  0.00     0.209 HD
ENDBRANCH  36  37
ENDBRANCH  32  36
ENDBRANCH  29  32
ENDBRANCH  28  29
ENDBRANCH  27  28
ENDBRANCH  25  27
ENDBRANCH   1  25
TORSDOF 9
ENDMDL
MODEL 4
REMARK minimizedAffinity -6.98672867
REMARK CNNscore 0.539969265
REMARK CNNaffinity 6.0146451
REMARK  9 active torsions:
REMARK  status: ('A' for Active; 'I' for Inactive)
REMARK    1  A    between atoms: C2_2  and  C3_3 
REMARK    2  A    between atoms: C2_2  and  C9_12 
REMARK    3  A    between atoms: C3_3  and  C4_4 
REMARK    4  A    between atoms: C4_4  and  C5_5 
REMARK    5  A    between atoms: C5_5  and  O1_6 
REMARK    6  A    between atoms: C5_5  and  C6_7 
REMARK    7  A    between atoms: C6_7  and  O2_9 
REMARK    8  A    between atoms: C6_7  and  C8_10 
REMARK    9  A    between atoms: C8_10  and  O3_11 
ROOT
HETATM    1  C9  UNL     1     -10.856  45.609 -27.402  1.00  0.00    -0.002 C 
HETATM    2  C10 UNL     1     -10.499  46.696 -26.346  1.00  0.00     0.007 C 
HETATM    3  C11 UNL     1     -11.762  46.967 -25.511  1.00  0.00     0.015 C 
HETATM    4  C12 UNL     1     -12.912  46.336 -26.313  1.00  0.00    -0.005 C 
HETATM    5  C13 UNL     1     -13.318  47.367 -27.413  1.00  0.00     0.021 C 
HETATM    6  C14 UNL     1     -14.224  45.972 -25.632  1.00  0.00    -0.000 C 
HETATM    7  C15 UNL     1     -14.995  44.934 -26.043  1.00  0.00    -0.060 C 
HETATM    8  C16 UNL     1     -14.521  44.075 -27.233  1.00  0.00     0.036 C 
HETATM    9  C17 UNL     1     -13.142  44.384 -27.857  1.00  0.00     0.015 C 
HETATM   10  C18 UNL     1     -12.194  45.033 -26.844  1.00  0.00    -0.028 C 
HETATM   11  C19 UNL     1     -11.878  44.001 -25.716  1.00  0.00     0.016 C 
HETATM   12  C20 UNL     1     -16.305  44.478 -25.317  1.00  0.00    -0.014 C 
HETATM   13  C21 UNL     1     -15.968  43.096 -24.684  1.00  0.00     0.020 C 
HETATM   14  C22 UNL     1     -17.473  44.269 -26.325  1.00  0.00     0.021 C 
HETATM   15  C23 UNL     1     -18.352  45.496 -26.490  1.00  0.00     0.080 C 
HETATM   16  C24 UNL     1     -19.054  45.814 -25.191  1.00  0.00     0.135 C 
HETATM   17  O4  UNL     1     -20.178  46.319 -25.202  1.00  0.00    -0.297 OA
HETATM   18  C25 UNL     1     -18.319  45.497 -23.880  1.00  0.00     0.018 C 
HETATM   19  C26 UNL     1     -18.879  44.173 -23.324  1.00  0.00     0.023 C 
HETATM   20  C27 UNL     1     -18.690  46.586 -22.844  1.00  0.00     0.023 C 
HETATM   21  C28 UNL     1     -16.760  45.442 -24.135  1.00  0.00     0.020 C 
HETATM   22  C29 UNL     1     -16.196  46.860 -24.305  1.00  0.00     0.090 C 
HETATM   23  C30 UNL     1     -14.717  46.841 -24.535  1.00  0.00     0.157 C 
HETATM   24  O5  UNL     1     -13.971  47.576 -23.896  1.00  0.00    -0.293 OA
ENDROOT
BRANCH   1  25
HETATM   25  C2  UNL     1      -9.650  44.660 -27.690  1.00  0.00    -0.014 C 
HETATM   26  C1  UNL     1      -9.848  43.272 -27.072  1.00  0.00     0.010 C 
BRANCH  25  27
HETATM   27  C3  UNL     1      -9.424  44.531 -29.225  1.00  0.00     0.007 C 
BRANCH  27  28
HETATM   28  C4  UNL     1      -8.370  45.503 -29.779  1.00  0.00     0.035 C 
BRANCH  28  29
HETATM   29  C5  UNL     1      -8.781  46.988 -29.792  1.00  0.00     0.154 C 
BRANCH  29  30
HETATM   30  O1  UNL     1      -9.091  47.348 -31.146  1.00  0.00    -0.392 OA
HETATM   31  H10 UNL     1      -8.241  47.647 -31.530  1.00  0.00     0.210 HD
ENDBRANCH  29  30
BRANCH  29  32
HETATM   32  C6  UNL     1      -7.769  48.014 -29.211  1.00  0.00     0.101 C 
HETATM   33  C7  UNL     1      -7.199  47.498 -27.879  1.00  0.00     0.051 C 
BRANCH  32  34
HETATM   34  O2  UNL     1      -8.474  49.232 -28.897  1.00  0.00    -0.385 OA
HETATM   35  H14 UNL     1      -7.769  49.889 -28.719  1.00  0.00     0.210 HD
ENDBRANCH  32  34
BRANCH  32  36
HETATM   36  C8  UNL     1      -6.631  48.346 -30.195  1.00  0.00     0.204 C 
BRANCH  36  37
HETATM   37  O3  UNL     1      -5.479  48.777 -29.462  1.00  0.00    -0.398 OA
HETATM   38  H17 UNL     1      -4.778  48.954 -30.113  1.00  0.00     0.209 HD
ENDBRANCH  36  37
ENDBRANCH  32  36
ENDBRANCH  29  32
ENDBRANCH  28  29
ENDBRANCH  27  28
ENDBRANCH  25  27
ENDBRANCH   1  25
TORSDOF 9
ENDMDL
MODEL 5
REMARK minimizedAffinity -8.21842289
REMARK CNNscore 0.432331324
REMARK CNNaffinity 6.07902336
REMARK  9 active torsions:
REMARK  status: ('A' for Active; 'I' for Inactive)
REMARK    1  A    between atoms: C2_2  and  C3_3 
REMARK    2  A    between atoms: C2_2  and  C9_12 
REMARK    3  A    between atoms: C3_3  and  C4_4 
REMARK    4  A    between atoms: C4_4  and  C5_5 
REMARK    5  A    between atoms: C5_5  and  O1_6 
REMARK    6  A    between atoms: C5_5  and  C6_7 
REMARK    7  A    between atoms: C6_7  and  O2_9 
REMARK    8  A    between atoms: C6_7  and  C8_10 
REMARK    9  A    between atoms: C8_10  and  O3_11 
ROOT
HETATM    1  C9  UNL     1      -8.547  46.442 -29.484  1.00  0.00    -0.002 C 
HETATM    2  C10 UNL     1      -8.509  47.771 -28.673  1.00  0.00     0.007 C 
HETATM    3  C11 UNL     1      -9.821  47.869 -27.876  1.00  0.00     0.015 C 
HETATM    4  C12 UNL     1     -10.749  46.817 -28.507  1.00  0.00    -0.005 C 
HETATM    5  C13 UNL     1     -11.377  47.470 -29.779  1.00  0.00     0.021 C 
HETATM    6  C14 UNL     1     -11.941  46.272 -27.734  1.00  0.00    -0.000 C 
HETATM    7  C15 UNL     1     -12.408  45.011 -27.910  1.00  0.00    -0.060 C 
HETATM    8  C16 UNL     1     -11.698  44.083 -28.919  1.00  0.00     0.036 C 
HETATM    9  C17 UNL     1     -10.429  44.607 -29.627  1.00  0.00     0.015 C 
HETATM   10  C18 UNL     1      -9.707  45.664 -28.788  1.00  0.00    -0.028 C 
HETATM   11  C19 UNL     1      -9.166  44.993 -27.486  1.00  0.00     0.016 C 
HETATM   12  C20 UNL     1     -13.576  44.386 -27.075  1.00  0.00    -0.014 C 
HETATM   13  C21 UNL     1     -12.913  43.291 -26.190  1.00  0.00     0.020 C 
HETATM   14  C22 UNL     1     -14.624  43.689 -27.991  1.00  0.00     0.021 C 
HETATM   15  C23 UNL     1     -15.784  44.591 -28.373  1.00  0.00     0.080 C 
HETATM   16  C24 UNL     1     -16.578  44.970 -27.145  1.00  0.00     0.135 C 
HETATM   17  O4  UNL     1     -17.793  45.156 -27.227  1.00  0.00    -0.297 OA
HETATM   18  C25 UNL     1     -15.822  45.118 -25.816  1.00  0.00     0.018 C 
HETATM   19  C26 UNL     1     -16.037  43.832 -24.995  1.00  0.00     0.023 C 
HETATM   20  C27 UNL     1     -16.487  46.259 -25.008  1.00  0.00     0.023 C 
HETATM   21  C28 UNL     1     -14.295  45.416 -26.096  1.00  0.00     0.020 C 
HETATM   22  C29 UNL     1     -14.109  46.868 -26.559  1.00  0.00     0.090 C 
HETATM   23  C30 UNL     1     -12.669  47.184 -26.819  1.00  0.00     0.157 C 
HETATM   24  O5  UNL     1     -12.154  48.198 -26.357  1.00  0.00    -0.293 OA
ENDROOT
BRANCH   1  25
HETATM   25  C2  UNL     1      -7.131  45.797 -29.609  1.00  0.00    -0.014 C 
HETATM   26  C1  UNL     1      -7.203  44.310 -29.967  1.00  0.00     0.010 C 
BRANCH  25  27
HETATM   27  C3  UNL     1      -6.287  46.559 -30.672  1.00  0.00     0.007 C 
BRANCH  27  28
HETATM   28  C4  UNL     1      -7.105  47.048 -31.878  1.00  0.00     0.035 C 
BRANCH  28  29
HETATM   29  C5  UNL     1      -6.284  47.655 -33.032  1.00  0.00     0.154 C 
BRANCH  29  30
HETATM   30  O1  UNL     1      -6.588  46.918 -34.225  1.00  0.00    -0.392 OA
HETATM   31  H10 UNL     1      -5.943  46.181 -34.239  1.00  0.00     0.210 HD
ENDBRANCH  29  30
BRANCH  29  32
HETATM   32  C6  UNL     1      -4.742  47.721 -32.853  1.00  0.00     0.101 C 
HETATM   33  C7  UNL     1      -4.194  46.337 -32.469  1.00  0.00     0.051 C 
BRANCH  32  34
HETATM   34  O2  UNL     1      -4.441  48.590 -31.742  1.00  0.00    -0.385 OA
HETATM   35  H14 UNL     1      -3.475  48.741 -31.798  1.00  0.00     0.210 HD
ENDBRANCH  32  34
BRANCH  32  36
HETATM   36  C8  UNL     1      -4.023  48.261 -34.105  1.00  0.00     0.204 C 
BRANCH  36  37
HETATM   37  O3  UNL     1      -2.616  48.337 -33.849  1.00  0.00    -0.398 OA
HETATM   38  H17 UNL     1      -2.196  48.657 -34.667  1.00  0.00     0.209 HD
ENDBRANCH  36  37
ENDBRANCH  32  36
ENDBRANCH  29  32
ENDBRANCH  28  29
ENDBRANCH  27  28
ENDBRANCH  25  27
ENDBRANCH   1  25
TORSDOF 9
ENDMDL
MODEL 6
REMARK minimizedAffinity -6.85520887
REMARK CNNscore 0.41965422
REMARK CNNaffinity 6.49671555
REMARK  9 active torsions:
REMARK  status: ('A' for Active; 'I' for Inactive)
REMARK    1  A    between atoms: C2_2  and  C3_3 
REMARK    2  A    between atoms: C2_2  and  C9_12 
REMARK    3  A    between atoms: C3_3  and  C4_4 
REMARK    4  A    between atoms: C4_4  and  C5_5 
REMARK    5  A    between atoms: C5_5  and  O1_6 
REMARK    6  A    between atoms: C5_5  and  C6_7 
REMARK    7  A    between atoms: C6_7  and  O2_9 
REMARK    8  A    between atoms: C6_7  and  C8_10 
REMARK    9  A    between atoms: C8_10  and  O3_11 
ROOT
HETATM    1  C9  UNL     1      -6.221  47.811 -20.460  1.00  0.00    -0.002 C 
HETATM    2  C10 UNL     1      -6.615  48.200 -21.916  1.00  0.00     0.007 C 
HETATM    3  C11 UNL     1      -5.530  49.148 -22.455  1.00  0.00     0.015 C 
HETATM    4  C12 UNL     1      -4.740  49.594 -21.213  1.00  0.00    -0.005 C 
HETATM    5  C13 UNL     1      -5.546  50.758 -20.556  1.00  0.00     0.021 C 
HETATM    6  C14 UNL     1      -3.327  50.144 -21.350  1.00  0.00    -0.000 C 
HETATM    7  C15 UNL     1      -2.387  49.986 -20.384  1.00  0.00    -0.060 C 
HETATM    8  C16 UNL     1      -2.753  49.207 -19.104  1.00  0.00     0.036 C 
HETATM    9  C17 UNL     1      -4.156  48.566 -19.012  1.00  0.00     0.015 C 
HETATM   10  C18 UNL     1      -4.723  48.243 -20.397  1.00  0.00    -0.028 C 
HETATM   11  C19 UNL     1      -3.842  47.136 -21.057  1.00  0.00     0.016 C 
HETATM   12  C20 UNL     1      -0.902  50.462 -20.524  1.00  0.00    -0.014 C 
HETATM   13  C21 UNL     1      -0.056  49.157 -20.611  1.00  0.00     0.020 C 
HETATM   14  C22 UNL     1      -0.434  51.250 -19.266  1.00  0.00     0.021 C 
HETATM   15  C23 UNL     1      -0.609  52.752 -19.398  1.00  0.00     0.080 C 
HETATM   16  C24 UNL     1       0.272  53.286 -20.503  1.00  0.00     0.135 C 
HETATM   17  O4  UNL     1       0.748  54.420 -20.421  1.00  0.00    -0.297 OA
HETATM   18  C25 UNL     1       0.539  52.378 -21.712  1.00  0.00     0.018 C 
HETATM   19  C26 UNL     1       1.931  51.741 -21.537  1.00  0.00     0.023 C 
HETATM   20  C27 UNL     1       0.633  53.271 -22.973  1.00  0.00     0.023 C 
HETATM   21  C28 UNL     1      -0.612  51.303 -21.844  1.00  0.00     0.020 C 
HETATM   22  C29 UNL     1      -1.889  51.952 -22.399  1.00  0.00     0.090 C 
HETATM   23  C30 UNL     1      -2.995  50.955 -22.547  1.00  0.00     0.157 C 
HETATM   24  O5  UNL     1      -3.641  50.881 -23.588  1.00  0.00    -0.293 OA
ENDROOT
BRANCH   1  25
HETATM   25  C2  UNL     1      -6.632  46.344 -20.119  1.00  0.00    -0.014 C 
HETATM   26  C1  UNL     1      -6.308  45.374 -21.259  1.00  0.00     0.010 C 
BRANCH  25  27
HETATM   27  C3  UNL     1      -5.927  45.881 -18.810  1.00  0.00     0.007 C 
BRANCH  27  28
HETATM   28  C4  UNL     1      -6.475  46.551 -17.540  1.00  0.00     0.035 C 
BRANCH  28  29
HETATM   29  C5  UNL     1      -7.878  47.173 -17.675  1.00  0.00     0.154 C 
BRANCH  29  30
HETATM   30  O1  UNL     1      -7.783  48.560 -17.317  1.00  0.00    -0.392 OA
HETATM   31  H10 UNL     1      -7.935  48.583 -16.350  1.00  0.00     0.210 HD
ENDBRANCH  29  30
BRANCH  29  32
HETATM   32  C6  UNL     1      -9.031  46.517 -16.865  1.00  0.00     0.101 C 
HETATM   33  C7  UNL     1      -8.579  46.256 -15.418  1.00  0.00     0.051 C 
BRANCH  32  34
HETATM   34  O2  UNL     1      -9.316  45.222 -17.432  1.00  0.00    -0.385 OA
HETATM   35  H14 UNL     1     -10.157  44.946 -17.013  1.00  0.00     0.210 HD
ENDBRANCH  32  34
BRANCH  32  36
HETATM   36  C8  UNL     1     -10.323  47.356 -16.887  1.00  0.00     0.204 C 
BRANCH  36  37
HETATM   37  O3  UNL     1     -10.278  48.324 -15.833  1.00  0.00    -0.398 OA
HETATM   38  H17 UNL     1     -11.097  48.848 -15.894  1.00  0.00     0.209 HD
ENDBRANCH  36  37
ENDBRANCH  32  36
ENDBRANCH  29  32
ENDBRANCH  28  29
ENDBRANCH  27  28
ENDBRANCH  25  27
ENDBRANCH   1  25
TORSDOF 9
ENDMDL
MODEL 7
REMARK minimizedAffinity -6.92299032
REMARK CNNscore 0.373899162
REMARK CNNaffinity 5.9066658
REMARK  9 active torsions:
REMARK  status: ('A' for Active; 'I' for Inactive)
REMARK    1  A    between atoms: C2_2  and  C3_3 
REMARK    2  A    between atoms: C2_2  and  C9_12 
REMARK    3  A    between atoms: C3_3  and  C4_4 
REMARK    4  A    between atoms: C4_4  and  C5_5 
REMARK    5  A    between atoms: C5_5  and  O1_6 
REMARK    6  A    between atoms: C5_5  and  C6_7 
REMARK    7  A    between atoms: C6_7  and  O2_9 
REMARK    8  A    between atoms: C6_7  and  C8_10 
REMARK    9  A    between atoms: C8_10  and  O3_11 
ROOT
HETATM    1  C9  UNL     1      -9.103  46.073 -30.107  1.00  0.00    -0.002 C 
HETATM    2  C10 UNL     1      -8.905  47.400 -29.315  1.00  0.00     0.007 C 
HETATM    3  C11 UNL     1     -10.122  47.578 -28.391  1.00  0.00     0.015 C 
HETATM    4  C12 UNL     1     -11.170  46.582 -28.918  1.00  0.00    -0.005 C 
HETATM    5  C13 UNL     1     -11.882  47.268 -30.125  1.00  0.00     0.021 C 
HETATM    6  C14 UNL     1     -12.308  46.111 -28.024  1.00  0.00    -0.000 C 
HETATM    7  C15 UNL     1     -12.864  44.879 -28.142  1.00  0.00    -0.060 C 
HETATM    8  C16 UNL     1     -12.316  43.909 -29.209  1.00  0.00     0.036 C 
HETATM    9  C17 UNL     1     -11.095  44.353 -30.045  1.00  0.00     0.015 C 
HETATM   10  C18 UNL     1     -10.231  45.368 -29.291  1.00  0.00    -0.028 C 
HETATM   11  C19 UNL     1      -9.603  44.668 -28.045  1.00  0.00     0.016 C 
HETATM   12  C20 UNL     1     -13.978  44.328 -27.189  1.00  0.00    -0.014 C 
HETATM   13  C21 UNL     1     -13.294  43.196 -26.365  1.00  0.00     0.020 C 
HETATM   14  C22 UNL     1     -15.152  43.692 -27.989  1.00  0.00     0.021 C 
HETATM   15  C23 UNL     1     -16.288  44.661 -28.260  1.00  0.00     0.080 C 
HETATM   16  C24 UNL     1     -16.931  45.089 -26.962  1.00  0.00     0.135 C 
HETATM   17  O4  UNL     1     -18.135  45.348 -26.924  1.00  0.00    -0.297 OA
HETATM   18  C25 UNL     1     -16.038  45.196 -25.718  1.00  0.00     0.018 C 
HETATM   19  C26 UNL     1     -16.246  43.927 -24.868  1.00  0.00     0.023 C 
HETATM   20  C27 UNL     1     -16.550  46.376 -24.856  1.00  0.00     0.023 C 
HETATM   21  C28 UNL     1     -14.532  45.401 -26.152  1.00  0.00     0.020 C 
HETATM   22  C29 UNL     1     -14.308  46.838 -26.643  1.00  0.00     0.090 C 
HETATM   23  C30 UNL     1     -12.886  47.067 -27.048  1.00  0.00     0.157 C 
HETATM   24  O5  UNL     1     -12.267  48.049 -26.649  1.00  0.00    -0.293 OA
ENDROOT
BRANCH   1  25
HETATM   25  C2  UNL     1      -7.747  45.344 -30.367  1.00  0.00    -0.014 C 
HETATM   26  C1  UNL     1      -7.039  44.958 -29.065  1.00  0.00     0.010 C 
BRANCH  25  27
HETATM   27  C3  UNL     1      -7.980  44.077 -31.241  1.00  0.00     0.007 C 
BRANCH  27  28
HETATM   28  C4  UNL     1      -6.818  43.071 -31.196  1.00  0.00     0.035 C 
BRANCH  28  29
HETATM   29  C5  UNL     1      -5.793  43.194 -32.340  1.00  0.00     0.154 C 
BRANCH  29  30
HETATM   30  O1  UNL     1      -6.402  43.947 -33.400  1.00  0.00    -0.392 OA
HETATM   31  H10 UNL     1      -6.851  43.281 -33.959  1.00  0.00     0.210 HD
ENDBRANCH  29  30
BRANCH  29  32
HETATM   32  C6  UNL     1      -5.211  41.877 -32.922  1.00  0.00     0.101 C 
HETATM   33  C7  UNL     1      -6.108  40.688 -32.541  1.00  0.00     0.051 C 
BRANCH  32  34
HETATM   34  O2  UNL     1      -3.932  41.624 -32.305  1.00  0.00    -0.385 OA
HETATM   35  H14 UNL     1      -3.537  40.902 -32.838  1.00  0.00     0.210 HD
ENDBRANCH  32  34
BRANCH  32  36
HETATM   36  C8  UNL     1      -5.014  41.940 -34.449  1.00  0.00     0.204 C 
BRANCH  36  37
HETATM   37  O3  UNL     1      -3.935  42.831 -34.753  1.00  0.00    -0.398 OA
HETATM   38  H17 UNL     1      -3.826  42.826 -35.720  1.00  0.00     0.209 HD
ENDBRANCH  36  37
ENDBRANCH  32  36
ENDBRANCH  29  32
ENDBRANCH  28  29
ENDBRANCH  27  28
ENDBRANCH  25  27
ENDBRANCH   1  25
TORSDOF 9
ENDMDL
MODEL 8
REMARK minimizedAffinity -7.44305134
REMARK CNNscore 0.371317655
REMARK CNNaffinity 5.80399323
REMARK  9 active torsions:
REMARK  status: ('A' for Active; 'I' for Inactive)
REMARK    1  A    between atoms: C2_2  and  C3_3 
REMARK    2  A    between atoms: C2_2  and  C9_12 
REMARK    3  A    between atoms: C3_3  and  C4_4 
REMARK    4  A    between atoms: C4_4  and  C5_5 
REMARK    5  A    between atoms: C5_5  and  O1_6 
REMARK    6  A    between atoms: C5_5  and  C6_7 
REMARK    7  A    between atoms: C6_7  and  O2_9 
REMARK    8  A    between atoms: C6_7  and  C8_10 
REMARK    9  A    between atoms: C8_10  and  O3_11 
ROOT
HETATM    1  C9  UNL     1     -12.599  44.021 -28.933  1.00  0.00    -0.002 C 
HETATM    2  C10 UNL     1     -11.743  42.746 -28.674  1.00  0.00     0.007 C 
HETATM    3  C11 UNL     1     -10.323  43.023 -29.196  1.00  0.00     0.015 C 
HETATM    4  C12 UNL     1     -10.461  44.277 -30.076  1.00  0.00    -0.005 C 
HETATM    5  C13 UNL     1     -10.969  43.798 -31.472  1.00  0.00     0.021 C 
HETATM    6  C14 UNL     1      -9.247  45.140 -30.391  1.00  0.00    -0.000 C 
HETATM    7  C15 UNL     1      -9.339  46.478 -30.598  1.00  0.00    -0.060 C 
HETATM    8  C16 UNL     1     -10.719  47.159 -30.494  1.00  0.00     0.036 C 
HETATM    9  C17 UNL     1     -11.931  46.297 -30.076  1.00  0.00     0.015 C 
HETATM   10  C18 UNL     1     -11.507  45.097 -29.224  1.00  0.00    -0.028 C 
HETATM   11  C19 UNL     1     -10.926  45.619 -27.872  1.00  0.00     0.016 C 
HETATM   12  C20 UNL     1      -8.104  47.411 -30.840  1.00  0.00    -0.014 C 
HETATM   13  C21 UNL     1      -8.001  48.300 -29.566  1.00  0.00     0.020 C 
HETATM   14  C22 UNL     1      -8.331  48.352 -32.060  1.00  0.00     0.021 C 
HETATM   15  C23 UNL     1      -7.781  47.793 -33.360  1.00  0.00     0.080 C 
HETATM   16  C24 UNL     1      -6.278  47.667 -33.280  1.00  0.00     0.135 C 
HETATM   17  O4  UNL     1      -5.590  47.817 -34.291  1.00  0.00    -0.297 OA
HETATM   18  C25 UNL     1      -5.655  47.341 -31.914  1.00  0.00     0.018 C 
HETATM   19  C26 UNL     1      -5.115  48.651 -31.308  1.00  0.00     0.023 C 
HETATM   20  C27 UNL     1      -4.419  46.439 -32.152  1.00  0.00     0.023 C 
HETATM   21  C28 UNL     1      -6.724  46.633 -30.990  1.00  0.00     0.020 C 
HETATM   22  C29 UNL     1      -6.933  45.178 -31.431  1.00  0.00     0.090 C 
HETATM   23  C30 UNL     1      -7.931  44.477 -30.564  1.00  0.00     0.157 C 
HETATM   24  O5  UNL     1      -7.690  43.369 -30.094  1.00  0.00    -0.293 OA
ENDROOT
BRANCH   1  25
HETATM   25  C2  UNL     1     -13.651  44.254 -27.804  1.00  0.00    -0.014 C 
HETATM   26  C1  UNL     1     -13.018  44.828 -26.533  1.00  0.00     0.010 C 
BRANCH  25  27
HETATM   27  C3  UNL     1     -14.779  45.201 -28.310  1.00  0.00     0.007 C 
BRANCH  27  28
HETATM   28  C4  UNL     1     -16.082  45.100 -27.502  1.00  0.00     0.035 C 
BRANCH  28  29
HETATM   29  C5  UNL     1     -17.081  44.031 -27.987  1.00  0.00     0.154 C 
BRANCH  29  30
HETATM   30  O1  UNL     1     -17.169  44.127 -29.417  1.00  0.00    -0.392 OA
HETATM   31  H10 UNL     1     -17.882  44.777 -29.584  1.00  0.00     0.210 HD
ENDBRANCH  29  30
BRANCH  29  32
HETATM   32  C6  UNL     1     -18.512  44.066 -27.385  1.00  0.00     0.101 C 
HETATM   33  C7  UNL     1     -19.523  43.485 -28.389  1.00  0.00     0.051 C 
BRANCH  32  34
HETATM   34  O2  UNL     1     -18.898  45.441 -27.184  1.00  0.00    -0.385 OA
HETATM   35  H14 UNL     1     -19.710  45.395 -26.638  1.00  0.00     0.210 HD
ENDBRANCH  32  34
BRANCH  32  36
HETATM   36  C8  UNL     1     -18.605  43.329 -26.035  1.00  0.00     0.204 C 
BRANCH  36  37
HETATM   37  O3  UNL     1     -19.749  42.467 -26.042  1.00  0.00    -0.398 OA
HETATM   38  H17 UNL     1     -19.760  42.003 -25.186  1.00  0.00     0.209 HD
ENDBRANCH  36  37
ENDBRANCH  32  36
ENDBRANCH  29  32
ENDBRANCH  28  29
ENDBRANCH  27  28
ENDBRANCH  25  27
ENDBRANCH   1  25
TORSDOF 9
ENDMDL
MODEL 9
REMARK minimizedAffinity -7.60787153
REMARK CNNscore 0.286329985
REMARK CNNaffinity 6.08491468
REMARK  9 active torsions:
REMARK  status: ('A' for Active; 'I' for Inactive)
REMARK    1  A    between atoms: C2_2  and  C3_3 
REMARK    2  A    between atoms: C2_2  and  C9_12 
REMARK    3  A    between atoms: C3_3  and  C4_4 
REMARK    4  A    between atoms: C4_4  and  C5_5 
REMARK    5  A    between atoms: C5_5  and  O1_6 
REMARK    6  A    between atoms: C5_5  and  C6_7 
REMARK    7  A    between atoms: C6_7  and  O2_9 
REMARK    8  A    between atoms: C6_7  and  C8_10 
REMARK    9  A    between atoms: C8_10  and  O3_11 
ROOT
HETATM    1  C9  UNL     1      -8.993  46.203 -28.665  1.00  0.00    -0.002 C 
HETATM    2  C10 UNL     1     -10.425  45.857 -28.160  1.00  0.00     0.007 C 
HETATM    3  C11 UNL     1     -10.456  46.100 -26.642  1.00  0.00     0.015 C 
HETATM    4  C12 UNL     1      -8.979  46.213 -26.228  1.00  0.00    -0.005 C 
HETATM    5  C13 UNL     1      -8.440  44.757 -26.066  1.00  0.00     0.021 C 
HETATM    6  C14 UNL     1      -8.589  46.907 -24.930  1.00  0.00    -0.000 C 
HETATM    7  C15 UNL     1      -7.414  47.569 -24.783  1.00  0.00    -0.060 C 
HETATM    8  C16 UNL     1      -6.439  47.639 -25.977  1.00  0.00     0.036 C 
HETATM    9  C17 UNL     1      -6.882  47.020 -27.321  1.00  0.00     0.015 C 
HETATM   10  C18 UNL     1      -8.406  47.009 -27.465  1.00  0.00    -0.028 C 
HETATM   11  C19 UNL     1      -8.916  48.483 -27.540  1.00  0.00     0.016 C 
HETATM   12  C20 UNL     1      -7.015  48.365 -23.495  1.00  0.00    -0.014 C 
HETATM   13  C21 UNL     1      -7.027  49.865 -23.915  1.00  0.00     0.020 C 
HETATM   14  C22 UNL     1      -5.572  48.012 -23.030  1.00  0.00     0.021 C 
HETATM   15  C23 UNL     1      -5.529  46.905 -21.992  1.00  0.00     0.080 C 
HETATM   16  C24 UNL     1      -6.214  47.352 -20.722  1.00  0.00     0.135 C 
HETATM   17  O4  UNL     1      -5.824  46.939 -19.629  1.00  0.00    -0.297 OA
HETATM   18  C25 UNL     1      -7.402  48.318 -20.848  1.00  0.00     0.018 C 
HETATM   19  C26 UNL     1      -6.900  49.740 -20.531  1.00  0.00     0.023 C 
HETATM   20  C27 UNL     1      -8.425  47.970 -19.740  1.00  0.00     0.023 C 
HETATM   21  C28 UNL     1      -8.041  48.202 -22.289  1.00  0.00     0.020 C 
HETATM   22  C29 UNL     1      -8.861  46.910 -22.408  1.00  0.00     0.090 C 
HETATM   23  C30 UNL     1      -9.491  46.779 -23.759  1.00  0.00     0.157 C 
HETATM   24  O5  UNL     1     -10.679  46.497 -23.876  1.00  0.00    -0.293 OA
ENDROOT
BRANCH   1  25
HETATM   25  C2  UNL     1      -9.016  46.826 -30.096  1.00  0.00    -0.014 C 
HETATM   26  C1  UNL     1      -9.399  48.309 -30.074  1.00  0.00     0.010 C 
BRANCH  25  27
HETATM   27  C3  UNL     1      -7.630  46.645 -30.782  1.00  0.00     0.007 C 
BRANCH  27  28
HETATM   28  C4  UNL     1      -7.147  47.891 -31.542  1.00  0.00     0.035 C 
BRANCH  28  29
HETATM   29  C5  UNL     1      -6.432  47.615 -32.878  1.00  0.00     0.154 C 
BRANCH  29  30
HETATM   30  O1  UNL     1      -6.804  46.299 -33.314  1.00  0.00    -0.392 OA
HETATM   31  H10 UNL     1      -6.142  45.701 -32.910  1.00  0.00     0.210 HD
ENDBRANCH  29  30
BRANCH  29  32
HETATM   32  C6  UNL     1      -4.884  47.739 -32.899  1.00  0.00     0.101 C 
HETATM   33  C7  UNL     1      -4.240  46.382 -32.565  1.00  0.00     0.051 C 
BRANCH  32  34
HETATM   34  O2  UNL     1      -4.477  48.640 -31.849  1.00  0.00    -0.385 OA
HETATM   35  H14 UNL     1      -3.532  48.824 -32.030  1.00  0.00     0.210 HD
ENDBRANCH  32  34
BRANCH  32  36
HETATM   36  C8  UNL     1      -4.350  48.277 -34.241  1.00  0.00     0.204 C 
BRANCH  36  37
HETATM   37  O3  UNL     1      -3.005  48.736 -34.067  1.00  0.00    -0.398 OA
HETATM   38  H17 UNL     1      -2.696  49.044 -34.938  1.00  0.00     0.209 HD
ENDBRANCH  36  37
ENDBRANCH  32  36
ENDBRANCH  29  32
ENDBRANCH  28  29
ENDBRANCH  27  28
ENDBRANCH  25  27
ENDBRANCH   1  25
TORSDOF 9
ENDMDL
