MODEL 1
REMARK minimizedAffinity -6.67914152
REMARK CNNscore 0.511778712
REMARK CNNaffinity 5.41163301
REMARK  16 active torsions:
REMARK  status: ('A' for Active; 'I' for Inactive)
REMARK    1  A    between atoms: C2_2  and  C3_3 
REMARK    2  A    between atoms: C2_2  and  C4_5 
REMARK    3  A    between atoms: C12_13  and  O2_14 
REMARK    4  A    between atoms: O2_14  and  C13_15 
REMARK    5  A    between atoms: C13_15  and  C14_17 
REMARK    6  A    between atoms: C14_17  and  C16_19 
REMARK    7  A    between atoms: C16_19  and  O4_20 
REMARK    8  A    between atoms: C16_19  and  C17_21 
REMARK    9  A    between atoms: C19_23  and  C20_24 
REMARK   10  A    between atoms: C20_24  and  C21_25 
REMARK   11  A    between atoms: C20_24  and  C22_27 
REMARK   12  A    between atoms: C21_25  and  O5_26 
REMARK   13  A    between atoms: C22_27  and  C23_28 
REMARK   14  A    between atoms: C23_28  and  C24_29 
REMARK   15  A    between atoms: C24_29  and  C25_30 
REMARK   16  A    between atoms: C25_30  and  C26_31 
ROOT
HETATM    1  C13 UNL     1       2.580  10.715  17.565  1.00  0.00     0.266 C 
HETATM    2  O3  UNL     1       3.007   9.589  17.343  1.00  0.00    -0.265 OA
ENDROOT
BRANCH   1   3
HETATM    3  O2  UNL     1       2.863  11.446  18.682  1.00  0.00    -0.312 OA
BRANCH   3   4
HETATM    4  C12 UNL     1       3.113  10.675  19.872  1.00  0.00     0.170 C 
HETATM    5  C11 UNL     1       1.779  10.376  20.550  1.00  0.00     0.036 C 
HETATM    6  C10 UNL     1       1.932   9.685  21.905  1.00  0.00     0.007 C 
HETATM    7  C8  UNL     1       3.250  10.004  22.644  1.00  0.00    -0.007 C 
HETATM    8  C6  UNL     1       3.812  11.421  22.293  1.00  0.00    -0.003 C 
HETATM    9  C9  UNL     1       3.068   9.737  24.141  1.00  0.00     0.011 C 
HETATM   10  C5  UNL     1       5.178  11.675  23.013  1.00  0.00     0.030 C 
HETATM   11  C7  UNL     1       2.831  12.545  22.716  1.00  0.00     0.019 C 
HETATM   12  C28 UNL     1       4.057  11.455  20.774  1.00  0.00     0.129 A 
HETATM   13  C4  UNL     1       5.840  13.020  22.639  1.00  0.00     0.094 C 
HETATM   14  C30 UNL     1       5.669  13.452  21.176  1.00  0.00     0.167 C 
HETATM   15  C29 UNL     1       5.021  12.505  20.239  1.00  0.00     0.230 A 
HETATM   16  O7  UNL     1       6.009  14.563  20.773  1.00  0.00    -0.294 OA
HETATM   17  O6  UNL     1       5.429  11.148  20.407  1.00  0.00    -0.358 OA
BRANCH  13  18
HETATM   18  C2  UNL     1       7.301  13.039  23.031  1.00  0.00    -0.018 C 
HETATM   19  C1  UNL     1       8.111  11.966  23.078  1.00  0.00     0.022 C 
BRANCH  18  20
HETATM   20  C3  UNL     1       7.885  14.369  23.376  1.00  0.00     0.265 C 
HETATM   21  O1  UNL     1       8.839  14.518  24.131  1.00  0.00    -0.302 OA
ENDBRANCH  18  20
ENDBRANCH  13  18
ENDBRANCH   3   4
ENDBRANCH   1   3
BRANCH   1  22
HETATM   22  C14 UNL     1       1.703  11.486  16.601  1.00  0.00     0.114 C 
HETATM   23  C15 UNL     1       1.022  12.641  17.342  1.00  0.00     0.023 C 
BRANCH  22  24
HETATM   24  C16 UNL     1       0.714  10.531  15.912  1.00  0.00     0.159 C 
BRANCH  24  25
HETATM   25  O4  UNL     1       0.321   9.510  16.831  1.00  0.00    -0.390 OA
HETATM   26  H24 UNL     1      -0.144   8.830  16.312  1.00  0.00     0.210 HD
ENDBRANCH  24  25
BRANCH  24  27
HETATM   27  C17 UNL     1       1.274   9.828  14.681  1.00  0.00    -0.058 C 
HETATM   28  C18 UNL     1       2.301  10.602  13.887  1.00  0.00     0.046 C 
HETATM   29  C19 UNL     1       0.864   8.580  14.362  1.00  0.00    -0.015 C 
BRANCH  29  30
HETATM   30  C20 UNL     1       1.286   7.768  13.149  1.00  0.00     0.032 C 
BRANCH  30  31
HETATM   31  C21 UNL     1       0.814   6.304  13.253  1.00  0.00     0.172 C 
BRANCH  31  32
HETATM   32  O5  UNL     1      -0.559   6.255  13.634  1.00  0.00    -0.400 OA
HETATM   33  H32 UNL     1      -0.831   5.321  13.607  1.00  0.00     0.209 HD
ENDBRANCH  31  32
ENDBRANCH  30  31
BRANCH  30  34
HETATM   34  C22 UNL     1       2.801   7.878  12.866  1.00  0.00     0.010 C 
BRANCH  34  35
HETATM   35  C23 UNL     1       3.251   8.355  11.477  1.00  0.00     0.001 C 
BRANCH  35  36
HETATM   36  C24 UNL     1       2.932   7.383  10.340  1.00  0.00     0.000 C 
BRANCH  36  37
HETATM   37  C25 UNL     1       1.981   7.967   9.287  1.00  0.00    -0.000 C 
BRANCH  37  38
HETATM   38  C26 UNL     1       2.579   8.146   7.888  1.00  0.00    -0.005 C 
HETATM   39  C27 UNL     1       1.926   7.304   6.807  1.00  0.00     0.005 C 
ENDBRANCH  37  38
ENDBRANCH  36  37
ENDBRANCH  35  36
ENDBRANCH  34  35
ENDBRANCH  30  34
ENDBRANCH  29  30
ENDBRANCH  24  27
ENDBRANCH  22  24
ENDBRANCH   1  22
TORSDOF 16
ENDMDL
MODEL 2
REMARK minimizedAffinity -6.30412054
REMARK CNNscore 0.511687696
REMARK CNNaffinity 5.63321829
REMARK  16 active torsions:
REMARK  status: ('A' for Active; 'I' for Inactive)
REMARK    1  A    between atoms: C2_2  and  C3_3 
REMARK    2  A    between atoms: C2_2  and  C4_5 
REMARK    3  A    between atoms: C12_13  and  O2_14 
REMARK    4  A    between atoms: O2_14  and  C13_15 
REMARK    5  A    between atoms: C13_15  and  C14_17 
REMARK    6  A    between atoms: C14_17  and  C16_19 
REMARK    7  A    between atoms: C16_19  and  O4_20 
REMARK    8  A    between atoms: C16_19  and  C17_21 
REMARK    9  A    between atoms: C19_23  and  C20_24 
REMARK   10  A    between atoms: C20_24  and  C21_25 
REMARK   11  A    between atoms: C20_24  and  C22_27 
REMARK   12  A    between atoms: C21_25  and  O5_26 
REMARK   13  A    between atoms: C22_27  and  C23_28 
REMARK   14  A    between atoms: C23_28  and  C24_29 
REMARK   15  A    between atoms: C24_29  and  C25_30 
REMARK   16  A    between atoms: C25_30  and  C26_31 
ROOT
HETATM    1  C13 UNL     1       2.394  11.594  17.532  1.00  0.00     0.266 C 
HETATM    2  O3  UNL     1       2.819  10.506  17.163  1.00  0.00    -0.265 OA
ENDROOT
BRANCH   1   3
HETATM    3  O2  UNL     1       2.672  12.166  18.739  1.00  0.00    -0.312 OA
BRANCH   3   4
HETATM    4  C12 UNL     1       3.062  11.248  19.777  1.00  0.00     0.170 C 
HETATM    5  C11 UNL     1       1.804  10.721  20.461  1.00  0.00     0.036 C 
HETATM    6  C10 UNL     1       2.100   9.847  21.680  1.00  0.00     0.007 C 
HETATM    7  C8  UNL     1       3.428  10.174  22.397  1.00  0.00    -0.007 C 
HETATM    8  C6  UNL     1       3.841  11.675  22.250  1.00  0.00    -0.003 C 
HETATM    9  C9  UNL     1       3.363   9.662  23.839  1.00  0.00     0.011 C 
HETATM   10  C5  UNL     1       5.221  11.945  22.937  1.00  0.00     0.030 C 
HETATM   11  C7  UNL     1       2.794  12.620  22.894  1.00  0.00     0.019 C 
HETATM   12  C28 UNL     1       3.988  11.967  20.747  1.00  0.00     0.129 A 
HETATM   13  C4  UNL     1       5.738  13.389  22.751  1.00  0.00     0.094 C 
HETATM   14  C30 UNL     1       5.440  14.024  21.386  1.00  0.00     0.167 C 
HETATM   15  C29 UNL     1       4.821  13.175  20.342  1.00  0.00     0.230 A 
HETATM   16  O7  UNL     1       5.656  15.211  21.150  1.00  0.00    -0.294 OA
HETATM   17  O6  UNL     1       5.356  11.854  20.271  1.00  0.00    -0.358 OA
BRANCH  13  18
HETATM   18  C2  UNL     1       7.213  13.489  23.072  1.00  0.00    -0.018 C 
HETATM   19  C1  UNL     1       7.862  14.614  23.422  1.00  0.00     0.022 C 
BRANCH  18  20
HETATM   20  C3  UNL     1       8.000  12.222  23.010  1.00  0.00     0.265 C 
HETATM   21  O1  UNL     1       9.118  12.090  23.495  1.00  0.00    -0.302 OA
ENDBRANCH  18  20
ENDBRANCH  13  18
ENDBRANCH   3   4
ENDBRANCH   1   3
BRANCH   1  22
HETATM   22  C14 UNL     1       1.526  12.492  16.675  1.00  0.00     0.114 C 
HETATM   23  C15 UNL     1       2.159  13.884  16.592  1.00  0.00     0.023 C 
BRANCH  22  24
HETATM   24  C16 UNL     1       0.087  12.503  17.216  1.00  0.00     0.159 C 
BRANCH  24  25
HETATM   25  O4  UNL     1       0.079  13.048  18.536  1.00  0.00    -0.390 OA
HETATM   26  H24 UNL     1      -0.800  12.864  18.911  1.00  0.00     0.210 HD
ENDBRANCH  24  25
BRANCH  24  27
HETATM   27  C17 UNL     1      -0.562  11.126  17.302  1.00  0.00    -0.058 C 
HETATM   28  C18 UNL     1      -1.197  10.776  18.627  1.00  0.00     0.046 C 
HETATM   29  C19 UNL     1      -0.560  10.303  16.230  1.00  0.00    -0.015 C 
BRANCH  29  30
HETATM   30  C20 UNL     1      -1.117   8.890  16.169  1.00  0.00     0.032 C 
BRANCH  30  31
HETATM   31  C21 UNL     1      -0.144   7.925  15.463  1.00  0.00     0.172 C 
BRANCH  31  32
HETATM   32  O5  UNL     1       0.791   7.395  16.400  1.00  0.00    -0.400 OA
HETATM   33  H32 UNL     1       1.328   6.735  15.928  1.00  0.00     0.209 HD
ENDBRANCH  31  32
ENDBRANCH  30  31
BRANCH  30  34
HETATM   34  C22 UNL     1      -2.537   8.843  15.561  1.00  0.00     0.010 C 
BRANCH  34  35
HETATM   35  C23 UNL     1      -2.914   7.644  14.678  1.00  0.00     0.001 C 
BRANCH  35  36
HETATM   36  C24 UNL     1      -3.341   8.014  13.257  1.00  0.00     0.000 C 
BRANCH  36  37
HETATM   37  C25 UNL     1      -4.848   8.276  13.123  1.00  0.00    -0.000 C 
BRANCH  37  38
HETATM   38  C26 UNL     1      -5.742   7.461  14.063  1.00  0.00    -0.005 C 
HETATM   39  C27 UNL     1      -6.231   6.143  13.488  1.00  0.00     0.005 C 
ENDBRANCH  37  38
ENDBRANCH  36  37
ENDBRANCH  35  36
ENDBRANCH  34  35
ENDBRANCH  30  34
ENDBRANCH  29  30
ENDBRANCH  24  27
ENDBRANCH  22  24
ENDBRANCH   1  22
TORSDOF 16
ENDMDL
MODEL 3
REMARK minimizedAffinity -6.98739243
REMARK CNNscore 0.510746837
REMARK CNNaffinity 7.10723114
REMARK  16 active torsions:
REMARK  status: ('A' for Active; 'I' for Inactive)
REMARK    1  A    between atoms: C2_2  and  C3_3 
REMARK    2  A    between atoms: C2_2  and  C4_5 
REMARK    3  A    between atoms: C12_13  and  O2_14 
REMARK    4  A    between atoms: O2_14  and  C13_15 
REMARK    5  A    between atoms: C13_15  and  C14_17 
REMARK    6  A    between atoms: C14_17  and  C16_19 
REMARK    7  A    between atoms: C16_19  and  O4_20 
REMARK    8  A    between atoms: C16_19  and  C17_21 
REMARK    9  A    between atoms: C19_23  and  C20_24 
REMARK   10  A    between atoms: C20_24  and  C21_25 
REMARK   11  A    between atoms: C20_24  and  C22_27 
REMARK   12  A    between atoms: C21_25  and  O5_26 
REMARK   13  A    between atoms: C22_27  and  C23_28 
REMARK   14  A    between atoms: C23_28  and  C24_29 
REMARK   15  A    between atoms: C24_29  and  C25_30 
REMARK   16  A    between atoms: C25_30  and  C26_31 
ROOT
HETATM    1  C13 UNL     1      -0.372   8.681  14.596  1.00  0.00     0.266 C 
HETATM    2  O3  UNL     1      -0.706   8.653  15.775  1.00  0.00    -0.265 OA
ENDROOT
BRANCH   1   3
HETATM    3  O2  UNL     1      -1.110   9.240  13.594  1.00  0.00    -0.312 OA
BRANCH   3   4
HETATM    4  C12 UNL     1      -2.532   9.248  13.811  1.00  0.00     0.170 C 
HETATM    5  C11 UNL     1      -2.813   9.815  15.199  1.00  0.00     0.036 C 
HETATM    6  C10 UNL     1      -4.286   9.736  15.598  1.00  0.00     0.007 C 
HETATM    7  C8  UNL     1      -5.069   8.580  14.939  1.00  0.00    -0.007 C 
HETATM    8  C6  UNL     1      -4.164   7.348  14.608  1.00  0.00    -0.003 C 
HETATM    9  C9  UNL     1      -6.306   8.261  15.783  1.00  0.00     0.011 C 
HETATM   10  C5  UNL     1      -4.985   6.229  13.885  1.00  0.00     0.030 C 
HETATM   11  C7  UNL     1      -3.545   6.734  15.891  1.00  0.00     0.019 C 
HETATM   12  C28 UNL     1      -3.062   7.831  13.648  1.00  0.00     0.129 A 
HETATM   13  C4  UNL     1      -4.133   5.018  13.443  1.00  0.00     0.094 C 
HETATM   14  C30 UNL     1      -2.720   5.353  12.949  1.00  0.00     0.167 C 
HETATM   15  C29 UNL     1      -2.349   6.781  12.808  1.00  0.00     0.230 A 
HETATM   16  O7  UNL     1      -1.883   4.485  12.709  1.00  0.00    -0.294 OA
HETATM   17  O6  UNL     1      -3.377   7.598  12.250  1.00  0.00    -0.358 OA
BRANCH  13  18
HETATM   18  C2  UNL     1      -4.867   4.175  12.424  1.00  0.00    -0.018 C 
HETATM   19  C1  UNL     1      -4.303   3.559  11.369  1.00  0.00     0.022 C 
BRANCH  18  20
HETATM   20  C3  UNL     1      -6.336   4.006  12.626  1.00  0.00     0.265 C 
HETATM   21  O1  UNL     1      -6.881   2.920  12.791  1.00  0.00    -0.302 OA
ENDBRANCH  18  20
ENDBRANCH  13  18
ENDBRANCH   3   4
ENDBRANCH   1   3
BRANCH   1  22
HETATM   22  C14 UNL     1       0.944   8.133  14.084  1.00  0.00     0.114 C 
HETATM   23  C15 UNL     1       1.601   9.165  13.162  1.00  0.00     0.023 C 
BRANCH  22  24
HETATM   24  C16 UNL     1       0.719   6.767  13.415  1.00  0.00     0.159 C 
BRANCH  24  25
HETATM   25  O4  UNL     1       1.440   5.763  14.129  1.00  0.00    -0.390 OA
HETATM   26  H24 UNL     1       1.431   4.963  13.575  1.00  0.00     0.210 HD
ENDBRANCH  24  25
BRANCH  24  27
HETATM   27  C17 UNL     1       1.181   6.696  11.963  1.00  0.00    -0.058 C 
HETATM   28  C18 UNL     1       0.237   7.283  10.939  1.00  0.00     0.046 C 
HETATM   29  C19 UNL     1       2.377   6.148  11.654  1.00  0.00    -0.015 C 
BRANCH  29  30
HETATM   30  C20 UNL     1       2.956   5.958  10.262  1.00  0.00     0.032 C 
BRANCH  30  31
HETATM   31  C21 UNL     1       3.320   4.485   9.993  1.00  0.00     0.172 C 
BRANCH  31  32
HETATM   32  O5  UNL     1       2.302   3.625  10.499  1.00  0.00    -0.400 OA
HETATM   33  H32 UNL     1       2.535   2.718  10.237  1.00  0.00     0.209 HD
ENDBRANCH  31  32
ENDBRANCH  30  31
BRANCH  30  34
HETATM   34  C22 UNL     1       4.135   6.916   9.979  1.00  0.00     0.010 C 
BRANCH  34  35
HETATM   35  C23 UNL     1       3.822   8.389   9.675  1.00  0.00     0.001 C 
BRANCH  35  36
HETATM   36  C24 UNL     1       3.359   8.654   8.242  1.00  0.00     0.000 C 
BRANCH  36  37
HETATM   37  C25 UNL     1       1.832   8.706   8.096  1.00  0.00    -0.000 C 
BRANCH  37  38
HETATM   38  C26 UNL     1       1.191   7.470   7.457  1.00  0.00    -0.005 C 
HETATM   39  C27 UNL     1       1.934   6.922   6.252  1.00  0.00     0.005 C 
ENDBRANCH  37  38
ENDBRANCH  36  37
ENDBRANCH  35  36
ENDBRANCH  34  35
ENDBRANCH  30  34
ENDBRANCH  29  30
ENDBRANCH  24  27
ENDBRANCH  22  24
ENDBRANCH   1  22
TORSDOF 16
ENDMDL
MODEL 4
REMARK minimizedAffinity -6.80005169
REMARK CNNscore 0.389564067
REMARK CNNaffinity 6.70619774
REMARK  16 active torsions:
REMARK  status: ('A' for Active; 'I' for Inactive)
REMARK    1  A    between atoms: C2_2  and  C3_3 
REMARK    2  A    between atoms: C2_2  and  C4_5 
REMARK    3  A    between atoms: C12_13  and  O2_14 
REMARK    4  A    between atoms: O2_14  and  C13_15 
REMARK    5  A    between atoms: C13_15  and  C14_17 
REMARK    6  A    between atoms: C14_17  and  C16_19 
REMARK    7  A    between atoms: C16_19  and  O4_20 
REMARK    8  A    between atoms: C16_19  and  C17_21 
REMARK    9  A    between atoms: C19_23  and  C20_24 
REMARK   10  A    between atoms: C20_24  and  C21_25 
REMARK   11  A    between atoms: C20_24  and  C22_27 
REMARK   12  A    between atoms: C21_25  and  O5_26 
REMARK   13  A    between atoms: C22_27  and  C23_28 
REMARK   14  A    between atoms: C23_28  and  C24_29 
REMARK   15  A    between atoms: C24_29  and  C25_30 
REMARK   16  A    between atoms: C25_30  and  C26_31 
ROOT
HETATM    1  C13 UNL     1      -1.395   2.422  11.272  1.00  0.00     0.266 C 
HETATM    2  O3  UNL     1      -0.830   1.923  10.306  1.00  0.00    -0.265 OA
ENDROOT
BRANCH   1   3
HETATM    3  O2  UNL     1      -0.811   3.290  12.147  1.00  0.00    -0.312 OA
BRANCH   3   4
HETATM    4  C12 UNL     1      -0.559   4.609  11.628  1.00  0.00     0.170 C 
HETATM    5  C11 UNL     1       0.948   4.795  11.477  1.00  0.00     0.036 C 
HETATM    6  C10 UNL     1       1.344   6.214  11.070  1.00  0.00     0.007 C 
HETATM    7  C8  UNL     1       0.356   7.312  11.524  1.00  0.00    -0.007 C 
HETATM    8  C6  UNL     1      -0.402   6.936  12.839  1.00  0.00    -0.003 C 
HETATM    9  C9  UNL     1       1.081   8.660  11.561  1.00  0.00     0.011 C 
HETATM   10  C5  UNL     1      -1.436   8.046  13.224  1.00  0.00     0.030 C 
HETATM   11  C7  UNL     1       0.574   6.757  14.029  1.00  0.00     0.019 C 
HETATM   12  C28 UNL     1      -1.176   5.634  12.568  1.00  0.00     0.129 A 
HETATM   13  C4  UNL     1      -2.291   7.699  14.464  1.00  0.00     0.094 C 
HETATM   14  C30 UNL     1      -2.687   6.223  14.597  1.00  0.00     0.167 C 
HETATM   15  C29 UNL     1      -2.346   5.305  13.485  1.00  0.00     0.230 A 
HETATM   16  O7  UNL     1      -3.234   5.776  15.603  1.00  0.00    -0.294 OA
HETATM   17  O6  UNL     1      -2.560   5.856  12.187  1.00  0.00    -0.358 OA
BRANCH  13  18
HETATM   18  C2  UNL     1      -3.512   8.588  14.554  1.00  0.00    -0.018 C 
HETATM   19  C1  UNL     1      -3.602   9.719  15.277  1.00  0.00     0.022 C 
BRANCH  18  20
HETATM   20  C3  UNL     1      -4.703   8.173  13.757  1.00  0.00     0.265 C 
HETATM   21  O1  UNL     1      -4.905   8.525  12.600  1.00  0.00    -0.302 OA
ENDBRANCH  18  20
ENDBRANCH  13  18
ENDBRANCH   3   4
ENDBRANCH   1   3
BRANCH   1  22
HETATM   22  C14 UNL     1      -2.851   2.181  11.610  1.00  0.00     0.114 C 
HETATM   23  C15 UNL     1      -3.091   0.679  11.788  1.00  0.00     0.023 C 
BRANCH  22  24
HETATM   24  C16 UNL     1      -3.752   2.823  10.542  1.00  0.00     0.159 C 
BRANCH  24  25
HETATM   25  O4  UNL     1      -3.134   4.015  10.053  1.00  0.00    -0.390 OA
HETATM   26  H24 UNL     1      -3.807   4.487   9.532  1.00  0.00     0.210 HD
ENDBRANCH  24  25
BRANCH  24  27
HETATM   27  C17 UNL     1      -5.137   3.215  11.043  1.00  0.00    -0.058 C 
HETATM   28  C18 UNL     1      -6.166   3.512   9.977  1.00  0.00     0.046 C 
HETATM   29  C19 UNL     1      -5.394   3.268  12.369  1.00  0.00    -0.015 C 
BRANCH  29  30
HETATM   30  C20 UNL     1      -6.699   3.686  13.025  1.00  0.00     0.032 C 
BRANCH  30  31
HETATM   31  C21 UNL     1      -7.803   2.630  12.820  1.00  0.00     0.172 C 
BRANCH  31  32
HETATM   32  O5  UNL     1      -7.224   1.372  12.478  1.00  0.00    -0.400 OA
HETATM   33  H32 UNL     1      -7.949   0.724  12.438  1.00  0.00     0.209 HD
ENDBRANCH  31  32
ENDBRANCH  30  31
BRANCH  30  34
HETATM   34  C22 UNL     1      -7.149   5.099  12.594  1.00  0.00     0.010 C 
BRANCH  34  35
HETATM   35  C23 UNL     1      -8.654   5.391  12.503  1.00  0.00     0.001 C 
BRANCH  35  36
HETATM   36  C24 UNL     1      -9.160   6.425  13.510  1.00  0.00     0.000 C 
BRANCH  36  37
HETATM   37  C25 UNL     1      -8.406   6.390  14.848  1.00  0.00    -0.000 C 
BRANCH  37  38
HETATM   38  C26 UNL     1      -8.242   7.745  15.544  1.00  0.00    -0.005 C 
HETATM   39  C27 UNL     1      -9.298   8.052  16.591  1.00  0.00     0.005 C 
ENDBRANCH  37  38
ENDBRANCH  36  37
ENDBRANCH  35  36
ENDBRANCH  34  35
ENDBRANCH  30  34
ENDBRANCH  29  30
ENDBRANCH  24  27
ENDBRANCH  22  24
ENDBRANCH   1  22
TORSDOF 16
ENDMDL
MODEL 5
REMARK minimizedAffinity -7.41622496
REMARK CNNscore 0.344810665
REMARK CNNaffinity 5.51772833
REMARK  16 active torsions:
REMARK  status: ('A' for Active; 'I' for Inactive)
REMARK    1  A    between atoms: C2_2  and  C3_3 
REMARK    2  A    between atoms: C2_2  and  C4_5 
REMARK    3  A    between atoms: C12_13  and  O2_14 
REMARK    4  A    between atoms: O2_14  and  C13_15 
REMARK    5  A    between atoms: C13_15  and  C14_17 
REMARK    6  A    between atoms: C14_17  and  C16_19 
REMARK    7  A    between atoms: C16_19  and  O4_20 
REMARK    8  A    between atoms: C16_19  and  C17_21 
REMARK    9  A    between atoms: C19_23  and  C20_24 
REMARK   10  A    between atoms: C20_24  and  C21_25 
REMARK   11  A    between atoms: C20_24  and  C22_27 
REMARK   12  A    between atoms: C21_25  and  O5_26 
REMARK   13  A    between atoms: C22_27  and  C23_28 
REMARK   14  A    between atoms: C23_28  and  C24_29 
REMARK   15  A    between atoms: C24_29  and  C25_30 
REMARK   16  A    between atoms: C25_30  and  C26_31 
ROOT
HETATM    1  C13 UNL     1       3.290  11.132  17.382  1.00  0.00     0.266 C 
HETATM    2  O3  UNL     1       4.326  10.662  16.927  1.00  0.00    -0.265 OA
ENDROOT
BRANCH   1   3
HETATM    3  O2  UNL     1       3.191  11.772  18.583  1.00  0.00    -0.312 OA
BRANCH   3   4
HETATM    4  C12 UNL     1       3.409  10.943  19.739  1.00  0.00     0.170 C 
HETATM    5  C11 UNL     1       2.057  10.615  20.367  1.00  0.00     0.036 C 
HETATM    6  C10 UNL     1       2.174   9.859  21.691  1.00  0.00     0.007 C 
HETATM    7  C8  UNL     1       3.473  10.137  22.478  1.00  0.00    -0.007 C 
HETATM    8  C6  UNL     1       4.047  11.568  22.211  1.00  0.00    -0.003 C 
HETATM    9  C9  UNL     1       3.251   9.798  23.955  1.00  0.00     0.011 C 
HETATM   10  C5  UNL     1       5.393  11.781  22.978  1.00  0.00     0.030 C 
HETATM   11  C7  UNL     1       3.058  12.673  22.664  1.00  0.00     0.019 C 
HETATM   12  C28 UNL     1       4.331  11.675  20.703  1.00  0.00     0.129 A 
HETATM   13  C4  UNL     1       6.068  13.141  22.687  1.00  0.00     0.094 C 
HETATM   14  C30 UNL     1       5.936  13.645  21.244  1.00  0.00     0.167 C 
HETATM   15  C29 UNL     1       5.311  12.747  20.245  1.00  0.00     0.230 A 
HETATM   16  O7  UNL     1       6.289  14.773  20.904  1.00  0.00    -0.294 OA
HETATM   17  O6  UNL     1       5.711  11.382  20.356  1.00  0.00    -0.358 OA
BRANCH  13  18
HETATM   18  C2  UNL     1       7.519  13.137  23.117  1.00  0.00    -0.018 C 
HETATM   19  C1  UNL     1       8.321  12.057  23.145  1.00  0.00     0.022 C 
BRANCH  18  20
HETATM   20  C3  UNL     1       8.101  14.448  23.526  1.00  0.00     0.265 C 
HETATM   21  O1  UNL     1       9.026  14.565  24.321  1.00  0.00    -0.302 OA
ENDBRANCH  18  20
ENDBRANCH  13  18
ENDBRANCH   3   4
ENDBRANCH   1   3
BRANCH   1  22
HETATM   22  C14 UNL     1       1.965  11.110  16.649  1.00  0.00     0.114 C 
HETATM   23  C15 UNL     1       1.185  12.389  16.968  1.00  0.00     0.023 C 
BRANCH  22  24
HETATM   24  C16 UNL     1       1.197   9.822  16.991  1.00  0.00     0.159 C 
BRANCH  24  25
HETATM   25  O4  UNL     1       2.126   8.769  17.251  1.00  0.00    -0.390 OA
HETATM   26  H24 UNL     1       1.614   7.942  17.273  1.00  0.00     0.210 HD
ENDBRANCH  24  25
BRANCH  24  27
HETATM   27  C17 UNL     1       0.271   9.332  15.883  1.00  0.00    -0.058 C 
HETATM   28  C18 UNL     1      -0.034  10.326  14.788  1.00  0.00     0.046 C 
HETATM   29  C19 UNL     1      -0.215   8.071  15.909  1.00  0.00    -0.015 C 
BRANCH  29  30
HETATM   30  C20 UNL     1      -1.181   7.450  14.914  1.00  0.00     0.032 C 
BRANCH  30  31
HETATM   31  C21 UNL     1      -2.644   7.584  15.381  1.00  0.00     0.172 C 
BRANCH  31  32
HETATM   32  O5  UNL     1      -2.758   7.216  16.754  1.00  0.00    -0.400 OA
HETATM   33  H32 UNL     1      -3.677   7.393  17.023  1.00  0.00     0.209 HD
ENDBRANCH  31  32
ENDBRANCH  30  31
BRANCH  30  34
HETATM   34  C22 UNL     1      -0.808   5.993  14.562  1.00  0.00     0.010 C 
BRANCH  34  35
HETATM   35  C23 UNL     1      -1.056   5.501  13.128  1.00  0.00     0.001 C 
BRANCH  35  36
HETATM   36  C24 UNL     1      -2.216   4.514  12.990  1.00  0.00     0.000 C 
BRANCH  36  37
HETATM   37  C25 UNL     1      -3.544   5.183  12.607  1.00  0.00    -0.000 C 
BRANCH  37  38
HETATM   38  C26 UNL     1      -4.689   4.225  12.269  1.00  0.00    -0.005 C 
HETATM   39  C27 UNL     1      -5.875   4.295  13.215  1.00  0.00     0.005 C 
ENDBRANCH  37  38
ENDBRANCH  36  37
ENDBRANCH  35  36
ENDBRANCH  34  35
ENDBRANCH  30  34
ENDBRANCH  29  30
ENDBRANCH  24  27
ENDBRANCH  22  24
ENDBRANCH   1  22
TORSDOF 16
ENDMDL
MODEL 6
REMARK minimizedAffinity -6.53395367
REMARK CNNscore 0.31571722
REMARK CNNaffinity 5.46805573
REMARK  16 active torsions:
REMARK  status: ('A' for Active; 'I' for Inactive)
REMARK    1  A    between atoms: C2_2  and  C3_3 
REMARK    2  A    between atoms: C2_2  and  C4_5 
REMARK    3  A    between atoms: C12_13  and  O2_14 
REMARK    4  A    between atoms: O2_14  and  C13_15 
REMARK    5  A    between atoms: C13_15  and  C14_17 
REMARK    6  A    between atoms: C14_17  and  C16_19 
REMARK    7  A    between atoms: C16_19  and  O4_20 
REMARK    8  A    between atoms: C16_19  and  C17_21 
REMARK    9  A    between atoms: C19_23  and  C20_24 
REMARK   10  A    between atoms: C20_24  and  C21_25 
REMARK   11  A    between atoms: C20_24  and  C22_27 
REMARK   12  A    between atoms: C21_25  and  O5_26 
REMARK   13  A    between atoms: C22_27  and  C23_28 
REMARK   14  A    between atoms: C23_28  and  C24_29 
REMARK   15  A    between atoms: C24_29  and  C25_30 
REMARK   16  A    between atoms: C25_30  and  C26_31 
ROOT
HETATM    1  C13 UNL     1       3.092  10.976  17.457  1.00  0.00     0.266 C 
HETATM    2  O3  UNL     1       4.114  10.464  17.018  1.00  0.00    -0.265 OA
ENDROOT
BRANCH   1   3
HETATM    3  O2  UNL     1       3.004  11.632  18.651  1.00  0.00    -0.312 OA
BRANCH   3   4
HETATM    4  C12 UNL     1       3.234  10.818  19.815  1.00  0.00     0.170 C 
HETATM    5  C11 UNL     1       1.892  10.528  20.482  1.00  0.00     0.036 C 
HETATM    6  C10 UNL     1       2.026   9.791  21.814  1.00  0.00     0.007 C 
HETATM    7  C8  UNL     1       3.350  10.057  22.565  1.00  0.00    -0.007 C 
HETATM    8  C6  UNL     1       3.944  11.471  22.260  1.00  0.00    -0.003 C 
HETATM    9  C9  UNL     1       3.158   9.747  24.053  1.00  0.00     0.011 C 
HETATM   10  C5  UNL     1       5.314  11.671  22.990  1.00  0.00     0.030 C 
HETATM   11  C7  UNL     1       2.988  12.603  22.717  1.00  0.00     0.019 C 
HETATM   12  C28 UNL     1       4.194  11.548  20.743  1.00  0.00     0.129 A 
HETATM   13  C4  UNL     1       6.007  13.012  22.659  1.00  0.00     0.094 C 
HETATM   14  C30 UNL     1       5.849  13.494  21.211  1.00  0.00     0.167 C 
HETATM   15  C29 UNL     1       5.182  12.592  20.244  1.00  0.00     0.230 A 
HETATM   16  O7  UNL     1       6.215  14.609  20.845  1.00  0.00    -0.294 OA
HETATM   17  O6  UNL     1       5.559  11.222  20.369  1.00  0.00    -0.358 OA
BRANCH  13  18
HETATM   18  C2  UNL     1       7.467  12.986  23.055  1.00  0.00    -0.018 C 
HETATM   19  C1  UNL     1       8.246  11.890  23.094  1.00  0.00     0.022 C 
BRANCH  18  20
HETATM   20  C3  UNL     1       8.089  14.295  23.412  1.00  0.00     0.265 C 
HETATM   21  O1  UNL     1       9.043  14.782  22.816  1.00  0.00    -0.302 OA
ENDBRANCH  18  20
ENDBRANCH  13  18
ENDBRANCH   3   4
ENDBRANCH   1   3
BRANCH   1  22
HETATM   22  C14 UNL     1       1.774  10.996  16.711  1.00  0.00     0.114 C 
HETATM   23  C15 UNL     1       1.015  12.282  17.051  1.00  0.00     0.023 C 
BRANCH  22  24
HETATM   24  C16 UNL     1       0.980   9.715  17.014  1.00  0.00     0.159 C 
BRANCH  24  25
HETATM   25  O4  UNL     1       1.747   8.576  16.625  1.00  0.00    -0.390 OA
HETATM   26  H24 UNL     1       1.147   7.810  16.652  1.00  0.00     0.210 HD
ENDBRANCH  24  25
BRANCH  24  27
HETATM   27  C17 UNL     1      -0.357   9.619  16.287  1.00  0.00    -0.058 C 
HETATM   28  C18 UNL     1      -0.286   9.564  14.779  1.00  0.00     0.046 C 
HETATM   29  C19 UNL     1      -1.513   9.572  16.986  1.00  0.00    -0.015 C 
BRANCH  29  30
HETATM   30  C20 UNL     1      -2.919   9.525  16.413  1.00  0.00     0.032 C 
BRANCH  30  31
HETATM   31  C21 UNL     1      -3.208   8.178  15.722  1.00  0.00     0.172 C 
BRANCH  31  32
HETATM   32  O5  UNL     1      -2.821   7.098  16.568  1.00  0.00    -0.400 OA
HETATM   33  H32 UNL     1      -3.095   6.275  16.126  1.00  0.00     0.209 HD
ENDBRANCH  31  32
ENDBRANCH  30  31
BRANCH  30  34
HETATM   34  C22 UNL     1      -3.223  10.733  15.498  1.00  0.00     0.010 C 
BRANCH  34  35
HETATM   35  C23 UNL     1      -3.588  12.073  16.154  1.00  0.00     0.001 C 
BRANCH  35  36
HETATM   36  C24 UNL     1      -3.346  12.124  17.664  1.00  0.00     0.000 C 
BRANCH  36  37
HETATM   37  C25 UNL     1      -3.060  13.540  18.186  1.00  0.00    -0.000 C 
BRANCH  37  38
HETATM   38  C26 UNL     1      -3.769  13.913  19.491  1.00  0.00    -0.005 C 
HETATM   39  C27 UNL     1      -4.916  12.995  19.875  1.00  0.00     0.005 C 
ENDBRANCH  37  38
ENDBRANCH  36  37
ENDBRANCH  35  36
ENDBRANCH  34  35
ENDBRANCH  30  34
ENDBRANCH  29  30
ENDBRANCH  24  27
ENDBRANCH  22  24
ENDBRANCH   1  22
TORSDOF 16
ENDMDL
MODEL 7
REMARK minimizedAffinity -6.39080667
REMARK CNNscore 0.308267564
REMARK CNNaffinity 5.27155066
REMARK  16 active torsions:
REMARK  status: ('A' for Active; 'I' for Inactive)
REMARK    1  A    between atoms: C2_2  and  C3_3 
REMARK    2  A    between atoms: C2_2  and  C4_5 
REMARK    3  A    between atoms: C12_13  and  O2_14 
REMARK    4  A    between atoms: O2_14  and  C13_15 
REMARK    5  A    between atoms: C13_15  and  C14_17 
REMARK    6  A    between atoms: C14_17  and  C16_19 
REMARK    7  A    between atoms: C16_19  and  O4_20 
REMARK    8  A    between atoms: C16_19  and  C17_21 
REMARK    9  A    between atoms: C19_23  and  C20_24 
REMARK   10  A    between atoms: C20_24  and  C21_25 
REMARK   11  A    between atoms: C20_24  and  C22_27 
REMARK   12  A    between atoms: C21_25  and  O5_26 
REMARK   13  A    between atoms: C22_27  and  C23_28 
REMARK   14  A    between atoms: C23_28  and  C24_29 
REMARK   15  A    between atoms: C24_29  and  C25_30 
REMARK   16  A    between atoms: C25_30  and  C26_31 
ROOT
HETATM    1  C13 UNL     1       3.508  11.047  17.339  1.00  0.00     0.266 C 
HETATM    2  O3  UNL     1       4.682  10.779  17.113  1.00  0.00    -0.265 OA
ENDROOT
BRANCH   1   3
HETATM    3  O2  UNL     1       3.047  11.588  18.503  1.00  0.00    -0.312 OA
BRANCH   3   4
HETATM    4  C12 UNL     1       3.309  10.812  19.687  1.00  0.00     0.170 C 
HETATM    5  C11 UNL     1       1.979  10.481  20.358  1.00  0.00     0.036 C 
HETATM    6  C10 UNL     1       2.140   9.781  21.707  1.00  0.00     0.007 C 
HETATM    7  C8  UNL     1       3.450  10.120  22.454  1.00  0.00    -0.007 C 
HETATM    8  C6  UNL     1       3.985  11.551  22.117  1.00  0.00    -0.003 C 
HETATM    9  C9  UNL     1       3.268   9.836  23.947  1.00  0.00     0.011 C 
HETATM   10  C5  UNL     1       5.343  11.824  22.844  1.00  0.00     0.030 C 
HETATM   11  C7  UNL     1       2.981  12.651  22.547  1.00  0.00     0.019 C 
HETATM   12  C28 UNL     1       4.234  11.603  20.599  1.00  0.00     0.129 A 
HETATM   13  C4  UNL     1       5.980  13.186  22.483  1.00  0.00     0.094 C 
HETATM   14  C30 UNL     1       5.805  13.628  21.024  1.00  0.00     0.167 C 
HETATM   15  C29 UNL     1       5.179  12.676  20.077  1.00  0.00     0.230 A 
HETATM   16  O7  UNL     1       6.125  14.748  20.633  1.00  0.00    -0.294 OA
HETATM   17  O6  UNL     1       5.613  11.326  20.234  1.00  0.00    -0.358 OA
BRANCH  13  18
HETATM   18  C2  UNL     1       7.439  13.230  22.881  1.00  0.00    -0.018 C 
HETATM   19  C1  UNL     1       8.044  14.251  23.516  1.00  0.00     0.022 C 
BRANCH  18  20
HETATM   20  C3  UNL     1       8.261  12.030  22.551  1.00  0.00     0.265 C 
HETATM   21  O1  UNL     1       8.931  11.415  23.374  1.00  0.00    -0.302 OA
ENDBRANCH  18  20
ENDBRANCH  13  18
ENDBRANCH   3   4
ENDBRANCH   1   3
BRANCH   1  22
HETATM   22  C14 UNL     1       2.394  10.855  16.332  1.00  0.00     0.114 C 
HETATM   23  C15 UNL     1       1.387   9.836  16.874  1.00  0.00     0.023 C 
BRANCH  22  24
HETATM   24  C16 UNL     1       2.983  10.468  14.965  1.00  0.00     0.159 C 
BRANCH  24  25
HETATM   25  O4  UNL     1       2.262  11.138  13.930  1.00  0.00    -0.390 OA
HETATM   26  H24 UNL     1       2.531  10.728  13.089  1.00  0.00     0.210 HD
ENDBRANCH  24  25
BRANCH  24  27
HETATM   27  C17 UNL     1       2.920   8.977  14.654  1.00  0.00    -0.058 C 
HETATM   28  C18 UNL     1       4.082   8.148  15.151  1.00  0.00     0.046 C 
HETATM   29  C19 UNL     1       1.864   8.463  13.985  1.00  0.00    -0.015 C 
BRANCH  29  30
HETATM   30  C20 UNL     1       1.676   7.017  13.558  1.00  0.00     0.032 C 
BRANCH  30  31
HETATM   31  C21 UNL     1       2.137   6.788  12.106  1.00  0.00     0.172 C 
BRANCH  31  32
HETATM   32  O5  UNL     1       1.882   7.949  11.318  1.00  0.00    -0.400 OA
HETATM   33  H32 UNL     1       2.261   7.788  10.436  1.00  0.00     0.209 HD
ENDBRANCH  31  32
ENDBRANCH  30  31
BRANCH  30  34
HETATM   34  C22 UNL     1       0.236   6.513  13.804  1.00  0.00     0.010 C 
BRANCH  34  35
HETATM   35  C23 UNL     1      -0.427   6.825  15.154  1.00  0.00     0.001 C 
BRANCH  35  36
HETATM   36  C24 UNL     1      -1.776   7.537  15.046  1.00  0.00     0.000 C 
BRANCH  36  37
HETATM   37  C25 UNL     1      -2.971   6.627  15.361  1.00  0.00    -0.000 C 
BRANCH  37  38
HETATM   38  C26 UNL     1      -3.264   5.544  14.318  1.00  0.00    -0.005 C 
HETATM   39  C27 UNL     1      -4.042   6.024  13.106  1.00  0.00     0.005 C 
ENDBRANCH  37  38
ENDBRANCH  36  37
ENDBRANCH  35  36
ENDBRANCH  34  35
ENDBRANCH  30  34
ENDBRANCH  29  30
ENDBRANCH  24  27
ENDBRANCH  22  24
ENDBRANCH   1  22
TORSDOF 16
ENDMDL
MODEL 8
REMARK minimizedAffinity -7.80562592
REMARK CNNscore 0.307109773
REMARK CNNaffinity 6.72074556
REMARK  16 active torsions:
REMARK  status: ('A' for Active; 'I' for Inactive)
REMARK    1  A    between atoms: C2_2  and  C3_3 
REMARK    2  A    between atoms: C2_2  and  C4_5 
REMARK    3  A    between atoms: C12_13  and  O2_14 
REMARK    4  A    between atoms: O2_14  and  C13_15 
REMARK    5  A    between atoms: C13_15  and  C14_17 
REMARK    6  A    between atoms: C14_17  and  C16_19 
REMARK    7  A    between atoms: C16_19  and  O4_20 
REMARK    8  A    between atoms: C16_19  and  C17_21 
REMARK    9  A    between atoms: C19_23  and  C20_24 
REMARK   10  A    between atoms: C20_24  and  C21_25 
REMARK   11  A    between atoms: C20_24  and  C22_27 
REMARK   12  A    between atoms: C21_25  and  O5_26 
REMARK   13  A    between atoms: C22_27  and  C23_28 
REMARK   14  A    between atoms: C23_28  and  C24_29 
REMARK   15  A    between atoms: C24_29  and  C25_30 
REMARK   16  A    between atoms: C25_30  and  C26_31 
ROOT
HETATM    1  C13 UNL     1      -3.742   8.872  13.470  1.00  0.00     0.266 C 
HETATM    2  O3  UNL     1      -4.486   8.738  12.507  1.00  0.00    -0.265 OA
ENDROOT
BRANCH   1   3
HETATM    3  O2  UNL     1      -2.482   8.355  13.555  1.00  0.00    -0.312 OA
BRANCH   3   4
HETATM    4  C12 UNL     1      -2.232   7.210  12.721  1.00  0.00     0.170 C 
HETATM    5  C11 UNL     1      -2.551   5.947  13.516  1.00  0.00     0.036 C 
HETATM    6  C10 UNL     1      -2.183   4.659  12.779  1.00  0.00     0.007 C 
HETATM    7  C8  UNL     1      -1.017   4.805  11.775  1.00  0.00    -0.007 C 
HETATM    8  C6  UNL     1      -0.004   5.924  12.184  1.00  0.00    -0.003 C 
HETATM    9  C9  UNL     1      -0.391   3.430  11.525  1.00  0.00     0.011 C 
HETATM   10  C5  UNL     1       1.121   6.078  11.108  1.00  0.00     0.030 C 
HETATM   11  C7  UNL     1       0.673   5.612  13.543  1.00  0.00     0.019 C 
HETATM   12  C28 UNL     1      -0.785   7.248  12.254  1.00  0.00     0.129 A 
HETATM   13  C4  UNL     1       2.108   7.232  11.398  1.00  0.00     0.094 C 
HETATM   14  C30 UNL     1       1.486   8.488  12.022  1.00  0.00     0.167 C 
HETATM   15  C29 UNL     1       0.012   8.542  12.160  1.00  0.00     0.230 A 
HETATM   16  O7  UNL     1       2.167   9.420  12.443  1.00  0.00    -0.294 OA
HETATM   17  O6  UNL     1      -0.699   8.031  11.034  1.00  0.00    -0.358 OA
BRANCH  13  18
HETATM   18  C2  UNL     1       2.910   7.591  10.166  1.00  0.00    -0.018 C 
HETATM   19  C1  UNL     1       2.394   7.904   8.963  1.00  0.00     0.022 C 
BRANCH  18  20
HETATM   20  C3  UNL     1       4.394   7.613  10.314  1.00  0.00     0.265 C 
HETATM   21  O1  UNL     1       5.098   6.609  10.275  1.00  0.00    -0.302 OA
ENDBRANCH  18  20
ENDBRANCH  13  18
ENDBRANCH   3   4
ENDBRANCH   1   3
BRANCH   1  22
HETATM   22  C14 UNL     1      -4.100   9.679  14.701  1.00  0.00     0.114 C 
HETATM   23  C15 UNL     1      -2.946  10.626  15.043  1.00  0.00     0.023 C 
BRANCH  22  24
HETATM   24  C16 UNL     1      -4.481   8.736  15.854  1.00  0.00     0.159 C 
BRANCH  24  25
HETATM   25  O4  UNL     1      -3.322   8.028  16.294  1.00  0.00    -0.390 OA
HETATM   26  H24 UNL     1      -3.632   7.315  16.880  1.00  0.00     0.210 HD
ENDBRANCH  24  25
BRANCH  24  27
HETATM   27  C17 UNL     1      -5.527   7.689  15.488  1.00  0.00    -0.058 C 
HETATM   28  C18 UNL     1      -5.109   6.247  15.660  1.00  0.00     0.046 C 
HETATM   29  C19 UNL     1      -6.750   8.068  15.054  1.00  0.00    -0.015 C 
BRANCH  29  30
HETATM   30  C20 UNL     1      -7.878   7.154  14.606  1.00  0.00     0.032 C 
BRANCH  30  31
HETATM   31  C21 UNL     1      -8.829   6.812  15.770  1.00  0.00     0.172 C 
BRANCH  31  32
HETATM   32  O5  UNL     1      -8.574   5.491  16.242  1.00  0.00    -0.400 OA
HETATM   33  H32 UNL     1      -9.139   5.351  17.023  1.00  0.00     0.209 HD
ENDBRANCH  31  32
ENDBRANCH  30  31
BRANCH  30  34
HETATM   34  C22 UNL     1      -7.361   5.894  13.878  1.00  0.00     0.010 C 
BRANCH  34  35
HETATM   35  C23 UNL     1      -8.258   5.245  12.813  1.00  0.00     0.001 C 
BRANCH  35  36
HETATM   36  C24 UNL     1      -7.778   3.875  12.332  1.00  0.00     0.000 C 
BRANCH  36  37
HETATM   37  C25 UNL     1      -6.254   3.704  12.404  1.00  0.00    -0.000 C 
BRANCH  37  38
HETATM   38  C26 UNL     1      -5.623   2.945  11.234  1.00  0.00    -0.005 C 
HETATM   39  C27 UNL     1      -5.770   1.435  11.304  1.00  0.00     0.005 C 
ENDBRANCH  37  38
ENDBRANCH  36  37
ENDBRANCH  35  36
ENDBRANCH  34  35
ENDBRANCH  30  34
ENDBRANCH  29  30
ENDBRANCH  24  27
ENDBRANCH  22  24
ENDBRANCH   1  22
TORSDOF 16
ENDMDL
MODEL 9
REMARK minimizedAffinity -7.16178846
REMARK CNNscore 0.272293836
REMARK CNNaffinity 6.54166603
REMARK  16 active torsions:
REMARK  status: ('A' for Active; 'I' for Inactive)
REMARK    1  A    between atoms: C2_2  and  C3_3 
REMARK    2  A    between atoms: C2_2  and  C4_5 
REMARK    3  A    between atoms: C12_13  and  O2_14 
REMARK    4  A    between atoms: O2_14  and  C13_15 
REMARK    5  A    between atoms: C13_15  and  C14_17 
REMARK    6  A    between atoms: C14_17  and  C16_19 
REMARK    7  A    between atoms: C16_19  and  O4_20 
REMARK    8  A    between atoms: C16_19  and  C17_21 
REMARK    9  A    between atoms: C19_23  and  C20_24 
REMARK   10  A    between atoms: C20_24  and  C21_25 
REMARK   11  A    between atoms: C20_24  and  C22_27 
REMARK   12  A    between atoms: C21_25  and  O5_26 
REMARK   13  A    between atoms: C22_27  and  C23_28 
REMARK   14  A    between atoms: C23_28  and  C24_29 
REMARK   15  A    between atoms: C24_29  and  C25_30 
REMARK   16  A    between atoms: C25_30  and  C26_31 
ROOT
HETATM    1  C13 UNL     1      -8.183   4.029  13.121  1.00  0.00     0.266 C 
HETATM    2  O3  UNL     1      -8.641   2.912  12.915  1.00  0.00    -0.265 OA
ENDROOT
BRANCH   1   3
HETATM    3  O2  UNL     1      -6.904   4.280  13.525  1.00  0.00    -0.312 OA
BRANCH   3   4
HETATM    4  C12 UNL     1      -5.934   4.380  12.466  1.00  0.00     0.170 C 
HETATM    5  C11 UNL     1      -5.616   2.976  11.960  1.00  0.00     0.036 C 
HETATM    6  C10 UNL     1      -4.486   2.947  10.930  1.00  0.00     0.007 C 
HETATM    7  C8  UNL     1      -3.460   4.093  11.070  1.00  0.00    -0.007 C 
HETATM    8  C6  UNL     1      -3.317   4.600  12.542  1.00  0.00    -0.003 C 
HETATM    9  C9  UNL     1      -2.146   3.679  10.400  1.00  0.00     0.011 C 
HETATM   10  C5  UNL     1      -2.317   5.801  12.624  1.00  0.00     0.030 C 
HETATM   11  C7  UNL     1      -2.800   3.481  13.483  1.00  0.00     0.019 C 
HETATM   12  C28 UNL     1      -4.701   5.097  12.995  1.00  0.00     0.129 A 
HETATM   13  C4  UNL     1      -2.195   6.416  14.037  1.00  0.00     0.094 C 
HETATM   14  C30 UNL     1      -3.498   6.464  14.847  1.00  0.00     0.167 C 
HETATM   15  C29 UNL     1      -4.754   6.057  14.175  1.00  0.00     0.230 A 
HETATM   16  O7  UNL     1      -3.524   6.785  16.033  1.00  0.00    -0.294 OA
HETATM   17  O6  UNL     1      -4.877   6.530  12.835  1.00  0.00    -0.358 OA
BRANCH  13  18
HETATM   18  C2  UNL     1      -1.550   7.783  13.986  1.00  0.00    -0.018 C 
HETATM   19  C1  UNL     1      -0.523   8.190  14.754  1.00  0.00     0.022 C 
BRANCH  18  20
HETATM   20  C3  UNL     1      -2.096   8.745  12.985  1.00  0.00     0.265 C 
HETATM   21  O1  UNL     1      -1.552   9.804  12.690  1.00  0.00    -0.302 OA
ENDBRANCH  18  20
ENDBRANCH  13  18
ENDBRANCH   3   4
ENDBRANCH   1   3
BRANCH   1  22
HETATM   22  C14 UNL     1      -8.963   5.310  12.909  1.00  0.00     0.114 C 
HETATM   23  C15 UNL     1      -8.677   5.856  11.507  1.00  0.00     0.023 C 
BRANCH  22  24
HETATM   24  C16 UNL     1      -8.647   6.309  14.034  1.00  0.00     0.159 C 
BRANCH  24  25
HETATM   25  O4  UNL     1      -8.562   5.614  15.278  1.00  0.00    -0.390 OA
HETATM   26  H24 UNL     1      -8.553   6.291  15.978  1.00  0.00     0.210 HD
ENDBRANCH  24  25
BRANCH  24  27
HETATM   27  C17 UNL     1      -9.691   7.407  14.209  1.00  0.00    -0.058 C 
HETATM   28  C18 UNL     1      -9.289   8.566  15.091  1.00  0.00     0.046 C 
HETATM   29  C19 UNL     1     -10.886   7.318  13.584  1.00  0.00    -0.015 C 
BRANCH  29  30
HETATM   30  C20 UNL     1     -12.043   8.297  13.695  1.00  0.00     0.032 C 
BRANCH  30  31
HETATM   31  C21 UNL     1     -11.698   9.660  13.064  1.00  0.00     0.172 C 
BRANCH  31  32
HETATM   32  O5  UNL     1     -11.898   9.615  11.653  1.00  0.00    -0.400 OA
HETATM   33  H32 UNL     1     -11.746  10.514  11.313  1.00  0.00     0.209 HD
ENDBRANCH  31  32
ENDBRANCH  30  31
BRANCH  30  34
HETATM   34  C22 UNL     1     -12.562   8.433  15.144  1.00  0.00     0.010 C 
BRANCH  34  35
HETATM   35  C23 UNL     1     -14.041   8.787  15.361  1.00  0.00     0.001 C 
BRANCH  35  36
HETATM   36  C24 UNL     1     -15.022   7.707  14.906  1.00  0.00     0.000 C 
BRANCH  36  37
HETATM   37  C25 UNL     1     -14.618   6.293  15.348  1.00  0.00    -0.000 C 
BRANCH  37  38
HETATM   38  C26 UNL     1     -15.224   5.150  14.527  1.00  0.00    -0.005 C 
HETATM   39  C27 UNL     1     -16.277   4.335  15.256  1.00  0.00     0.005 C 
ENDBRANCH  37  38
ENDBRANCH  36  37
ENDBRANCH  35  36
ENDBRANCH  34  35
ENDBRANCH  30  34
ENDBRANCH  29  30
ENDBRANCH  24  27
ENDBRANCH  22  24
ENDBRANCH   1  22
TORSDOF 16
ENDMDL
