MODEL 1
REMARK minimizedAffinity -9.22631264
REMARK CNNscore 0.589341581
REMARK CNNaffinity 6.7669692
REMARK  14 active torsions:
REMARK  status: ('A' for Active; 'I' for Inactive)
REMARK    1  A    between atoms: O1_2  and  C2_3 
REMARK    2  A    between atoms: C2_3  and  C3_5 
REMARK    3  A    between atoms: C3_5  and  C4_6 
REMARK    4  A    between atoms: C3_5  and  N2_16 
REMARK    5  A    between atoms: C4_6  and  C5_7 
REMARK       I    between atoms: N2_16  and  C13_17 
REMARK    6  A    between atoms: C13_17  and  C14_19 
REMARK    7  A    between atoms: C14_19  and  C15_20 
REMARK    8  A    between atoms: C15_20  and  C16_21 
REMARK    9  A    between atoms: C16_21  and  O5_23 
REMARK   10  A    between atoms: O5_23  and  C17_24 
REMARK   11  A    between atoms: C17_24  and  C18_25 
REMARK   12  A    between atoms: C18_25  and  C19_27 
REMARK   13  A    between atoms: C19_27  and  O7_28 
REMARK   14  A    between atoms: C34_44  and  O9_45 
ROOT
HETATM    1  C17 UNL     1      -8.650  46.861 -27.469  1.00  0.00     0.260 C 
ENDROOT
BRANCH   1   2
HETATM    2  O5  UNL     1      -7.511  47.571 -26.986  1.00  0.00    -0.314 OA
BRANCH   2   3
HETATM    3  C16 UNL     1      -7.175  47.229 -25.712  1.00  0.00     0.259 C 
HETATM    4  O4  UNL     1      -7.738  46.359 -25.060  1.00  0.00    -0.265 OA
BRANCH   3   5
HETATM    5  C15 UNL     1      -6.115  48.141 -25.144  1.00  0.00     0.120 C 
BRANCH   5   6
HETATM    6  C14 UNL     1      -4.909  48.352 -26.052  1.00  0.00     0.112 C 
BRANCH   6   7
HETATM    7  C13 UNL     1      -3.690  48.823 -25.290  1.00  0.00     0.218 C 
HETATM    8  N2  UNL     1      -2.992  49.804 -25.948  1.00  0.00    -0.347 N 
HETATM    9  H13 UNL     1      -3.241  50.060 -26.896  1.00  0.00     0.163 HD
HETATM   10  O3  UNL     1      -3.377  48.400 -24.186  1.00  0.00    -0.274 OA
BRANCH   8  11
HETATM   11  C3  UNL     1      -1.774  50.424 -25.391  1.00  0.00     0.188 C 
BRANCH  11  12
HETATM   12  C2  UNL     1      -0.783  50.760 -26.526  1.00  0.00     0.281 C 
HETATM   13  O2  UNL     1       0.422  50.536 -26.508  1.00  0.00    -0.263 OA
BRANCH  12  14
HETATM   14  O1  UNL     1      -1.426  51.383 -27.570  1.00  0.00    -0.325 OA
HETATM   15  C1  UNL     1      -1.029  52.746 -27.752  1.00  0.00     0.213 C 
ENDBRANCH  12  14
ENDBRANCH  11  12
BRANCH  11  16
HETATM   16  C4  UNL     1      -2.142  51.699 -24.617  1.00  0.00     0.076 C 
BRANCH  16  17
HETATM   17  C5  UNL     1      -1.027  52.253 -23.786  1.00  0.00    -0.028 A 
HETATM   18  C6  UNL     1       0.002  53.065 -24.228  1.00  0.00     0.096 A 
HETATM   19  N1  UNL     1       0.817  53.346 -23.165  1.00  0.00    -0.365 N 
HETATM   20  C7  UNL     1       0.329  52.760 -22.022  1.00  0.00     0.042 A 
HETATM   21  H8  UNL     1       1.653  53.913 -23.204  1.00  0.00     0.165 HD
HETATM   22  C8  UNL     1       0.821  52.794 -20.712  1.00  0.00     0.030 A 
HETATM   23  C12 UNL     1      -0.828  52.063 -22.380  1.00  0.00    -0.002 A 
HETATM   24  C9  UNL     1       0.110  52.093 -19.735  1.00  0.00     0.002 A 
HETATM   25  C10 UNL     1      -1.048  51.387 -20.058  1.00  0.00     0.001 A 
HETATM   26  C11 UNL     1      -1.527  51.366 -21.373  1.00  0.00     0.014 A 
ENDBRANCH  16  17
ENDBRANCH  11  16
ENDBRANCH   8  11
ENDBRANCH   6   7
ENDBRANCH   5   6
ENDBRANCH   3   5
ENDBRANCH   2   3
ENDBRANCH   1   2
BRANCH   1  27
HETATM   27  C18 UNL     1      -9.332  47.664 -28.558  1.00  0.00     0.185 C 
HETATM   28  O6  UNL     1      -8.704  48.523 -29.184  1.00  0.00    -0.292 OA
BRANCH  27  29
HETATM   29  C19 UNL     1     -10.833  47.393 -28.822  1.00  0.00     0.128 C 
HETATM   30  C20 UNL     1     -11.034  46.378 -29.994  1.00  0.00     0.047 C 
HETATM   31  C21 UNL     1     -12.221  45.474 -29.614  1.00  0.00     0.009 C 
HETATM   32  C22 UNL     1     -12.845  46.180 -28.419  1.00  0.00     0.002 C 
HETATM   33  C23 UNL     1     -13.856  45.411 -27.552  1.00  0.00    -0.002 C 
HETATM   34  C36 UNL     1     -11.622  46.729 -27.639  1.00  0.00     0.001 C 
HETATM   35  C24 UNL     1     -15.001  44.870 -28.425  1.00  0.00     0.010 C 
HETATM   36  C33 UNL     1     -14.405  46.385 -26.463  1.00  0.00     0.031 C 
HETATM   37  C25 UNL     1     -16.093  44.212 -27.598  1.00  0.00     0.035 C 
HETATM   38  C26 UNL     1     -16.620  45.147 -26.538  1.00  0.00    -0.068 C 
HETATM   39  C27 UNL     1     -17.939  45.391 -26.452  1.00  0.00     0.053 C 
HETATM   40  C31 UNL     1     -15.570  45.758 -25.594  1.00  0.00    -0.014 C 
HETATM   41  C28 UNL     1     -18.510  46.179 -25.336  1.00  0.00     0.149 C 
HETATM   42  O8  UNL     1     -19.715  46.420 -25.320  1.00  0.00    -0.293 OA
HETATM   43  C29 UNL     1     -17.590  46.571 -24.210  1.00  0.00     0.084 C 
HETATM   44  C30 UNL     1     -16.211  46.903 -24.757  1.00  0.00     0.022 C 
HETATM   45  C32 UNL     1     -15.107  44.638 -24.638  1.00  0.00     0.020 C 
HETATM   46  C34 UNL     1     -13.257  47.054 -25.652  1.00  0.00     0.124 C 
HETATM   47  C35 UNL     1     -12.168  47.684 -26.550  1.00  0.00     0.045 C 
HETATM   48  C37 UNL     1     -10.755  45.616 -26.995  1.00  0.00     0.019 C 
BRANCH  29  49
HETATM   49  O7  UNL     1     -11.473  48.620 -29.188  1.00  0.00    -0.381 OA
HETATM   50  H20 UNL     1     -11.154  48.869 -30.077  1.00  0.00     0.211 HD
ENDBRANCH  29  49
BRANCH  46  51
HETATM   51  O9  UNL     1     -12.654  46.125 -24.762  1.00  0.00    -0.395 OA
HETATM   52  H41 UNL     1     -12.053  46.620 -24.178  1.00  0.00     0.210 HD
ENDBRANCH  46  51
ENDBRANCH  27  29
ENDBRANCH   1  27
TORSDOF 14
ENDMDL
MODEL 2
REMARK minimizedAffinity -8.82603741
REMARK CNNscore 0.574616432
REMARK CNNaffinity 5.7244916
REMARK  14 active torsions:
REMARK  status: ('A' for Active; 'I' for Inactive)
REMARK    1  A    between atoms: O1_2  and  C2_3 
REMARK    2  A    between atoms: C2_3  and  C3_5 
REMARK    3  A    between atoms: C3_5  and  C4_6 
REMARK    4  A    between atoms: C3_5  and  N2_16 
REMARK    5  A    between atoms: C4_6  and  C5_7 
REMARK       I    between atoms: N2_16  and  C13_17 
REMARK    6  A    between atoms: C13_17  and  C14_19 
REMARK    7  A    between atoms: C14_19  and  C15_20 
REMARK    8  A    between atoms: C15_20  and  C16_21 
REMARK    9  A    between atoms: C16_21  and  O5_23 
REMARK   10  A    between atoms: O5_23  and  C17_24 
REMARK   11  A    between atoms: C17_24  and  C18_25 
REMARK   12  A    between atoms: C18_25  and  C19_27 
REMARK   13  A    between atoms: C19_27  and  O7_28 
REMARK   14  A    between atoms: C34_44  and  O9_45 
ROOT
HETATM    1  C17 UNL     1     -10.270  46.504 -23.441  1.00  0.00     0.260 C 
ENDROOT
BRANCH   1   2
HETATM    2  O5  UNL     1     -10.867  46.645 -22.153  1.00  0.00    -0.314 OA
BRANCH   2   3
HETATM    3  C16 UNL     1     -12.086  46.045 -22.067  1.00  0.00     0.259 C 
HETATM    4  O4  UNL     1     -12.256  44.865 -21.786  1.00  0.00    -0.265 OA
BRANCH   3   5
HETATM    5  C15 UNL     1     -13.201  46.968 -22.492  1.00  0.00     0.120 C 
BRANCH   5   6
HETATM    6  C14 UNL     1     -14.583  46.326 -22.507  1.00  0.00     0.112 C 
BRANCH   6   7
HETATM    7  C13 UNL     1     -15.490  46.938 -23.552  1.00  0.00     0.218 C 
HETATM    8  N2  UNL     1     -16.483  46.086 -23.966  1.00  0.00    -0.347 N 
HETATM    9  H13 UNL     1     -16.487  45.120 -23.661  1.00  0.00     0.163 HD
HETATM   10  O3  UNL     1     -15.374  48.084 -23.962  1.00  0.00    -0.274 OA
BRANCH   8  11
HETATM   11  C3  UNL     1     -17.493  46.470 -24.971  1.00  0.00     0.188 C 
BRANCH  11  12
HETATM   12  C2  UNL     1     -17.651  45.348 -26.020  1.00  0.00     0.281 C 
HETATM   13  O2  UNL     1     -16.842  44.449 -26.226  1.00  0.00    -0.263 OA
BRANCH  12  14
HETATM   14  O1  UNL     1     -18.819  45.498 -26.729  1.00  0.00    -0.325 OA
HETATM   15  C1  UNL     1     -19.321  44.271 -27.268  1.00  0.00     0.213 C 
ENDBRANCH  12  14
ENDBRANCH  11  12
BRANCH  11  16
HETATM   16  C4  UNL     1     -18.840  46.741 -24.283  1.00  0.00     0.076 C 
BRANCH  16  17
HETATM   17  C5  UNL     1     -19.213  45.726 -23.249  1.00  0.00    -0.028 A 
HETATM   18  C6  UNL     1     -19.830  44.509 -23.477  1.00  0.00     0.096 A 
HETATM   19  N1  UNL     1     -20.004  43.881 -22.273  1.00  0.00    -0.365 N 
HETATM   20  C7  UNL     1     -19.487  44.647 -21.257  1.00  0.00     0.042 A 
HETATM   21  H8  UNL     1     -20.440  42.978 -22.143  1.00  0.00     0.165 HD
HETATM   22  C8  UNL     1     -19.428  44.397 -19.881  1.00  0.00     0.030 A 
HETATM   23  C12 UNL     1     -18.985  45.815 -21.836  1.00  0.00    -0.002 A 
HETATM   24  C9  UNL     1     -18.838  45.370 -19.070  1.00  0.00     0.002 A 
HETATM   25  C10 UNL     1     -18.327  46.546 -19.616  1.00  0.00     0.001 A 
HETATM   26  C11 UNL     1     -18.393  46.779 -20.995  1.00  0.00     0.014 A 
ENDBRANCH  16  17
ENDBRANCH  11  16
ENDBRANCH   8  11
ENDBRANCH   6   7
ENDBRANCH   5   6
ENDBRANCH   3   5
ENDBRANCH   2   3
ENDBRANCH   1   2
BRANCH   1  27
HETATM   27  C18 UNL     1      -9.263  47.615 -23.665  1.00  0.00     0.185 C 
HETATM   28  O6  UNL     1      -9.416  48.415 -24.592  1.00  0.00    -0.292 OA
BRANCH  27  29
HETATM   29  C19 UNL     1      -8.037  47.679 -22.722  1.00  0.00     0.128 C 
HETATM   30  C20 UNL     1      -7.600  46.251 -22.257  1.00  0.00     0.047 C 
HETATM   31  C21 UNL     1      -6.061  46.239 -22.214  1.00  0.00     0.009 C 
HETATM   32  C22 UNL     1      -5.683  47.708 -22.347  1.00  0.00     0.002 C 
HETATM   33  C23 UNL     1      -4.226  48.069 -22.679  1.00  0.00    -0.002 C 
HETATM   34  C36 UNL     1      -6.724  48.264 -23.353  1.00  0.00     0.001 C 
HETATM   35  C24 UNL     1      -3.274  47.433 -21.652  1.00  0.00     0.010 C 
HETATM   36  C33 UNL     1      -4.093  49.624 -22.666  1.00  0.00     0.031 C 
HETATM   37  C25 UNL     1      -1.832  47.864 -21.860  1.00  0.00     0.035 C 
HETATM   38  C26 UNL     1      -1.701  49.367 -21.857  1.00  0.00    -0.068 C 
HETATM   39  C27 UNL     1      -0.823  49.964 -21.033  1.00  0.00     0.053 C 
HETATM   40  C31 UNL     1      -2.603  50.126 -22.846  1.00  0.00    -0.014 C 
HETATM   41  C28 UNL     1      -0.557  51.419 -21.106  1.00  0.00     0.149 C 
HETATM   42  O8  UNL     1       0.217  51.934 -20.301  1.00  0.00    -0.293 OA
HETATM   43  C29 UNL     1      -1.181  52.191 -22.238  1.00  0.00     0.084 C 
HETATM   44  C30 UNL     1      -2.572  51.650 -22.532  1.00  0.00     0.022 C 
HETATM   45  C32 UNL     1      -2.029  49.895 -24.260  1.00  0.00     0.020 C 
HETATM   46  C34 UNL     1      -5.141  50.303 -23.596  1.00  0.00     0.124 C 
HETATM   47  C35 UNL     1      -6.583  49.804 -23.350  1.00  0.00     0.045 C 
HETATM   48  C37 UNL     1      -6.545  47.709 -24.790  1.00  0.00     0.019 C 
BRANCH  29  49
HETATM   49  O7  UNL     1      -8.380  48.435 -21.557  1.00  0.00    -0.381 OA
HETATM   50  H20 UNL     1      -9.011  47.905 -21.032  1.00  0.00     0.211 HD
ENDBRANCH  29  49
BRANCH  46  51
HETATM   51  O9  UNL     1      -4.805  50.115 -24.964  1.00  0.00    -0.395 OA
HETATM   52  H41 UNL     1      -5.395  50.676 -25.495  1.00  0.00     0.210 HD
ENDBRANCH  46  51
ENDBRANCH  27  29
ENDBRANCH   1  27
TORSDOF 14
ENDMDL
MODEL 3
REMARK minimizedAffinity -9.1461792
REMARK CNNscore 0.530396879
REMARK CNNaffinity 7.26558161
REMARK  14 active torsions:
REMARK  status: ('A' for Active; 'I' for Inactive)
REMARK    1  A    between atoms: O1_2  and  C2_3 
REMARK    2  A    between atoms: C2_3  and  C3_5 
REMARK    3  A    between atoms: C3_5  and  C4_6 
REMARK    4  A    between atoms: C3_5  and  N2_16 
REMARK    5  A    between atoms: C4_6  and  C5_7 
REMARK       I    between atoms: N2_16  and  C13_17 
REMARK    6  A    between atoms: C13_17  and  C14_19 
REMARK    7  A    between atoms: C14_19  and  C15_20 
REMARK    8  A    between atoms: C15_20  and  C16_21 
REMARK    9  A    between atoms: C16_21  and  O5_23 
REMARK   10  A    between atoms: O5_23  and  C17_24 
REMARK   11  A    between atoms: C17_24  and  C18_25 
REMARK   12  A    between atoms: C18_25  and  C19_27 
REMARK   13  A    between atoms: C19_27  and  O7_28 
REMARK   14  A    between atoms: C34_44  and  O9_45 
ROOT
HETATM    1  C17 UNL     1      -2.899  49.218 -21.955  1.00  0.00     0.260 C 
ENDROOT
BRANCH   1   2
HETATM    2  O5  UNL     1      -3.564  49.410 -23.202  1.00  0.00    -0.314 OA
BRANCH   2   3
HETATM    3  C16 UNL     1      -2.703  49.483 -24.255  1.00  0.00     0.259 C 
HETATM    4  O4  UNL     1      -1.719  50.210 -24.293  1.00  0.00    -0.265 OA
BRANCH   3   5
HETATM    5  C15 UNL     1      -3.178  48.663 -25.429  1.00  0.00     0.120 C 
BRANCH   5   6
HETATM    6  C14 UNL     1      -4.693  48.558 -25.556  1.00  0.00     0.112 C 
BRANCH   6   7
HETATM    7  C13 UNL     1      -5.127  48.131 -26.941  1.00  0.00     0.218 C 
HETATM    8  N2  UNL     1      -6.410  47.647 -26.976  1.00  0.00    -0.347 N 
HETATM    9  H13 UNL     1      -6.924  47.499 -26.116  1.00  0.00     0.163 HD
HETATM   10  O3  UNL     1      -4.421  48.237 -27.934  1.00  0.00    -0.274 OA
BRANCH   8  11
HETATM   11  C3  UNL     1      -7.051  47.182 -28.222  1.00  0.00     0.188 C 
BRANCH  11  12
HETATM   12  C2  UNL     1      -8.095  46.089 -27.905  1.00  0.00     0.281 C 
HETATM   13  O2  UNL     1      -8.542  45.278 -28.710  1.00  0.00    -0.263 OA
BRANCH  12  14
HETATM   14  O1  UNL     1      -8.492  46.155 -26.591  1.00  0.00    -0.325 OA
HETATM   15  C1  UNL     1      -8.217  44.961 -25.852  1.00  0.00     0.213 C 
ENDBRANCH  12  14
ENDBRANCH  11  12
BRANCH  11  16
HETATM   16  C4  UNL     1      -7.726  48.364 -28.937  1.00  0.00     0.076 C 
BRANCH  16  17
HETATM   17  C5  UNL     1      -7.792  48.220 -30.425  1.00  0.00    -0.028 A 
HETATM   18  C6  UNL     1      -8.905  48.419 -31.221  1.00  0.00     0.096 A 
HETATM   19  N1  UNL     1      -8.553  48.180 -32.523  1.00  0.00    -0.365 N 
HETATM   20  C7  UNL     1      -7.220  47.858 -32.604  1.00  0.00     0.042 A 
HETATM   21  H8  UNL     1      -9.176  48.242 -33.316  1.00  0.00     0.165 HD
HETATM   22  C8  UNL     1      -6.434  47.557 -33.722  1.00  0.00     0.030 A 
HETATM   23  C12 UNL     1      -6.714  47.871 -31.302  1.00  0.00    -0.002 A 
HETATM   24  C9  UNL     1      -5.086  47.259 -33.505  1.00  0.00     0.002 A 
HETATM   25  C10 UNL     1      -4.548  47.264 -32.218  1.00  0.00     0.001 A 
HETATM   26  C11 UNL     1      -5.349  47.569 -31.112  1.00  0.00     0.014 A 
ENDBRANCH  16  17
ENDBRANCH  11  16
ENDBRANCH   8  11
ENDBRANCH   6   7
ENDBRANCH   5   6
ENDBRANCH   3   5
ENDBRANCH   2   3
ENDBRANCH   1   2
BRANCH   1  27
HETATM   27  C18 UNL     1      -2.614  50.561 -21.312  1.00  0.00     0.185 C 
HETATM   28  O6  UNL     1      -3.475  51.446 -21.314  1.00  0.00    -0.292 OA
BRANCH  27  29
HETATM   29  C19 UNL     1      -1.211  50.785 -20.699  1.00  0.00     0.128 C 
HETATM   30  C20 UNL     1      -0.602  52.153 -21.150  1.00  0.00     0.047 C 
HETATM   31  C21 UNL     1       0.148  52.737 -19.940  1.00  0.00     0.009 C 
HETATM   32  C22 UNL     1       0.212  51.576 -18.958  1.00  0.00     0.002 C 
HETATM   33  C23 UNL     1       0.595  51.864 -17.497  1.00  0.00    -0.002 C 
HETATM   34  C36 UNL     1      -1.159  50.873 -19.133  1.00  0.00     0.001 C 
HETATM   35  C24 UNL     1       1.942  52.601 -17.436  1.00  0.00     0.010 C 
HETATM   36  C33 UNL     1       0.675  50.504 -16.736  1.00  0.00     0.031 C 
HETATM   37  C25 UNL     1       2.428  52.796 -16.009  1.00  0.00     0.035 C 
HETATM   38  C26 UNL     1       2.498  51.485 -15.267  1.00  0.00    -0.068 C 
HETATM   39  C27 UNL     1       3.638  51.117 -14.658  1.00  0.00     0.053 C 
HETATM   40  C31 UNL     1       1.207  50.647 -15.252  1.00  0.00    -0.014 C 
HETATM   41  C28 UNL     1       3.703  49.914 -13.795  1.00  0.00     0.149 C 
HETATM   42  O8  UNL     1       4.776  49.586 -13.295  1.00  0.00    -0.293 OA
HETATM   43  C29 UNL     1       2.414  49.198 -13.492  1.00  0.00     0.084 C 
HETATM   44  C30 UNL     1       1.507  49.219 -14.712  1.00  0.00     0.022 C 
HETATM   45  C32 UNL     1       0.219  51.347 -14.295  1.00  0.00     0.020 C 
HETATM   46  C34 UNL     1      -0.632  49.673 -16.895  1.00  0.00     0.124 C 
HETATM   47  C35 UNL     1      -1.085  49.531 -18.367  1.00  0.00     0.045 C 
HETATM   48  C37 UNL     1      -2.352  51.721 -18.620  1.00  0.00     0.019 C 
BRANCH  29  49
HETATM   49  O7  UNL     1      -0.334  49.745 -21.143  1.00  0.00    -0.381 OA
HETATM   50  H20 UNL     1      -0.164  49.885 -22.095  1.00  0.00     0.211 HD
ENDBRANCH  29  49
BRANCH  46  51
HETATM   51  O9  UNL     1      -1.690  50.234 -16.130  1.00  0.00    -0.395 OA
HETATM   52  H41 UNL     1      -2.432  49.605 -16.141  1.00  0.00     0.210 HD
ENDBRANCH  46  51
ENDBRANCH  27  29
ENDBRANCH   1  27
TORSDOF 14
ENDMDL
MODEL 4
REMARK minimizedAffinity -9.56363201
REMARK CNNscore 0.418037504
REMARK CNNaffinity 7.05409765
REMARK  14 active torsions:
REMARK  status: ('A' for Active; 'I' for Inactive)
REMARK    1  A    between atoms: O1_2  and  C2_3 
REMARK    2  A    between atoms: C2_3  and  C3_5 
REMARK    3  A    between atoms: C3_5  and  C4_6 
REMARK    4  A    between atoms: C3_5  and  N2_16 
REMARK    5  A    between atoms: C4_6  and  C5_7 
REMARK       I    between atoms: N2_16  and  C13_17 
REMARK    6  A    between atoms: C13_17  and  C14_19 
REMARK    7  A    between atoms: C14_19  and  C15_20 
REMARK    8  A    between atoms: C15_20  and  C16_21 
REMARK    9  A    between atoms: C16_21  and  O5_23 
REMARK   10  A    between atoms: O5_23  and  C17_24 
REMARK   11  A    between atoms: C17_24  and  C18_25 
REMARK   12  A    between atoms: C18_25  and  C19_27 
REMARK   13  A    between atoms: C19_27  and  O7_28 
REMARK   14  A    between atoms: C34_44  and  O9_45 
ROOT
HETATM    1  C17 UNL     1      -5.479  48.524 -30.010  1.00  0.00     0.260 C 
ENDROOT
BRANCH   1   2
HETATM    2  O5  UNL     1      -4.479  47.913 -29.197  1.00  0.00    -0.314 OA
BRANCH   2   3
HETATM    3  C16 UNL     1      -4.659  48.151 -27.868  1.00  0.00     0.259 C 
HETATM    4  O4  UNL     1      -5.722  48.004 -27.279  1.00  0.00    -0.265 OA
BRANCH   3   5
HETATM    5  C15 UNL     1      -3.430  48.752 -27.231  1.00  0.00     0.120 C 
BRANCH   5   6
HETATM    6  C14 UNL     1      -3.230  48.379 -25.767  1.00  0.00     0.112 C 
BRANCH   6   7
HETATM    7  C13 UNL     1      -3.488  49.543 -24.836  1.00  0.00     0.218 C 
HETATM    8  N2  UNL     1      -2.343  50.212 -24.484  1.00  0.00    -0.347 N 
HETATM    9  H13 UNL     1      -1.436  49.847 -24.749  1.00  0.00     0.163 HD
HETATM   10  O3  UNL     1      -4.603  49.877 -24.462  1.00  0.00    -0.274 OA
BRANCH   8  11
HETATM   11  C3  UNL     1      -2.351  51.389 -23.593  1.00  0.00     0.188 C 
BRANCH  11  12
HETATM   12  C2  UNL     1      -1.269  51.236 -22.502  1.00  0.00     0.281 C 
HETATM   13  O2  UNL     1      -0.868  50.172 -22.044  1.00  0.00    -0.263 OA
BRANCH  12  14
HETATM   14  O1  UNL     1      -0.823  52.465 -22.077  1.00  0.00    -0.325 OA
HETATM   15  C1  UNL     1       0.123  52.388 -21.005  1.00  0.00     0.213 C 
ENDBRANCH  12  14
ENDBRANCH  11  12
BRANCH  11  16
HETATM   16  C4  UNL     1      -2.099  52.666 -24.410  1.00  0.00     0.076 C 
BRANCH  16  17
HETATM   17  C5  UNL     1      -1.574  52.415 -25.790  1.00  0.00    -0.028 A 
HETATM   18  C6  UNL     1      -2.308  52.424 -26.962  1.00  0.00     0.096 A 
HETATM   19  N1  UNL     1      -1.464  52.141 -28.002  1.00  0.00    -0.365 N 
HETATM   20  C7  UNL     1      -0.180  51.976 -27.541  1.00  0.00     0.042 A 
HETATM   21  H8  UNL     1      -1.736  52.074 -28.973  1.00  0.00     0.165 HD
HETATM   22  C8  UNL     1       0.999  51.697 -28.242  1.00  0.00     0.030 A 
HETATM   23  C12 UNL     1      -0.216  52.138 -26.154  1.00  0.00    -0.002 A 
HETATM   24  C9  UNL     1       2.179  51.579 -27.504  1.00  0.00     0.002 A 
HETATM   25  C10 UNL     1       2.178  51.735 -26.119  1.00  0.00     0.001 A 
HETATM   26  C11 UNL     1       0.990  52.016 -25.434  1.00  0.00     0.014 A 
ENDBRANCH  16  17
ENDBRANCH  11  16
ENDBRANCH   8  11
ENDBRANCH   6   7
ENDBRANCH   5   6
ENDBRANCH   3   5
ENDBRANCH   2   3
ENDBRANCH   1   2
BRANCH   1  27
HETATM   27  C18 UNL     1      -6.563  47.515 -30.335  1.00  0.00     0.185 C 
HETATM   28  O6  UNL     1      -6.281  46.468 -30.925  1.00  0.00    -0.292 OA
BRANCH  27  29
HETATM   29  C19 UNL     1      -8.017  47.865 -29.937  1.00  0.00     0.128 C 
HETATM   30  C20 UNL     1      -8.864  48.287 -31.182  1.00  0.00     0.047 C 
HETATM   31  C21 UNL     1     -10.276  47.705 -30.989  1.00  0.00     0.009 C 
HETATM   32  C22 UNL     1     -10.285  47.250 -29.536  1.00  0.00     0.002 C 
HETATM   33  C23 UNL     1     -11.410  46.316 -29.061  1.00  0.00    -0.002 C 
HETATM   34  C36 UNL     1      -8.855  46.691 -29.319  1.00  0.00     0.001 C 
HETATM   35  C24 UNL     1     -12.782  46.940 -29.363  1.00  0.00     0.010 C 
HETATM   36  C33 UNL     1     -11.235  46.081 -27.528  1.00  0.00     0.031 C 
HETATM   37  C25 UNL     1     -13.927  46.115 -28.798  1.00  0.00     0.035 C 
HETATM   38  C26 UNL     1     -13.757  45.879 -27.318  1.00  0.00    -0.068 C 
HETATM   39  C27 UNL     1     -14.748  46.197 -26.468  1.00  0.00     0.053 C 
HETATM   40  C31 UNL     1     -12.420  45.253 -26.883  1.00  0.00    -0.014 C 
HETATM   41  C28 UNL     1     -14.681  45.843 -25.032  1.00  0.00     0.149 C 
HETATM   42  O8  UNL     1     -15.587  46.195 -24.279  1.00  0.00    -0.293 OA
HETATM   43  C29 UNL     1     -13.540  44.974 -24.576  1.00  0.00     0.084 C 
HETATM   44  C30 UNL     1     -12.273  45.337 -25.336  1.00  0.00     0.022 C 
HETATM   45  C32 UNL     1     -12.450  43.769 -27.304  1.00  0.00     0.020 C 
HETATM   46  C34 UNL     1      -9.804  45.578 -27.178  1.00  0.00     0.124 C 
HETATM   47  C35 UNL     1      -8.687  46.446 -27.801  1.00  0.00     0.045 C 
HETATM   48  C37 UNL     1      -8.581  45.385 -30.110  1.00  0.00     0.019 C 
BRANCH  29  49
HETATM   49  O7  UNL     1      -8.001  48.966 -29.023  1.00  0.00    -0.381 OA
HETATM   50  H20 UNL     1      -7.730  49.763 -29.520  1.00  0.00     0.211 HD
ENDBRANCH  29  49
BRANCH  46  51
HETATM   51  O9  UNL     1      -9.628  44.226 -27.578  1.00  0.00    -0.395 OA
HETATM   52  H41 UNL     1      -8.785  43.913 -27.208  1.00  0.00     0.210 HD
ENDBRANCH  46  51
ENDBRANCH  27  29
ENDBRANCH   1  27
TORSDOF 14
ENDMDL
MODEL 5
REMARK minimizedAffinity -9.59698486
REMARK CNNscore 0.391068459
REMARK CNNaffinity 6.46169519
REMARK  14 active torsions:
REMARK  status: ('A' for Active; 'I' for Inactive)
REMARK    1  A    between atoms: O1_2  and  C2_3 
REMARK    2  A    between atoms: C2_3  and  C3_5 
REMARK    3  A    between atoms: C3_5  and  C4_6 
REMARK    4  A    between atoms: C3_5  and  N2_16 
REMARK    5  A    between atoms: C4_6  and  C5_7 
REMARK       I    between atoms: N2_16  and  C13_17 
REMARK    6  A    between atoms: C13_17  and  C14_19 
REMARK    7  A    between atoms: C14_19  and  C15_20 
REMARK    8  A    between atoms: C15_20  and  C16_21 
REMARK    9  A    between atoms: C16_21  and  O5_23 
REMARK   10  A    between atoms: O5_23  and  C17_24 
REMARK   11  A    between atoms: C17_24  and  C18_25 
REMARK   12  A    between atoms: C18_25  and  C19_27 
REMARK   13  A    between atoms: C19_27  and  O7_28 
REMARK   14  A    between atoms: C34_44  and  O9_45 
ROOT
HETATM    1  C17 UNL     1      -8.322  47.360 -29.314  1.00  0.00     0.260 C 
ENDROOT
BRANCH   1   2
HETATM    2  O5  UNL     1      -6.986  47.187 -28.846  1.00  0.00    -0.314 OA
BRANCH   2   3
HETATM    3  C16 UNL     1      -6.107  48.051 -29.425  1.00  0.00     0.259 C 
HETATM    4  O4  UNL     1      -6.206  48.472 -30.571  1.00  0.00    -0.265 OA
BRANCH   3   5
HETATM    5  C15 UNL     1      -4.918  48.327 -28.537  1.00  0.00     0.120 C 
BRANCH   5   6
HETATM    6  C14 UNL     1      -5.159  48.056 -27.056  1.00  0.00     0.112 C 
BRANCH   6   7
HETATM    7  C13 UNL     1      -4.196  48.814 -26.169  1.00  0.00     0.218 C 
HETATM    8  N2  UNL     1      -3.800  50.012 -26.708  1.00  0.00    -0.347 N 
HETATM    9  H13 UNL     1      -4.058  50.256 -27.656  1.00  0.00     0.163 HD
HETATM   10  O3  UNL     1      -3.834  48.419 -25.069  1.00  0.00    -0.274 OA
BRANCH   8  11
HETATM   11  C3  UNL     1      -2.872  50.927 -26.015  1.00  0.00     0.188 C 
BRANCH  11  12
HETATM   12  C2  UNL     1      -2.182  51.856 -27.038  1.00  0.00     0.281 C 
HETATM   13  O2  UNL     1      -2.517  53.009 -27.291  1.00  0.00    -0.263 OA
BRANCH  12  14
HETATM   14  O1  UNL     1      -1.144  51.210 -27.666  1.00  0.00    -0.325 OA
HETATM   15  C1  UNL     1      -0.120  50.770 -26.767  1.00  0.00     0.213 C 
ENDBRANCH  12  14
ENDBRANCH  11  12
BRANCH  11  16
HETATM   16  C4  UNL     1      -3.637  51.762 -24.977  1.00  0.00     0.076 C 
BRANCH  16  17
HETATM   17  C5  UNL     1      -3.127  51.613 -23.578  1.00  0.00    -0.028 A 
HETATM   18  C6  UNL     1      -3.808  51.057 -22.510  1.00  0.00     0.096 A 
HETATM   19  N1  UNL     1      -3.001  51.116 -21.406  1.00  0.00    -0.365 N 
HETATM   20  C7  UNL     1      -1.788  51.674 -21.731  1.00  0.00     0.042 A 
HETATM   21  H8  UNL     1      -3.249  50.787 -20.483  1.00  0.00     0.165 HD
HETATM   22  C8  UNL     1      -0.664  51.913 -20.933  1.00  0.00     0.030 A 
HETATM   23  C12 UNL     1      -1.837  52.001 -23.089  1.00  0.00    -0.002 A 
HETATM   24  C9  UNL     1       0.447  52.505 -21.539  1.00  0.00     0.002 A 
HETATM   25  C10 UNL     1       0.432  52.844 -22.891  1.00  0.00     0.001 A 
HETATM   26  C11 UNL     1      -0.701  52.596 -23.676  1.00  0.00     0.014 A 
ENDBRANCH  16  17
ENDBRANCH  11  16
ENDBRANCH   8  11
ENDBRANCH   6   7
ENDBRANCH   5   6
ENDBRANCH   3   5
ENDBRANCH   2   3
ENDBRANCH   1   2
BRANCH   1  27
HETATM   27  C18 UNL     1      -9.281  47.357 -28.139  1.00  0.00     0.185 C 
HETATM   28  O6  UNL     1      -8.850  47.428 -26.985  1.00  0.00    -0.292 OA
BRANCH  27  29
HETATM   29  C19 UNL     1     -10.793  47.224 -28.443  1.00  0.00     0.128 C 
HETATM   30  C20 UNL     1     -11.046  46.334 -29.704  1.00  0.00     0.047 C 
HETATM   31  C21 UNL     1     -12.303  45.492 -29.420  1.00  0.00     0.009 C 
HETATM   32  C22 UNL     1     -12.896  46.134 -28.173  1.00  0.00     0.002 C 
HETATM   33  C23 UNL     1     -13.976  45.369 -27.390  1.00  0.00    -0.002 C 
HETATM   34  C36 UNL     1     -11.650  46.519 -27.333  1.00  0.00     0.001 C 
HETATM   35  C24 UNL     1     -15.141  44.994 -28.320  1.00  0.00     0.010 C 
HETATM   36  C33 UNL     1     -14.471  46.280 -26.224  1.00  0.00     0.031 C 
HETATM   37  C25 UNL     1     -16.293  44.349 -27.569  1.00  0.00     0.035 C 
HETATM   38  C26 UNL     1     -16.769  45.223 -26.435  1.00  0.00    -0.068 C 
HETATM   39  C27 UNL     1     -18.068  45.556 -26.341  1.00  0.00     0.053 C 
HETATM   40  C31 UNL     1     -15.694  45.668 -25.427  1.00  0.00    -0.014 C 
HETATM   41  C28 UNL     1     -18.599  46.283 -25.166  1.00  0.00     0.149 C 
HETATM   42  O8  UNL     1     -19.783  46.611 -25.142  1.00  0.00    -0.293 OA
HETATM   43  C29 UNL     1     -17.673  46.503 -23.999  1.00  0.00     0.084 C 
HETATM   44  C30 UNL     1     -16.263  46.779 -24.499  1.00  0.00     0.022 C 
HETATM   45  C32 UNL     1     -15.332  44.436 -24.571  1.00  0.00     0.020 C 
HETATM   46  C34 UNL     1     -13.291  46.787 -25.343  1.00  0.00     0.124 C 
HETATM   47  C35 UNL     1     -12.143  47.411 -26.169  1.00  0.00     0.045 C 
HETATM   48  C37 UNL     1     -10.878  45.291 -26.782  1.00  0.00     0.019 C 
BRANCH  29  49
HETATM   49  O7  UNL     1     -11.334  48.523 -28.705  1.00  0.00    -0.381 OA
HETATM   50  H20 UNL     1     -10.981  48.825 -29.564  1.00  0.00     0.211 HD
ENDBRANCH  29  49
BRANCH  46  51
HETATM   51  O9  UNL     1     -12.774  45.740 -24.534  1.00  0.00    -0.395 OA
HETATM   52  H41 UNL     1     -12.149  46.135 -23.901  1.00  0.00     0.210 HD
ENDBRANCH  46  51
ENDBRANCH  27  29
ENDBRANCH   1  27
TORSDOF 14
ENDMDL
MODEL 6
REMARK minimizedAffinity -9.216609
REMARK CNNscore 0.37255165
REMARK CNNaffinity 6.52545214
REMARK  14 active torsions:
REMARK  status: ('A' for Active; 'I' for Inactive)
REMARK    1  A    between atoms: O1_2  and  C2_3 
REMARK    2  A    between atoms: C2_3  and  C3_5 
REMARK    3  A    between atoms: C3_5  and  C4_6 
REMARK    4  A    between atoms: C3_5  and  N2_16 
REMARK    5  A    between atoms: C4_6  and  C5_7 
REMARK       I    between atoms: N2_16  and  C13_17 
REMARK    6  A    between atoms: C13_17  and  C14_19 
REMARK    7  A    between atoms: C14_19  and  C15_20 
REMARK    8  A    between atoms: C15_20  and  C16_21 
REMARK    9  A    between atoms: C16_21  and  O5_23 
REMARK   10  A    between atoms: O5_23  and  C17_24 
REMARK   11  A    between atoms: C17_24  and  C18_25 
REMARK   12  A    between atoms: C18_25  and  C19_27 
REMARK   13  A    between atoms: C19_27  and  O7_28 
REMARK   14  A    between atoms: C34_44  and  O9_45 
ROOT
HETATM    1  C17 UNL     1      -2.510  49.786 -17.060  1.00  0.00     0.260 C 
ENDROOT
BRANCH   1   2
HETATM    2  O5  UNL     1      -3.039  50.938 -16.407  1.00  0.00    -0.314 OA
BRANCH   2   3
HETATM    3  C16 UNL     1      -2.649  51.035 -15.106  1.00  0.00     0.259 C 
HETATM    4  O4  UNL     1      -3.399  51.315 -14.179  1.00  0.00    -0.265 OA
BRANCH   3   5
HETATM    5  C15 UNL     1      -1.155  50.891 -14.953  1.00  0.00     0.120 C 
BRANCH   5   6
HETATM    6  C14 UNL     1      -0.668  50.846 -13.509  1.00  0.00     0.112 C 
BRANCH   6   7
HETATM    7  C13 UNL     1      -0.169  52.190 -13.028  1.00  0.00     0.218 C 
HETATM    8  N2  UNL     1      -0.566  52.482 -11.747  1.00  0.00    -0.347 N 
HETATM    9  H13 UNL     1      -1.224  51.881 -11.266  1.00  0.00     0.163 HD
HETATM   10  O3  UNL     1       0.542  52.927 -13.696  1.00  0.00    -0.274 OA
BRANCH   8  11
HETATM   11  C3  UNL     1      -0.188  53.735 -11.063  1.00  0.00     0.188 C 
BRANCH  11  12
HETATM   12  C2  UNL     1      -1.443  54.420 -10.481  1.00  0.00     0.281 C 
HETATM   13  O2  UNL     1      -1.531  55.605 -10.180  1.00  0.00    -0.263 OA
BRANCH  12  14
HETATM   14  O1  UNL     1      -2.462  53.513 -10.310  1.00  0.00    -0.325 OA
HETATM   15  C1  UNL     1      -3.761  54.062 -10.559  1.00  0.00     0.213 C 
ENDBRANCH  12  14
ENDBRANCH  11  12
BRANCH  11  16
HETATM   16  C4  UNL     1       0.819  53.436  -9.941  1.00  0.00     0.076 C 
BRANCH  16  17
HETATM   17  C5  UNL     1       1.934  54.429  -9.841  1.00  0.00    -0.028 A 
HETATM   18  C6  UNL     1       3.036  54.512 -10.672  1.00  0.00     0.096 A 
HETATM   19  N1  UNL     1       3.824  55.547 -10.242  1.00  0.00    -0.365 N 
HETATM   20  C7  UNL     1       3.247  56.167  -9.160  1.00  0.00     0.042 A 
HETATM   21  H8  UNL     1       4.699  55.828 -10.662  1.00  0.00     0.165 HD
HETATM   22  C8  UNL     1       3.684  57.268  -8.415  1.00  0.00     0.030 A 
HETATM   23  C12 UNL     1       2.059  55.485  -8.881  1.00  0.00    -0.002 A 
HETATM   24  C9  UNL     1       2.883  57.687  -7.349  1.00  0.00     0.002 A 
HETATM   25  C10 UNL     1       1.692  57.030  -7.044  1.00  0.00     0.001 A 
HETATM   26  C11 UNL     1       1.269  55.931  -7.802  1.00  0.00     0.014 A 
ENDBRANCH  16  17
ENDBRANCH  11  16
ENDBRANCH   8  11
ENDBRANCH   6   7
ENDBRANCH   5   6
ENDBRANCH   3   5
ENDBRANCH   2   3
ENDBRANCH   1   2
BRANCH   1  27
HETATM   27  C18 UNL     1      -2.956  49.766 -18.508  1.00  0.00     0.185 C 
HETATM   28  O6  UNL     1      -3.744  48.901 -18.904  1.00  0.00    -0.292 OA
BRANCH  27  29
HETATM   29  C19 UNL     1      -2.364  50.832 -19.461  1.00  0.00     0.128 C 
HETATM   30  C20 UNL     1      -0.926  51.258 -19.017  1.00  0.00     0.047 C 
HETATM   31  C21 UNL     1      -0.097  51.459 -20.298  1.00  0.00     0.009 C 
HETATM   32  C22 UNL     1      -1.137  51.450 -21.410  1.00  0.00     0.002 C 
HETATM   33  C23 UNL     1      -0.664  51.291 -22.864  1.00  0.00    -0.002 C 
HETATM   34  C36 UNL     1      -2.155  50.374 -20.948  1.00  0.00     0.001 C 
HETATM   35  C24 UNL     1       0.373  52.373 -23.206  1.00  0.00     0.010 C 
HETATM   36  C33 UNL     1      -1.909  51.406 -23.797  1.00  0.00     0.031 C 
HETATM   37  C25 UNL     1       0.778  52.340 -24.670  1.00  0.00     0.035 C 
HETATM   38  C26 UNL     1      -0.423  52.441 -25.576  1.00  0.00    -0.068 C 
HETATM   39  C27 UNL     1      -0.467  53.385 -26.532  1.00  0.00     0.053 C 
HETATM   40  C31 UNL     1      -1.539  51.409 -25.337  1.00  0.00    -0.014 C 
HETATM   41  C28 UNL     1      -1.556  53.422 -27.536  1.00  0.00     0.149 C 
HETATM   42  O8  UNL     1      -1.585  54.330 -28.364  1.00  0.00    -0.293 OA
HETATM   43  C29 UNL     1      -2.534  52.277 -27.553  1.00  0.00     0.084 C 
HETATM   44  C30 UNL     1      -2.815  51.811 -26.133  1.00  0.00     0.022 C 
HETATM   45  C32 UNL     1      -1.028  50.051 -25.862  1.00  0.00     0.020 C 
HETATM   46  C34 UNL     1      -3.035  50.412 -23.387  1.00  0.00     0.124 C 
HETATM   47  C35 UNL     1      -3.384  50.479 -21.882  1.00  0.00     0.045 C 
HETATM   48  C37 UNL     1      -1.580  48.935 -20.973  1.00  0.00     0.019 C 
BRANCH  29  49
HETATM   49  O7  UNL     1      -3.195  51.996 -19.437  1.00  0.00    -0.381 OA
HETATM   50  H20 UNL     1      -3.086  52.422 -18.564  1.00  0.00     0.211 HD
ENDBRANCH  29  49
BRANCH  46  51
HETATM   51  O9  UNL     1      -2.687  49.078 -23.730  1.00  0.00    -0.395 OA
HETATM   52  H41 UNL     1      -3.473  48.521 -23.594  1.00  0.00     0.210 HD
ENDBRANCH  46  51
ENDBRANCH  27  29
ENDBRANCH   1  27
TORSDOF 14
ENDMDL
MODEL 7
REMARK minimizedAffinity -9.5394783
REMARK CNNscore 0.336303413
REMARK CNNaffinity 7.025249
REMARK  14 active torsions:
REMARK  status: ('A' for Active; 'I' for Inactive)
REMARK    1  A    between atoms: O1_2  and  C2_3 
REMARK    2  A    between atoms: C2_3  and  C3_5 
REMARK    3  A    between atoms: C3_5  and  C4_6 
REMARK    4  A    between atoms: C3_5  and  N2_16 
REMARK    5  A    between atoms: C4_6  and  C5_7 
REMARK       I    between atoms: N2_16  and  C13_17 
REMARK    6  A    between atoms: C13_17  and  C14_19 
REMARK    7  A    between atoms: C14_19  and  C15_20 
REMARK    8  A    between atoms: C15_20  and  C16_21 
REMARK    9  A    between atoms: C16_21  and  O5_23 
REMARK   10  A    between atoms: O5_23  and  C17_24 
REMARK   11  A    between atoms: C17_24  and  C18_25 
REMARK   12  A    between atoms: C18_25  and  C19_27 
REMARK   13  A    between atoms: C19_27  and  O7_28 
REMARK   14  A    between atoms: C34_44  and  O9_45 
ROOT
HETATM    1  C17 UNL     1      -2.822  50.932 -22.874  1.00  0.00     0.260 C 
ENDROOT
BRANCH   1   2
HETATM    2  O5  UNL     1      -2.549  49.823 -23.729  1.00  0.00    -0.314 OA
BRANCH   2   3
HETATM    3  C16 UNL     1      -3.227  49.886 -24.909  1.00  0.00     0.259 C 
HETATM    4  O4  UNL     1      -3.740  50.904 -25.356  1.00  0.00    -0.265 OA
BRANCH   3   5
HETATM    5  C15 UNL     1      -3.393  48.524 -25.537  1.00  0.00     0.120 C 
BRANCH   5   6
HETATM    6  C14 UNL     1      -4.706  48.329 -26.287  1.00  0.00     0.112 C 
BRANCH   6   7
HETATM    7  C13 UNL     1      -4.517  48.328 -27.788  1.00  0.00     0.218 C 
HETATM    8  N2  UNL     1      -5.518  47.668 -28.454  1.00  0.00    -0.347 N 
HETATM    9  H13 UNL     1      -6.219  47.149 -27.939  1.00  0.00     0.163 HD
HETATM   10  O3  UNL     1      -3.588  48.888 -28.354  1.00  0.00    -0.274 OA
BRANCH   8  11
HETATM   11  C3  UNL     1      -5.551  47.548 -29.925  1.00  0.00     0.188 C 
BRANCH  11  12
HETATM   12  C2  UNL     1      -5.970  46.119 -30.331  1.00  0.00     0.281 C 
HETATM   13  O2  UNL     1      -6.780  45.419 -29.734  1.00  0.00    -0.263 OA
BRANCH  12  14
HETATM   14  O1  UNL     1      -5.288  45.707 -31.452  1.00  0.00    -0.325 OA
HETATM   15  C1  UNL     1      -4.625  46.773 -32.140  1.00  0.00     0.213 C 
ENDBRANCH  12  14
ENDBRANCH  11  12
BRANCH  11  16
HETATM   16  C4  UNL     1      -6.533  48.573 -30.512  1.00  0.00     0.076 C 
BRANCH  16  17
HETATM   17  C5  UNL     1      -7.966  48.316 -30.162  1.00  0.00    -0.028 A 
HETATM   18  C6  UNL     1      -8.596  48.656 -28.980  1.00  0.00     0.096 A 
HETATM   19  N1  UNL     1      -9.899  48.242 -29.050  1.00  0.00    -0.365 N 
HETATM   20  C7  UNL     1     -10.148  47.661 -30.270  1.00  0.00     0.042 A 
HETATM   21  H8  UNL     1     -10.588  48.354 -28.319  1.00  0.00     0.165 HD
HETATM   22  C8  UNL     1     -11.332  47.117 -30.783  1.00  0.00     0.030 A 
HETATM   23  C12 UNL     1      -8.952  47.689 -30.991  1.00  0.00    -0.002 A 
HETATM   24  C9  UNL     1     -11.293  46.585 -32.074  1.00  0.00     0.002 A 
HETATM   25  C10 UNL     1     -10.116  46.597 -32.821  1.00  0.00     0.001 A 
HETATM   26  C11 UNL     1      -8.942  47.147 -32.293  1.00  0.00     0.014 A 
ENDBRANCH  16  17
ENDBRANCH  11  16
ENDBRANCH   8  11
ENDBRANCH   6   7
ENDBRANCH   5   6
ENDBRANCH   3   5
ENDBRANCH   2   3
ENDBRANCH   1   2
BRANCH   1  27
HETATM   27  C18 UNL     1      -2.617  50.526 -21.428  1.00  0.00     0.185 C 
HETATM   28  O6  UNL     1      -3.555  50.064 -20.773  1.00  0.00    -0.292 OA
BRANCH  27  29
HETATM   29  C19 UNL     1      -1.216  50.750 -20.807  1.00  0.00     0.128 C 
HETATM   30  C20 UNL     1      -0.593  52.105 -21.276  1.00  0.00     0.047 C 
HETATM   31  C21 UNL     1       0.152  52.704 -20.070  1.00  0.00     0.009 C 
HETATM   32  C22 UNL     1       0.199  51.558 -19.068  1.00  0.00     0.002 C 
HETATM   33  C23 UNL     1       0.573  51.867 -17.609  1.00  0.00    -0.002 C 
HETATM   34  C36 UNL     1      -1.176  50.864 -19.243  1.00  0.00     0.001 C 
HETATM   35  C24 UNL     1       1.926  52.595 -17.549  1.00  0.00     0.010 C 
HETATM   36  C33 UNL     1       0.636  50.520 -16.825  1.00  0.00     0.031 C 
HETATM   37  C25 UNL     1       2.402  52.810 -16.123  1.00  0.00     0.035 C 
HETATM   38  C26 UNL     1       2.456  51.510 -15.359  1.00  0.00    -0.068 C 
HETATM   39  C27 UNL     1       3.588  51.143 -14.734  1.00  0.00     0.053 C 
HETATM   40  C31 UNL     1       1.158  50.683 -15.340  1.00  0.00    -0.014 C 
HETATM   41  C28 UNL     1       3.636  49.955 -13.852  1.00  0.00     0.149 C 
HETATM   42  O8  UNL     1       4.704  49.626 -13.338  1.00  0.00    -0.293 OA
HETATM   43  C29 UNL     1       2.340  49.254 -13.547  1.00  0.00     0.084 C 
HETATM   44  C30 UNL     1       1.442  49.261 -14.774  1.00  0.00     0.022 C 
HETATM   45  C32 UNL     1       0.168  51.406 -14.403  1.00  0.00     0.020 C 
HETATM   46  C34 UNL     1      -0.676  49.696 -16.982  1.00  0.00     0.124 C 
HETATM   47  C35 UNL     1      -1.118  49.534 -18.454  1.00  0.00     0.045 C 
HETATM   48  C37 UNL     1      -2.366  51.729 -18.753  1.00  0.00     0.019 C 
BRANCH  29  49
HETATM   49  O7  UNL     1      -0.344  49.696 -21.228  1.00  0.00    -0.381 OA
HETATM   50  H20 UNL     1      -0.165  49.819 -22.180  1.00  0.00     0.211 HD
ENDBRANCH  29  49
BRANCH  46  51
HETATM   51  O9  UNL     1      -1.735  50.278 -16.234  1.00  0.00    -0.395 OA
HETATM   52  H41 UNL     1      -2.482  49.655 -16.241  1.00  0.00     0.210 HD
ENDBRANCH  46  51
ENDBRANCH  27  29
ENDBRANCH   1  27
TORSDOF 14
ENDMDL
MODEL 8
REMARK minimizedAffinity -9.27847099
REMARK CNNscore 0.306982279
REMARK CNNaffinity 5.93283224
REMARK  14 active torsions:
REMARK  status: ('A' for Active; 'I' for Inactive)
REMARK    1  A    between atoms: O1_2  and  C2_3 
REMARK    2  A    between atoms: C2_3  and  C3_5 
REMARK    3  A    between atoms: C3_5  and  C4_6 
REMARK    4  A    between atoms: C3_5  and  N2_16 
REMARK    5  A    between atoms: C4_6  and  C5_7 
REMARK       I    between atoms: N2_16  and  C13_17 
REMARK    6  A    between atoms: C13_17  and  C14_19 
REMARK    7  A    between atoms: C14_19  and  C15_20 
REMARK    8  A    between atoms: C15_20  and  C16_21 
REMARK    9  A    between atoms: C16_21  and  O5_23 
REMARK   10  A    between atoms: O5_23  and  C17_24 
REMARK   11  A    between atoms: C17_24  and  C18_25 
REMARK   12  A    between atoms: C18_25  and  C19_27 
REMARK   13  A    between atoms: C19_27  and  O7_28 
REMARK   14  A    between atoms: C34_44  and  O9_45 
ROOT
HETATM    1  C17 UNL     1      -8.536  48.496 -23.445  1.00  0.00     0.260 C 
ENDROOT
BRANCH   1   2
HETATM    2  O5  UNL     1      -8.365  49.266 -24.634  1.00  0.00    -0.314 OA
BRANCH   2   3
HETATM    3  C16 UNL     1      -9.351  49.050 -25.548  1.00  0.00     0.259 C 
HETATM    4  O4  UNL     1     -10.022  49.935 -26.062  1.00  0.00    -0.265 OA
BRANCH   3   5
HETATM    5  C15 UNL     1      -9.615  47.578 -25.756  1.00  0.00     0.120 C 
BRANCH   5   6
HETATM    6  C14 UNL     1     -10.606  47.264 -26.871  1.00  0.00     0.112 C 
BRANCH   6   7
HETATM    7  C13 UNL     1     -12.034  47.223 -26.377  1.00  0.00     0.218 C 
HETATM    8  N2  UNL     1     -12.274  46.183 -25.515  1.00  0.00    -0.347 N 
HETATM    9  H13 UNL     1     -11.566  45.476 -25.357  1.00  0.00     0.163 HD
HETATM   10  O3  UNL     1     -12.882  48.050 -26.684  1.00  0.00    -0.274 OA
BRANCH   8  11
HETATM   11  C3  UNL     1     -13.594  45.950 -24.896  1.00  0.00     0.188 C 
BRANCH  11  12
HETATM   12  C2  UNL     1     -13.531  46.254 -23.383  1.00  0.00     0.281 C 
HETATM   13  O2  UNL     1     -12.881  45.622 -22.558  1.00  0.00    -0.263 OA
BRANCH  12  14
HETATM   14  O1  UNL     1     -14.333  47.324 -23.064  1.00  0.00    -0.325 OA
HETATM   15  C1  UNL     1     -14.546  47.477 -21.656  1.00  0.00     0.213 C 
ENDBRANCH  12  14
ENDBRANCH  11  12
BRANCH  11  16
HETATM   16  C4  UNL     1     -14.652  46.839 -25.569  1.00  0.00     0.076 C 
BRANCH  16  17
HETATM   17  C5  UNL     1     -15.851  46.092 -26.065  1.00  0.00    -0.028 A 
HETATM   18  C6  UNL     1     -15.886  45.206 -27.126  1.00  0.00     0.096 A 
HETATM   19  N1  UNL     1     -17.168  44.745 -27.261  1.00  0.00    -0.365 N 
HETATM   20  C7  UNL     1     -17.974  45.287 -26.289  1.00  0.00     0.042 A 
HETATM   21  H8  UNL     1     -17.482  44.090 -27.964  1.00  0.00     0.165 HD
HETATM   22  C8  UNL     1     -19.336  45.088 -26.035  1.00  0.00     0.030 A 
HETATM   23  C12 UNL     1     -17.177  46.141 -25.523  1.00  0.00    -0.002 A 
HETATM   24  C9  UNL     1     -19.903  45.783 -24.963  1.00  0.00     0.002 A 
HETATM   25  C10 UNL     1     -19.136  46.643 -24.179  1.00  0.00     0.001 A 
HETATM   26  C11 UNL     1     -17.774  46.828 -24.446  1.00  0.00     0.014 A 
ENDBRANCH  16  17
ENDBRANCH  11  16
ENDBRANCH   8  11
ENDBRANCH   6   7
ENDBRANCH   5   6
ENDBRANCH   3   5
ENDBRANCH   2   3
ENDBRANCH   1   2
BRANCH   1  27
HETATM   27  C18 UNL     1      -7.184  48.218 -22.816  1.00  0.00     0.185 C 
HETATM   28  O6  UNL     1      -6.692  47.088 -22.876  1.00  0.00    -0.292 OA
BRANCH  27  29
HETATM   29  C19 UNL     1      -6.480  49.381 -22.075  1.00  0.00     0.128 C 
HETATM   30  C20 UNL     1      -6.986  49.507 -20.600  1.00  0.00     0.047 C 
HETATM   31  C21 UNL     1      -5.768  49.874 -19.733  1.00  0.00     0.009 C 
HETATM   32  C22 UNL     1      -4.698  50.245 -20.750  1.00  0.00     0.002 C 
HETATM   33  C23 UNL     1      -3.237  50.350 -20.280  1.00  0.00    -0.002 C 
HETATM   34  C36 UNL     1      -4.927  49.237 -21.906  1.00  0.00     0.001 C 
HETATM   35  C24 UNL     1      -3.126  51.334 -19.105  1.00  0.00     0.010 C 
HETATM   36  C33 UNL     1      -2.370  50.828 -21.486  1.00  0.00     0.031 C 
HETATM   37  C25 UNL     1      -1.685  51.571 -18.686  1.00  0.00     0.035 C 
HETATM   38  C26 UNL     1      -0.841  52.026 -19.851  1.00  0.00    -0.068 C 
HETATM   39  C27 UNL     1      -0.115  53.153 -19.757  1.00  0.00     0.053 C 
HETATM   40  C31 UNL     1      -0.864  51.121 -21.096  1.00  0.00    -0.014 C 
HETATM   41  C28 UNL     1       0.839  53.552 -20.817  1.00  0.00     0.149 C 
HETATM   42  O8  UNL     1       1.447  54.615 -20.714  1.00  0.00    -0.293 OA
HETATM   43  C29 UNL     1       1.093  52.577 -21.935  1.00  0.00     0.084 C 
HETATM   44  C30 UNL     1      -0.193  51.851 -22.296  1.00  0.00     0.022 C 
HETATM   45  C32 UNL     1      -0.046  49.857 -20.759  1.00  0.00     0.020 C 
HETATM   46  C34 UNL     1      -2.569  49.925 -22.738  1.00  0.00     0.124 C 
HETATM   47  C35 UNL     1      -4.056  49.705 -23.097  1.00  0.00     0.045 C 
HETATM   48  C37 UNL     1      -4.578  47.776 -21.524  1.00  0.00     0.019 C 
BRANCH  29  49
HETATM   49  O7  UNL     1      -6.772  50.610 -22.747  1.00  0.00    -0.381 OA
HETATM   50  H20 UNL     1      -7.716  50.816 -22.596  1.00  0.00     0.211 HD
ENDBRANCH  29  49
BRANCH  46  51
HETATM   51  O9  UNL     1      -1.936  48.665 -22.562  1.00  0.00    -0.395 OA
HETATM   52  H41 UNL     1      -1.957  48.199 -23.416  1.00  0.00     0.210 HD
ENDBRANCH  46  51
ENDBRANCH  27  29
ENDBRANCH   1  27
TORSDOF 14
ENDMDL
MODEL 9
REMARK minimizedAffinity -10.2345285
REMARK CNNscore 0.306013167
REMARK CNNaffinity 7.71986008
REMARK  14 active torsions:
REMARK  status: ('A' for Active; 'I' for Inactive)
REMARK    1  A    between atoms: O1_2  and  C2_3 
REMARK    2  A    between atoms: C2_3  and  C3_5 
REMARK    3  A    between atoms: C3_5  and  C4_6 
REMARK    4  A    between atoms: C3_5  and  N2_16 
REMARK    5  A    between atoms: C4_6  and  C5_7 
REMARK       I    between atoms: N2_16  and  C13_17 
REMARK    6  A    between atoms: C13_17  and  C14_19 
REMARK    7  A    between atoms: C14_19  and  C15_20 
REMARK    8  A    between atoms: C15_20  and  C16_21 
REMARK    9  A    between atoms: C16_21  and  O5_23 
REMARK   10  A    between atoms: O5_23  and  C17_24 
REMARK   11  A    between atoms: C17_24  and  C18_25 
REMARK   12  A    between atoms: C18_25  and  C19_27 
REMARK   13  A    between atoms: C19_27  and  O7_28 
REMARK   14  A    between atoms: C34_44  and  O9_45 
ROOT
HETATM    1  C17 UNL     1      -3.231  49.276 -21.108  1.00  0.00     0.260 C 
ENDROOT
BRANCH   1   2
HETATM    2  O5  UNL     1      -4.610  49.497 -20.814  1.00  0.00    -0.314 OA
BRANCH   2   3
HETATM    3  C16 UNL     1      -5.423  48.545 -21.351  1.00  0.00     0.259 C 
HETATM    4  O4  UNL     1      -6.378  48.046 -20.769  1.00  0.00    -0.265 OA
BRANCH   3   5
HETATM    5  C15 UNL     1      -4.930  48.076 -22.697  1.00  0.00     0.120 C 
BRANCH   5   6
HETATM    6  C14 UNL     1      -5.107  49.087 -23.824  1.00  0.00     0.112 C 
BRANCH   6   7
HETATM    7  C13 UNL     1      -4.095  48.897 -24.932  1.00  0.00     0.218 C 
HETATM    8  N2  UNL     1      -4.549  49.326 -26.153  1.00  0.00    -0.347 N 
HETATM    9  H13 UNL     1      -5.513  49.617 -26.267  1.00  0.00     0.163 HD
HETATM   10  O3  UNL     1      -2.974  48.441 -24.754  1.00  0.00    -0.274 OA
BRANCH   8  11
HETATM   11  C3  UNL     1      -3.729  49.251 -27.379  1.00  0.00     0.188 C 
BRANCH  11  12
HETATM   12  C2  UNL     1      -4.541  48.601 -28.520  1.00  0.00     0.281 C 
HETATM   13  O2  UNL     1      -4.470  48.907 -29.706  1.00  0.00    -0.263 OA
BRANCH  12  14
HETATM   14  O1  UNL     1      -5.392  47.639 -28.031  1.00  0.00    -0.325 OA
HETATM   15  C1  UNL     1      -6.679  47.645 -28.658  1.00  0.00     0.213 C 
ENDBRANCH  12  14
ENDBRANCH  11  12
BRANCH  11  16
HETATM   16  C4  UNL     1      -3.273  50.659 -27.791  1.00  0.00     0.076 C 
BRANCH  16  17
HETATM   17  C5  UNL     1      -2.637  51.443 -26.686  1.00  0.00    -0.028 A 
HETATM   18  C6  UNL     1      -3.292  52.212 -25.741  1.00  0.00     0.096 A 
HETATM   19  N1  UNL     1      -2.354  52.771 -24.914  1.00  0.00    -0.365 N 
HETATM   20  C7  UNL     1      -1.094  52.361 -25.277  1.00  0.00     0.042 A 
HETATM   21  H8  UNL     1      -2.554  53.387 -24.138  1.00  0.00     0.165 HD
HETATM   22  C8  UNL     1       0.149  52.664 -24.710  1.00  0.00     0.030 A 
HETATM   23  C12 UNL     1      -1.237  51.529 -26.390  1.00  0.00    -0.002 A 
HETATM   24  C9  UNL     1       1.284  52.099 -25.298  1.00  0.00     0.002 A 
HETATM   25  C10 UNL     1       1.177  51.264 -26.409  1.00  0.00     0.001 A 
HETATM   26  C11 UNL     1      -0.075  50.970 -26.962  1.00  0.00     0.014 A 
ENDBRANCH  16  17
ENDBRANCH  11  16
ENDBRANCH   8  11
ENDBRANCH   6   7
ENDBRANCH   5   6
ENDBRANCH   3   5
ENDBRANCH   2   3
ENDBRANCH   1   2
BRANCH   1  27
HETATM   27  C18 UNL     1      -2.542  50.602 -21.363  1.00  0.00     0.185 C 
HETATM   28  O6  UNL     1      -3.080  51.456 -22.072  1.00  0.00    -0.292 OA
BRANCH  27  29
HETATM   29  C19 UNL     1      -1.142  50.819 -20.739  1.00  0.00     0.128 C 
HETATM   30  C20 UNL     1      -0.517  52.177 -21.197  1.00  0.00     0.047 C 
HETATM   31  C21 UNL     1       0.228  52.766 -19.985  1.00  0.00     0.009 C 
HETATM   32  C22 UNL     1       0.273  51.613 -18.992  1.00  0.00     0.002 C 
HETATM   33  C23 UNL     1       0.645  51.910 -17.530  1.00  0.00    -0.002 C 
HETATM   34  C36 UNL     1      -1.103  50.920 -19.174  1.00  0.00     0.001 C 
HETATM   35  C24 UNL     1       1.999  52.636 -17.464  1.00  0.00     0.010 C 
HETATM   36  C33 UNL     1       0.706  50.556 -16.757  1.00  0.00     0.031 C 
HETATM   37  C25 UNL     1       2.474  52.839 -16.035  1.00  0.00     0.035 C 
HETATM   38  C26 UNL     1       2.526  51.533 -15.281  1.00  0.00    -0.068 C 
HETATM   39  C27 UNL     1       3.656  51.160 -14.658  1.00  0.00     0.053 C 
HETATM   40  C31 UNL     1       1.227  50.707 -15.270  1.00  0.00    -0.014 C 
HETATM   41  C28 UNL     1       3.703  49.965 -13.785  1.00  0.00     0.149 C 
HETATM   42  O8  UNL     1       4.770  49.631 -13.273  1.00  0.00    -0.293 OA
HETATM   43  C29 UNL     1       2.405  49.263 -13.487  1.00  0.00     0.084 C 
HETATM   44  C30 UNL     1       1.509  49.281 -14.715  1.00  0.00     0.022 C 
HETATM   45  C32 UNL     1       0.237  51.424 -14.328  1.00  0.00     0.020 C 
HETATM   46  C34 UNL     1      -0.607  49.735 -16.921  1.00  0.00     0.124 C 
HETATM   47  C35 UNL     1      -1.047  49.584 -18.396  1.00  0.00     0.045 C 
HETATM   48  C37 UNL     1      -2.293  51.783 -18.679  1.00  0.00     0.019 C 
BRANCH  29  49
HETATM   49  O7  UNL     1      -0.270  49.768 -21.167  1.00  0.00    -0.381 OA
HETATM   50  H20 UNL     1      -0.090  49.898 -22.118  1.00  0.00     0.211 HD
ENDBRANCH  29  49
BRANCH  46  51
HETATM   51  O9  UNL     1      -1.665  50.312 -16.170  1.00  0.00    -0.395 OA
HETATM   52  H41 UNL     1      -2.413  49.690 -16.182  1.00  0.00     0.210 HD
ENDBRANCH  46  51
ENDBRANCH  27  29
ENDBRANCH   1  27
TORSDOF 14
ENDMDL
