MODEL 1
REMARK minimizedAffinity -8.03105259
REMARK  14 active torsions:
REMARK  status: ('A' for Active; 'I' for Inactive)
REMARK    1  A    between atoms: O1_2  and  C2_3 
REMARK    2  A    between atoms: C2_3  and  C3_4 
REMARK    3  A    between atoms: C2_3  and  C24_30 
REMARK    4  A    between atoms: C3_4  and  C5_6 
REMARK    5  A    between atoms: C6_8  and  C8_10 
REMARK    6  A    between atoms: C8_10  and  C9_11 
REMARK    7  A    between atoms: C9_11  and  O3_13 
REMARK    8  A    between atoms: C9_11  and  C11_14 
REMARK    9  A    between atoms: C12_15  and  C13_16 
REMARK   10  A    between atoms: C14_17  and  C16_19 
REMARK   11  A    between atoms: C17_21  and  C18_22 
REMARK   12  A    between atoms: C18_22  and  C19_23 
REMARK   13  A    between atoms: C19_23  and  O6_25 
REMARK   14  A    between atoms: C24_30  and  O7_32 
ROOT
HETATM    1  C9  UNL     1      -2.976  50.615 -22.610  1.00  0.00     0.075 C 
HETATM    2  C10 UNL     1      -3.382  50.442 -21.144  1.00  0.00     0.050 C 
ENDROOT
BRANCH   1   3
HETATM    3  C8  UNL     1      -2.820  52.098 -23.017  1.00  0.00     0.082 C 
BRANCH   3   4
HETATM    4  C6  UNL     1      -2.510  52.336 -24.483  1.00  0.00     0.087 A 
HETATM    5  C5  UNL     1      -1.073  52.160 -24.976  1.00  0.00     0.163 A 
HETATM    6  O2  UNL     1      -1.616  53.449 -24.674  1.00  0.00    -0.369 OA
HETATM    7  C7  UNL     1      -3.671  52.362 -25.434  1.00  0.00     0.049 C 
BRANCH   5   8
HETATM    8  C3  UNL     1      -0.697  51.945 -26.425  1.00  0.00     0.045 C 
HETATM    9  C4  UNL     1      -0.413  50.451 -26.637  1.00  0.00     0.015 C 
BRANCH   8  10
HETATM   10  C2  UNL     1       0.530  52.826 -26.808  1.00  0.00     0.155 C 
BRANCH  10  11
HETATM   11  O1  UNL     1       1.455  52.041 -27.586  1.00  0.00    -0.388 OA
HETATM   12  C1  UNL     1       2.614  51.659 -26.857  1.00  0.00     0.202 C 
ENDBRANCH  10  11
BRANCH  10  13
HETATM   13  C24 UNL     1       0.114  54.084 -27.625  1.00  0.00     0.143 C 
HETATM   14  C25 UNL     1      -1.261  53.932 -28.269  1.00  0.00     0.042 C 
BRANCH  13  15
HETATM   15  O7  UNL     1       0.089  55.247 -26.793  1.00  0.00    -0.393 OA
HETATM   16  H42 UNL     1      -0.136  56.006 -27.355  1.00  0.00     0.210 HD
ENDBRANCH  13  15
ENDBRANCH  10  13
ENDBRANCH   8  10
ENDBRANCH   5   8
ENDBRANCH   3   4
ENDBRANCH   1   3
BRANCH   1  17
HETATM   17  O3  UNL     1      -1.729  49.943 -22.801  1.00  0.00    -0.386 OA
HETATM   18  H18 UNL     1      -1.872  49.009 -22.566  1.00  0.00     0.211 HD
ENDBRANCH   1  17
BRANCH   1  19
HETATM   19  C11 UNL     1      -4.030  49.974 -23.495  1.00  0.00     0.010 C 
HETATM   20  C12 UNL     1      -3.862  48.904 -24.292  1.00  0.00    -0.001 C 
BRANCH  20  21
HETATM   21  C13 UNL     1      -4.935  48.359 -25.094  1.00  0.00     0.005 C 
HETATM   22  C14 UNL     1      -4.946  48.174 -26.431  1.00  0.00    -0.055 C 
HETATM   23  C15 UNL     1      -3.817  48.513 -27.367  1.00  0.00     0.046 C 
BRANCH  22  24
HETATM   24  C16 UNL     1      -6.158  47.557 -27.121  1.00  0.00     0.154 C 
HETATM   25  O4  UNL     1      -7.311  47.869 -26.322  1.00  0.00    -0.375 OA
HETATM   26  C17 UNL     1      -8.502  47.215 -26.778  1.00  0.00     0.132 C 
HETATM   27  C20 UNL     1      -8.842  47.708 -28.187  1.00  0.00     0.033 C 
HETATM   28  C21 UNL     1      -7.671  47.469 -29.135  1.00  0.00     0.009 C 
HETATM   29  C22 UNL     1      -6.372  48.060 -28.568  1.00  0.00     0.015 C 
HETATM   30  C23 UNL     1      -5.199  47.732 -29.492  1.00  0.00     0.012 C 
BRANCH  26  31
HETATM   31  C18 UNL     1      -9.605  47.540 -25.776  1.00  0.00     0.141 C 
BRANCH  31  32
HETATM   32  C19 UNL     1     -10.300  48.827 -26.096  1.00  0.00     0.141 C 
HETATM   33  O5  UNL     1     -11.451  48.946 -26.481  1.00  0.00    -0.650 OA
BRANCH  32  34
HETATM   34  O6  UNL     1      -9.516  49.911 -25.943  1.00  0.00    -0.776 OA
HETATM   35  H29 UNL     1     -10.089  50.657 -26.218  1.00  0.00     0.167 HD
ENDBRANCH  32  34
ENDBRANCH  31  32
ENDBRANCH  26  31
ENDBRANCH  22  24
ENDBRANCH  20  21
ENDBRANCH   1  19
TORSDOF 14
ENDMDL
MODEL 2
REMARK minimizedAffinity -8.01802635
REMARK  14 active torsions:
REMARK  status: ('A' for Active; 'I' for Inactive)
REMARK    1  A    between atoms: O1_2  and  C2_3 
REMARK    2  A    between atoms: C2_3  and  C3_4 
REMARK    3  A    between atoms: C2_3  and  C24_30 
REMARK    4  A    between atoms: C3_4  and  C5_6 
REMARK    5  A    between atoms: C6_8  and  C8_10 
REMARK    6  A    between atoms: C8_10  and  C9_11 
REMARK    7  A    between atoms: C9_11  and  O3_13 
REMARK    8  A    between atoms: C9_11  and  C11_14 
REMARK    9  A    between atoms: C12_15  and  C13_16 
REMARK   10  A    between atoms: C14_17  and  C16_19 
REMARK   11  A    between atoms: C17_21  and  C18_22 
REMARK   12  A    between atoms: C18_22  and  C19_23 
REMARK   13  A    between atoms: C19_23  and  O6_25 
REMARK   14  A    between atoms: C24_30  and  O7_32 
ROOT
HETATM    1  C9  UNL     1      -4.091  49.013 -25.024  1.00  0.00     0.075 C 
HETATM    2  C10 UNL     1      -5.127  48.459 -24.041  1.00  0.00     0.050 C 
ENDROOT
BRANCH   1   3
HETATM    3  C8  UNL     1      -4.184  50.547 -25.191  1.00  0.00     0.082 C 
BRANCH   3   4
HETATM    4  C6  UNL     1      -3.037  51.184 -25.953  1.00  0.00     0.087 A 
HETATM    5  C5  UNL     1      -1.927  51.888 -25.170  1.00  0.00     0.163 A 
HETATM    6  O2  UNL     1      -2.999  52.614 -25.780  1.00  0.00    -0.369 OA
HETATM    7  C7  UNL     1      -2.853  50.773 -27.385  1.00  0.00     0.049 C 
BRANCH   5   8
HETATM    8  C3  UNL     1      -0.554  52.182 -25.731  1.00  0.00     0.045 C 
HETATM    9  C4  UNL     1       0.489  51.883 -24.644  1.00  0.00     0.015 C 
BRANCH   8  10
HETATM   10  C2  UNL     1      -0.468  53.657 -26.223  1.00  0.00     0.155 C 
BRANCH  10  11
HETATM   11  O1  UNL     1       0.717  54.272 -25.680  1.00  0.00    -0.388 OA
HETATM   12  C1  UNL     1       0.490  55.585 -25.187  1.00  0.00     0.202 C 
ENDBRANCH  10  11
BRANCH  10  13
HETATM   13  C24 UNL     1      -0.429  53.754 -27.776  1.00  0.00     0.143 C 
HETATM   14  C25 UNL     1       0.243  52.546 -28.419  1.00  0.00     0.042 C 
BRANCH  13  15
HETATM   15  O7  UNL     1      -1.750  53.866 -28.313  1.00  0.00    -0.393 OA
HETATM   16  H42 UNL     1      -1.669  53.963 -29.275  1.00  0.00     0.210 HD
ENDBRANCH  13  15
ENDBRANCH  10  13
ENDBRANCH   8  10
ENDBRANCH   5   8
ENDBRANCH   3   4
ENDBRANCH   1   3
BRANCH   1  17
HETATM   17  O3  UNL     1      -2.795  48.673 -24.529  1.00  0.00    -0.386 OA
HETATM   18  H18 UNL     1      -2.760  47.702 -24.466  1.00  0.00     0.211 HD
ENDBRANCH   1  17
BRANCH   1  19
HETATM   19  C11 UNL     1      -4.296  48.361 -26.380  1.00  0.00     0.010 C 
HETATM   20  C12 UNL     1      -5.472  48.143 -26.993  1.00  0.00    -0.001 C 
BRANCH  20  21
HETATM   21  C13 UNL     1      -5.564  47.520 -28.295  1.00  0.00     0.005 C 
HETATM   22  C14 UNL     1      -6.685  47.159 -28.954  1.00  0.00    -0.055 C 
HETATM   23  C15 UNL     1      -8.091  47.336 -28.444  1.00  0.00     0.046 C 
BRANCH  22  24
HETATM   24  C16 UNL     1      -6.605  46.532 -30.342  1.00  0.00     0.154 C 
HETATM   25  O4  UNL     1      -5.468  47.108 -31.006  1.00  0.00    -0.375 OA
HETATM   26  C17 UNL     1      -5.368  46.718 -32.383  1.00  0.00     0.132 C 
HETATM   27  C20 UNL     1      -5.160  45.204 -32.465  1.00  0.00     0.033 C 
HETATM   28  C21 UNL     1      -6.291  44.468 -31.754  1.00  0.00     0.009 C 
HETATM   29  C22 UNL     1      -6.475  44.992 -30.322  1.00  0.00     0.015 C 
HETATM   30  C23 UNL     1      -7.668  44.302 -29.660  1.00  0.00     0.012 C 
BRANCH  26  31
HETATM   31  C18 UNL     1      -4.197  47.490 -32.984  1.00  0.00     0.141 C 
BRANCH  31  32
HETATM   32  C19 UNL     1      -4.599  48.279 -34.191  1.00  0.00     0.141 C 
HETATM   33  O5  UNL     1      -5.600  48.104 -34.864  1.00  0.00    -0.650 OA
BRANCH  32  34
HETATM   34  O6  UNL     1      -3.715  49.240 -34.520  1.00  0.00    -0.776 OA
HETATM   35  H29 UNL     1      -4.091  49.638 -35.333  1.00  0.00     0.167 HD
ENDBRANCH  32  34
ENDBRANCH  31  32
ENDBRANCH  26  31
ENDBRANCH  22  24
ENDBRANCH  20  21
ENDBRANCH   1  19
TORSDOF 14
ENDMDL
MODEL 3
REMARK minimizedAffinity -7.97102642
REMARK  14 active torsions:
REMARK  status: ('A' for Active; 'I' for Inactive)
REMARK    1  A    between atoms: O1_2  and  C2_3 
REMARK    2  A    between atoms: C2_3  and  C3_4 
REMARK    3  A    between atoms: C2_3  and  C24_30 
REMARK    4  A    between atoms: C3_4  and  C5_6 
REMARK    5  A    between atoms: C6_8  and  C8_10 
REMARK    6  A    between atoms: C8_10  and  C9_11 
REMARK    7  A    between atoms: C9_11  and  O3_13 
REMARK    8  A    between atoms: C9_11  and  C11_14 
REMARK    9  A    between atoms: C12_15  and  C13_16 
REMARK   10  A    between atoms: C14_17  and  C16_19 
REMARK   11  A    between atoms: C17_21  and  C18_22 
REMARK   12  A    between atoms: C18_22  and  C19_23 
REMARK   13  A    between atoms: C19_23  and  O6_25 
REMARK   14  A    between atoms: C24_30  and  O7_32 
ROOT
HETATM    1  C9  UNL     1      -1.836  52.122 -25.832  1.00  0.00     0.075 C 
HETATM    2  C10 UNL     1      -0.879  53.003 -26.639  1.00  0.00     0.050 C 
ENDROOT
BRANCH   1   3
HETATM    3  C8  UNL     1      -1.101  51.070 -24.972  1.00  0.00     0.082 C 
BRANCH   3   4
HETATM    4  C6  UNL     1      -0.650  51.552 -23.606  1.00  0.00     0.087 A 
HETATM    5  C5  UNL     1      -1.028  50.736 -22.369  1.00  0.00     0.163 A 
HETATM    6  O2  UNL     1      -1.761  51.901 -22.759  1.00  0.00    -0.369 OA
HETATM    7  C7  UNL     1       0.446  52.576 -23.568  1.00  0.00     0.049 C 
BRANCH   5   8
HETATM    8  C3  UNL     1      -0.319  50.841 -21.038  1.00  0.00     0.045 C 
HETATM    9  C4  UNL     1      -0.301  49.450 -20.386  1.00  0.00     0.015 C 
BRANCH   8  10
HETATM   10  C2  UNL     1      -1.017  51.895 -20.127  1.00  0.00     0.155 C 
BRANCH  10  11
HETATM   11  O1  UNL     1      -1.839  51.217 -19.157  1.00  0.00    -0.388 OA
HETATM   12  C1  UNL     1      -3.230  51.344 -19.416  1.00  0.00     0.202 C 
ENDBRANCH  10  11
BRANCH  10  13
HETATM   13  C24 UNL     1       0.011  52.798 -19.386  1.00  0.00     0.143 C 
HETATM   14  C25 UNL     1       0.481  52.187 -18.070  1.00  0.00     0.042 C 
BRANCH  13  15
HETATM   15  O7  UNL     1       1.162  53.037 -20.201  1.00  0.00    -0.393 OA
HETATM   16  H42 UNL     1       1.750  53.634 -19.712  1.00  0.00     0.210 HD
ENDBRANCH  13  15
ENDBRANCH  10  13
ENDBRANCH   8  10
ENDBRANCH   5   8
ENDBRANCH   3   4
ENDBRANCH   1   3
BRANCH   1  17
HETATM   17  O3  UNL     1      -2.599  52.975 -24.977  1.00  0.00    -0.386 OA
HETATM   18  H18 UNL     1      -3.073  53.603 -25.552  1.00  0.00     0.211 HD
ENDBRANCH   1  17
BRANCH   1  19
HETATM   19  C11 UNL     1      -2.773  51.404 -26.787  1.00  0.00     0.010 C 
HETATM   20  C12 UNL     1      -2.580  50.191 -27.335  1.00  0.00    -0.001 C 
BRANCH  20  21
HETATM   21  C13 UNL     1      -3.540  49.584 -28.230  1.00  0.00     0.005 C 
HETATM   22  C14 UNL     1      -4.483  48.668 -27.923  1.00  0.00    -0.055 C 
HETATM   23  C15 UNL     1      -4.718  48.085 -26.555  1.00  0.00     0.046 C 
BRANCH  22  24
HETATM   24  C16 UNL     1      -5.440  48.148 -28.991  1.00  0.00     0.154 C 
HETATM   25  O4  UNL     1      -4.643  47.540 -30.020  1.00  0.00    -0.375 OA
HETATM   26  C17 UNL     1      -5.413  47.145 -31.164  1.00  0.00     0.132 C 
HETATM   27  C20 UNL     1      -6.422  46.072 -30.747  1.00  0.00     0.033 C 
HETATM   28  C21 UNL     1      -7.313  46.584 -29.620  1.00  0.00     0.009 C 
HETATM   29  C22 UNL     1      -6.472  47.128 -28.456  1.00  0.00     0.015 C 
HETATM   30  C23 UNL     1      -7.385  47.713 -27.378  1.00  0.00     0.012 C 
BRANCH  26  31
HETATM   31  C18 UNL     1      -4.429  46.631 -32.211  1.00  0.00     0.141 C 
BRANCH  31  32
HETATM   32  C19 UNL     1      -4.200  47.622 -33.309  1.00  0.00     0.141 C 
HETATM   33  O5  UNL     1      -5.039  48.033 -34.093  1.00  0.00    -0.650 OA
BRANCH  32  34
HETATM   34  O6  UNL     1      -2.924  48.039 -33.396  1.00  0.00    -0.776 OA
HETATM   35  H29 UNL     1      -2.925  48.644 -34.167  1.00  0.00     0.167 HD
ENDBRANCH  32  34
ENDBRANCH  31  32
ENDBRANCH  26  31
ENDBRANCH  22  24
ENDBRANCH  20  21
ENDBRANCH   1  19
TORSDOF 14
ENDMDL
MODEL 4
REMARK minimizedAffinity -7.92789364
REMARK  14 active torsions:
REMARK  status: ('A' for Active; 'I' for Inactive)
REMARK    1  A    between atoms: O1_2  and  C2_3 
REMARK    2  A    between atoms: C2_3  and  C3_4 
REMARK    3  A    between atoms: C2_3  and  C24_30 
REMARK    4  A    between atoms: C3_4  and  C5_6 
REMARK    5  A    between atoms: C6_8  and  C8_10 
REMARK    6  A    between atoms: C8_10  and  C9_11 
REMARK    7  A    between atoms: C9_11  and  O3_13 
REMARK    8  A    between atoms: C9_11  and  C11_14 
REMARK    9  A    between atoms: C12_15  and  C13_16 
REMARK   10  A    between atoms: C14_17  and  C16_19 
REMARK   11  A    between atoms: C17_21  and  C18_22 
REMARK   12  A    between atoms: C18_22  and  C19_23 
REMARK   13  A    between atoms: C19_23  and  O6_25 
REMARK   14  A    between atoms: C24_30  and  O7_32 
ROOT
HETATM    1  C9  UNL     1      -7.001  47.569 -26.067  1.00  0.00     0.075 C 
HETATM    2  C10 UNL     1      -7.367  46.863 -24.758  1.00  0.00     0.050 C 
ENDROOT
BRANCH   1   3
HETATM    3  C8  UNL     1      -7.049  46.626 -27.290  1.00  0.00     0.082 C 
BRANCH   3   4
HETATM    4  C6  UNL     1      -6.481  47.202 -28.574  1.00  0.00     0.087 A 
HETATM    5  C5  UNL     1      -7.412  47.411 -29.769  1.00  0.00     0.163 A 
HETATM    6  O2  UNL     1      -6.557  46.268 -29.668  1.00  0.00    -0.369 OA
HETATM    7  C7  UNL     1      -5.145  47.881 -28.489  1.00  0.00     0.049 C 
BRANCH   5   8
HETATM    8  C3  UNL     1      -7.109  48.338 -30.924  1.00  0.00     0.045 C 
HETATM    9  C4  UNL     1      -8.336  49.229 -31.168  1.00  0.00     0.015 C 
BRANCH   8  10
HETATM   10  C2  UNL     1      -6.728  47.523 -32.196  1.00  0.00     0.155 C 
BRANCH  10  11
HETATM   11  O1  UNL     1      -7.549  47.949 -33.300  1.00  0.00    -0.388 OA
HETATM   12  C1  UNL     1      -8.382  46.916 -33.809  1.00  0.00     0.202 C 
ENDBRANCH  10  11
BRANCH  10  13
HETATM   13  C24 UNL     1      -5.228  47.699 -32.575  1.00  0.00     0.143 C 
HETATM   14  C25 UNL     1      -5.036  48.030 -34.051  1.00  0.00     0.042 C 
BRANCH  13  15
HETATM   15  O7  UNL     1      -4.626  48.741 -31.803  1.00  0.00    -0.393 OA
HETATM   16  H42 UNL     1      -3.687  48.783 -32.048  1.00  0.00     0.210 HD
ENDBRANCH  13  15
ENDBRANCH  10  13
ENDBRANCH   8  10
ENDBRANCH   5   8
ENDBRANCH   3   4
ENDBRANCH   1   3
BRANCH   1  17
HETATM   17  O3  UNL     1      -7.929  48.637 -26.262  1.00  0.00    -0.386 OA
HETATM   18  H18 UNL     1      -7.849  49.227 -25.491  1.00  0.00     0.211 HD
ENDBRANCH   1  17
BRANCH   1  19
HETATM   19  C11 UNL     1      -5.599  48.141 -25.947  1.00  0.00     0.010 C 
HETATM   20  C12 UNL     1      -4.978  48.502 -24.810  1.00  0.00    -0.001 C 
BRANCH  20  21
HETATM   21  C13 UNL     1      -3.631  49.030 -24.797  1.00  0.00     0.005 C 
HETATM   22  C14 UNL     1      -3.260  50.328 -24.797  1.00  0.00    -0.055 C 
HETATM   23  C15 UNL     1      -4.201  51.504 -24.817  1.00  0.00     0.046 C 
BRANCH  22  24
HETATM   24  C16 UNL     1      -1.786  50.716 -24.755  1.00  0.00     0.154 C 
HETATM   25  O4  UNL     1      -1.493  51.418 -25.974  1.00  0.00    -0.375 OA
HETATM   26  C17 UNL     1      -0.097  51.705 -26.133  1.00  0.00     0.132 C 
HETATM   27  C20 UNL     1       0.358  52.639 -25.008  1.00  0.00     0.033 C 
HETATM   28  C21 UNL     1       0.063  52.020 -23.646  1.00  0.00     0.009 C 
HETATM   29  C22 UNL     1      -1.409  51.595 -23.540  1.00  0.00     0.015 C 
HETATM   30  C23 UNL     1      -1.659  50.900 -22.202  1.00  0.00     0.012 C 
BRANCH  26  31
HETATM   31  C18 UNL     1       0.077  52.339 -27.509  1.00  0.00     0.141 C 
BRANCH  31  32
HETATM   32  C19 UNL     1      -0.721  53.596 -27.660  1.00  0.00     0.141 C 
HETATM   33  O5  UNL     1      -0.297  54.734 -27.553  1.00  0.00    -0.650 OA
BRANCH  32  34
HETATM   34  O6  UNL     1      -2.024  53.375 -27.914  1.00  0.00    -0.776 OA
HETATM   35  H29 UNL     1      -2.414  54.273 -27.950  1.00  0.00     0.167 HD
ENDBRANCH  32  34
ENDBRANCH  31  32
ENDBRANCH  26  31
ENDBRANCH  22  24
ENDBRANCH  20  21
ENDBRANCH   1  19
TORSDOF 14
ENDMDL
MODEL 5
REMARK minimizedAffinity -7.89471483
REMARK  14 active torsions:
REMARK  status: ('A' for Active; 'I' for Inactive)
REMARK    1  A    between atoms: O1_2  and  C2_3 
REMARK    2  A    between atoms: C2_3  and  C3_4 
REMARK    3  A    between atoms: C2_3  and  C24_30 
REMARK    4  A    between atoms: C3_4  and  C5_6 
REMARK    5  A    between atoms: C6_8  and  C8_10 
REMARK    6  A    between atoms: C8_10  and  C9_11 
REMARK    7  A    between atoms: C9_11  and  O3_13 
REMARK    8  A    between atoms: C9_11  and  C11_14 
REMARK    9  A    between atoms: C12_15  and  C13_16 
REMARK   10  A    between atoms: C14_17  and  C16_19 
REMARK   11  A    between atoms: C17_21  and  C18_22 
REMARK   12  A    between atoms: C18_22  and  C19_23 
REMARK   13  A    between atoms: C19_23  and  O6_25 
REMARK   14  A    between atoms: C24_30  and  O7_32 
ROOT
HETATM    1  C9  UNL     1      -3.937  49.230 -24.173  1.00  0.00     0.075 C 
HETATM    2  C10 UNL     1      -5.108  48.755 -23.309  1.00  0.00     0.050 C 
ENDROOT
BRANCH   1   3
HETATM    3  C8  UNL     1      -3.410  50.621 -23.755  1.00  0.00     0.082 C 
BRANCH   3   4
HETATM    4  C6  UNL     1      -1.906  50.798 -23.851  1.00  0.00     0.087 A 
HETATM    5  C5  UNL     1      -1.332  51.687 -24.956  1.00  0.00     0.163 A 
HETATM    6  O2  UNL     1      -1.374  50.261 -25.077  1.00  0.00    -0.369 OA
HETATM    7  C7  UNL     1      -1.092  50.409 -22.652  1.00  0.00     0.049 C 
BRANCH   5   8
HETATM    8  C3  UNL     1       0.055  52.287 -24.923  1.00  0.00     0.045 C 
HETATM    9  C4  UNL     1      -0.016  53.632 -24.186  1.00  0.00     0.015 C 
BRANCH   8  10
HETATM   10  C2  UNL     1       0.616  52.450 -26.367  1.00  0.00     0.155 C 
BRANCH  10  11
HETATM   11  O1  UNL     1       1.335  51.257 -26.737  1.00  0.00    -0.388 OA
HETATM   12  C1  UNL     1       2.742  51.445 -26.791  1.00  0.00     0.202 C 
ENDBRANCH  10  11
BRANCH  10  13
HETATM   13  C24 UNL     1      -0.512  52.711 -27.406  1.00  0.00     0.143 C 
HETATM   14  C25 UNL     1      -0.482  54.135 -27.953  1.00  0.00     0.042 C 
BRANCH  13  15
HETATM   15  O7  UNL     1      -0.408  51.809 -28.511  1.00  0.00    -0.393 OA
HETATM   16  H42 UNL     1      -1.154  51.986 -29.107  1.00  0.00     0.210 HD
ENDBRANCH  13  15
ENDBRANCH  10  13
ENDBRANCH   8  10
ENDBRANCH   5   8
ENDBRANCH   3   4
ENDBRANCH   1   3
BRANCH   1  17
HETATM   17  O3  UNL     1      -2.885  48.273 -24.048  1.00  0.00    -0.386 OA
HETATM   18  H18 UNL     1      -3.241  47.418 -24.349  1.00  0.00     0.211 HD
ENDBRANCH   1  17
BRANCH   1  19
HETATM   19  C11 UNL     1      -4.385  49.294 -25.623  1.00  0.00     0.010 C 
HETATM   20  C12 UNL     1      -4.030  48.450 -26.607  1.00  0.00    -0.001 C 
BRANCH  20  21
HETATM   21  C13 UNL     1      -4.520  48.588 -27.961  1.00  0.00     0.005 C 
HETATM   22  C14 UNL     1      -5.599  47.989 -28.508  1.00  0.00    -0.055 C 
HETATM   23  C15 UNL     1      -6.519  47.034 -27.796  1.00  0.00     0.046 C 
BRANCH  22  24
HETATM   24  C16 UNL     1      -5.994  48.267 -29.954  1.00  0.00     0.154 C 
HETATM   25  O4  UNL     1      -5.127  47.486 -30.793  1.00  0.00    -0.375 OA
HETATM   26  C17 UNL     1      -5.290  47.774 -32.188  1.00  0.00     0.132 C 
HETATM   27  C20 UNL     1      -6.712  47.402 -32.618  1.00  0.00     0.033 C 
HETATM   28  C21 UNL     1      -7.740  48.143 -31.768  1.00  0.00     0.009 C 
HETATM   29  C22 UNL     1      -7.470  47.933 -30.271  1.00  0.00     0.015 C 
HETATM   30  C23 UNL     1      -8.458  48.754 -29.440  1.00  0.00     0.012 C 
BRANCH  26  31
HETATM   31  C18 UNL     1      -4.235  46.967 -32.939  1.00  0.00     0.141 C 
BRANCH  31  32
HETATM   32  C19 UNL     1      -3.381  47.828 -33.816  1.00  0.00     0.141 C 
HETATM   33  O5  UNL     1      -2.162  47.863 -33.821  1.00  0.00    -0.650 OA
BRANCH  32  34
HETATM   34  O6  UNL     1      -4.089  48.630 -34.633  1.00  0.00    -0.776 OA
HETATM   35  H29 UNL     1      -3.405  49.146 -35.109  1.00  0.00     0.167 HD
ENDBRANCH  32  34
ENDBRANCH  31  32
ENDBRANCH  26  31
ENDBRANCH  22  24
ENDBRANCH  20  21
ENDBRANCH   1  19
TORSDOF 14
ENDMDL
MODEL 6
REMARK minimizedAffinity -7.88908911
REMARK  14 active torsions:
REMARK  status: ('A' for Active; 'I' for Inactive)
REMARK    1  A    between atoms: O1_2  and  C2_3 
REMARK    2  A    between atoms: C2_3  and  C3_4 
REMARK    3  A    between atoms: C2_3  and  C24_30 
REMARK    4  A    between atoms: C3_4  and  C5_6 
REMARK    5  A    between atoms: C6_8  and  C8_10 
REMARK    6  A    between atoms: C8_10  and  C9_11 
REMARK    7  A    between atoms: C9_11  and  O3_13 
REMARK    8  A    between atoms: C9_11  and  C11_14 
REMARK    9  A    between atoms: C12_15  and  C13_16 
REMARK   10  A    between atoms: C14_17  and  C16_19 
REMARK   11  A    between atoms: C17_21  and  C18_22 
REMARK   12  A    between atoms: C18_22  and  C19_23 
REMARK   13  A    between atoms: C19_23  and  O6_25 
REMARK   14  A    between atoms: C24_30  and  O7_32 
ROOT
HETATM    1  C9  UNL     1      -3.928  49.099 -23.337  1.00  0.00     0.075 C 
HETATM    2  C10 UNL     1      -4.836  48.715 -22.166  1.00  0.00     0.050 C 
ENDROOT
BRANCH   1   3
HETATM    3  C8  UNL     1      -3.606  50.611 -23.375  1.00  0.00     0.082 C 
BRANCH   3   4
HETATM    4  C6  UNL     1      -2.206  50.985 -22.926  1.00  0.00     0.087 A 
HETATM    5  C5  UNL     1      -1.892  51.025 -21.429  1.00  0.00     0.163 A 
HETATM    6  O2  UNL     1      -2.189  52.212 -22.171  1.00  0.00    -0.369 OA
HETATM    7  C7  UNL     1      -1.117  50.929 -23.957  1.00  0.00     0.049 C 
BRANCH   5   8
HETATM    8  C3  UNL     1      -0.495  50.958 -20.857  1.00  0.00     0.045 C 
HETATM    9  C4  UNL     1      -0.187  49.498 -20.493  1.00  0.00     0.015 C 
BRANCH   8  10
HETATM   10  C2  UNL     1      -0.363  51.899 -19.622  1.00  0.00     0.155 C 
BRANCH  10  11
HETATM   11  O1  UNL     1      -0.044  51.115 -18.456  1.00  0.00    -0.388 OA
HETATM   12  C1  UNL     1       0.632  51.856 -17.451  1.00  0.00     0.202 C 
ENDBRANCH  10  11
BRANCH  10  13
HETATM   13  C24 UNL     1       0.736  52.982 -19.828  1.00  0.00     0.143 C 
HETATM   14  C25 UNL     1       1.377  52.906 -21.210  1.00  0.00     0.042 C 
BRANCH  13  15
HETATM   15  O7  UNL     1       0.197  54.295 -19.659  1.00  0.00    -0.393 OA
HETATM   16  H42 UNL     1       0.927  54.928 -19.757  1.00  0.00     0.210 HD
ENDBRANCH  13  15
ENDBRANCH  10  13
ENDBRANCH   8  10
ENDBRANCH   5   8
ENDBRANCH   3   4
ENDBRANCH   1   3
BRANCH   1  17
HETATM   17  O3  UNL     1      -2.709  48.365 -23.205  1.00  0.00    -0.386 OA
HETATM   18  H18 UNL     1      -2.945  47.420 -23.217  1.00  0.00     0.211 HD
ENDBRANCH   1  17
BRANCH   1  19
HETATM   19  C11 UNL     1      -4.607  48.712 -24.639  1.00  0.00     0.010 C 
HETATM   20  C12 UNL     1      -4.001  48.468 -25.814  1.00  0.00    -0.001 C 
BRANCH  20  21
HETATM   21  C13 UNL     1      -4.737  48.094 -27.002  1.00  0.00     0.005 C 
HETATM   22  C14 UNL     1      -4.637  48.638 -28.234  1.00  0.00    -0.055 C 
HETATM   23  C15 UNL     1      -3.719  49.769 -28.614  1.00  0.00     0.046 C 
BRANCH  22  24
HETATM   24  C16 UNL     1      -5.474  48.104 -29.391  1.00  0.00     0.154 C 
HETATM   25  O4  UNL     1      -4.563  47.622 -30.392  1.00  0.00    -0.375 OA
HETATM   26  C17 UNL     1      -5.220  47.232 -31.606  1.00  0.00     0.132 C 
HETATM   27  C20 UNL     1      -6.161  46.060 -31.317  1.00  0.00     0.033 C 
HETATM   28  C21 UNL     1      -7.164  46.432 -30.229  1.00  0.00     0.009 C 
HETATM   29  C22 UNL     1      -6.449  46.975 -28.983  1.00  0.00     0.015 C 
HETATM   30  C23 UNL     1      -7.477  47.423 -27.943  1.00  0.00     0.012 C 
BRANCH  26  31
HETATM   31  C18 UNL     1      -4.131  46.860 -32.606  1.00  0.00     0.141 C 
BRANCH  31  32
HETATM   32  C19 UNL     1      -4.111  47.776 -33.790  1.00  0.00     0.141 C 
HETATM   33  O5  UNL     1      -5.042  47.995 -34.546  1.00  0.00    -0.650 OA
BRANCH  32  34
HETATM   34  O6  UNL     1      -2.916  48.362 -33.993  1.00  0.00    -0.776 OA
HETATM   35  H29 UNL     1      -3.048  48.893 -34.806  1.00  0.00     0.167 HD
ENDBRANCH  32  34
ENDBRANCH  31  32
ENDBRANCH  26  31
ENDBRANCH  22  24
ENDBRANCH  20  21
ENDBRANCH   1  19
TORSDOF 14
ENDMDL
MODEL 7
REMARK minimizedAffinity -7.88045502
REMARK  14 active torsions:
REMARK  status: ('A' for Active; 'I' for Inactive)
REMARK    1  A    between atoms: O1_2  and  C2_3 
REMARK    2  A    between atoms: C2_3  and  C3_4 
REMARK    3  A    between atoms: C2_3  and  C24_30 
REMARK    4  A    between atoms: C3_4  and  C5_6 
REMARK    5  A    between atoms: C6_8  and  C8_10 
REMARK    6  A    between atoms: C8_10  and  C9_11 
REMARK    7  A    between atoms: C9_11  and  O3_13 
REMARK    8  A    between atoms: C9_11  and  C11_14 
REMARK    9  A    between atoms: C12_15  and  C13_16 
REMARK   10  A    between atoms: C14_17  and  C16_19 
REMARK   11  A    between atoms: C17_21  and  C18_22 
REMARK   12  A    between atoms: C18_22  and  C19_23 
REMARK   13  A    between atoms: C19_23  and  O6_25 
REMARK   14  A    between atoms: C24_30  and  O7_32 
ROOT
HETATM    1  C9  UNL     1      -4.221  49.265 -24.268  1.00  0.00     0.075 C 
HETATM    2  C10 UNL     1      -5.097  48.153 -23.684  1.00  0.00     0.050 C 
ENDROOT
BRANCH   1   3
HETATM    3  C8  UNL     1      -3.390  48.797 -25.484  1.00  0.00     0.082 C 
BRANCH   3   4
HETATM    4  C6  UNL     1      -2.735  49.906 -26.286  1.00  0.00     0.087 A 
HETATM    5  C5  UNL     1      -1.402  50.482 -25.805  1.00  0.00     0.163 A 
HETATM    6  O2  UNL     1      -2.647  51.135 -25.540  1.00  0.00    -0.369 OA
HETATM    7  C7  UNL     1      -3.224  50.119 -27.689  1.00  0.00     0.049 C 
BRANCH   5   8
HETATM    8  C3  UNL     1      -0.448  51.254 -26.687  1.00  0.00     0.045 C 
HETATM    9  C4  UNL     1       0.968  50.698 -26.475  1.00  0.00     0.015 C 
BRANCH   8  10
HETATM   10  C2  UNL     1      -0.522  52.778 -26.373  1.00  0.00     0.155 C 
BRANCH  10  11
HETATM   11  O1  UNL     1       0.693  53.189 -25.716  1.00  0.00    -0.388 OA
HETATM   12  C1  UNL     1       0.468  54.069 -24.623  1.00  0.00     0.202 C 
ENDBRANCH  10  11
BRANCH  10  13
HETATM   13  C24 UNL     1      -0.723  53.631 -27.659  1.00  0.00     0.143 C 
HETATM   14  C25 UNL     1       0.173  53.175 -28.806  1.00  0.00     0.042 C 
BRANCH  13  15
HETATM   15  O7  UNL     1      -2.080  53.572 -28.104  1.00  0.00    -0.393 OA
HETATM   16  H42 UNL     1      -2.160  54.149 -28.881  1.00  0.00     0.210 HD
ENDBRANCH  13  15
ENDBRANCH  10  13
ENDBRANCH   8  10
ENDBRANCH   5   8
ENDBRANCH   3   4
ENDBRANCH   1   3
BRANCH   1  17
HETATM   17  O3  UNL     1      -5.081  50.333 -24.671  1.00  0.00    -0.386 OA
HETATM   18  H18 UNL     1      -5.564  50.623 -23.877  1.00  0.00     0.211 HD
ENDBRANCH   1  17
BRANCH   1  19
HETATM   19  C11 UNL     1      -3.273  49.766 -23.193  1.00  0.00     0.010 C 
HETATM   20  C12 UNL     1      -3.447  49.666 -21.863  1.00  0.00    -0.001 C 
BRANCH  20  21
HETATM   21  C13 UNL     1      -2.478  50.168 -20.915  1.00  0.00     0.005 C 
HETATM   22  C14 UNL     1      -1.358  49.550 -20.482  1.00  0.00    -0.055 C 
HETATM   23  C15 UNL     1      -0.896  48.183 -20.912  1.00  0.00     0.046 C 
BRANCH  22  24
HETATM   24  C16 UNL     1      -0.423  50.237 -19.492  1.00  0.00     0.154 C 
HETATM   25  O4  UNL     1      -0.319  51.614 -19.886  1.00  0.00    -0.375 OA
HETATM   26  C17 UNL     1       0.657  52.341 -19.127  1.00  0.00     0.132 C 
HETATM   27  C20 UNL     1       0.231  52.373 -17.657  1.00  0.00     0.033 C 
HETATM   28  C21 UNL     1       0.045  50.956 -17.122  1.00  0.00     0.009 C 
HETATM   29  C22 UNL     1      -0.900  50.147 -18.023  1.00  0.00     0.015 C 
HETATM   30  C23 UNL     1      -1.002  48.708 -17.517  1.00  0.00     0.012 C 
BRANCH  26  31
HETATM   31  C18 UNL     1       0.742  53.740 -19.729  1.00  0.00     0.141 C 
BRANCH  31  32
HETATM   32  C19 UNL     1       1.489  53.755 -21.026  1.00  0.00     0.141 C 
HETATM   33  O5  UNL     1       2.036  54.722 -21.530  1.00  0.00    -0.650 OA
BRANCH  32  34
HETATM   34  O6  UNL     1       1.499  52.563 -21.652  1.00  0.00    -0.776 OA
HETATM   35  H29 UNL     1       1.985  52.738 -22.484  1.00  0.00     0.167 HD
ENDBRANCH  32  34
ENDBRANCH  31  32
ENDBRANCH  26  31
ENDBRANCH  22  24
ENDBRANCH  20  21
ENDBRANCH   1  19
TORSDOF 14
ENDMDL
MODEL 8
REMARK minimizedAffinity -7.84512949
REMARK  14 active torsions:
REMARK  status: ('A' for Active; 'I' for Inactive)
REMARK    1  A    between atoms: O1_2  and  C2_3 
REMARK    2  A    between atoms: C2_3  and  C3_4 
REMARK    3  A    between atoms: C2_3  and  C24_30 
REMARK    4  A    between atoms: C3_4  and  C5_6 
REMARK    5  A    between atoms: C6_8  and  C8_10 
REMARK    6  A    between atoms: C8_10  and  C9_11 
REMARK    7  A    between atoms: C9_11  and  O3_13 
REMARK    8  A    between atoms: C9_11  and  C11_14 
REMARK    9  A    between atoms: C12_15  and  C13_16 
REMARK   10  A    between atoms: C14_17  and  C16_19 
REMARK   11  A    between atoms: C17_21  and  C18_22 
REMARK   12  A    between atoms: C18_22  and  C19_23 
REMARK   13  A    between atoms: C19_23  and  O6_25 
REMARK   14  A    between atoms: C24_30  and  O7_32 
ROOT
HETATM    1  C9  UNL     1      -4.076  49.189 -24.640  1.00  0.00     0.075 C 
HETATM    2  C10 UNL     1      -5.270  48.241 -24.774  1.00  0.00     0.050 C 
ENDROOT
BRANCH   1   3
HETATM    3  C8  UNL     1      -2.937  48.862 -25.632  1.00  0.00     0.082 C 
BRANCH   3   4
HETATM    4  C6  UNL     1      -2.285  50.064 -26.288  1.00  0.00     0.087 A 
HETATM    5  C5  UNL     1      -0.901  50.511 -25.813  1.00  0.00     0.163 A 
HETATM    6  O2  UNL     1      -2.099  51.153 -25.363  1.00  0.00    -0.369 OA
HETATM    7  C7  UNL     1      -2.850  50.518 -27.603  1.00  0.00     0.049 C 
BRANCH   5   8
HETATM    8  C3  UNL     1       0.029  51.384 -26.623  1.00  0.00     0.045 C 
HETATM    9  C4  UNL     1       1.477  51.009 -26.272  1.00  0.00     0.015 C 
BRANCH   8  10
HETATM   10  C2  UNL     1      -0.257  52.891 -26.349  1.00  0.00     0.155 C 
BRANCH  10  11
HETATM   11  O1  UNL     1       0.830  53.453 -25.590  1.00  0.00    -0.388 OA
HETATM   12  C1  UNL     1       0.497  53.694 -24.230  1.00  0.00     0.202 C 
ENDBRANCH  10  11
BRANCH  10  13
HETATM   13  C24 UNL     1      -0.434  53.700 -27.667  1.00  0.00     0.143 C 
HETATM   14  C25 UNL     1       0.264  53.042 -28.853  1.00  0.00     0.042 C 
BRANCH  13  15
HETATM   15  O7  UNL     1      -1.819  53.849 -27.993  1.00  0.00    -0.393 OA
HETATM   16  H42 UNL     1      -1.875  54.392 -28.796  1.00  0.00     0.210 HD
ENDBRANCH  13  15
ENDBRANCH  10  13
ENDBRANCH   8  10
ENDBRANCH   5   8
ENDBRANCH   3   4
ENDBRANCH   1   3
BRANCH   1  17
HETATM   17  O3  UNL     1      -4.542  50.517 -24.884  1.00  0.00    -0.386 OA
HETATM   18  H18 UNL     1      -5.234  50.701 -24.224  1.00  0.00     0.211 HD
ENDBRANCH   1  17
BRANCH   1  19
HETATM   19  C11 UNL     1      -3.531  49.103 -23.225  1.00  0.00     0.010 C 
HETATM   20  C12 UNL     1      -2.287  48.737 -22.868  1.00  0.00    -0.001 C 
BRANCH  20  21
HETATM   21  C13 UNL     1      -1.858  48.695 -21.488  1.00  0.00     0.005 C 
HETATM   22  C14 UNL     1      -1.059  49.577 -20.850  1.00  0.00    -0.055 C 
HETATM   23  C15 UNL     1      -0.443  50.802 -21.473  1.00  0.00     0.046 C 
BRANCH  22  24
HETATM   24  C16 UNL     1      -0.724  49.398 -19.374  1.00  0.00     0.154 C 
HETATM   25  O4  UNL     1      -0.217  50.654 -18.894  1.00  0.00    -0.375 OA
HETATM   26  C17 UNL     1       0.284  50.580 -17.552  1.00  0.00     0.132 C 
HETATM   27  C20 UNL     1      -0.863  50.218 -16.605  1.00  0.00     0.033 C 
HETATM   28  C21 UNL     1      -1.519  48.909 -17.033  1.00  0.00     0.009 C 
HETATM   29  C22 UNL     1      -1.929  48.956 -18.512  1.00  0.00     0.015 C 
HETATM   30  C23 UNL     1      -2.504  47.605 -18.940  1.00  0.00     0.012 C 
BRANCH  26  31
HETATM   31  C18 UNL     1       0.891  51.940 -17.224  1.00  0.00     0.141 C 
BRANCH  31  32
HETATM   32  C19 UNL     1       1.469  51.985 -15.844  1.00  0.00     0.141 C 
HETATM   33  O5  UNL     1       2.344  51.256 -15.408  1.00  0.00    -0.650 OA
BRANCH  32  34
HETATM   34  O6  UNL     1       0.909  52.924 -15.059  1.00  0.00    -0.776 OA
HETATM   35  H29 UNL     1       1.359  52.809 -14.196  1.00  0.00     0.167 HD
ENDBRANCH  32  34
ENDBRANCH  31  32
ENDBRANCH  26  31
ENDBRANCH  22  24
ENDBRANCH  20  21
ENDBRANCH   1  19
TORSDOF 14
ENDMDL
MODEL 9
REMARK minimizedAffinity -7.83982801
REMARK  14 active torsions:
REMARK  status: ('A' for Active; 'I' for Inactive)
REMARK    1  A    between atoms: O1_2  and  C2_3 
REMARK    2  A    between atoms: C2_3  and  C3_4 
REMARK    3  A    between atoms: C2_3  and  C24_30 
REMARK    4  A    between atoms: C3_4  and  C5_6 
REMARK    5  A    between atoms: C6_8  and  C8_10 
REMARK    6  A    between atoms: C8_10  and  C9_11 
REMARK    7  A    between atoms: C9_11  and  O3_13 
REMARK    8  A    between atoms: C9_11  and  C11_14 
REMARK    9  A    between atoms: C12_15  and  C13_16 
REMARK   10  A    between atoms: C14_17  and  C16_19 
REMARK   11  A    between atoms: C17_21  and  C18_22 
REMARK   12  A    between atoms: C18_22  and  C19_23 
REMARK   13  A    between atoms: C19_23  and  O6_25 
REMARK   14  A    between atoms: C24_30  and  O7_32 
ROOT
HETATM    1  C9  UNL     1       1.768  52.137 -16.304  1.00  0.00     0.075 C 
HETATM    2  C10 UNL     1       3.279  52.210 -16.543  1.00  0.00     0.050 C 
ENDROOT
BRANCH   1   3
HETATM    3  C8  UNL     1       1.369  51.000 -15.338  1.00  0.00     0.082 C 
BRANCH   3   4
HETATM    4  C6  UNL     1       1.038  51.439 -13.924  1.00  0.00     0.087 A 
HETATM    5  C5  UNL     1      -0.387  51.249 -13.401  1.00  0.00     0.163 A 
HETATM    6  O2  UNL     1       0.074  52.509 -13.899  1.00  0.00    -0.369 OA
HETATM    7  C7  UNL     1       2.191  51.683 -12.994  1.00  0.00     0.049 C 
BRANCH   5   8
HETATM    8  C3  UNL     1      -0.755  51.235 -11.935  1.00  0.00     0.045 C 
HETATM    9  C4  UNL     1      -1.093  49.791 -11.533  1.00  0.00     0.015 C 
BRANCH   8  10
HETATM   10  C2  UNL     1      -1.943  52.203 -11.659  1.00  0.00     0.155 C 
BRANCH  10  11
HETATM   11  O1  UNL     1      -3.032  51.467 -11.068  1.00  0.00    -0.388 OA
HETATM   12  C1  UNL     1      -4.221  52.233 -10.941  1.00  0.00     0.202 C 
ENDBRANCH  10  11
BRANCH  10  13
HETATM   13  C24 UNL     1      -1.538  53.368 -10.709  1.00  0.00     0.143 C 
HETATM   14  C25 UNL     1      -1.080  52.872  -9.341  1.00  0.00     0.042 C 
BRANCH  13  15
HETATM   15  O7  UNL     1      -0.481  54.146 -11.277  1.00  0.00    -0.393 OA
HETATM   16  H42 UNL     1      -0.295  54.878 -10.668  1.00  0.00     0.210 HD
ENDBRANCH  13  15
ENDBRANCH  10  13
ENDBRANCH   8  10
ENDBRANCH   5   8
ENDBRANCH   3   4
ENDBRANCH   1   3
BRANCH   1  17
HETATM   17  O3  UNL     1       1.352  53.388 -15.754  1.00  0.00    -0.386 OA
HETATM   18  H18 UNL     1       1.589  54.076 -16.400  1.00  0.00     0.211 HD
ENDBRANCH   1  17
BRANCH   1  19
HETATM   19  C11 UNL     1       1.066  51.917 -17.633  1.00  0.00     0.010 C 
HETATM   20  C12 UNL     1       0.930  52.817 -18.623  1.00  0.00    -0.001 C 
BRANCH  20  21
HETATM   21  C13 UNL     1       0.249  52.508 -19.862  1.00  0.00     0.005 C 
HETATM   22  C14 UNL     1       0.473  53.050 -21.078  1.00  0.00    -0.055 C 
HETATM   23  C15 UNL     1       1.497  54.111 -21.383  1.00  0.00     0.046 C 
BRANCH  22  24
HETATM   24  C16 UNL     1      -0.322  52.589 -22.294  1.00  0.00     0.154 C 
HETATM   25  O4  UNL     1       0.489  52.835 -23.454  1.00  0.00    -0.375 OA
HETATM   26  C17 UNL     1      -0.206  52.588 -24.684  1.00  0.00     0.132 C 
HETATM   27  C20 UNL     1      -0.584  51.107 -24.762  1.00  0.00     0.033 C 
HETATM   28  C21 UNL     1      -1.424  50.704 -23.554  1.00  0.00     0.009 C 
HETATM   29  C22 UNL     1      -0.726  51.097 -22.243  1.00  0.00     0.015 C 
HETATM   30  C23 UNL     1      -1.623  50.763 -21.051  1.00  0.00     0.012 C 
BRANCH  26  31
HETATM   31  C18 UNL     1       0.729  53.001 -25.817  1.00  0.00     0.141 C 
BRANCH  31  32
HETATM   32  C19 UNL     1       0.006  53.711 -26.919  1.00  0.00     0.141 C 
HETATM   33  O5  UNL     1      -0.576  53.185 -27.853  1.00  0.00    -0.650 OA
BRANCH  32  34
HETATM   34  O6  UNL     1       0.063  55.052 -26.819  1.00  0.00    -0.776 OA
HETATM   35  H29 UNL     1      -0.416  55.368 -27.614  1.00  0.00     0.167 HD
ENDBRANCH  32  34
ENDBRANCH  31  32
ENDBRANCH  26  31
ENDBRANCH  22  24
ENDBRANCH  20  21
ENDBRANCH   1  19
TORSDOF 14
ENDMDL
