MODEL 1
REMARK minimizedAffinity -9.29788208
REMARK CNNscore 0.519037843
REMARK CNNaffinity 7.33949661
REMARK  10 active torsions:
REMARK  status: ('A' for Active; 'I' for Inactive)
REMARK    1  A    between atoms: O1_2  and  C2_3 
REMARK    2  A    between atoms: C2_3  and  C3_5 
REMARK    3  A    between atoms: C3_5  and  C4_6 
REMARK    4  A    between atoms: C3_5  and  N1_13 
REMARK    5  A    between atoms: C4_6  and  C5_7 
REMARK       I    between atoms: N1_13  and  C11_14 
REMARK    6  A    between atoms: C11_14  and  C12_16 
REMARK    7  A    between atoms: C12_16  and  O4_17 
REMARK    8  A    between atoms: O4_17  and  N2_18 
REMARK    9  A    between atoms: C27_34  and  O5_35 
REMARK   10  A    between atoms: C27_34  and  C28_36 
ROOT
HETATM    1  N2  UNL     1      -2.954   5.562  13.810  1.00  0.00    -0.271 N 
ATOM      2  H2  UNL     1      -2.363   6.182  14.364  1.00  0.00     0.194 HD
HETATM    3  C13 UNL     1      -4.251   5.497  13.921  1.00  0.00     0.032 C 
HETATM    4  C14 UNL     1      -4.901   6.319  14.972  1.00  0.00     0.030 C 
HETATM    5  C15 UNL     1      -6.238   6.358  15.119  1.00  0.00    -0.069 C 
HETATM    6  C16 UNL     1      -6.837   7.105  16.288  1.00  0.00     0.035 C 
HETATM    7  C17 UNL     1      -7.924   8.078  15.848  1.00  0.00     0.010 C 
HETATM    8  C18 UNL     1      -9.012   7.368  15.032  1.00  0.00    -0.004 C 
HETATM    9  C19 UNL     1      -8.375   6.672  13.789  1.00  0.00     0.002 C 
HETATM   10  C20 UNL     1      -9.456   6.066  12.858  1.00  0.00     0.007 C 
HETATM   11  C21 UNL     1     -10.573   7.060  12.492  1.00  0.00     0.013 C 
HETATM   12  C22 UNL     1     -11.221   7.692  13.737  1.00  0.00    -0.002 C 
HETATM   13  C23 UNL     1     -11.987   6.602  14.533  1.00  0.00     0.019 C 
HETATM   14  C24 UNL     1     -10.082   8.357  14.550  1.00  0.00     0.002 C 
HETATM   15  C25 UNL     1     -10.818   9.187  15.593  1.00  0.00     0.009 C 
HETATM   16  C26 UNL     1     -12.087   9.674  14.870  1.00  0.00     0.047 C 
HETATM   17  C27 UNL     1     -12.140   8.934  13.501  1.00  0.00     0.125 C 
HETATM   18  C30 UNL     1      -7.223   5.665  14.171  1.00  0.00    -0.016 C 
HETATM   19  C31 UNL     1      -7.767   4.401  14.875  1.00  0.00     0.020 C 
HETATM   20  C32 UNL     1      -6.493   5.240  12.864  1.00  0.00     0.020 C 
HETATM   21  C33 UNL     1      -5.138   4.586  13.098  1.00  0.00     0.060 C 
ENDROOT
BRANCH   1  22
HETATM   22  O4  UNL     1      -2.473   4.677  12.838  1.00  0.00    -0.271 OA
BRANCH  22  23
HETATM   23  C12 UNL     1      -1.076   4.472  13.036  1.00  0.00     0.303 C 
BRANCH  23  24
HETATM   24  C11 UNL     1      -0.268   5.278  12.024  1.00  0.00     0.244 C 
HETATM   25  N1  UNL     1       0.673   6.121  12.583  1.00  0.00    -0.345 N 
HETATM   26  H12 UNL     1       0.547   6.301  13.573  1.00  0.00     0.163 HD
HETATM   27  O3  UNL     1      -0.470   5.211  10.815  1.00  0.00    -0.271 OA
BRANCH  25  28
HETATM   28  C3  UNL     1       1.343   7.153  11.778  1.00  0.00     0.188 C 
BRANCH  28  29
HETATM   29  C2  UNL     1       1.968   8.247  12.669  1.00  0.00     0.281 C 
HETATM   30  O2  UNL     1       1.723   9.443  12.575  1.00  0.00    -0.263 OA
BRANCH  29  31
HETATM   31  O1  UNL     1       2.879   7.725  13.547  1.00  0.00    -0.325 OA
HETATM   32  C1  UNL     1       4.162   8.350  13.501  1.00  0.00     0.213 C 
ENDBRANCH  29  31
ENDBRANCH  28  29
BRANCH  28  33
HETATM   33  C4  UNL     1       2.444   6.505  10.922  1.00  0.00     0.074 C 
BRANCH  33  34
HETATM   34  C5  UNL     1       2.250   6.724   9.440  1.00  0.00    -0.056 A 
HETATM   35  C6  UNL     1       1.495   7.806   8.969  1.00  0.00     0.007 A 
HETATM   36  C7  UNL     1       1.309   7.991   7.598  1.00  0.00     0.001 A 
HETATM   37  C8  UNL     1       1.872   7.100   6.688  1.00  0.00     0.000 A 
HETATM   38  C9  UNL     1       2.622   6.019   7.146  1.00  0.00     0.001 A 
HETATM   39  C10 UNL     1       2.808   5.831   8.516  1.00  0.00     0.007 A 
ENDBRANCH  33  34
ENDBRANCH  28  33
ENDBRANCH  25  28
ENDBRANCH  23  24
ENDBRANCH  22  23
ENDBRANCH   1  22
BRANCH  17  40
HETATM   40  O5  UNL     1     -11.549   9.795  12.522  1.00  0.00    -0.381 OA
HETATM   41  H34 UNL     1     -12.002  10.655  12.561  1.00  0.00     0.211 HD
ENDBRANCH  17  40
BRANCH  17  42
HETATM   42  C28 UNL     1     -13.586   8.599  13.069  1.00  0.00     0.158 C 
HETATM   43  C29 UNL     1     -14.681   9.549  13.489  1.00  0.00     0.094 C 
HETATM   44  O6  UNL     1     -13.865   7.601  12.403  1.00  0.00    -0.295 OA
ENDBRANCH  17  42
TORSDOF 10
ENDMDL
MODEL 2
REMARK minimizedAffinity -7.62584019
REMARK CNNscore 0.396787912
REMARK CNNaffinity 6.00775909
REMARK  10 active torsions:
REMARK  status: ('A' for Active; 'I' for Inactive)
REMARK    1  A    between atoms: O1_2  and  C2_3 
REMARK    2  A    between atoms: C2_3  and  C3_5 
REMARK    3  A    between atoms: C3_5  and  C4_6 
REMARK    4  A    between atoms: C3_5  and  N1_13 
REMARK    5  A    between atoms: C4_6  and  C5_7 
REMARK       I    between atoms: N1_13  and  C11_14 
REMARK    6  A    between atoms: C11_14  and  C12_16 
REMARK    7  A    between atoms: C12_16  and  O4_17 
REMARK    8  A    between atoms: O4_17  and  N2_18 
REMARK    9  A    between atoms: C27_34  and  O5_35 
REMARK   10  A    between atoms: C27_34  and  C28_36 
ROOT
HETATM    1  N2  UNL     1      -0.282  10.606  18.074  1.00  0.00    -0.271 N 
ATOM      2  H2  UNL     1      -0.419   9.608  18.236  1.00  0.00     0.194 HD
HETATM    3  C13 UNL     1       0.489  11.366  18.800  1.00  0.00     0.032 C 
HETATM    4  C14 UNL     1       1.147  10.759  19.984  1.00  0.00     0.030 C 
HETATM    5  C15 UNL     1       2.003  11.452  20.755  1.00  0.00    -0.069 C 
HETATM    6  C16 UNL     1       2.540  10.827  22.021  1.00  0.00     0.035 C 
HETATM    7  C17 UNL     1       4.058  10.915  22.105  1.00  0.00     0.010 C 
HETATM    8  C18 UNL     1       4.543  12.364  21.958  1.00  0.00    -0.004 C 
HETATM    9  C19 UNL     1       4.040  12.958  20.606  1.00  0.00     0.002 C 
HETATM   10  C20 UNL     1       4.627  14.369  20.349  1.00  0.00     0.007 C 
HETATM   11  C21 UNL     1       6.157  14.432  20.509  1.00  0.00     0.013 C 
HETATM   12  C22 UNL     1       6.623  13.890  21.873  1.00  0.00    -0.002 C 
HETATM   13  C23 UNL     1       6.125  14.832  23.002  1.00  0.00     0.019 C 
HETATM   14  C24 UNL     1       6.075  12.446  21.994  1.00  0.00     0.002 C 
HETATM   15  C25 UNL     1       6.797  11.886  23.213  1.00  0.00     0.009 C 
HETATM   16  C26 UNL     1       8.192  12.537  23.164  1.00  0.00     0.047 C 
HETATM   17  C27 UNL     1       8.151  13.610  22.037  1.00  0.00     0.125 C 
HETATM   18  C30 UNL     1       2.474  12.878  20.443  1.00  0.00    -0.016 C 
HETATM   19  C31 UNL     1       1.741  13.851  21.395  1.00  0.00     0.020 C 
HETATM   20  C32 UNL     1       2.116  13.245  18.973  1.00  0.00     0.020 C 
HETATM   21  C33 UNL     1       0.705  12.845  18.562  1.00  0.00     0.060 C 
ENDROOT
BRANCH   1  22
HETATM   22  O4  UNL     1      -0.898  11.328  17.044  1.00  0.00    -0.271 OA
BRANCH  22  23
HETATM   23  C12 UNL     1      -0.225  11.064  15.815  1.00  0.00     0.303 C 
BRANCH  23  24
HETATM   24  C11 UNL     1      -1.204  10.536  14.771  1.00  0.00     0.244 C 
HETATM   25  N1  UNL     1      -1.412   9.171  14.819  1.00  0.00    -0.345 N 
HETATM   26  H12 UNL     1      -0.719   8.655  15.349  1.00  0.00     0.163 HD
HETATM   27  O3  UNL     1      -1.729  11.262  13.933  1.00  0.00    -0.271 OA
BRANCH  25  28
HETATM   28  C3  UNL     1      -2.106   8.469  13.731  1.00  0.00     0.188 C 
BRANCH  28  29
HETATM   29  C2  UNL     1      -3.636   8.655  13.824  1.00  0.00     0.281 C 
HETATM   30  O2  UNL     1      -4.370   8.860  12.865  1.00  0.00    -0.263 OA
BRANCH  29  31
HETATM   31  O1  UNL     1      -4.071   8.621  15.120  1.00  0.00    -0.325 OA
HETATM   32  C1  UNL     1      -5.491   8.660  15.263  1.00  0.00     0.213 C 
ENDBRANCH  29  31
ENDBRANCH  28  29
BRANCH  28  33
HETATM   33  C4  UNL     1      -1.612   9.001  12.376  1.00  0.00     0.074 C 
BRANCH  33  34
HETATM   34  C5  UNL     1      -0.728   8.022  11.640  1.00  0.00    -0.056 A 
HETATM   35  C6  UNL     1      -0.624   6.692  12.066  1.00  0.00     0.007 A 
HETATM   36  C7  UNL     1       0.207   5.797  11.388  1.00  0.00     0.001 A 
HETATM   37  C8  UNL     1       0.940   6.223  10.283  1.00  0.00     0.000 A 
HETATM   38  C9  UNL     1       0.846   7.544   9.853  1.00  0.00     0.001 A 
HETATM   39  C10 UNL     1       0.017   8.440  10.529  1.00  0.00     0.007 A 
ENDBRANCH  33  34
ENDBRANCH  28  33
ENDBRANCH  25  28
ENDBRANCH  23  24
ENDBRANCH  22  23
ENDBRANCH   1  22
BRANCH  17  40
HETATM   40  O5  UNL     1       8.663  13.005  20.845  1.00  0.00    -0.381 OA
HETATM   41  H34 UNL     1       9.538  12.629  21.047  1.00  0.00     0.211 HD
ENDBRANCH  17  40
BRANCH  17  42
HETATM   42  C28 UNL     1       9.006  14.853  22.376  1.00  0.00     0.158 C 
HETATM   43  C29 UNL     1       8.727  15.561  23.680  1.00  0.00     0.094 C 
HETATM   44  O6  UNL     1       9.892  15.272  21.630  1.00  0.00    -0.295 OA
ENDBRANCH  17  42
TORSDOF 10
ENDMDL
MODEL 3
REMARK minimizedAffinity -9.30492783
REMARK CNNscore 0.383481294
REMARK CNNaffinity 7.02882528
REMARK  10 active torsions:
REMARK  status: ('A' for Active; 'I' for Inactive)
REMARK    1  A    between atoms: O1_2  and  C2_3 
REMARK    2  A    between atoms: C2_3  and  C3_5 
REMARK    3  A    between atoms: C3_5  and  C4_6 
REMARK    4  A    between atoms: C3_5  and  N1_13 
REMARK    5  A    between atoms: C4_6  and  C5_7 
REMARK       I    between atoms: N1_13  and  C11_14 
REMARK    6  A    between atoms: C11_14  and  C12_16 
REMARK    7  A    between atoms: C12_16  and  O4_17 
REMARK    8  A    between atoms: O4_17  and  N2_18 
REMARK    9  A    between atoms: C27_34  and  O5_35 
REMARK   10  A    between atoms: C27_34  and  C28_36 
ROOT
HETATM    1  N2  UNL     1       2.205   6.623  15.063  1.00  0.00    -0.271 N 
ATOM      2  H2  UNL     1       2.653   5.758  14.760  1.00  0.00     0.194 HD
HETATM    3  C13 UNL     1       0.984   6.962  14.755  1.00  0.00     0.032 C 
HETATM    4  C14 UNL     1       0.225   6.071  13.843  1.00  0.00     0.030 C 
HETATM    5  C15 UNL     1      -1.058   6.312  13.518  1.00  0.00    -0.069 C 
HETATM    6  C16 UNL     1      -1.739   5.448  12.483  1.00  0.00     0.035 C 
HETATM    7  C17 UNL     1      -3.077   4.911  12.976  1.00  0.00     0.010 C 
HETATM    8  C18 UNL     1      -3.999   6.048  13.439  1.00  0.00    -0.004 C 
HETATM    9  C19 UNL     1      -3.300   6.874  14.562  1.00  0.00     0.002 C 
HETATM   10  C20 UNL     1      -4.252   7.941  15.161  1.00  0.00     0.007 C 
HETATM   11  C21 UNL     1      -5.618   7.372  15.585  1.00  0.00     0.013 C 
HETATM   12  C22 UNL     1      -6.310   6.607  14.442  1.00  0.00    -0.002 C 
HETATM   13  C23 UNL     1      -6.693   7.600  13.312  1.00  0.00     0.019 C 
HETATM   14  C24 UNL     1      -5.327   5.502  13.979  1.00  0.00     0.002 C 
HETATM   15  C25 UNL     1      -6.173   4.626  13.064  1.00  0.00     0.009 C 
HETATM   16  C26 UNL     1      -7.579   4.661  13.691  1.00  0.00     0.047 C 
HETATM   17  C27 UNL     1      -7.541   5.725  14.827  1.00  0.00     0.125 C 
HETATM   18  C30 UNL     1      -1.896   7.443  14.126  1.00  0.00    -0.016 C 
HETATM   19  C31 UNL     1      -2.027   8.569  13.075  1.00  0.00     0.020 C 
HETATM   20  C32 UNL     1      -1.185   8.011  15.388  1.00  0.00     0.020 C 
HETATM   21  C33 UNL     1       0.309   8.240  15.205  1.00  0.00     0.060 C 
ENDROOT
BRANCH   1  22
HETATM   22  O4  UNL     1       2.825   7.593  15.860  1.00  0.00    -0.271 OA
BRANCH  22  23
HETATM   23  C12 UNL     1       1.999   8.753  15.921  1.00  0.00     0.303 C 
BRANCH  23  24
HETATM   24  C11 UNL     1       2.478   9.694  17.023  1.00  0.00     0.244 C 
HETATM   25  N1  UNL     1       1.520  10.001  17.970  1.00  0.00    -0.345 N 
HETATM   26  H12 UNL     1       0.568   9.787  17.696  1.00  0.00     0.163 HD
HETATM   27  O3  UNL     1       3.609  10.169  17.039  1.00  0.00    -0.271 OA
BRANCH  25  28
HETATM   28  C3  UNL     1       1.728  11.088  18.937  1.00  0.00     0.188 C 
BRANCH  28  29
HETATM   29  C2  UNL     1       1.131  12.417  18.429  1.00  0.00     0.281 C 
HETATM   30  O2  UNL     1       0.998  12.712  17.247  1.00  0.00    -0.263 OA
BRANCH  29  31
HETATM   31  O1  UNL     1       0.817  13.258  19.461  1.00  0.00    -0.325 OA
HETATM   32  C1  UNL     1      -0.087  14.306  19.111  1.00  0.00     0.213 C 
ENDBRANCH  29  31
ENDBRANCH  28  29
BRANCH  28  33
HETATM   33  C4  UNL     1       1.074  10.717  20.278  1.00  0.00     0.074 C 
BRANCH  33  34
HETATM   34  C5  UNL     1       2.078  10.441  21.372  1.00  0.00    -0.056 A 
HETATM   35  C6  UNL     1       2.859  11.474  21.905  1.00  0.00     0.007 A 
HETATM   36  C7  UNL     1       3.795  11.207  22.905  1.00  0.00     0.001 A 
HETATM   37  C8  UNL     1       3.961   9.908  23.380  1.00  0.00     0.000 A 
HETATM   38  C9  UNL     1       3.192   8.872  22.855  1.00  0.00     0.001 A 
HETATM   39  C10 UNL     1       2.256   9.137  21.854  1.00  0.00     0.007 A 
ENDBRANCH  33  34
ENDBRANCH  28  33
ENDBRANCH  25  28
ENDBRANCH  23  24
ENDBRANCH  22  23
ENDBRANCH   1  22
BRANCH  17  40
HETATM   40  O5  UNL     1      -7.279   5.037  16.055  1.00  0.00    -0.381 OA
HETATM   41  H34 UNL     1      -7.940   4.329  16.153  1.00  0.00     0.211 HD
ENDBRANCH  17  40
BRANCH  17  42
HETATM   42  C28 UNL     1      -8.876   6.494  14.957  1.00  0.00     0.158 C 
HETATM   43  C29 UNL     1      -9.791   6.517  13.757  1.00  0.00     0.094 C 
HETATM   44  O6  UNL     1      -9.208   7.075  15.991  1.00  0.00    -0.295 OA
ENDBRANCH  17  42
TORSDOF 10
ENDMDL
MODEL 4
REMARK minimizedAffinity -7.45488644
REMARK CNNscore 0.36760056
REMARK CNNaffinity 6.09651756
REMARK  10 active torsions:
REMARK  status: ('A' for Active; 'I' for Inactive)
REMARK    1  A    between atoms: O1_2  and  C2_3 
REMARK    2  A    between atoms: C2_3  and  C3_5 
REMARK    3  A    between atoms: C3_5  and  C4_6 
REMARK    4  A    between atoms: C3_5  and  N1_13 
REMARK    5  A    between atoms: C4_6  and  C5_7 
REMARK       I    between atoms: N1_13  and  C11_14 
REMARK    6  A    between atoms: C11_14  and  C12_16 
REMARK    7  A    between atoms: C12_16  and  O4_17 
REMARK    8  A    between atoms: O4_17  and  N2_18 
REMARK    9  A    between atoms: C27_34  and  O5_35 
REMARK   10  A    between atoms: C27_34  and  C28_36 
ROOT
HETATM    1  N2  UNL     1       1.506   9.149  16.139  1.00  0.00    -0.271 N 
ATOM      2  H2  UNL     1       2.439   9.471  16.397  1.00  0.00     0.194 HD
HETATM    3  C13 UNL     1       0.403   9.611  16.656  1.00  0.00     0.032 C 
HETATM    4  C14 UNL     1       0.514  10.614  17.745  1.00  0.00     0.030 C 
HETATM    5  C15 UNL     1      -0.571  11.187  18.297  1.00  0.00    -0.069 C 
HETATM    6  C16 UNL     1      -0.406  12.100  19.490  1.00  0.00     0.035 C 
HETATM    7  C17 UNL     1      -1.116  13.433  19.293  1.00  0.00     0.010 C 
HETATM    8  C18 UNL     1      -2.599  13.231  18.955  1.00  0.00    -0.004 C 
HETATM    9  C19 UNL     1      -2.737  12.351  17.674  1.00  0.00     0.002 C 
HETATM   10  C20 UNL     1      -4.212  12.244  17.212  1.00  0.00     0.007 C 
HETATM   11  C21 UNL     1      -4.916  13.608  17.091  1.00  0.00     0.013 C 
HETATM   12  C22 UNL     1      -4.811  14.434  18.386  1.00  0.00    -0.002 C 
HETATM   13  C23 UNL     1      -5.619  13.735  19.512  1.00  0.00     0.019 C 
HETATM   14  C24 UNL     1      -3.302  14.573  18.711  1.00  0.00     0.002 C 
HETATM   15  C25 UNL     1      -3.266  15.618  19.819  1.00  0.00     0.009 C 
HETATM   16  C26 UNL     1      -4.414  16.584  19.473  1.00  0.00     0.047 C 
HETATM   17  C27 UNL     1      -5.205  15.943  18.294  1.00  0.00     0.125 C 
HETATM   18  C30 UNL     1      -2.004  10.961  17.801  1.00  0.00    -0.016 C 
HETATM   19  C31 UNL     1      -2.718  10.016  18.793  1.00  0.00     0.020 C 
HETATM   20  C32 UNL     1      -1.979  10.292  16.396  1.00  0.00     0.020 C 
HETATM   21  C33 UNL     1      -0.985   9.145  16.275  1.00  0.00     0.060 C 
ENDROOT
BRANCH   1  22
HETATM   22  O4  UNL     1       1.253   8.156  15.185  1.00  0.00    -0.271 OA
BRANCH  22  23
HETATM   23  C12 UNL     1       2.491   7.629  14.712  1.00  0.00     0.303 C 
BRANCH  23  24
HETATM   24  C11 UNL     1       2.558   7.705  13.189  1.00  0.00     0.244 C 
HETATM   25  N1  UNL     1       3.405   6.782  12.607  1.00  0.00    -0.345 N 
HETATM   26  H12 UNL     1       4.063   6.348  13.245  1.00  0.00     0.163 HD
HETATM   27  O3  UNL     1       1.941   8.546  12.543  1.00  0.00    -0.271 OA
BRANCH  25  28
HETATM   28  C3  UNL     1       3.789   6.890  11.192  1.00  0.00     0.188 C 
BRANCH  28  29
HETATM   29  C2  UNL     1       5.309   6.698  11.004  1.00  0.00     0.281 C 
HETATM   30  O2  UNL     1       5.825   5.719  10.477  1.00  0.00    -0.263 OA
BRANCH  29  31
HETATM   31  O1  UNL     1       6.021   7.731  11.549  1.00  0.00    -0.325 OA
HETATM   32  C1  UNL     1       7.057   7.323  12.442  1.00  0.00     0.213 C 
ENDBRANCH  29  31
ENDBRANCH  28  29
BRANCH  28  33
HETATM   33  C4  UNL     1       3.038   5.828  10.372  1.00  0.00     0.074 C 
BRANCH  33  34
HETATM   34  C5  UNL     1       2.500   6.360   9.065  1.00  0.00    -0.056 A 
HETATM   35  C6  UNL     1       2.831   5.745   7.851  1.00  0.00     0.007 A 
HETATM   36  C7  UNL     1       2.341   6.253   6.646  1.00  0.00     0.001 A 
HETATM   37  C8  UNL     1       1.519   7.377   6.643  1.00  0.00     0.000 A 
HETATM   38  C9  UNL     1       1.186   7.998   7.844  1.00  0.00     0.001 A 
HETATM   39  C10 UNL     1       1.675   7.493   9.049  1.00  0.00     0.007 A 
ENDBRANCH  33  34
ENDBRANCH  28  33
ENDBRANCH  25  28
ENDBRANCH  23  24
ENDBRANCH  22  23
ENDBRANCH   1  22
BRANCH  17  40
HETATM   40  O5  UNL     1      -4.697  16.503  17.078  1.00  0.00    -0.381 OA
HETATM   41  H34 UNL     1      -4.744  17.473  17.148  1.00  0.00     0.211 HD
ENDBRANCH  17  40
BRANCH  17  42
HETATM   42  C28 UNL     1      -6.723  16.225  18.382  1.00  0.00     0.158 C 
HETATM   43  C29 UNL     1      -7.237  17.493  17.747  1.00  0.00     0.094 C 
HETATM   44  O6  UNL     1      -7.508  15.458  18.942  1.00  0.00    -0.295 OA
ENDBRANCH  17  42
TORSDOF 10
ENDMDL
MODEL 5
REMARK minimizedAffinity -7.43772984
REMARK CNNscore 0.348011315
REMARK CNNaffinity 6.69337845
REMARK  10 active torsions:
REMARK  status: ('A' for Active; 'I' for Inactive)
REMARK    1  A    between atoms: O1_2  and  C2_3 
REMARK    2  A    between atoms: C2_3  and  C3_5 
REMARK    3  A    between atoms: C3_5  and  C4_6 
REMARK    4  A    between atoms: C3_5  and  N1_13 
REMARK    5  A    between atoms: C4_6  and  C5_7 
REMARK       I    between atoms: N1_13  and  C11_14 
REMARK    6  A    between atoms: C11_14  and  C12_16 
REMARK    7  A    between atoms: C12_16  and  O4_17 
REMARK    8  A    between atoms: O4_17  and  N2_18 
REMARK    9  A    between atoms: C27_34  and  O5_35 
REMARK   10  A    between atoms: C27_34  and  C28_36 
ROOT
HETATM    1  N2  UNL     1      -0.489  14.516  19.243  1.00  0.00    -0.271 N 
ATOM      2  H2  UNL     1      -0.883  15.391  18.896  1.00  0.00     0.194 HD
HETATM    3  C13 UNL     1      -0.958  13.336  18.953  1.00  0.00     0.032 C 
HETATM    4  C14 UNL     1      -2.190  13.261  18.129  1.00  0.00     0.030 C 
HETATM    5  C15 UNL     1      -2.712  12.086  17.734  1.00  0.00    -0.069 C 
HETATM    6  C16 UNL     1      -4.039  12.065  17.011  1.00  0.00     0.035 C 
HETATM    7  C17 UNL     1      -3.975  11.257  15.721  1.00  0.00     0.010 C 
HETATM    8  C18 UNL     1      -3.464   9.833  15.979  1.00  0.00    -0.004 C 
HETATM    9  C19 UNL     1      -2.059   9.885  16.653  1.00  0.00     0.002 C 
HETATM   10  C20 UNL     1      -1.442   8.471  16.798  1.00  0.00     0.007 C 
HETATM   11  C21 UNL     1      -1.458   7.661  15.489  1.00  0.00     0.013 C 
HETATM   12  C22 UNL     1      -2.867   7.579  14.872  1.00  0.00    -0.002 C 
HETATM   13  C23 UNL     1      -3.789   6.743  15.799  1.00  0.00     0.019 C 
HETATM   14  C24 UNL     1      -3.356   9.035  14.672  1.00  0.00     0.002 C 
HETATM   15  C25 UNL     1      -4.606   8.881  13.816  1.00  0.00     0.009 C 
HETATM   16  C26 UNL     1      -4.297   7.685  12.897  1.00  0.00     0.047 C 
HETATM   17  C27 UNL     1      -2.963   7.060  13.402  1.00  0.00     0.125 C 
HETATM   18  C30 UNL     1      -2.048  10.727  17.987  1.00  0.00    -0.016 C 
HETATM   19  C31 UNL     1      -2.811  10.018  19.128  1.00  0.00     0.020 C 
HETATM   20  C32 UNL     1      -0.568  10.933  18.422  1.00  0.00     0.020 C 
HETATM   21  C33 UNL     1      -0.375  12.033  19.457  1.00  0.00     0.060 C 
ENDROOT
BRANCH   1  22
HETATM   22  O4  UNL     1       0.623  14.437  20.090  1.00  0.00    -0.271 OA
BRANCH  22  23
HETATM   23  C12 UNL     1       1.800  14.765  19.356  1.00  0.00     0.303 C 
BRANCH  23  24
HETATM   24  C11 UNL     1       2.937  13.811  19.710  1.00  0.00     0.244 C 
HETATM   25  N1  UNL     1       3.186  13.695  21.063  1.00  0.00    -0.345 N 
HETATM   26  H12 UNL     1       2.779  14.427  21.635  1.00  0.00     0.163 HD
HETATM   27  O3  UNL     1       3.599  13.229  18.856  1.00  0.00    -0.271 OA
BRANCH  25  28
HETATM   28  C3  UNL     1       4.403  13.035  21.558  1.00  0.00     0.188 C 
BRANCH  28  29
HETATM   29  C2  UNL     1       5.549  14.047  21.768  1.00  0.00     0.281 C 
HETATM   30  O2  UNL     1       5.414  15.264  21.739  1.00  0.00    -0.263 OA
BRANCH  29  31
HETATM   31  O1  UNL     1       6.753  13.420  21.935  1.00  0.00    -0.325 OA
HETATM   32  C1  UNL     1       7.842  14.053  21.262  1.00  0.00     0.213 C 
ENDBRANCH  29  31
ENDBRANCH  28  29
BRANCH  28  33
HETATM   33  C4  UNL     1       4.100  12.328  22.889  1.00  0.00     0.074 C 
BRANCH  33  34
HETATM   34  C5  UNL     1       3.447  10.977  22.709  1.00  0.00    -0.056 A 
HETATM   35  C6  UNL     1       3.006  10.558  21.447  1.00  0.00     0.007 A 
HETATM   36  C7  UNL     1       2.390   9.315  21.293  1.00  0.00     0.001 A 
HETATM   37  C8  UNL     1       2.208   8.482  22.394  1.00  0.00     0.000 A 
HETATM   38  C9  UNL     1       2.640   8.891  23.654  1.00  0.00     0.001 A 
HETATM   39  C10 UNL     1       3.255  10.133  23.811  1.00  0.00     0.007 A 
ENDBRANCH  33  34
ENDBRANCH  28  33
ENDBRANCH  25  28
ENDBRANCH  23  24
ENDBRANCH  22  23
ENDBRANCH   1  22
BRANCH  17  40
HETATM   40  O5  UNL     1      -1.902   7.618  12.620  1.00  0.00    -0.381 OA
HETATM   41  H34 UNL     1      -2.111   7.478  11.680  1.00  0.00     0.211 HD
ENDBRANCH  17  40
BRANCH  17  42
HETATM   42  C28 UNL     1      -2.941   5.521  13.253  1.00  0.00     0.158 C 
HETATM   43  C29 UNL     1      -4.220   4.840  12.831  1.00  0.00     0.094 C 
HETATM   44  O6  UNL     1      -1.930   4.850  13.462  1.00  0.00    -0.295 OA
ENDBRANCH  17  42
TORSDOF 10
ENDMDL
MODEL 6
REMARK minimizedAffinity -8.58092976
REMARK CNNscore 0.31785059
REMARK CNNaffinity 7.12654877
REMARK  10 active torsions:
REMARK  status: ('A' for Active; 'I' for Inactive)
REMARK    1  A    between atoms: O1_2  and  C2_3 
REMARK    2  A    between atoms: C2_3  and  C3_5 
REMARK    3  A    between atoms: C3_5  and  C4_6 
REMARK    4  A    between atoms: C3_5  and  N1_13 
REMARK    5  A    between atoms: C4_6  and  C5_7 
REMARK       I    between atoms: N1_13  and  C11_14 
REMARK    6  A    between atoms: C11_14  and  C12_16 
REMARK    7  A    between atoms: C12_16  and  O4_17 
REMARK    8  A    between atoms: O4_17  and  N2_18 
REMARK    9  A    between atoms: C27_34  and  O5_35 
REMARK   10  A    between atoms: C27_34  and  C28_36 
ROOT
HETATM    1  N2  UNL     1     -10.505   6.725  13.277  1.00  0.00    -0.271 N 
ATOM      2  H2  UNL     1     -10.938   6.100  12.597  1.00  0.00     0.194 HD
HETATM    3  C13 UNL     1      -9.281   6.602  13.708  1.00  0.00     0.032 C 
HETATM    4  C14 UNL     1      -8.494   5.434  13.240  1.00  0.00     0.030 C 
HETATM    5  C15 UNL     1      -7.207   5.258  13.588  1.00  0.00    -0.069 C 
HETATM    6  C16 UNL     1      -6.495   3.986  13.192  1.00  0.00     0.035 C 
HETATM    7  C17 UNL     1      -5.164   4.264  12.506  1.00  0.00     0.010 C 
HETATM    8  C18 UNL     1      -4.262   5.153  13.373  1.00  0.00    -0.004 C 
HETATM    9  C19 UNL     1      -4.993   6.492  13.700  1.00  0.00     0.002 C 
HETATM   10  C20 UNL     1      -4.064   7.480  14.451  1.00  0.00     0.007 C 
HETATM   11  C21 UNL     1      -2.703   7.682  13.762  1.00  0.00     0.013 C 
HETATM   12  C22 UNL     1      -1.979   6.349  13.500  1.00  0.00    -0.002 C 
HETATM   13  C23 UNL     1      -1.580   5.701  14.853  1.00  0.00     0.019 C 
HETATM   14  C24 UNL     1      -2.941   5.471  12.661  1.00  0.00     0.002 C 
HETATM   15  C25 UNL     1      -2.068   4.308  12.208  1.00  0.00     0.009 C 
HETATM   16  C26 UNL     1      -0.677   4.933  11.996  1.00  0.00     0.047 C 
HETATM   17  C27 UNL     1      -0.749   6.391  12.537  1.00  0.00     0.125 C 
HETATM   18  C30 UNL     1      -6.392   6.277  14.394  1.00  0.00    -0.016 C 
HETATM   19  C31 UNL     1      -6.248   5.748  15.840  1.00  0.00     0.020 C 
HETATM   20  C32 UNL     1      -7.136   7.643  14.429  1.00  0.00     0.020 C 
HETATM   21  C33 UNL     1      -8.627   7.528  14.711  1.00  0.00     0.060 C 
ENDROOT
BRANCH   1  22
HETATM   22  O4  UNL     1     -11.152   7.820  13.862  1.00  0.00    -0.271 OA
BRANCH  22  23
HETATM   23  C12 UNL     1     -11.927   7.374  14.971  1.00  0.00     0.303 C 
BRANCH  23  24
HETATM   24  C11 UNL     1     -13.306   6.912  14.511  1.00  0.00     0.244 C 
HETATM   25  N1  UNL     1     -14.186   6.624  15.535  1.00  0.00    -0.345 N 
HETATM   26  H12 UNL     1     -13.754   6.503  16.445  1.00  0.00     0.163 HD
HETATM   27  O3  UNL     1     -13.591   6.769  13.326  1.00  0.00    -0.271 OA
BRANCH  25  28
HETATM   28  C3  UNL     1     -15.450   5.920  15.277  1.00  0.00     0.188 C 
BRANCH  28  29
HETATM   29  C2  UNL     1     -16.480   6.841  14.590  1.00  0.00     0.281 C 
HETATM   30  O2  UNL     1     -16.618   8.034  14.837  1.00  0.00    -0.263 OA
BRANCH  29  31
HETATM   31  O1  UNL     1     -17.265   6.152  13.707  1.00  0.00    -0.325 OA
HETATM   32  C1  UNL     1     -18.618   6.606  13.648  1.00  0.00     0.213 C 
ENDBRANCH  29  31
ENDBRANCH  28  29
BRANCH  28  33
HETATM   33  C4  UNL     1     -15.185   4.698  14.382  1.00  0.00     0.074 C 
BRANCH  33  34
HETATM   34  C5  UNL     1     -15.602   3.394  15.020  1.00  0.00    -0.056 A 
HETATM   35  C6  UNL     1     -16.711   3.336  15.874  1.00  0.00     0.007 A 
HETATM   36  C7  UNL     1     -17.079   2.129  16.471  1.00  0.00     0.001 A 
HETATM   37  C8  UNL     1     -16.345   0.972  16.222  1.00  0.00     0.000 A 
HETATM   38  C9  UNL     1     -15.240   1.019  15.376  1.00  0.00     0.001 A 
HETATM   39  C10 UNL     1     -14.868   2.224  14.780  1.00  0.00     0.007 A 
ENDBRANCH  33  34
ENDBRANCH  28  33
ENDBRANCH  25  28
ENDBRANCH  23  24
ENDBRANCH  22  23
ENDBRANCH   1  22
BRANCH  17  40
HETATM   40  O5  UNL     1      -1.031   7.250  11.427  1.00  0.00    -0.381 OA
HETATM   41  H34 UNL     1      -0.366   7.082  10.736  1.00  0.00     0.211 HD
ENDBRANCH  17  40
BRANCH  17  42
HETATM   42  C28 UNL     1       0.576   6.840  13.195  1.00  0.00     0.158 C 
HETATM   43  C29 UNL     1       0.788   8.319  13.406  1.00  0.00     0.094 C 
HETATM   44  O6  UNL     1       1.445   6.041  13.547  1.00  0.00    -0.295 OA
ENDBRANCH  17  42
TORSDOF 10
ENDMDL
MODEL 7
REMARK minimizedAffinity -10.4874735
REMARK CNNscore 0.308697522
REMARK CNNaffinity 7.37624121
REMARK  10 active torsions:
REMARK  status: ('A' for Active; 'I' for Inactive)
REMARK    1  A    between atoms: O1_2  and  C2_3 
REMARK    2  A    between atoms: C2_3  and  C3_5 
REMARK    3  A    between atoms: C3_5  and  C4_6 
REMARK    4  A    between atoms: C3_5  and  N1_13 
REMARK    5  A    between atoms: C4_6  and  C5_7 
REMARK       I    between atoms: N1_13  and  C11_14 
REMARK    6  A    between atoms: C11_14  and  C12_16 
REMARK    7  A    between atoms: C12_16  and  O4_17 
REMARK    8  A    between atoms: O4_17  and  N2_18 
REMARK    9  A    between atoms: C27_34  and  O5_35 
REMARK   10  A    between atoms: C27_34  and  C28_36 
ROOT
HETATM    1  N2  UNL     1       2.335   6.622  14.865  1.00  0.00    -0.271 N 
ATOM      2  H2  UNL     1       2.769   5.741  14.589  1.00  0.00     0.194 HD
HETATM    3  C13 UNL     1       1.110   6.957  14.574  1.00  0.00     0.032 C 
HETATM    4  C14 UNL     1       0.321   6.032  13.722  1.00  0.00     0.030 C 
HETATM    5  C15 UNL     1      -0.968   6.269  13.420  1.00  0.00    -0.069 C 
HETATM    6  C16 UNL     1      -1.682   5.366  12.442  1.00  0.00     0.035 C 
HETATM    7  C17 UNL     1      -3.010   4.862  12.992  1.00  0.00     0.010 C 
HETATM    8  C18 UNL     1      -3.912   6.024  13.429  1.00  0.00    -0.004 C 
HETATM    9  C19 UNL     1      -3.179   6.894  14.496  1.00  0.00     0.002 C 
HETATM   10  C20 UNL     1      -4.107   7.993  15.071  1.00  0.00     0.007 C 
HETATM   11  C21 UNL     1      -5.466   7.454  15.555  1.00  0.00     0.013 C 
HETATM   12  C22 UNL     1      -6.193   6.645  14.465  1.00  0.00    -0.002 C 
HETATM   13  C23 UNL     1      -6.598   7.590  13.303  1.00  0.00     0.019 C 
HETATM   14  C24 UNL     1      -5.229   5.514  14.027  1.00  0.00     0.002 C 
HETATM   15  C25 UNL     1      -6.104   4.605  13.173  1.00  0.00     0.009 C 
HETATM   16  C26 UNL     1      -7.493   4.678  13.834  1.00  0.00     0.047 C 
HETATM   17  C27 UNL     1      -7.419   5.791  14.920  1.00  0.00     0.125 C 
HETATM   18  C30 UNL     1      -1.783   7.432  13.999  1.00  0.00    -0.016 C 
HETATM   19  C31 UNL     1      -1.934   8.512  12.903  1.00  0.00     0.020 C 
HETATM   20  C32 UNL     1      -1.035   8.050  15.216  1.00  0.00     0.020 C 
HETATM   21  C33 UNL     1       0.455   8.259  14.985  1.00  0.00     0.060 C 
ENDROOT
BRANCH   1  22
HETATM   22  O4  UNL     1       2.983   7.621  15.602  1.00  0.00    -0.271 OA
BRANCH  22  23
HETATM   23  C12 UNL     1       4.234   7.925  14.988  1.00  0.00     0.303 C 
BRANCH  23  24
HETATM   24  C11 UNL     1       4.079   8.016  13.473  1.00  0.00     0.244 C 
HETATM   25  N1  UNL     1       4.770   7.050  12.768  1.00  0.00    -0.345 N 
HETATM   26  H12 UNL     1       5.487   6.568  13.299  1.00  0.00     0.163 HD
HETATM   27  O3  UNL     1       3.428   8.903  12.929  1.00  0.00    -0.271 OA
BRANCH  25  28
HETATM   28  C3  UNL     1       4.947   7.153  11.312  1.00  0.00     0.188 C 
BRANCH  28  29
HETATM   29  C2  UNL     1       6.412   6.895  10.901  1.00  0.00     0.281 C 
HETATM   30  O2  UNL     1       6.864   5.799  10.593  1.00  0.00    -0.263 OA
BRANCH  29  31
HETATM   31  O1  UNL     1       7.166   8.034  10.977  1.00  0.00    -0.325 OA
HETATM   32  C1  UNL     1       6.458   9.230  10.648  1.00  0.00     0.213 C 
ENDBRANCH  29  31
ENDBRANCH  28  29
BRANCH  28  33
HETATM   33  C4  UNL     1       4.036   6.132  10.610  1.00  0.00     0.074 C 
BRANCH  33  34
HETATM   34  C5  UNL     1       3.410   6.667   9.344  1.00  0.00    -0.056 A 
HETATM   35  C6  UNL     1       3.303   8.047   9.125  1.00  0.00     0.007 A 
HETATM   36  C7  UNL     1       2.710   8.532   7.959  1.00  0.00     0.001 A 
HETATM   37  C8  UNL     1       2.218   7.647   7.002  1.00  0.00     0.000 A 
HETATM   38  C9  UNL     1       2.317   6.273   7.211  1.00  0.00     0.001 A 
HETATM   39  C10 UNL     1       2.908   5.786   8.377  1.00  0.00     0.007 A 
ENDBRANCH  33  34
ENDBRANCH  28  33
ENDBRANCH  25  28
ENDBRANCH  23  24
ENDBRANCH  22  23
ENDBRANCH   1  22
BRANCH  17  40
HETATM   40  O5  UNL     1      -7.130   5.156  16.170  1.00  0.00    -0.381 OA
HETATM   41  H34 UNL     1      -7.793   4.458  16.317  1.00  0.00     0.211 HD
ENDBRANCH  17  40
BRANCH  17  42
HETATM   42  C28 UNL     1      -8.745   6.575  15.050  1.00  0.00     0.158 C 
HETATM   43  C29 UNL     1      -8.948   7.409  16.292  1.00  0.00     0.094 C 
HETATM   44  O6  UNL     1      -9.622   6.542  14.186  1.00  0.00    -0.295 OA
ENDBRANCH  17  42
TORSDOF 10
ENDMDL
MODEL 8
REMARK minimizedAffinity -8.56991482
REMARK CNNscore 0.287010252
REMARK CNNaffinity 7.51102972
REMARK  10 active torsions:
REMARK  status: ('A' for Active; 'I' for Inactive)
REMARK    1  A    between atoms: O1_2  and  C2_3 
REMARK    2  A    between atoms: C2_3  and  C3_5 
REMARK    3  A    between atoms: C3_5  and  C4_6 
REMARK    4  A    between atoms: C3_5  and  N1_13 
REMARK    5  A    between atoms: C4_6  and  C5_7 
REMARK       I    between atoms: N1_13  and  C11_14 
REMARK    6  A    between atoms: C11_14  and  C12_16 
REMARK    7  A    between atoms: C12_16  and  O4_17 
REMARK    8  A    between atoms: O4_17  and  N2_18 
REMARK    9  A    between atoms: C27_34  and  O5_35 
REMARK   10  A    between atoms: C27_34  and  C28_36 
ROOT
HETATM    1  N2  UNL     1      -3.164   4.615  12.335  1.00  0.00    -0.271 N 
ATOM      2  H2  UNL     1      -2.372   5.231  12.518  1.00  0.00     0.194 HD
HETATM    3  C13 UNL     1      -4.355   4.786  12.833  1.00  0.00     0.032 C 
HETATM    4  C14 UNL     1      -4.554   5.903  13.790  1.00  0.00     0.030 C 
HETATM    5  C15 UNL     1      -5.762   6.188  14.310  1.00  0.00    -0.069 C 
HETATM    6  C16 UNL     1      -5.882   7.249  15.379  1.00  0.00     0.035 C 
HETATM    7  C17 UNL     1      -6.961   8.272  15.051  1.00  0.00     0.010 C 
HETATM    8  C18 UNL     1      -8.314   7.595  14.793  1.00  0.00    -0.004 C 
HETATM    9  C19 UNL     1      -8.178   6.562  13.632  1.00  0.00     0.002 C 
HETATM   10  C20 UNL     1      -9.551   5.960  13.240  1.00  0.00     0.007 C 
HETATM   11  C21 UNL     1     -10.633   7.025  12.983  1.00  0.00     0.013 C 
HETATM   12  C22 UNL     1     -10.785   7.998  14.166  1.00  0.00    -0.002 C 
HETATM   13  C23 UNL     1     -11.346   7.236  15.396  1.00  0.00     0.019 C 
HETATM   14  C24 UNL     1      -9.389   8.623  14.417  1.00  0.00     0.002 C 
HETATM   15  C25 UNL     1      -9.671   9.760  15.390  1.00  0.00     0.009 C 
HETATM   16  C26 UNL     1     -11.057  10.286  14.974  1.00  0.00     0.047 C 
HETATM   17  C27 UNL     1     -11.616   9.296  13.910  1.00  0.00     0.125 C 
HETATM   18  C30 UNL     1      -7.059   5.483  13.896  1.00  0.00    -0.016 C 
HETATM   19  C31 UNL     1      -7.456   4.498  15.019  1.00  0.00     0.020 C 
HETATM   20  C32 UNL     1      -6.832   4.683  12.580  1.00  0.00     0.020 C 
HETATM   21  C33 UNL     1      -5.538   3.881  12.561  1.00  0.00     0.060 C 
ENDROOT
BRANCH   1  22
HETATM   22  O4  UNL     1      -3.103   3.481  11.516  1.00  0.00    -0.271 OA
BRANCH  22  23
HETATM   23  C12 UNL     1      -1.836   3.435  10.864  1.00  0.00     0.303 C 
BRANCH  23  24
HETATM   24  C11 UNL     1      -0.804   4.247  11.642  1.00  0.00     0.244 C 
HETATM   25  N1  UNL     1      -0.515   5.481  11.092  1.00  0.00    -0.345 N 
HETATM   26  H12 UNL     1      -0.811   5.598  10.129  1.00  0.00     0.163 HD
HETATM   27  O3  UNL     1      -0.249   3.817  12.648  1.00  0.00    -0.271 OA
BRANCH  25  28
HETATM   28  C3  UNL     1       0.636   6.269  11.556  1.00  0.00     0.188 C 
BRANCH  28  29
HETATM   29  C2  UNL     1       1.855   6.088  10.628  1.00  0.00     0.281 C 
HETATM   30  O2  UNL     1       1.803   5.623   9.495  1.00  0.00    -0.263 OA
BRANCH  29  31
HETATM   31  O1  UNL     1       3.019   6.458  11.243  1.00  0.00    -0.325 OA
HETATM   32  C1  UNL     1       4.140   6.564  10.365  1.00  0.00     0.213 C 
ENDBRANCH  29  31
ENDBRANCH  28  29
BRANCH  28  33
HETATM   33  C4  UNL     1       0.254   7.757  11.609  1.00  0.00     0.074 C 
BRANCH  33  34
HETATM   34  C5  UNL     1      -0.675   8.091  12.753  1.00  0.00    -0.056 A 
HETATM   35  C6  UNL     1      -0.653   7.341  13.935  1.00  0.00     0.007 A 
HETATM   36  C7  UNL     1      -1.526   7.648  14.981  1.00  0.00     0.001 A 
HETATM   37  C8  UNL     1      -2.426   8.704  14.855  1.00  0.00     0.000 A 
HETATM   38  C9  UNL     1      -2.458   9.454  13.682  1.00  0.00     0.001 A 
HETATM   39  C10 UNL     1      -1.587   9.148  12.635  1.00  0.00     0.007 A 
ENDBRANCH  33  34
ENDBRANCH  28  33
ENDBRANCH  25  28
ENDBRANCH  23  24
ENDBRANCH  22  23
ENDBRANCH   1  22
BRANCH  17  40
HETATM   40  O5  UNL     1     -11.300   9.827  12.618  1.00  0.00    -0.381 OA
HETATM   41  H34 UNL     1     -11.637  10.739  12.574  1.00  0.00     0.211 HD
ENDBRANCH  17  40
BRANCH  17  42
HETATM   42  C28 UNL     1     -13.148   9.119  14.018  1.00  0.00     0.158 C 
HETATM   43  C29 UNL     1     -13.856   8.426  12.880  1.00  0.00     0.094 C 
HETATM   44  O6  UNL     1     -13.794   9.517  14.988  1.00  0.00    -0.295 OA
ENDBRANCH  17  42
TORSDOF 10
ENDMDL
MODEL 9
REMARK minimizedAffinity -7.69304276
REMARK CNNscore 0.221081585
REMARK CNNaffinity 6.22144079
REMARK  10 active torsions:
REMARK  status: ('A' for Active; 'I' for Inactive)
REMARK    1  A    between atoms: O1_2  and  C2_3 
REMARK    2  A    between atoms: C2_3  and  C3_5 
REMARK    3  A    between atoms: C3_5  and  C4_6 
REMARK    4  A    between atoms: C3_5  and  N1_13 
REMARK    5  A    between atoms: C4_6  and  C5_7 
REMARK       I    between atoms: N1_13  and  C11_14 
REMARK    6  A    between atoms: C11_14  and  C12_16 
REMARK    7  A    between atoms: C12_16  and  O4_17 
REMARK    8  A    between atoms: O4_17  and  N2_18 
REMARK    9  A    between atoms: C27_34  and  O5_35 
REMARK   10  A    between atoms: C27_34  and  C28_36 
ROOT
HETATM    1  N2  UNL     1     -14.152   7.587  12.634  1.00  0.00    -0.271 N 
ATOM      2  H2  UNL     1     -14.279   7.809  11.646  1.00  0.00     0.194 HD
HETATM    3  C13 UNL     1     -14.940   6.804  13.315  1.00  0.00     0.032 C 
HETATM    4  C14 UNL     1     -16.142   6.263  12.632  1.00  0.00     0.030 C 
HETATM    5  C15 UNL     1     -16.979   5.403  13.239  1.00  0.00    -0.069 C 
HETATM    6  C16 UNL     1     -18.255   4.990  12.545  1.00  0.00     0.035 C 
HETATM    7  C17 UNL     1     -18.426   3.476  12.514  1.00  0.00     0.010 C 
HETATM    8  C18 UNL     1     -18.345   2.875  13.924  1.00  0.00    -0.004 C 
HETATM    9  C19 UNL     1     -16.984   3.253  14.585  1.00  0.00     0.002 C 
HETATM   10  C20 UNL     1     -16.799   2.546  15.952  1.00  0.00     0.007 C 
HETATM   11  C21 UNL     1     -17.046   1.028  15.893  1.00  0.00     0.013 C 
HETATM   12  C22 UNL     1     -18.419   0.684  15.286  1.00  0.00    -0.002 C 
HETATM   13  C23 UNL     1     -19.543   1.173  16.237  1.00  0.00     0.019 C 
HETATM   14  C24 UNL     1     -18.470   1.347  13.886  1.00  0.00     0.002 C 
HETATM   15  C25 UNL     1     -19.711   0.740  13.244  1.00  0.00     0.009 C 
HETATM   16  C26 UNL     1     -19.759  -0.700  13.786  1.00  0.00     0.047 C 
HETATM   17  C27 UNL     1     -18.660  -0.806  14.885  1.00  0.00     0.125 C 
HETATM   18  C30 UNL     1     -16.732   4.809  14.631  1.00  0.00    -0.016 C 
HETATM   19  C31 UNL     1     -17.667   5.519  15.635  1.00  0.00     0.020 C 
HETATM   20  C32 UNL     1     -15.255   5.052  15.058  1.00  0.00     0.020 C 
HETATM   21  C33 UNL     1     -14.755   6.462  14.778  1.00  0.00     0.060 C 
ENDROOT
BRANCH   1  22
HETATM   22  O4  UNL     1     -13.109   8.086  13.424  1.00  0.00    -0.271 OA
BRANCH  22  23
HETATM   23  C12 UNL     1     -12.418   6.999  14.035  1.00  0.00     0.303 C 
BRANCH  23  24
HETATM   24  C11 UNL     1     -10.965   6.959  13.569  1.00  0.00     0.244 C 
HETATM   25  N1  UNL     1     -10.067   6.540  14.531  1.00  0.00    -0.345 N 
HETATM   26  H12 UNL     1     -10.423   6.558  15.481  1.00  0.00     0.163 HD
HETATM   27  O3  UNL     1     -10.624   7.311  12.444  1.00  0.00    -0.271 OA
BRANCH  25  28
HETATM   28  C3  UNL     1      -8.618   6.697  14.338  1.00  0.00     0.188 C 
BRANCH  28  29
HETATM   29  C2  UNL     1      -8.103   8.008  14.969  1.00  0.00     0.281 C 
HETATM   30  O2  UNL     1      -6.954   8.422  14.869  1.00  0.00    -0.263 OA
BRANCH  29  31
HETATM   31  O1  UNL     1      -9.073   8.630  15.706  1.00  0.00    -0.325 OA
HETATM   32  C1  UNL     1      -9.370   9.961  15.282  1.00  0.00     0.213 C 
ENDBRANCH  29  31
ENDBRANCH  28  29
BRANCH  28  33
HETATM   33  C4  UNL     1      -7.882   5.506  14.972  1.00  0.00     0.074 C 
BRANCH  33  34
HETATM   34  C5  UNL     1      -7.125   4.672  13.965  1.00  0.00    -0.056 A 
HETATM   35  C6  UNL     1      -5.840   5.042  13.550  1.00  0.00     0.007 A 
HETATM   36  C7  UNL     1      -5.154   4.273  12.607  1.00  0.00     0.001 A 
HETATM   37  C8  UNL     1      -5.745   3.132  12.071  1.00  0.00     0.000 A 
HETATM   38  C9  UNL     1      -7.024   2.757  12.475  1.00  0.00     0.001 A 
HETATM   39  C10 UNL     1      -7.712   3.524  13.416  1.00  0.00     0.007 A 
ENDBRANCH  33  34
ENDBRANCH  28  33
ENDBRANCH  25  28
ENDBRANCH  23  24
ENDBRANCH  22  23
ENDBRANCH   1  22
BRANCH  17  40
HETATM   40  O5  UNL     1     -17.483  -1.339  14.269  1.00  0.00    -0.381 OA
HETATM   41  H34 UNL     1     -17.724  -2.170  13.822  1.00  0.00     0.211 HD
ENDBRANCH  17  40
BRANCH  17  42
HETATM   42  C28 UNL     1     -19.081  -1.732  16.049  1.00  0.00     0.158 C 
HETATM   43  C29 UNL     1     -20.471  -2.318  16.012  1.00  0.00     0.094 C 
HETATM   44  O6  UNL     1     -18.328  -2.002  16.986  1.00  0.00    -0.295 OA
ENDBRANCH  17  42
TORSDOF 10
ENDMDL
