MODEL 1
REMARK minimizedAffinity -9.90909195
REMARK  6 active torsions:
REMARK  status: ('A' for Active; 'I' for Inactive)
REMARK    1  A    between atoms: C4_4  and  C5_5 
REMARK    2  A    between atoms: C5_5  and  C6_6 
REMARK    3  A    between atoms: C6_6  and  C7_7 
REMARK    4  A    between atoms: C7_7  and  C9_9 
REMARK    5  A    between atoms: C17_17  and  O1_18 
REMARK    6  A    between atoms: C21_22  and  O2_23 
ROOT
HETATM    1  C9  UNL     1      -0.609  52.685 -21.477  1.00  0.00    -0.002 C 
HETATM    2  C10 UNL     1       0.017  52.569 -22.893  1.00  0.00     0.006 C 
HETATM    3  C11 UNL     1      -0.687  51.381 -23.595  1.00  0.00     0.011 C 
HETATM    4  C12 UNL     1      -1.912  51.063 -22.710  1.00  0.00    -0.032 C 
HETATM    5  C13 UNL     1      -3.010  52.107 -23.117  1.00  0.00     0.016 C 
HETATM    6  C14 UNL     1      -2.457  49.596 -22.808  1.00  0.00     0.003 C 
HETATM    7  C15 UNL     1      -2.857  49.231 -24.253  1.00  0.00     0.009 C 
HETATM    8  C16 UNL     1      -4.123  48.405 -24.393  1.00  0.00     0.039 C 
HETATM    9  C17 UNL     1      -5.338  49.004 -23.651  1.00  0.00     0.071 C 
HETATM   10  C18 UNL     1      -4.995  49.521 -22.193  1.00  0.00     0.029 C 
HETATM   11  C19 UNL     1      -6.109  49.206 -21.169  1.00  0.00     0.011 C 
HETATM   12  C20 UNL     1      -7.507  49.460 -21.712  1.00  0.00     0.033 C 
HETATM   13  C21 UNL     1      -7.812  48.792 -23.052  1.00  0.00     0.129 C 
HETATM   14  C22 UNL     1      -6.615  48.073 -23.738  1.00  0.00     0.010 C 
HETATM   15  C23 UNL     1      -6.381  46.658 -23.147  1.00  0.00     0.020 C 
HETATM   16  C24 UNL     1      -7.041  47.816 -25.214  1.00  0.00     0.020 C 
HETATM   17  C25 UNL     1      -3.521  49.224 -21.685  1.00  0.00    -0.033 C 
HETATM   18  C26 UNL     1      -3.389  47.705 -21.348  1.00  0.00     0.016 C 
HETATM   19  C27 UNL     1      -3.204  49.935 -20.297  1.00  0.00     0.011 C 
HETATM   20  C28 UNL     1      -2.466  51.284 -20.279  1.00  0.00     0.011 C 
HETATM   21  C29 UNL     1      -1.309  51.306 -21.281  1.00  0.00    -0.032 C 
HETATM   22  C30 UNL     1      -0.262  50.244 -20.835  1.00  0.00     0.016 C 
ENDROOT
BRANCH   1  23
HETATM   23  C7  UNL     1       0.317  53.239 -20.351  1.00  0.00    -0.014 C 
HETATM   24  C8  UNL     1       1.732  53.410 -20.939  1.00  0.00     0.010 C 
BRANCH  23  25
HETATM   25  C6  UNL     1       0.398  52.382 -19.063  1.00  0.00     0.008 C 
BRANCH  25  26
HETATM   26  C5  UNL     1       1.476  52.830 -18.061  1.00  0.00     0.028 C 
BRANCH  26  27
HETATM   27  C4  UNL     1       1.481  52.082 -16.760  1.00  0.00    -0.025 C 
HETATM   28  C2  UNL     1       2.498  51.975 -15.882  1.00  0.00    -0.091 C 
HETATM   29  C1  UNL     1       2.343  51.164 -14.623  1.00  0.00     0.042 C 
HETATM   30  C3  UNL     1       3.840  52.636 -16.034  1.00  0.00     0.042 C 
ENDBRANCH  26  27
ENDBRANCH  25  26
ENDBRANCH  23  25
ENDBRANCH   1  23
BRANCH   9  31
HETATM   31  O1  UNL     1      -5.678  50.224 -24.366  1.00  0.00    -0.389 OA
HETATM   32  H29 UNL     1      -5.614  50.056 -25.321  1.00  0.00     0.210 HD
ENDBRANCH   9  31
BRANCH  13  33
HETATM   33  O2  UNL     1      -8.908  47.888 -22.883  1.00  0.00    -0.395 OA
HETATM   34  H36 UNL     1      -9.671  48.413 -22.581  1.00  0.00     0.210 HD
ENDBRANCH  13  33
TORSDOF 6
ENDMDL
MODEL 2
REMARK minimizedAffinity -9.33993149
REMARK  6 active torsions:
REMARK  status: ('A' for Active; 'I' for Inactive)
REMARK    1  A    between atoms: C4_4  and  C5_5 
REMARK    2  A    between atoms: C5_5  and  C6_6 
REMARK    3  A    between atoms: C6_6  and  C7_7 
REMARK    4  A    between atoms: C7_7  and  C9_9 
REMARK    5  A    between atoms: C17_17  and  O1_18 
REMARK    6  A    between atoms: C21_22  and  O2_23 
ROOT
HETATM    1  C9  UNL     1      -1.476  48.909 -18.794  1.00  0.00    -0.002 C 
HETATM    2  C10 UNL     1      -2.736  48.003 -18.817  1.00  0.00     0.006 C 
HETATM    3  C11 UNL     1      -3.522  48.366 -20.101  1.00  0.00     0.011 C 
HETATM    4  C12 UNL     1      -2.544  49.216 -20.942  1.00  0.00    -0.032 C 
HETATM    5  C13 UNL     1      -1.606  48.187 -21.666  1.00  0.00     0.016 C 
HETATM    6  C14 UNL     1      -3.208  50.199 -21.967  1.00  0.00     0.003 C 
HETATM    7  C15 UNL     1      -4.111  49.454 -22.971  1.00  0.00     0.009 C 
HETATM    8  C16 UNL     1      -4.048  49.951 -24.404  1.00  0.00     0.039 C 
HETATM    9  C17 UNL     1      -2.611  50.044 -24.964  1.00  0.00     0.071 C 
HETATM   10  C18 UNL     1      -1.580  50.690 -23.950  1.00  0.00     0.029 C 
HETATM   11  C19 UNL     1      -0.571  51.634 -24.643  1.00  0.00     0.011 C 
HETATM   12  C20 UNL     1      -0.038  51.078 -25.955  1.00  0.00     0.033 C 
HETATM   13  C21 UNL     1      -1.108  50.621 -26.946  1.00  0.00     0.129 C 
HETATM   14  C22 UNL     1      -2.573  50.655 -26.423  1.00  0.00     0.010 C 
HETATM   15  C23 UNL     1      -3.179  52.079 -26.506  1.00  0.00     0.020 C 
HETATM   16  C24 UNL     1      -3.417  49.810 -27.424  1.00  0.00     0.020 C 
HETATM   17  C25 UNL     1      -2.198  51.252 -22.601  1.00  0.00    -0.033 C 
HETATM   18  C26 UNL     1      -2.972  52.575 -22.902  1.00  0.00     0.016 C 
HETATM   19  C27 UNL     1      -1.080  51.711 -21.566  1.00  0.00     0.011 C 
HETATM   20  C28 UNL     1      -0.634  50.756 -20.447  1.00  0.00     0.011 C 
HETATM   21  C29 UNL     1      -1.827  50.036 -19.813  1.00  0.00    -0.032 C 
HETATM   22  C30 UNL     1      -2.726  51.106 -19.124  1.00  0.00     0.016 C 
ENDROOT
BRANCH   1  23
HETATM   23  C7  UNL     1      -0.923  49.295 -17.388  1.00  0.00    -0.014 C 
HETATM   24  C8  UNL     1      -2.070  49.147 -16.368  1.00  0.00     0.010 C 
BRANCH  23  25
HETATM   25  C6  UNL     1      -0.314  50.715 -17.270  1.00  0.00     0.008 C 
BRANCH  25  26
HETATM   26  C5  UNL     1       0.711  50.881 -16.134  1.00  0.00     0.028 C 
BRANCH  26  27
HETATM   27  C4  UNL     1       1.880  51.764 -16.461  1.00  0.00    -0.025 C 
HETATM   28  C2  UNL     1       2.939  52.042 -15.675  1.00  0.00    -0.091 C 
HETATM   29  C1  UNL     1       4.025  52.971 -16.151  1.00  0.00     0.042 C 
HETATM   30  C3  UNL     1       3.167  51.472 -14.303  1.00  0.00     0.042 C 
ENDBRANCH  26  27
ENDBRANCH  25  26
ENDBRANCH  23  25
ENDBRANCH   1  23
BRANCH   9  31
HETATM   31  O1  UNL     1      -2.143  48.672 -25.087  1.00  0.00    -0.389 OA
HETATM   32  H29 UNL     1      -2.865  48.126 -25.442  1.00  0.00     0.210 HD
ENDBRANCH   9  31
BRANCH  13  33
HETATM   33  O2  UNL     1      -0.987  51.390 -28.147  1.00  0.00    -0.395 OA
HETATM   34  H36 UNL     1      -0.097  51.227 -28.505  1.00  0.00     0.210 HD
ENDBRANCH  13  33
TORSDOF 6
ENDMDL
MODEL 3
REMARK minimizedAffinity -9.3316164
REMARK  6 active torsions:
REMARK  status: ('A' for Active; 'I' for Inactive)
REMARK    1  A    between atoms: C4_4  and  C5_5 
REMARK    2  A    between atoms: C5_5  and  C6_6 
REMARK    3  A    between atoms: C6_6  and  C7_7 
REMARK    4  A    between atoms: C7_7  and  C9_9 
REMARK    5  A    between atoms: C17_17  and  O1_18 
REMARK    6  A    between atoms: C21_22  and  O2_23 
ROOT
HETATM    1  C9  UNL     1      -3.933  51.101 -24.104  1.00  0.00    -0.002 C 
HETATM    2  C10 UNL     1      -5.392  50.765 -23.692  1.00  0.00     0.006 C 
HETATM    3  C11 UNL     1      -5.317  50.087 -22.301  1.00  0.00     0.011 C 
HETATM    4  C12 UNL     1      -3.877  50.346 -21.806  1.00  0.00    -0.032 C 
HETATM    5  C13 UNL     1      -3.888  51.803 -21.224  1.00  0.00     0.016 C 
HETATM    6  C14 UNL     1      -3.324  49.320 -20.759  1.00  0.00     0.003 C 
HETATM    7  C15 UNL     1      -4.213  49.253 -19.499  1.00  0.00     0.009 C 
HETATM    8  C16 UNL     1      -3.471  49.133 -18.180  1.00  0.00     0.039 C 
HETATM    9  C17 UNL     1      -2.372  50.202 -17.988  1.00  0.00     0.071 C 
HETATM   10  C18 UNL     1      -1.480  50.427 -19.277  1.00  0.00     0.029 C 
HETATM   11  C19 UNL     1       0.015  50.632 -18.941  1.00  0.00     0.011 C 
HETATM   12  C20 UNL     1       0.238  51.543 -17.744  1.00  0.00     0.033 C 
HETATM   13  C21 UNL     1      -0.542  51.160 -16.486  1.00  0.00     0.129 C 
HETATM   14  C22 UNL     1      -1.556  49.991 -16.648  1.00  0.00     0.010 C 
HETATM   15  C23 UNL     1      -0.857  48.610 -16.570  1.00  0.00     0.020 C 
HETATM   16  C24 UNL     1      -2.483  50.035 -15.396  1.00  0.00     0.020 C 
HETATM   17  C25 UNL     1      -1.761  49.446 -20.491  1.00  0.00    -0.033 C 
HETATM   18  C26 UNL     1      -1.191  48.032 -20.152  1.00  0.00     0.016 C 
HETATM   19  C27 UNL     1      -0.958  49.857 -21.802  1.00  0.00     0.011 C 
HETATM   20  C28 UNL     1      -1.649  50.693 -22.892  1.00  0.00     0.011 C 
HETATM   21  C29 UNL     1      -3.079  50.210 -23.150  1.00  0.00    -0.032 C 
HETATM   22  C30 UNL     1      -3.005  48.759 -23.711  1.00  0.00     0.016 C 
ENDROOT
BRANCH   1  23
HETATM   23  C7  UNL     1      -3.625  51.098 -25.632  1.00  0.00    -0.014 C 
HETATM   24  C8  UNL     1      -3.815  49.660 -26.155  1.00  0.00     0.010 C 
BRANCH  23  25
HETATM   25  C6  UNL     1      -2.218  51.607 -26.037  1.00  0.00     0.008 C 
BRANCH  25  26
HETATM   26  C5  UNL     1      -1.285  50.526 -26.608  1.00  0.00     0.028 C 
BRANCH  26  27
HETATM   27  C4  UNL     1       0.172  50.723 -26.305  1.00  0.00    -0.025 C 
HETATM   28  C2  UNL     1       1.081  51.379 -27.053  1.00  0.00    -0.091 C 
HETATM   29  C1  UNL     1       2.519  51.469 -26.611  1.00  0.00     0.042 C 
HETATM   30  C3  UNL     1       0.784  52.085 -28.347  1.00  0.00     0.042 C 
ENDBRANCH  26  27
ENDBRANCH  25  26
ENDBRANCH  23  25
ENDBRANCH   1  23
BRANCH   9  31
HETATM   31  O1  UNL     1      -3.072  51.469 -17.841  1.00  0.00    -0.389 OA
HETATM   32  H29 UNL     1      -3.848  51.333 -17.271  1.00  0.00     0.210 HD
ENDBRANCH   9  31
BRANCH  13  33
HETATM   33  O2  UNL     1       0.383  50.877 -15.432  1.00  0.00    -0.395 OA
HETATM   34  H36 UNL     1       0.902  51.686 -15.280  1.00  0.00     0.210 HD
ENDBRANCH  13  33
TORSDOF 6
ENDMDL
MODEL 4
REMARK minimizedAffinity -9.16121483
REMARK  6 active torsions:
REMARK  status: ('A' for Active; 'I' for Inactive)
REMARK    1  A    between atoms: C4_4  and  C5_5 
REMARK    2  A    between atoms: C5_5  and  C6_6 
REMARK    3  A    between atoms: C6_6  and  C7_7 
REMARK    4  A    between atoms: C7_7  and  C9_9 
REMARK    5  A    between atoms: C17_17  and  O1_18 
REMARK    6  A    between atoms: C21_22  and  O2_23 
ROOT
HETATM    1  C9  UNL     1       0.337  51.989 -23.157  1.00  0.00    -0.002 C 
HETATM    2  C10 UNL     1       0.668  52.915 -21.956  1.00  0.00     0.006 C 
HETATM    3  C11 UNL     1      -0.366  52.594 -20.848  1.00  0.00     0.011 C 
HETATM    4  C12 UNL     1      -1.044  51.283 -21.301  1.00  0.00    -0.032 C 
HETATM    5  C13 UNL     1      -0.063  50.134 -20.880  1.00  0.00     0.016 C 
HETATM    6  C14 UNL     1      -2.486  51.034 -20.738  1.00  0.00     0.003 C 
HETATM    7  C15 UNL     1      -2.503  51.023 -19.195  1.00  0.00     0.009 C 
HETATM    8  C16 UNL     1      -3.403  49.980 -18.557  1.00  0.00     0.039 C 
HETATM    9  C17 UNL     1      -3.163  48.548 -19.087  1.00  0.00     0.071 C 
HETATM   10  C18 UNL     1      -3.011  48.477 -20.663  1.00  0.00     0.029 C 
HETATM   11  C19 UNL     1      -3.709  47.241 -21.275  1.00  0.00     0.011 C 
HETATM   12  C20 UNL     1      -3.483  45.969 -20.472  1.00  0.00     0.033 C 
HETATM   13  C21 UNL     1      -3.806  46.079 -18.982  1.00  0.00     0.129 C 
HETATM   14  C22 UNL     1      -4.179  47.502 -18.473  1.00  0.00     0.010 C 
HETATM   15  C23 UNL     1      -5.662  47.846 -18.766  1.00  0.00     0.020 C 
HETATM   16  C24 UNL     1      -4.087  47.453 -16.919  1.00  0.00     0.020 C 
HETATM   17  C25 UNL     1      -3.259  49.835 -21.443  1.00  0.00    -0.033 C 
HETATM   18  C26 UNL     1      -4.788  50.154 -21.447  1.00  0.00     0.016 C 
HETATM   19  C27 UNL     1      -2.906  49.720 -22.990  1.00  0.00     0.011 C 
HETATM   20  C28 UNL     1      -1.534  50.190 -23.500  1.00  0.00     0.011 C 
HETATM   21  C29 UNL     1      -1.117  51.514 -22.852  1.00  0.00    -0.032 C 
HETATM   22  C30 UNL     1      -2.132  52.609 -23.293  1.00  0.00     0.016 C 
ENDROOT
BRANCH   1  23
HETATM   23  C7  UNL     1       0.678  52.541 -24.575  1.00  0.00    -0.014 C 
HETATM   24  C8  UNL     1      -0.491  53.437 -25.032  1.00  0.00     0.010 C 
BRANCH  23  25
HETATM   25  C6  UNL     1       0.961  51.475 -25.663  1.00  0.00     0.008 C 
BRANCH  25  26
HETATM   26  C5  UNL     1      -0.130  51.353 -26.740  1.00  0.00     0.028 C 
BRANCH  26  27
HETATM   27  C4  UNL     1      -1.026  50.157 -26.600  1.00  0.00    -0.025 C 
HETATM   28  C2  UNL     1      -2.300  50.035 -27.023  1.00  0.00    -0.091 C 
HETATM   29  C1  UNL     1      -3.071  48.763 -26.784  1.00  0.00     0.042 C 
HETATM   30  C3  UNL     1      -3.065  51.094 -27.768  1.00  0.00     0.042 C 
ENDBRANCH  26  27
ENDBRANCH  25  26
ENDBRANCH  23  25
ENDBRANCH   1  23
BRANCH   9  31
HETATM   31  O1  UNL     1      -1.845  48.163 -18.607  1.00  0.00    -0.389 OA
HETATM   32  H29 UNL     1      -1.748  48.459 -17.686  1.00  0.00     0.210 HD
ENDBRANCH   9  31
BRANCH  13  33
HETATM   33  O2  UNL     1      -4.843  45.146 -18.660  1.00  0.00    -0.395 OA
HETATM   34  H36 UNL     1      -4.506  44.258 -18.872  1.00  0.00     0.210 HD
ENDBRANCH  13  33
TORSDOF 6
ENDMDL
MODEL 5
REMARK minimizedAffinity -8.99403954
REMARK  6 active torsions:
REMARK  status: ('A' for Active; 'I' for Inactive)
REMARK    1  A    between atoms: C4_4  and  C5_5 
REMARK    2  A    between atoms: C5_5  and  C6_6 
REMARK    3  A    between atoms: C6_6  and  C7_7 
REMARK    4  A    between atoms: C7_7  and  C9_9 
REMARK    5  A    between atoms: C17_17  and  O1_18 
REMARK    6  A    between atoms: C21_22  and  O2_23 
ROOT
HETATM    1  C9  UNL     1      -2.174  51.721 -24.548  1.00  0.00    -0.002 C 
HETATM    2  C10 UNL     1      -3.362  52.377 -25.302  1.00  0.00     0.006 C 
HETATM    3  C11 UNL     1      -4.646  51.651 -24.828  1.00  0.00     0.011 C 
HETATM    4  C12 UNL     1      -4.212  50.840 -23.588  1.00  0.00    -0.032 C 
HETATM    5  C13 UNL     1      -4.208  51.860 -22.396  1.00  0.00     0.016 C 
HETATM    6  C14 UNL     1      -5.088  49.583 -23.258  1.00  0.00     0.003 C 
HETATM    7  C15 UNL     1      -6.567  49.961 -23.035  1.00  0.00     0.009 C 
HETATM    8  C16 UNL     1      -7.270  49.222 -21.910  1.00  0.00     0.039 C 
HETATM    9  C17 UNL     1      -6.510  49.275 -20.566  1.00  0.00     0.071 C 
HETATM   10  C18 UNL     1      -4.954  49.016 -20.711  1.00  0.00     0.029 C 
HETATM   11  C19 UNL     1      -4.383  48.148 -19.568  1.00  0.00     0.011 C 
HETATM   12  C20 UNL     1      -4.923  48.532 -18.199  1.00  0.00     0.033 C 
HETATM   13  C21 UNL     1      -6.447  48.604 -18.103  1.00  0.00     0.129 C 
HETATM   14  C22 UNL     1      -7.220  48.418 -19.440  1.00  0.00     0.010 C 
HETATM   15  C23 UNL     1      -7.367  46.920 -19.814  1.00  0.00     0.020 C 
HETATM   16  C24 UNL     1      -8.677  48.903 -19.179  1.00  0.00     0.020 C 
HETATM   17  C25 UNL     1      -4.453  48.619 -22.163  1.00  0.00    -0.033 C 
HETATM   18  C26 UNL     1      -4.885  47.150 -22.472  1.00  0.00     0.016 C 
HETATM   19  C27 UNL     1      -2.866  48.561 -22.262  1.00  0.00     0.011 C 
HETATM   20  C28 UNL     1      -2.088  49.771 -22.805  1.00  0.00     0.011 C 
HETATM   21  C29 UNL     1      -2.777  50.380 -24.029  1.00  0.00    -0.032 C 
HETATM   22  C30 UNL     1      -2.762  49.320 -25.169  1.00  0.00     0.016 C 
ENDROOT
BRANCH   1  23
HETATM   23  C7  UNL     1      -0.803  51.706 -25.291  1.00  0.00    -0.014 C 
HETATM   24  C8  UNL     1      -0.758  50.449 -26.183  1.00  0.00     0.010 C 
BRANCH  23  25
HETATM   25  C6  UNL     1       0.454  51.735 -24.386  1.00  0.00     0.008 C 
BRANCH  25  26
HETATM   26  C5  UNL     1       0.430  52.815 -23.290  1.00  0.00     0.028 C 
BRANCH  26  27
HETATM   27  C4  UNL     1       0.075  52.318 -21.920  1.00  0.00    -0.025 C 
HETATM   28  C2  UNL     1       0.464  52.833 -20.737  1.00  0.00    -0.091 C 
HETATM   29  C1  UNL     1       0.030  52.197 -19.442  1.00  0.00     0.042 C 
HETATM   30  C3  UNL     1       1.319  54.058 -20.570  1.00  0.00     0.042 C 
ENDBRANCH  26  27
ENDBRANCH  25  26
ENDBRANCH  23  25
ENDBRANCH   1  23
BRANCH   9  31
HETATM   31  O1  UNL     1      -6.579  50.659 -20.125  1.00  0.00    -0.389 OA
HETATM   32  H29 UNL     1      -7.475  50.997 -20.292  1.00  0.00     0.210 HD
ENDBRANCH   9  31
BRANCH  13  33
HETATM   33  O2  UNL     1      -6.897  47.656 -17.129  1.00  0.00    -0.395 OA
HETATM   34  H36 UNL     1      -6.489  47.900 -16.280  1.00  0.00     0.210 HD
ENDBRANCH  13  33
TORSDOF 6
ENDMDL
MODEL 6
REMARK minimizedAffinity -8.77996159
REMARK  6 active torsions:
REMARK  status: ('A' for Active; 'I' for Inactive)
REMARK    1  A    between atoms: C4_4  and  C5_5 
REMARK    2  A    between atoms: C5_5  and  C6_6 
REMARK    3  A    between atoms: C6_6  and  C7_7 
REMARK    4  A    between atoms: C7_7  and  C9_9 
REMARK    5  A    between atoms: C17_17  and  O1_18 
REMARK    6  A    between atoms: C21_22  and  O2_23 
ROOT
HETATM    1  C9  UNL     1      -0.404  51.567 -23.039  1.00  0.00    -0.002 C 
HETATM    2  C10 UNL     1       0.120  52.503 -21.916  1.00  0.00     0.006 C 
HETATM    3  C11 UNL     1      -0.724  52.199 -20.654  1.00  0.00     0.011 C 
HETATM    4  C12 UNL     1      -1.471  50.887 -20.978  1.00  0.00    -0.032 C 
HETATM    5  C13 UNL     1      -0.439  49.736 -20.708  1.00  0.00     0.016 C 
HETATM    6  C14 UNL     1      -2.804  50.652 -20.188  1.00  0.00     0.003 C 
HETATM    7  C15 UNL     1      -2.573  50.656 -18.662  1.00  0.00     0.009 C 
HETATM    8  C16 UNL     1      -3.362  49.623 -17.877  1.00  0.00     0.039 C 
HETATM    9  C17 UNL     1      -3.216  48.186 -18.424  1.00  0.00     0.071 C 
HETATM   10  C18 UNL     1      -3.320  48.098 -20.002  1.00  0.00     0.029 C 
HETATM   11  C19 UNL     1      -4.113  46.860 -20.481  1.00  0.00     0.011 C 
HETATM   12  C20 UNL     1      -3.766  45.595 -19.711  1.00  0.00     0.033 C 
HETATM   13  C21 UNL     1      -3.844  45.722 -18.190  1.00  0.00     0.129 C 
HETATM   14  C22 UNL     1      -4.124  47.151 -17.643  1.00  0.00     0.010 C 
HETATM   15  C23 UNL     1      -5.634  47.501 -17.697  1.00  0.00     0.020 C 
HETATM   16  C24 UNL     1      -3.783  47.117 -16.123  1.00  0.00     0.020 C 
HETATM   17  C25 UNL     1      -3.685  49.451 -20.746  1.00  0.00    -0.033 C 
HETATM   18  C26 UNL     1      -5.194  49.778 -20.508  1.00  0.00     0.016 C 
HETATM   19  C27 UNL     1      -3.587  49.318 -22.329  1.00  0.00     0.011 C 
HETATM   20  C28 UNL     1      -2.313  49.776 -23.058  1.00  0.00     0.011 C 
HETATM   21  C29 UNL     1      -1.791  51.103 -22.499  1.00  0.00    -0.032 C 
HETATM   22  C30 UNL     1      -2.860  52.200 -22.783  1.00  0.00     0.016 C 
ENDROOT
BRANCH   1  23
HETATM   23  C7  UNL     1      -0.293  52.104 -24.499  1.00  0.00    -0.014 C 
HETATM   24  C8  UNL     1      -0.032  53.622 -24.430  1.00  0.00     0.010 C 
BRANCH  23  25
HETATM   25  C6  UNL     1      -1.517  51.836 -25.410  1.00  0.00     0.008 C 
BRANCH  25  26
HETATM   26  C5  UNL     1      -1.222  50.960 -26.640  1.00  0.00     0.028 C 
BRANCH  26  27
HETATM   27  C4  UNL     1       0.215  50.941 -27.073  1.00  0.00    -0.025 C 
HETATM   28  C2  UNL     1       0.851  51.853 -27.835  1.00  0.00    -0.091 C 
HETATM   29  C1  UNL     1       2.303  51.673 -28.197  1.00  0.00     0.042 C 
HETATM   30  C3  UNL     1       0.228  53.110 -28.375  1.00  0.00     0.042 C 
ENDBRANCH  26  27
ENDBRANCH  25  26
ENDBRANCH  23  25
ENDBRANCH   1  23
BRANCH   9  31
HETATM   31  O1  UNL     1      -1.840  47.798 -18.158  1.00  0.00    -0.389 OA
HETATM   32  H29 UNL     1      -1.595  48.102 -17.267  1.00  0.00     0.210 HD
ENDBRANCH   9  31
BRANCH  13  33
HETATM   33  O2  UNL     1      -4.819  44.797 -17.696  1.00  0.00    -0.395 OA
HETATM   34  H36 UNL     1      -4.525  43.905 -17.950  1.00  0.00     0.210 HD
ENDBRANCH  13  33
TORSDOF 6
ENDMDL
MODEL 7
REMARK minimizedAffinity -8.73553562
REMARK  6 active torsions:
REMARK  status: ('A' for Active; 'I' for Inactive)
REMARK    1  A    between atoms: C4_4  and  C5_5 
REMARK    2  A    between atoms: C5_5  and  C6_6 
REMARK    3  A    between atoms: C6_6  and  C7_7 
REMARK    4  A    between atoms: C7_7  and  C9_9 
REMARK    5  A    between atoms: C17_17  and  O1_18 
REMARK    6  A    between atoms: C21_22  and  O2_23 
ROOT
HETATM    1  C9  UNL     1       0.110  51.515 -21.399  1.00  0.00    -0.002 C 
HETATM    2  C10 UNL     1       0.069  52.298 -20.059  1.00  0.00     0.006 C 
HETATM    3  C11 UNL     1      -1.198  51.823 -19.305  1.00  0.00     0.011 C 
HETATM    4  C12 UNL     1      -1.664  50.559 -20.061  1.00  0.00    -0.032 C 
HETATM    5  C13 UNL     1      -0.764  49.391 -19.525  1.00  0.00     0.016 C 
HETATM    6  C14 UNL     1      -3.186  50.212 -19.929  1.00  0.00     0.003 C 
HETATM    7  C15 UNL     1      -3.601  50.015 -18.456  1.00  0.00     0.009 C 
HETATM    8  C16 UNL     1      -4.578  48.882 -18.196  1.00  0.00     0.039 C 
HETATM    9  C17 UNL     1      -4.132  47.530 -18.798  1.00  0.00     0.071 C 
HETATM   10  C18 UNL     1      -3.574  47.652 -20.276  1.00  0.00     0.029 C 
HETATM   11  C19 UNL     1      -4.022  46.482 -21.182  1.00  0.00     0.011 C 
HETATM   12  C20 UNL     1      -3.944  45.129 -20.492  1.00  0.00     0.033 C 
HETATM   13  C21 UNL     1      -4.647  45.052 -19.137  1.00  0.00     0.129 C 
HETATM   14  C22 UNL     1      -5.214  46.394 -18.592  1.00  0.00     0.010 C 
HETATM   15  C23 UNL     1      -6.588  46.736 -19.226  1.00  0.00     0.020 C 
HETATM   16  C24 UNL     1      -5.525  46.161 -17.083  1.00  0.00     0.020 C 
HETATM   17  C25 UNL     1      -3.685  49.088 -20.940  1.00  0.00    -0.033 C 
HETATM   18  C26 UNL     1      -5.176  49.369 -21.312  1.00  0.00     0.016 C 
HETATM   19  C27 UNL     1      -2.938  49.167 -22.342  1.00  0.00     0.011 C 
HETATM   20  C28 UNL     1      -1.508  49.728 -22.418  1.00  0.00     0.011 C 
HETATM   21  C29 UNL     1      -1.344  50.973 -21.541  1.00  0.00    -0.032 C 
HETATM   22  C30 UNL     1      -2.268  52.090 -22.112  1.00  0.00     0.016 C 
ENDROOT
BRANCH   1  23
HETATM   23  C7  UNL     1       0.777  52.242 -22.607  1.00  0.00    -0.014 C 
HETATM   24  C8  UNL     1       1.213  53.644 -22.139  1.00  0.00     0.010 C 
BRANCH  23  25
HETATM   25  C6  UNL     1      -0.098  52.377 -23.879  1.00  0.00     0.008 C 
BRANCH  25  26
HETATM   26  C5  UNL     1       0.423  53.390 -24.912  1.00  0.00     0.028 C 
BRANCH  26  27
HETATM   27  C4  UNL     1       0.342  52.937 -26.340  1.00  0.00    -0.025 C 
HETATM   28  C2  UNL     1       1.177  52.096 -26.980  1.00  0.00    -0.091 C 
HETATM   29  C1  UNL     1       0.962  51.757 -28.432  1.00  0.00     0.042 C 
HETATM   30  C3  UNL     1       2.357  51.409 -26.350  1.00  0.00     0.042 C 
ENDBRANCH  26  27
ENDBRANCH  25  26
ENDBRANCH  23  25
ENDBRANCH   1  23
BRANCH   9  31
HETATM   31  O1  UNL     1      -2.965  47.121 -18.033  1.00  0.00    -0.389 OA
HETATM   32  H29 UNL     1      -3.126  47.306 -17.092  1.00  0.00     0.210 HD
ENDBRANCH   9  31
BRANCH  13  33
HETATM   33  O2  UNL     1      -5.679  44.063 -19.204  1.00  0.00    -0.395 OA
HETATM   34  H36 UNL     1      -5.252  43.215 -19.416  1.00  0.00     0.210 HD
ENDBRANCH  13  33
TORSDOF 6
ENDMDL
MODEL 8
REMARK minimizedAffinity -8.6508522
REMARK  6 active torsions:
REMARK  status: ('A' for Active; 'I' for Inactive)
REMARK    1  A    between atoms: C4_4  and  C5_5 
REMARK    2  A    between atoms: C5_5  and  C6_6 
REMARK    3  A    between atoms: C6_6  and  C7_7 
REMARK    4  A    between atoms: C7_7  and  C9_9 
REMARK    5  A    between atoms: C17_17  and  O1_18 
REMARK    6  A    between atoms: C21_22  and  O2_23 
ROOT
HETATM    1  C9  UNL     1      -0.724  50.566 -21.475  1.00  0.00    -0.002 C 
HETATM    2  C10 UNL     1      -0.223  49.284 -20.757  1.00  0.00     0.006 C 
HETATM    3  C11 UNL     1      -1.483  48.480 -20.349  1.00  0.00     0.011 C 
HETATM    4  C12 UNL     1      -2.645  49.139 -21.124  1.00  0.00    -0.032 C 
HETATM    5  C13 UNL     1      -2.584  48.534 -22.570  1.00  0.00     0.016 C 
HETATM    6  C14 UNL     1      -4.069  48.961 -20.492  1.00  0.00     0.003 C 
HETATM    7  C15 UNL     1      -4.440  47.472 -20.332  1.00  0.00     0.009 C 
HETATM    8  C16 UNL     1      -5.882  47.118 -20.649  1.00  0.00     0.039 C 
HETATM    9  C17 UNL     1      -6.355  47.629 -22.028  1.00  0.00     0.071 C 
HETATM   10  C18 UNL     1      -5.914  49.119 -22.334  1.00  0.00     0.029 C 
HETATM   11  C19 UNL     1      -7.014  49.934 -23.052  1.00  0.00     0.011 C 
HETATM   12  C20 UNL     1      -7.715  49.151 -24.151  1.00  0.00     0.033 C 
HETATM   13  C21 UNL     1      -8.254  47.784 -23.729  1.00  0.00     0.129 C 
HETATM   14  C22 UNL     1      -7.887  47.328 -22.288  1.00  0.00     0.010 C 
HETATM   15  C23 UNL     1      -8.824  47.965 -21.228  1.00  0.00     0.020 C 
HETATM   16  C24 UNL     1      -8.195  45.802 -22.217  1.00  0.00     0.020 C 
HETATM   17  C25 UNL     1      -5.188  49.882 -21.148  1.00  0.00    -0.033 C 
HETATM   18  C26 UNL     1      -6.241  50.252 -20.055  1.00  0.00     0.016 C 
HETATM   19  C27 UNL     1      -4.616  51.297 -21.596  1.00  0.00     0.011 C 
HETATM   20  C28 UNL     1      -3.138  51.432 -21.999  1.00  0.00     0.011 C 
HETATM   21  C29 UNL     1      -2.223  50.649 -21.053  1.00  0.00    -0.032 C 
HETATM   22  C30 UNL     1      -2.336  51.284 -19.636  1.00  0.00     0.016 C 
ENDROOT
BRANCH   1  23
HETATM   23  C7  UNL     1       0.177  51.831 -21.347  1.00  0.00    -0.014 C 
HETATM   24  C8  UNL     1      -0.276  52.615 -20.099  1.00  0.00     0.010 C 
BRANCH  23  25
HETATM   25  C6  UNL     1       0.185  52.780 -22.572  1.00  0.00     0.008 C 
BRANCH  25  26
HETATM   26  C5  UNL     1      -0.168  52.105 -23.908  1.00  0.00     0.028 C 
BRANCH  26  27
HETATM   27  C4  UNL     1       0.915  52.150 -24.945  1.00  0.00    -0.025 C 
HETATM   28  C2  UNL     1       0.913  51.559 -26.157  1.00  0.00    -0.091 C 
HETATM   29  C1  UNL     1       2.099  51.688 -27.077  1.00  0.00     0.042 C 
HETATM   30  C3  UNL     1      -0.226  50.756 -26.721  1.00  0.00     0.042 C 
ENDBRANCH  26  27
ENDBRANCH  25  26
ENDBRANCH  23  25
ENDBRANCH   1  23
BRANCH   9  31
HETATM   31  O1  UNL     1      -5.618  46.853 -23.013  1.00  0.00    -0.389 OA
HETATM   32  H29 UNL     1      -5.588  45.926 -22.723  1.00  0.00     0.210 HD
ENDBRANCH   9  31
BRANCH  13  33
HETATM   33  O2  UNL     1      -9.673  47.766 -23.914  1.00  0.00    -0.395 OA
HETATM   34  H36 UNL     1      -9.843  47.924 -24.859  1.00  0.00     0.210 HD
ENDBRANCH  13  33
TORSDOF 6
ENDMDL
MODEL 9
REMARK minimizedAffinity -8.62925148
REMARK  6 active torsions:
REMARK  status: ('A' for Active; 'I' for Inactive)
REMARK    1  A    between atoms: C4_4  and  C5_5 
REMARK    2  A    between atoms: C5_5  and  C6_6 
REMARK    3  A    between atoms: C6_6  and  C7_7 
REMARK    4  A    between atoms: C7_7  and  C9_9 
REMARK    5  A    between atoms: C17_17  and  O1_18 
REMARK    6  A    between atoms: C21_22  and  O2_23 
ROOT
HETATM    1  C9  UNL     1      -2.175  51.252 -22.235  1.00  0.00    -0.002 C 
HETATM    2  C10 UNL     1      -3.090  52.208 -23.047  1.00  0.00     0.006 C 
HETATM    3  C11 UNL     1      -4.493  51.552 -23.087  1.00  0.00     0.011 C 
HETATM    4  C12 UNL     1      -4.439  50.425 -22.033  1.00  0.00    -0.032 C 
HETATM    5  C13 UNL     1      -4.677  51.128 -20.651  1.00  0.00     0.016 C 
HETATM    6  C14 UNL     1      -5.444  49.242 -22.251  1.00  0.00     0.003 C 
HETATM    7  C15 UNL     1      -6.906  49.735 -22.287  1.00  0.00     0.009 C 
HETATM    8  C16 UNL     1      -7.915  48.843 -21.585  1.00  0.00     0.039 C 
HETATM    9  C17 UNL     1      -7.519  48.484 -20.135  1.00  0.00     0.071 C 
HETATM   10  C18 UNL     1      -5.996  48.079 -19.978  1.00  0.00     0.029 C 
HETATM   11  C19 UNL     1      -5.787  46.902 -18.999  1.00  0.00     0.011 C 
HETATM   12  C20 UNL     1      -6.635  47.016 -17.740  1.00  0.00     0.033 C 
HETATM   13  C21 UNL     1      -8.126  47.249 -17.984  1.00  0.00     0.129 C 
HETATM   14  C22 UNL     1      -8.542  47.479 -19.465  1.00  0.00     0.010 C 
HETATM   15  C23 UNL     1      -8.679  46.141 -20.237  1.00  0.00     0.020 C 
HETATM   16  C24 UNL     1      -9.986  48.063 -19.431  1.00  0.00     0.020 C 
HETATM   17  C25 UNL     1      -5.167  47.977 -21.327  1.00  0.00    -0.033 C 
HETATM   18  C26 UNL     1      -5.594  46.687 -22.097  1.00  0.00     0.016 C 
HETATM   19  C27 UNL     1      -3.613  47.751 -21.068  1.00  0.00     0.011 C 
HETATM   20  C28 UNL     1      -2.651  48.950 -21.085  1.00  0.00     0.011 C 
HETATM   21  C29 UNL     1      -2.969  49.911 -22.234  1.00  0.00    -0.032 C 
HETATM   22  C30 UNL     1      -2.729  49.156 -23.575  1.00  0.00     0.016 C 
ENDROOT
BRANCH   1  23
HETATM   23  C7  UNL     1      -0.663  51.245 -22.620  1.00  0.00    -0.014 C 
HETATM   24  C8  UNL     1       0.145  51.687 -21.383  1.00  0.00     0.010 C 
BRANCH  23  25
HETATM   25  C6  UNL     1      -0.271  52.130 -23.830  1.00  0.00     0.008 C 
BRANCH  25  26
HETATM   26  C5  UNL     1      -0.212  51.387 -25.175  1.00  0.00     0.028 C 
BRANCH  26  27
HETATM   27  C4  UNL     1       1.117  51.443 -25.871  1.00  0.00    -0.025 C 
HETATM   28  C2  UNL     1       1.351  51.736 -27.165  1.00  0.00    -0.091 C 
HETATM   29  C1  UNL     1       2.755  51.730 -27.712  1.00  0.00     0.042 C 
HETATM   30  C3  UNL     1       0.295  52.108 -28.168  1.00  0.00     0.042 C 
ENDBRANCH  26  27
ENDBRANCH  25  26
ENDBRANCH  23  25
ENDBRANCH   1  23
BRANCH   9  31
HETATM   31  O1  UNL     1      -7.615  49.723 -19.379  1.00  0.00    -0.389 OA
HETATM   32  H29 UNL     1      -8.417  50.198 -19.655  1.00  0.00     0.210 HD
ENDBRANCH   9  31
BRANCH  13  33
HETATM   33  O2  UNL     1      -8.864  46.160 -17.419  1.00  0.00    -0.395 OA
HETATM   34  H36 UNL     1      -8.671  46.145 -16.465  1.00  0.00     0.210 HD
ENDBRANCH  13  33
TORSDOF 6
ENDMDL
