MODEL 1
REMARK minimizedAffinity -9.62269974
REMARK  7 active torsions:
REMARK  status: ('A' for Active; 'I' for Inactive)
REMARK    1  A    between atoms: C2_2  and  C30_32 
REMARK    2  A    between atoms: C3_3  and  C4_4 
REMARK    3  A    between atoms: C4_4  and  O1_5 
REMARK    4  A    between atoms: C4_4  and  C5_6 
REMARK    5  A    between atoms: C5_6  and  C6_7 
REMARK    6  A    between atoms: C6_7  and  C8_9 
REMARK    7  A    between atoms: C30_32  and  O4_34 
ROOT
HETATM    1  C8  UNL     1       0.737   8.144  13.136  1.00  0.00    -0.002 C 
HETATM    2  C9  UNL     1       0.817   8.958  14.450  1.00  0.00     0.006 C 
HETATM    3  C10 UNL     1      -0.533   8.770  15.172  1.00  0.00     0.011 C 
HETATM    4  C11 UNL     1      -1.212   7.581  14.460  1.00  0.00    -0.032 C 
HETATM    5  C12 UNL     1      -0.619   6.282  15.093  1.00  0.00     0.016 C 
HETATM    6  C13 UNL     1      -2.761   7.558  14.559  1.00  0.00     0.004 C 
HETATM    7  C14 UNL     1      -3.295   7.139  15.939  1.00  0.00     0.007 C 
HETATM    8  C15 UNL     1      -4.814   7.274  15.966  1.00  0.00     0.007 C 
HETATM    9  C16 UNL     1      -5.472   6.226  15.056  1.00  0.00     0.010 C 
HETATM   10  C17 UNL     1      -7.029   6.326  14.956  1.00  0.00     0.018 C 
HETATM   11  C18 UNL     1      -7.675   5.480  16.068  1.00  0.00     0.023 C 
HETATM   12  C19 UNL     1      -7.558   7.767  15.080  1.00  0.00     0.023 C 
HETATM   13  C20 UNL     1      -7.524   5.753  13.615  1.00  0.00     0.135 C 
HETATM   14  O2  UNL     1      -8.589   6.114  13.109  1.00  0.00    -0.297 OA
HETATM   15  C21 UNL     1      -6.743   4.628  12.972  1.00  0.00     0.080 C 
HETATM   16  C22 UNL     1      -5.233   4.831  12.990  1.00  0.00     0.018 C 
HETATM   17  C23 UNL     1      -4.828   6.124  13.672  1.00  0.00    -0.026 A 
HETATM   18  C24 UNL     1      -4.667   7.339  12.802  1.00  0.00     0.021 A 
HETATM   19  C25 UNL     1      -3.417   6.725  13.424  1.00  0.00    -0.027 A 
HETATM   20  C26 UNL     1      -2.474   5.958  12.486  1.00  0.00     0.011 C 
HETATM   21  C27 UNL     1      -1.120   6.606  12.138  1.00  0.00     0.011 C 
HETATM   22  C28 UNL     1      -0.785   7.849  12.969  1.00  0.00    -0.032 C 
HETATM   23  C29 UNL     1      -1.507   9.061  12.323  1.00  0.00     0.016 C 
ENDROOT
BRANCH   1  24
HETATM   24  C6  UNL     1       1.640   8.590  11.949  1.00  0.00    -0.011 C 
HETATM   25  C7  UNL     1       0.869   8.402  10.628  1.00  0.00     0.010 C 
BRANCH  24  26
HETATM   26  C5  UNL     1       3.100   8.094  11.788  1.00  0.00     0.040 C 
BRANCH  26  27
HETATM   27  C4  UNL     1       3.671   7.816  10.391  1.00  0.00     0.142 C 
BRANCH  27  28
HETATM   28  C3  UNL     1       3.858   6.336  10.183  1.00  0.00     0.018 C 
HETATM   29  C2  UNL     1       3.448   5.581   9.143  1.00  0.00     0.010 C 
HETATM   30  C1  UNL     1       2.671   6.064   7.954  1.00  0.00     0.055 C 
BRANCH  29  31
HETATM   31  C30 UNL     1       3.764   4.126   9.097  1.00  0.00     0.171 C 
HETATM   32  O3  UNL     1       4.608   3.610   8.384  1.00  0.00    -0.646 OA
BRANCH  31  33
HETATM   33  O4  UNL     1       3.038   3.383   9.946  1.00  0.00    -0.773 OA
HETATM   34  H46 UNL     1       3.362   2.470   9.792  1.00  0.00     0.167 HD
ENDBRANCH  31  33
ENDBRANCH  29  31
ENDBRANCH  27  28
BRANCH  27  35
HETATM   35  O1  UNL     1       4.950   8.421  10.246  1.00  0.00    -0.392 OA
HETATM   36  H6  UNL     1       5.368   8.033   9.459  1.00  0.00     0.210 HD
ENDBRANCH  27  35
ENDBRANCH  26  27
ENDBRANCH  24  26
ENDBRANCH   1  24
TORSDOF 7
ENDMDL
MODEL 2
REMARK minimizedAffinity -9.50248718
REMARK  7 active torsions:
REMARK  status: ('A' for Active; 'I' for Inactive)
REMARK    1  A    between atoms: C2_2  and  C30_32 
REMARK    2  A    between atoms: C3_3  and  C4_4 
REMARK    3  A    between atoms: C4_4  and  O1_5 
REMARK    4  A    between atoms: C4_4  and  C5_6 
REMARK    5  A    between atoms: C5_6  and  C6_7 
REMARK    6  A    between atoms: C6_7  and  C8_9 
REMARK    7  A    between atoms: C30_32  and  O4_34 
ROOT
HETATM    1  C8  UNL     1      -3.439   8.422  14.520  1.00  0.00    -0.002 C 
HETATM    2  C9  UNL     1      -2.838   7.672  15.733  1.00  0.00     0.006 C 
HETATM    3  C10 UNL     1      -1.463   7.133  15.286  1.00  0.00     0.011 C 
HETATM    4  C11 UNL     1      -1.140   7.882  13.975  1.00  0.00    -0.032 C 
HETATM    5  C12 UNL     1      -0.539   9.264  14.386  1.00  0.00     0.016 C 
HETATM    6  C13 UNL     1      -0.164   7.142  13.023  1.00  0.00     0.004 C 
HETATM    7  C14 UNL     1       1.302   7.162  13.488  1.00  0.00     0.007 C 
HETATM    8  C15 UNL     1       2.149   6.302  12.556  1.00  0.00     0.007 C 
HETATM    9  C16 UNL     1       2.264   6.951  11.168  1.00  0.00     0.010 C 
HETATM   10  C17 UNL     1       3.055   6.112  10.112  1.00  0.00     0.018 C 
HETATM   11  C18 UNL     1       4.552   6.466  10.185  1.00  0.00     0.023 C 
HETATM   12  C19 UNL     1       2.912   4.591  10.310  1.00  0.00     0.023 C 
HETATM   13  C20 UNL     1       2.584   6.452   8.687  1.00  0.00     0.135 C 
HETATM   14  O2  UNL     1       2.699   5.649   7.757  1.00  0.00    -0.297 OA
HETATM   15  C21 UNL     1       2.087   7.851   8.399  1.00  0.00     0.080 C 
HETATM   16  C22 UNL     1       1.151   8.409   9.463  1.00  0.00     0.018 C 
HETATM   17  C23 UNL     1       0.927   7.439  10.607  1.00  0.00    -0.026 A 
HETATM   18  C24 UNL     1      -0.252   6.511  10.500  1.00  0.00     0.021 A 
HETATM   19  C25 UNL     1      -0.295   7.617  11.550  1.00  0.00    -0.027 A 
HETATM   20  C26 UNL     1      -1.233   8.802  11.279  1.00  0.00     0.011 C 
HETATM   21  C27 UNL     1      -2.511   8.918  12.132  1.00  0.00     0.011 C 
HETATM   22  C28 UNL     1      -2.569   7.948  13.316  1.00  0.00    -0.032 C 
HETATM   23  C29 UNL     1      -3.072   6.580  12.785  1.00  0.00     0.016 C 
ENDROOT
BRANCH   1  24
HETATM   24  C6  UNL     1      -4.988   8.546  14.437  1.00  0.00    -0.011 C 
HETATM   25  C7  UNL     1      -5.510   9.237  15.712  1.00  0.00     0.010 C 
BRANCH  24  26
HETATM   26  C5  UNL     1      -5.896   7.343  14.074  1.00  0.00     0.040 C 
BRANCH  26  27
HETATM   27  C4  UNL     1      -5.751   6.013  14.827  1.00  0.00     0.142 C 
BRANCH  27  28
HETATM   28  C3  UNL     1      -6.784   5.024  14.351  1.00  0.00     0.018 C 
HETATM   29  C2  UNL     1      -6.643   4.050  13.428  1.00  0.00     0.010 C 
HETATM   30  C1  UNL     1      -5.403   3.757  12.636  1.00  0.00     0.055 C 
BRANCH  29  31
HETATM   31  C30 UNL     1      -7.778   3.137  13.117  1.00  0.00     0.171 C 
HETATM   32  O3  UNL     1      -7.679   1.945  12.879  1.00  0.00    -0.646 OA
BRANCH  31  33
HETATM   33  O4  UNL     1      -8.980   3.734  13.134  1.00  0.00    -0.773 OA
HETATM   34  H46 UNL     1      -9.603   3.009  12.914  1.00  0.00     0.167 HD
ENDBRANCH  31  33
ENDBRANCH  29  31
ENDBRANCH  27  28
BRANCH  27  35
HETATM   35  O1  UNL     1      -5.969   6.203  16.219  1.00  0.00    -0.392 OA
HETATM   36  H6  UNL     1      -6.102   5.326  16.616  1.00  0.00     0.210 HD
ENDBRANCH  27  35
ENDBRANCH  26  27
ENDBRANCH  24  26
ENDBRANCH   1  24
TORSDOF 7
ENDMDL
MODEL 3
REMARK minimizedAffinity -9.41128349
REMARK  7 active torsions:
REMARK  status: ('A' for Active; 'I' for Inactive)
REMARK    1  A    between atoms: C2_2  and  C30_32 
REMARK    2  A    between atoms: C3_3  and  C4_4 
REMARK    3  A    between atoms: C4_4  and  O1_5 
REMARK    4  A    between atoms: C4_4  and  C5_6 
REMARK    5  A    between atoms: C5_6  and  C6_7 
REMARK    6  A    between atoms: C6_7  and  C8_9 
REMARK    7  A    between atoms: C30_32  and  O4_34 
ROOT
HETATM    1  C8  UNL     1      -3.468   6.903  14.091  1.00  0.00    -0.002 C 
HETATM    2  C9  UNL     1      -3.179   8.080  15.053  1.00  0.00     0.006 C 
HETATM    3  C10 UNL     1      -1.766   8.597  14.711  1.00  0.00     0.011 C 
HETATM    4  C11 UNL     1      -1.424   7.966  13.343  1.00  0.00    -0.032 C 
HETATM    5  C12 UNL     1      -2.089   8.868  12.255  1.00  0.00     0.016 C 
HETATM    6  C13 UNL     1       0.094   7.819  13.054  1.00  0.00     0.004 C 
HETATM    7  C14 UNL     1       0.798   9.142  12.708  1.00  0.00     0.007 C 
HETATM    8  C15 UNL     1       2.298   8.906  12.570  1.00  0.00     0.007 C 
HETATM    9  C16 UNL     1       2.606   8.066  11.322  1.00  0.00     0.010 C 
HETATM   10  C17 UNL     1       4.115   7.704  11.128  1.00  0.00     0.018 C 
HETATM   11  C18 UNL     1       4.812   8.810  10.314  1.00  0.00     0.023 C 
HETATM   12  C19 UNL     1       4.878   7.532  12.455  1.00  0.00     0.023 C 
HETATM   13  C20 UNL     1       4.261   6.400  10.324  1.00  0.00     0.135 C 
HETATM   14  O2  UNL     1       5.260   5.683  10.426  1.00  0.00    -0.297 OA
HETATM   15  C21 UNL     1       3.209   6.060   9.292  1.00  0.00     0.080 C 
HETATM   16  C22 UNL     1       1.779   6.289   9.764  1.00  0.00     0.018 C 
HETATM   17  C23 UNL     1       1.713   6.832  11.178  1.00  0.00    -0.026 A 
HETATM   18  C24 UNL     1       1.590   5.831  12.294  1.00  0.00     0.021 A 
HETATM   19  C25 UNL     1       0.393   6.727  11.991  1.00  0.00    -0.027 A 
HETATM   20  C26 UNL     1      -0.814   6.073  11.303  1.00  0.00     0.011 C 
HETATM   21  C27 UNL     1      -2.089   5.855  12.139  1.00  0.00     0.011 C 
HETATM   22  C28 UNL     1      -2.068   6.539  13.510  1.00  0.00    -0.032 C 
HETATM   23  C29 UNL     1      -1.294   5.617  14.489  1.00  0.00     0.016 C 
ENDROOT
BRANCH   1  24
HETATM   24  C6  UNL     1      -4.490   5.823  14.552  1.00  0.00    -0.011 C 
HETATM   25  C7  UNL     1      -4.721   4.821  13.403  1.00  0.00     0.010 C 
BRANCH  24  26
HETATM   26  C5  UNL     1      -5.842   6.192  15.216  1.00  0.00     0.040 C 
BRANCH  26  27
HETATM   27  C4  UNL     1      -7.087   5.332  14.961  1.00  0.00     0.142 C 
BRANCH  27  28
HETATM   28  C3  UNL     1      -7.966   5.972  13.918  1.00  0.00     0.018 C 
HETATM   29  C2  UNL     1      -8.582   5.385  12.872  1.00  0.00     0.010 C 
HETATM   30  C1  UNL     1      -8.498   3.933  12.499  1.00  0.00     0.055 C 
BRANCH  29  31
HETATM   31  C30 UNL     1      -9.449   6.183  11.962  1.00  0.00     0.171 C 
HETATM   32  O3  UNL     1     -10.371   6.899  12.314  1.00  0.00    -0.646 OA
BRANCH  31  33
HETATM   33  O4  UNL     1      -9.124   6.075  10.664  1.00  0.00    -0.773 OA
HETATM   34  H46 UNL     1      -9.778   6.650  10.212  1.00  0.00     0.167 HD
ENDBRANCH  31  33
ENDBRANCH  29  31
ENDBRANCH  27  28
BRANCH  27  35
HETATM   35  O1  UNL     1      -7.865   5.219  16.146  1.00  0.00    -0.392 OA
HETATM   36  H6  UNL     1      -8.738   4.878  15.890  1.00  0.00     0.210 HD
ENDBRANCH  27  35
ENDBRANCH  26  27
ENDBRANCH  24  26
ENDBRANCH   1  24
TORSDOF 7
ENDMDL
MODEL 4
REMARK minimizedAffinity -9.37368679
REMARK  7 active torsions:
REMARK  status: ('A' for Active; 'I' for Inactive)
REMARK    1  A    between atoms: C2_2  and  C30_32 
REMARK    2  A    between atoms: C3_3  and  C4_4 
REMARK    3  A    between atoms: C4_4  and  O1_5 
REMARK    4  A    between atoms: C4_4  and  C5_6 
REMARK    5  A    between atoms: C5_6  and  C6_7 
REMARK    6  A    between atoms: C6_7  and  C8_9 
REMARK    7  A    between atoms: C30_32  and  O4_34 
ROOT
HETATM    1  C8  UNL     1      -3.872   7.466  14.508  1.00  0.00    -0.002 C 
HETATM    2  C9  UNL     1      -4.509   6.301  13.714  1.00  0.00     0.006 C 
HETATM    3  C10 UNL     1      -3.422   5.766  12.759  1.00  0.00     0.011 C 
HETATM    4  C11 UNL     1      -2.098   6.373  13.272  1.00  0.00    -0.032 C 
HETATM    5  C12 UNL     1      -1.611   5.461  14.443  1.00  0.00     0.016 C 
HETATM    6  C13 UNL     1      -0.981   6.501  12.202  1.00  0.00     0.004 C 
HETATM    7  C14 UNL     1      -0.315   5.167  11.826  1.00  0.00     0.007 C 
HETATM    8  C15 UNL     1       0.670   5.387  10.683  1.00  0.00     0.007 C 
HETATM    9  C16 UNL     1       1.881   6.206  11.155  1.00  0.00     0.010 C 
HETATM   10  C17 UNL     1       2.919   6.550  10.038  1.00  0.00     0.018 C 
HETATM   11  C18 UNL     1       3.966   5.425   9.939  1.00  0.00     0.023 C 
HETATM   12  C19 UNL     1       2.281   6.735   8.648  1.00  0.00     0.023 C 
HETATM   13  C20 UNL     1       3.682   7.840  10.386  1.00  0.00     0.135 C 
HETATM   14  O2  UNL     1       4.189   8.550   9.513  1.00  0.00    -0.297 OA
HETATM   15  C21 UNL     1       3.921   8.175  11.842  1.00  0.00     0.080 C 
HETATM   16  C22 UNL     1       2.704   7.966  12.734  1.00  0.00     0.018 C 
HETATM   17  C23 UNL     1       1.503   7.445  11.969  1.00  0.00    -0.026 A 
HETATM   18  C24 UNL     1       0.540   8.464  11.424  1.00  0.00     0.021 A 
HETATM   19  C25 UNL     1       0.079   7.574  12.575  1.00  0.00    -0.027 A 
HETATM   20  C26 UNL     1      -0.047   8.229  13.958  1.00  0.00     0.011 C 
HETATM   21  C27 UNL     1      -1.463   8.471  14.515  1.00  0.00     0.011 C 
HETATM   22  C28 UNL     1      -2.581   7.808  13.703  1.00  0.00    -0.032 C 
HETATM   23  C29 UNL     1      -2.915   8.738  12.506  1.00  0.00     0.016 C 
ENDROOT
BRANCH   1  24
HETATM   24  C6  UNL     1      -4.819   8.562  15.076  1.00  0.00    -0.011 C 
HETATM   25  C7  UNL     1      -4.012   9.508  15.987  1.00  0.00     0.010 C 
BRANCH  24  26
HETATM   26  C5  UNL     1      -6.179   8.219  15.738  1.00  0.00     0.040 C 
BRANCH  26  27
HETATM   27  C4  UNL     1      -6.817   6.841  15.518  1.00  0.00     0.142 C 
BRANCH  27  28
HETATM   28  C3  UNL     1      -8.257   6.988  15.097  1.00  0.00     0.018 C 
HETATM   29  C2  UNL     1      -8.843   6.552  13.963  1.00  0.00     0.010 C 
HETATM   30  C1  UNL     1      -8.160   5.835  12.836  1.00  0.00     0.055 C 
BRANCH  29  31
HETATM   31  C30 UNL     1     -10.301   6.759  13.740  1.00  0.00     0.171 C 
HETATM   32  O3  UNL     1     -10.818   7.041  12.672  1.00  0.00    -0.646 OA
BRANCH  31  33
HETATM   33  O4  UNL     1     -11.051   6.589  14.839  1.00  0.00    -0.773 OA
HETATM   34  H46 UNL     1     -11.965   6.757  14.526  1.00  0.00     0.167 HD
ENDBRANCH  31  33
ENDBRANCH  29  31
ENDBRANCH  27  28
BRANCH  27  35
HETATM   35  O1  UNL     1      -6.813   6.091  16.726  1.00  0.00    -0.392 OA
HETATM   36  H6  UNL     1      -7.421   5.343  16.608  1.00  0.00     0.210 HD
ENDBRANCH  27  35
ENDBRANCH  26  27
ENDBRANCH  24  26
ENDBRANCH   1  24
TORSDOF 7
ENDMDL
MODEL 5
REMARK minimizedAffinity -9.37287807
REMARK  7 active torsions:
REMARK  status: ('A' for Active; 'I' for Inactive)
REMARK    1  A    between atoms: C2_2  and  C30_32 
REMARK    2  A    between atoms: C3_3  and  C4_4 
REMARK    3  A    between atoms: C4_4  and  O1_5 
REMARK    4  A    between atoms: C4_4  and  C5_6 
REMARK    5  A    between atoms: C5_6  and  C6_7 
REMARK    6  A    between atoms: C6_7  and  C8_9 
REMARK    7  A    between atoms: C30_32  and  O4_34 
ROOT
HETATM    1  C8  UNL     1      -3.414   6.949  13.783  1.00  0.00    -0.002 C 
HETATM    2  C9  UNL     1      -3.192   8.136  14.750  1.00  0.00     0.006 C 
HETATM    3  C10 UNL     1      -1.762   8.657  14.494  1.00  0.00     0.011 C 
HETATM    4  C11 UNL     1      -1.330   8.015  13.157  1.00  0.00    -0.032 C 
HETATM    5  C12 UNL     1      -1.928   8.904  12.021  1.00  0.00     0.016 C 
HETATM    6  C13 UNL     1       0.203   7.873  12.967  1.00  0.00     0.004 C 
HETATM    7  C14 UNL     1       0.922   9.196  12.655  1.00  0.00     0.007 C 
HETATM    8  C15 UNL     1       2.429   8.966  12.615  1.00  0.00     0.007 C 
HETATM    9  C16 UNL     1       2.820   8.116  11.397  1.00  0.00     0.010 C 
HETATM   10  C17 UNL     1       4.340   7.761  11.302  1.00  0.00     0.018 C 
HETATM   11  C18 UNL     1       5.082   8.863  10.525  1.00  0.00     0.023 C 
HETATM   12  C19 UNL     1       5.017   7.605  12.677  1.00  0.00     0.023 C 
HETATM   13  C20 UNL     1       4.542   6.450  10.522  1.00  0.00     0.135 C 
HETATM   14  O2  UNL     1       5.535   5.739  10.694  1.00  0.00    -0.297 OA
HETATM   15  C21 UNL     1       3.560   6.095   9.427  1.00  0.00     0.080 C 
HETATM   16  C22 UNL     1       2.102   6.322   9.805  1.00  0.00     0.018 C 
HETATM   17  C23 UNL     1       1.943   6.877  11.207  1.00  0.00    -0.026 A 
HETATM   18  C24 UNL     1       1.754   5.886  12.322  1.00  0.00     0.021 A 
HETATM   19  C25 UNL     1       0.574   6.774  11.935  1.00  0.00    -0.027 A 
HETATM   20  C26 UNL     1      -0.583   6.107  11.177  1.00  0.00     0.011 C 
HETATM   21  C27 UNL     1      -1.909   5.890  11.933  1.00  0.00     0.011 C 
HETATM   22  C28 UNL     1      -1.978   6.587  13.296  1.00  0.00    -0.032 C 
HETATM   23  C29 UNL     1      -1.264   5.678  14.330  1.00  0.00     0.016 C 
ENDROOT
BRANCH   1  24
HETATM   24  C6  UNL     1      -4.458   5.868  14.187  1.00  0.00    -0.011 C 
HETATM   25  C7  UNL     1      -4.102   4.536  13.499  1.00  0.00     0.010 C 
BRANCH  24  26
HETATM   26  C5  UNL     1      -5.986   6.120  14.100  1.00  0.00     0.040 C 
BRANCH  26  27
HETATM   27  C4  UNL     1      -6.927   4.999  13.640  1.00  0.00     0.142 C 
BRANCH  27  28
HETATM   28  C3  UNL     1      -6.239   4.114  12.632  1.00  0.00     0.018 C 
HETATM   29  C2  UNL     1      -6.586   2.871  12.240  1.00  0.00     0.010 C 
HETATM   30  C1  UNL     1      -7.746   2.072  12.760  1.00  0.00     0.055 C 
BRANCH  29  31
HETATM   31  C30 UNL     1      -5.797   2.163  11.195  1.00  0.00     0.171 C 
HETATM   32  O3  UNL     1      -5.526   0.974  11.199  1.00  0.00    -0.646 OA
BRANCH  31  33
HETATM   33  O4  UNL     1      -5.399   2.950  10.184  1.00  0.00    -0.773 OA
HETATM   34  H46 UNL     1      -4.904   2.342   9.595  1.00  0.00     0.167 HD
ENDBRANCH  31  33
ENDBRANCH  29  31
ENDBRANCH  27  28
BRANCH  27  35
HETATM   35  O1  UNL     1      -8.074   5.544  12.998  1.00  0.00    -0.392 OA
HETATM   36  H6  UNL     1      -8.514   4.819  12.524  1.00  0.00     0.210 HD
ENDBRANCH  27  35
ENDBRANCH  26  27
ENDBRANCH  24  26
ENDBRANCH   1  24
TORSDOF 7
ENDMDL
MODEL 6
REMARK minimizedAffinity -9.36687183
REMARK  7 active torsions:
REMARK  status: ('A' for Active; 'I' for Inactive)
REMARK    1  A    between atoms: C2_2  and  C30_32 
REMARK    2  A    between atoms: C3_3  and  C4_4 
REMARK    3  A    between atoms: C4_4  and  O1_5 
REMARK    4  A    between atoms: C4_4  and  C5_6 
REMARK    5  A    between atoms: C5_6  and  C6_7 
REMARK    6  A    between atoms: C6_7  and  C8_9 
REMARK    7  A    between atoms: C30_32  and  O4_34 
ROOT
HETATM    1  C8  UNL     1       0.640   6.046  12.609  1.00  0.00    -0.002 C 
HETATM    2  C9  UNL     1       0.737   4.579  12.124  1.00  0.00     0.006 C 
HETATM    3  C10 UNL     1      -0.697   4.010  12.139  1.00  0.00     0.011 C 
HETATM    4  C11 UNL     1      -1.620   5.241  12.272  1.00  0.00    -0.032 C 
HETATM    5  C12 UNL     1      -1.797   5.825  10.834  1.00  0.00     0.016 C 
HETATM    6  C13 UNL     1      -3.010   4.950  12.899  1.00  0.00     0.004 C 
HETATM    7  C14 UNL     1      -3.984   4.222  11.957  1.00  0.00     0.007 C 
HETATM    8  C15 UNL     1      -5.263   3.873  12.710  1.00  0.00     0.007 C 
HETATM    9  C16 UNL     1      -6.061   5.141  13.048  1.00  0.00     0.010 C 
HETATM   10  C17 UNL     1      -7.359   4.899  13.886  1.00  0.00     0.018 C 
HETATM   11  C18 UNL     1      -8.546   4.641  12.940  1.00  0.00     0.023 C 
HETATM   12  C19 UNL     1      -7.248   3.704  14.852  1.00  0.00     0.023 C 
HETATM   13  C20 UNL     1      -7.711   6.147  14.714  1.00  0.00     0.135 C 
HETATM   14  O2  UNL     1      -8.372   6.072  15.753  1.00  0.00    -0.297 OA
HETATM   15  C21 UNL     1      -7.345   7.510  14.168  1.00  0.00     0.080 C 
HETATM   16  C22 UNL     1      -5.942   7.585  13.578  1.00  0.00     0.018 C 
HETATM   17  C23 UNL     1      -5.209   6.260  13.650  1.00  0.00    -0.026 A 
HETATM   18  C24 UNL     1      -4.350   6.014  14.859  1.00  0.00     0.021 A 
HETATM   19  C25 UNL     1      -3.661   6.219  13.513  1.00  0.00    -0.027 A 
HETATM   20  C26 UNL     1      -2.932   7.553  13.297  1.00  0.00     0.011 C 
HETATM   21  C27 UNL     1      -1.392   7.538  13.282  1.00  0.00     0.011 C 
HETATM   22  C28 UNL     1      -0.776   6.136  13.255  1.00  0.00    -0.032 C 
HETATM   23  C29 UNL     1      -0.746   5.602  14.711  1.00  0.00     0.016 C 
ENDROOT
BRANCH   1  24
HETATM   24  C6  UNL     1       1.902   6.679  13.264  1.00  0.00    -0.011 C 
HETATM   25  C7  UNL     1       1.568   7.089  14.712  1.00  0.00     0.010 C 
BRANCH  24  26
HETATM   26  C5  UNL     1       2.723   7.797  12.570  1.00  0.00     0.040 C 
BRANCH  26  27
HETATM   27  C4  UNL     1       4.045   7.459  11.868  1.00  0.00     0.142 C 
BRANCH  27  28
HETATM   28  C3  UNL     1       3.879   6.248  10.986  1.00  0.00     0.018 C 
HETATM   29  C2  UNL     1       3.452   6.200   9.708  1.00  0.00     0.010 C 
HETATM   30  C1  UNL     1       3.012   7.371   8.879  1.00  0.00     0.055 C 
BRANCH  29  31
HETATM   31  C30 UNL     1       3.391   4.901   8.982  1.00  0.00     0.171 C 
HETATM   32  O3  UNL     1       3.396   4.769   7.769  1.00  0.00    -0.646 OA
BRANCH  31  33
HETATM   33  O4  UNL     1       3.348   3.828   9.786  1.00  0.00    -0.773 OA
HETATM   34  H46 UNL     1       3.311   3.071   9.163  1.00  0.00     0.167 HD
ENDBRANCH  31  33
ENDBRANCH  29  31
ENDBRANCH  27  28
BRANCH  27  35
HETATM   35  O1  UNL     1       5.049   7.141  12.824  1.00  0.00    -0.392 OA
HETATM   36  H6  UNL     1       5.780   6.714  12.348  1.00  0.00     0.210 HD
ENDBRANCH  27  35
ENDBRANCH  26  27
ENDBRANCH  24  26
ENDBRANCH   1  24
TORSDOF 7
ENDMDL
MODEL 7
REMARK minimizedAffinity -9.35922241
REMARK  7 active torsions:
REMARK  status: ('A' for Active; 'I' for Inactive)
REMARK    1  A    between atoms: C2_2  and  C30_32 
REMARK    2  A    between atoms: C3_3  and  C4_4 
REMARK    3  A    between atoms: C4_4  and  O1_5 
REMARK    4  A    between atoms: C4_4  and  C5_6 
REMARK    5  A    between atoms: C5_6  and  C6_7 
REMARK    6  A    between atoms: C6_7  and  C8_9 
REMARK    7  A    between atoms: C30_32  and  O4_34 
ROOT
HETATM    1  C8  UNL     1      -3.249   7.302  14.223  1.00  0.00    -0.002 C 
HETATM    2  C9  UNL     1      -3.649   6.169  13.248  1.00  0.00     0.006 C 
HETATM    3  C10 UNL     1      -2.379   5.795  12.455  1.00  0.00     0.011 C 
HETATM    4  C11 UNL     1      -1.212   6.447  13.229  1.00  0.00    -0.032 C 
HETATM    5  C12 UNL     1      -0.849   5.473  14.394  1.00  0.00     0.016 C 
HETATM    6  C13 UNL     1       0.050   6.745  12.377  1.00  0.00     0.004 C 
HETATM    7  C14 UNL     1       0.877   5.499  12.022  1.00  0.00     0.007 C 
HETATM    8  C15 UNL     1       2.014   5.885  11.081  1.00  0.00     0.007 C 
HETATM    9  C16 UNL     1       3.059   6.743  11.811  1.00  0.00     0.010 C 
HETATM   10  C17 UNL     1       4.233   7.254  10.915  1.00  0.00     0.018 C 
HETATM   11  C18 UNL     1       5.372   6.218  10.913  1.00  0.00     0.023 C 
HETATM   12  C19 UNL     1       3.818   7.514   9.455  1.00  0.00     0.023 C 
HETATM   13  C20 UNL     1       4.818   8.560  11.482  1.00  0.00     0.135 C 
HETATM   14  O2  UNL     1       5.401   9.376  10.763  1.00  0.00    -0.297 OA
HETATM   15  C21 UNL     1       4.787   8.783  12.978  1.00  0.00     0.080 C 
HETATM   16  C22 UNL     1       3.463   8.412  13.633  1.00  0.00     0.018 C 
HETATM   17  C23 UNL     1       2.451   7.877  12.638  1.00  0.00    -0.026 A 
HETATM   18  C24 UNL     1       1.509   8.869  12.015  1.00  0.00     0.021 A 
HETATM   19  C25 UNL     1       0.941   7.853  13.002  1.00  0.00    -0.027 A 
HETATM   20  C26 UNL     1       0.536   8.376  14.388  1.00  0.00     0.011 C 
HETATM   21  C27 UNL     1      -0.967   8.469  14.712  1.00  0.00     0.011 C 
HETATM   22  C28 UNL     1      -1.877   7.802  13.676  1.00  0.00    -0.032 C 
HETATM   23  C29 UNL     1      -2.087   8.806  12.512  1.00  0.00     0.016 C 
ENDROOT
BRANCH   1  24
HETATM   24  C6  UNL     1      -4.365   8.276  14.701  1.00  0.00    -0.011 C 
HETATM   25  C7  UNL     1      -3.746   9.340  15.628  1.00  0.00     0.010 C 
BRANCH  24  26
HETATM   26  C5  UNL     1      -5.707   7.771  15.292  1.00  0.00     0.040 C 
BRANCH  26  27
HETATM   27  C4  UNL     1      -6.001   6.266  15.361  1.00  0.00     0.142 C 
BRANCH  27  28
HETATM   28  C3  UNL     1      -7.095   5.898  14.391  1.00  0.00     0.018 C 
HETATM   29  C2  UNL     1      -7.102   4.903  13.481  1.00  0.00     0.010 C 
HETATM   30  C1  UNL     1      -5.980   3.943  13.214  1.00  0.00     0.055 C 
BRANCH  29  31
HETATM   31  C30 UNL     1      -8.301   4.668  12.629  1.00  0.00     0.171 C 
HETATM   32  O3  UNL     1      -8.699   5.414  11.750  1.00  0.00    -0.646 OA
BRANCH  31  33
HETATM   33  O4  UNL     1      -8.937   3.516  12.888  1.00  0.00    -0.773 OA
HETATM   34  H46 UNL     1      -9.686   3.515  12.255  1.00  0.00     0.167 HD
ENDBRANCH  31  33
ENDBRANCH  29  31
ENDBRANCH  27  28
BRANCH  27  35
HETATM   35  O1  UNL     1      -6.460   5.907  16.658  1.00  0.00    -0.392 OA
HETATM   36  H6  UNL     1      -6.851   5.020  16.594  1.00  0.00     0.210 HD
ENDBRANCH  27  35
ENDBRANCH  26  27
ENDBRANCH  24  26
ENDBRANCH   1  24
TORSDOF 7
ENDMDL
MODEL 8
REMARK minimizedAffinity -9.34696102
REMARK  7 active torsions:
REMARK  status: ('A' for Active; 'I' for Inactive)
REMARK    1  A    between atoms: C2_2  and  C30_32 
REMARK    2  A    between atoms: C3_3  and  C4_4 
REMARK    3  A    between atoms: C4_4  and  O1_5 
REMARK    4  A    between atoms: C4_4  and  C5_6 
REMARK    5  A    between atoms: C5_6  and  C6_7 
REMARK    6  A    between atoms: C6_7  and  C8_9 
REMARK    7  A    between atoms: C30_32  and  O4_34 
ROOT
HETATM    1  C8  UNL     1      -2.620   6.093  13.576  1.00  0.00    -0.002 C 
HETATM    2  C9  UNL     1      -2.727   5.129  12.370  1.00  0.00     0.006 C 
HETATM    3  C10 UNL     1      -1.375   5.191  11.628  1.00  0.00     0.011 C 
HETATM    4  C11 UNL     1      -0.407   5.890  12.609  1.00  0.00    -0.032 C 
HETATM    5  C12 UNL     1       0.107   4.789  13.590  1.00  0.00     0.016 C 
HETATM    6  C13 UNL     1       0.796   6.605  11.939  1.00  0.00     0.004 C 
HETATM    7  C14 UNL     1       1.884   5.651  11.420  1.00  0.00     0.007 C 
HETATM    8  C15 UNL     1       2.950   6.445  10.671  1.00  0.00     0.007 C 
HETATM    9  C16 UNL     1       3.756   7.324  11.638  1.00  0.00     0.010 C 
HETATM   10  C17 UNL     1       4.830   8.236  10.960  1.00  0.00     0.018 C 
HETATM   11  C18 UNL     1       6.163   7.474  10.852  1.00  0.00     0.023 C 
HETATM   12  C19 UNL     1       4.430   8.704   9.548  1.00  0.00     0.023 C 
HETATM   13  C20 UNL     1       5.099   9.487  11.816  1.00  0.00     0.135 C 
HETATM   14  O2  UNL     1       5.522  10.534  11.320  1.00  0.00    -0.297 OA
HETATM   15  C21 UNL     1       4.959   9.384  13.319  1.00  0.00     0.080 C 
HETATM   16  C22 UNL     1       3.719   8.627  13.776  1.00  0.00     0.018 C 
HETATM   17  C23 UNL     1       2.887   8.118  12.616  1.00  0.00    -0.026 A 
HETATM   18  C24 UNL     1       1.780   9.007  12.120  1.00  0.00     0.021 A 
HETATM   19  C25 UNL     1       1.402   7.716  12.840  1.00  0.00    -0.027 A 
HETATM   20  C26 UNL     1       0.839   7.847  14.262  1.00  0.00     0.011 C 
HETATM   21  C27 UNL     1      -0.662   7.567  14.471  1.00  0.00     0.011 C 
HETATM   22  C28 UNL     1      -1.365   6.960  13.253  1.00  0.00    -0.032 C 
HETATM   23  C29 UNL     1      -1.737   8.121  12.292  1.00  0.00     0.016 C 
ENDROOT
BRANCH   1  24
HETATM   24  C6  UNL     1      -3.937   6.702  14.138  1.00  0.00    -0.011 C 
HETATM   25  C7  UNL     1      -4.170   6.171  15.566  1.00  0.00     0.010 C 
BRANCH  24  26
HETATM   26  C5  UNL     1      -5.266   6.682  13.339  1.00  0.00     0.040 C 
BRANCH  26  27
HETATM   27  C4  UNL     1      -6.224   5.491  13.467  1.00  0.00     0.142 C 
BRANCH  27  28
HETATM   28  C3  UNL     1      -5.833   4.394  12.509  1.00  0.00     0.018 C 
HETATM   29  C2  UNL     1      -6.406   3.184  12.349  1.00  0.00     0.010 C 
HETATM   30  C1  UNL     1      -7.568   2.646  13.132  1.00  0.00     0.055 C 
BRANCH  29  31
HETATM   31  C30 UNL     1      -5.898   2.240  11.315  1.00  0.00     0.171 C 
HETATM   32  O3  UNL     1      -5.904   1.024  11.405  1.00  0.00    -0.646 OA
BRANCH  31  33
HETATM   33  O4  UNL     1      -5.427   2.841  10.212  1.00  0.00    -0.773 OA
HETATM   34  H46 UNL     1      -5.139   2.095   9.644  1.00  0.00     0.167 HD
ENDBRANCH  31  33
ENDBRANCH  29  31
ENDBRANCH  27  28
BRANCH  27  35
HETATM   35  O1  UNL     1      -7.550   5.880  13.131  1.00  0.00    -0.392 OA
HETATM   36  H6  UNL     1      -8.067   5.069  12.997  1.00  0.00     0.210 HD
ENDBRANCH  27  35
ENDBRANCH  26  27
ENDBRANCH  24  26
ENDBRANCH   1  24
TORSDOF 7
ENDMDL
MODEL 9
REMARK minimizedAffinity -9.23468494
REMARK  7 active torsions:
REMARK  status: ('A' for Active; 'I' for Inactive)
REMARK    1  A    between atoms: C2_2  and  C30_32 
REMARK    2  A    between atoms: C3_3  and  C4_4 
REMARK    3  A    between atoms: C4_4  and  O1_5 
REMARK    4  A    between atoms: C4_4  and  C5_6 
REMARK    5  A    between atoms: C5_6  and  C6_7 
REMARK    6  A    between atoms: C6_7  and  C8_9 
REMARK    7  A    between atoms: C30_32  and  O4_34 
ROOT
HETATM    1  C8  UNL     1      -1.896   5.394  12.289  1.00  0.00    -0.002 C 
HETATM    2  C9  UNL     1      -2.300   6.007  13.651  1.00  0.00     0.006 C 
HETATM    3  C10 UNL     1      -1.199   7.021  14.027  1.00  0.00     0.011 C 
HETATM    4  C11 UNL     1      -0.391   7.240  12.729  1.00  0.00    -0.032 C 
HETATM    5  C12 UNL     1      -1.172   8.301  11.891  1.00  0.00     0.016 C 
HETATM    6  C13 UNL     1       1.073   7.709  12.944  1.00  0.00     0.004 C 
HETATM    7  C14 UNL     1       1.205   9.181  13.369  1.00  0.00     0.007 C 
HETATM    8  C15 UNL     1       2.665   9.499  13.676  1.00  0.00     0.007 C 
HETATM    9  C16 UNL     1       3.509   9.479  12.393  1.00  0.00     0.010 C 
HETATM   10  C17 UNL     1       5.039   9.722  12.608  1.00  0.00     0.018 C 
HETATM   11  C18 UNL     1       5.337  11.231  12.547  1.00  0.00     0.023 C 
HETATM   12  C19 UNL     1       5.559   9.185  13.954  1.00  0.00     0.023 C 
HETATM   13  C20 UNL     1       5.856   9.060  11.485  1.00  0.00     0.135 C 
HETATM   14  O2  UNL     1       7.029   8.715  11.651  1.00  0.00    -0.297 OA
HETATM   15  C21 UNL     1       5.241   8.947  10.107  1.00  0.00     0.080 C 
HETATM   16  C22 UNL     1       3.789   8.487  10.111  1.00  0.00     0.018 C 
HETATM   17  C23 UNL     1       3.256   8.254  11.512  1.00  0.00    -0.026 A 
HETATM   18  C24 UNL     1       3.373   6.863  12.069  1.00  0.00     0.021 A 
HETATM   19  C25 UNL     1       1.982   7.391  11.726  1.00  0.00    -0.027 A 
HETATM   20  C26 UNL     1       1.302   6.809  10.478  1.00  0.00     0.011 C 
HETATM   21  C27 UNL     1       0.112   5.853  10.687  1.00  0.00     0.011 C 
HETATM   22  C28 UNL     1      -0.395   5.784  12.131  1.00  0.00    -0.032 C 
HETATM   23  C29 UNL     1       0.511   4.791  12.906  1.00  0.00     0.016 C 
ENDROOT
BRANCH   1  24
HETATM   24  C6  UNL     1      -2.434   3.975  11.944  1.00  0.00    -0.011 C 
HETATM   25  C7  UNL     1      -2.317   3.745  10.424  1.00  0.00     0.010 C 
BRANCH  24  26
HETATM   26  C5  UNL     1      -3.805   3.462  12.456  1.00  0.00     0.040 C 
BRANCH  26  27
HETATM   27  C4  UNL     1      -4.831   2.889  11.469  1.00  0.00     0.142 C 
BRANCH  27  28
HETATM   28  C3  UNL     1      -6.233   3.179  11.939  1.00  0.00     0.018 C 
HETATM   29  C2  UNL     1      -6.673   4.242  12.643  1.00  0.00     0.010 C 
HETATM   30  C1  UNL     1      -5.832   5.378  13.146  1.00  0.00     0.055 C 
BRANCH  29  31
HETATM   31  C30 UNL     1      -8.117   4.375  12.985  1.00  0.00     0.171 C 
HETATM   32  O3  UNL     1      -8.718   5.428  13.113  1.00  0.00    -0.646 OA
BRANCH  31  33
HETATM   33  O4  UNL     1      -8.753   3.202  13.131  1.00  0.00    -0.773 OA
HETATM   34  H46 UNL     1      -9.673   3.462  13.349  1.00  0.00     0.167 HD
ENDBRANCH  31  33
ENDBRANCH  29  31
ENDBRANCH  27  28
BRANCH  27  35
HETATM   35  O1  UNL     1      -4.706   1.475  11.385  1.00  0.00    -0.392 OA
HETATM   36  H6  UNL     1      -5.505   1.137  10.947  1.00  0.00     0.210 HD
ENDBRANCH  27  35
ENDBRANCH  26  27
ENDBRANCH  24  26
ENDBRANCH   1  24
TORSDOF 7
ENDMDL
