MODEL 1
REMARK minimizedAffinity -8.99804592
REMARK CNNscore 0.434867054
REMARK CNNaffinity 7.51597595
REMARK  19 active torsions:
REMARK  status: ('A' for Active; 'I' for Inactive)
REMARK    1  A    between atoms: O1_2  and  C2_3 
REMARK    2  A    between atoms: C2_3  and  C3_4 
REMARK    3  A    between atoms: C2_3  and  C28_36 
REMARK    4  A    between atoms: C3_4  and  C4_5 
REMARK    5  A    between atoms: C4_5  and  C6_7 
REMARK    6  A    between atoms: C6_7  and  O2_8 
REMARK    7  A    between atoms: C6_7  and  C7_9 
REMARK    8  A    between atoms: C8_10  and  C9_11 
REMARK    9  A    between atoms: C10_12  and  C11_13 
REMARK   10  A    between atoms: C11_13  and  N1_14 
REMARK       I    between atoms: N1_14  and  C12_15 
REMARK   11  A    between atoms: C12_15  and  C13_17 
REMARK   12  A    between atoms: C13_17  and  C16_20 
REMARK   13  A    between atoms: C16_20  and  O4_21 
REMARK   14  A    between atoms: C16_20  and  C17_22 
REMARK   15  A    between atoms: C19_24  and  C20_25 
REMARK   16  A    between atoms: C21_26  and  C22_27 
REMARK   17  A    between atoms: C23_28  and  C24_29 
REMARK   18  A    between atoms: C26_31  and  N2_33 
REMARK   19  A    between atoms: C28_36  and  O7_37 
ROOT
HETATM    1  C9  UNL     1      -5.965   2.618  11.713  1.00  0.00    -0.003 C 
HETATM    2  C10 UNL     1      -6.524   3.448  12.606  1.00  0.00    -0.007 C 
ENDROOT
BRANCH   1   3
HETATM    3  C8  UNL     1      -4.549   2.630  11.424  1.00  0.00    -0.002 C 
HETATM    4  C7  UNL     1      -3.907   3.698  10.918  1.00  0.00     0.005 C 
BRANCH   4   5
HETATM    5  C6  UNL     1      -2.438   3.765  10.574  1.00  0.00     0.144 C 
BRANCH   5   6
HETATM    6  C4  UNL     1      -1.534   4.412  11.652  1.00  0.00     0.016 C 
HETATM    7  C5  UNL     1      -2.370   5.203  12.679  1.00  0.00     0.013 C 
BRANCH   6   8
HETATM    8  C3  UNL     1      -0.403   5.331  11.128  1.00  0.00     0.042 C 
BRANCH   8   9
HETATM    9  C2  UNL     1       0.981   5.326  11.817  1.00  0.00     0.159 C 
BRANCH   9  10
HETATM   10  O1  UNL     1       0.853   5.095  13.235  1.00  0.00    -0.388 OA
HETATM   11  C1  UNL     1       0.340   6.229  13.932  1.00  0.00     0.202 C 
ENDBRANCH   9  10
BRANCH   9  12
HETATM   12  C28 UNL     1       1.939   6.562  11.648  1.00  0.00     0.133 C 
HETATM   13  C29 UNL     1       1.217   7.928  11.473  1.00  0.00     0.114 C 
HETATM   14  C30 UNL     1       1.979   9.137  12.019  1.00  0.00     0.023 C 
HETATM   15  C31 UNL     1       1.112   8.073   9.969  1.00  0.00     0.227 C 
HETATM   16  O8  UNL     1       0.331   8.799   9.380  1.00  0.00    -0.273 OA
HETATM   17  N3  UNL     1       2.080   7.266   9.397  1.00  0.00    -0.332 N 
HETATM   18  C32 UNL     1       2.163   7.046   7.971  1.00  0.00     0.154 C 
HETATM   19  C33 UNL     1       2.840   6.460  10.404  1.00  0.00     0.183 C 
HETATM   20  C34 UNL     1       3.362   5.065   9.967  1.00  0.00     0.294 C 
HETATM   21  C35 UNL     1       4.378   6.788  10.394  1.00  0.00     0.169 C 
HETATM   22  O9  UNL     1       2.899   3.971   9.730  1.00  0.00    -0.262 OA
HETATM   23  O10 UNL     1       4.651   5.462   9.845  1.00  0.00    -0.311 OA
HETATM   24  C36 UNL     1       5.227   6.998  11.635  1.00  0.00     0.043 C 
BRANCH  12  25
HETATM   25  O7  UNL     1       2.729   6.604  12.850  1.00  0.00    -0.383 OA
HETATM   26  H42 UNL     1       2.096   6.455  13.586  1.00  0.00     0.210 HD
ENDBRANCH  12  25
ENDBRANCH   9  12
ENDBRANCH   8   9
ENDBRANCH   6   8
ENDBRANCH   5   6
BRANCH   5  27
HETATM   27  O2  UNL     1      -1.944   2.446  10.312  1.00  0.00    -0.391 OA
HETATM   28  H12 UNL     1      -2.468   2.099   9.571  1.00  0.00     0.210 HD
ENDBRANCH   5  27
ENDBRANCH   4   5
ENDBRANCH   1   3
BRANCH   2  29
HETATM   29  C11 UNL     1      -7.986   3.475  12.924  1.00  0.00     0.149 C 
BRANCH  29  30
HETATM   30  N1  UNL     1      -8.198   4.484  13.932  1.00  0.00    -0.357 N 
HETATM   31  C12 UNL     1      -8.406   5.810  13.629  1.00  0.00     0.228 C 
HETATM   32  O3  UNL     1      -8.437   6.219  12.472  1.00  0.00    -0.273 OA
HETATM   33  H19 UNL     1      -8.111   4.223  14.913  1.00  0.00     0.162 HD
BRANCH  31  34
HETATM   34  C13 UNL     1      -8.607   6.736  14.850  1.00  0.00     0.063 C 
HETATM   35  C14 UNL     1      -8.171   5.956  16.113  1.00  0.00     0.028 C 
HETATM   36  C15 UNL     1      -7.676   7.950  14.679  1.00  0.00     0.028 C 
BRANCH  34  37
HETATM   37  C16 UNL     1     -10.122   7.104  14.920  1.00  0.00     0.164 C 
BRANCH  37  38
HETATM   38  O4  UNL     1     -10.911   6.128  14.220  1.00  0.00    -0.390 OA
HETATM   39  H27 UNL     1     -11.827   6.461  14.229  1.00  0.00     0.210 HD
ENDBRANCH  37  38
BRANCH  37  40
HETATM   40  C17 UNL     1     -10.536   8.482  14.407  1.00  0.00    -0.054 C 
HETATM   41  C18 UNL     1     -11.325   8.528  13.124  1.00  0.00     0.046 C 
HETATM   42  C19 UNL     1     -10.198   9.575  15.125  1.00  0.00     0.005 C 
BRANCH  42  43
HETATM   43  C20 UNL     1     -10.460  10.960  14.791  1.00  0.00     0.000 C 
HETATM   44  C21 UNL     1      -9.735  11.966  15.306  1.00  0.00     0.000 C 
BRANCH  44  45
HETATM   45  C22 UNL     1      -9.961  13.362  14.981  1.00  0.00     0.001 C 
HETATM   46  C23 UNL     1     -10.968  13.757  14.183  1.00  0.00     0.009 C 
BRANCH  46  47
HETATM   47  C24 UNL     1     -11.308  15.137  13.805  1.00  0.00    -0.034 C 
HETATM   48  C25 UNL     1     -10.556  16.230  14.543  1.00  0.00     0.050 C 
HETATM   49  C26 UNL     1     -12.239  15.378  12.849  1.00  0.00     0.082 C 
HETATM   50  C27 UNL     1     -13.070  14.472  11.999  1.00  0.00     0.075 C 
BRANCH  49  51
HETATM   51  N2  UNL     1     -12.550  16.766  12.560  1.00  0.00    -0.120 N 
HETATM   52  O5  UNL     1     -13.543  17.243  13.121  1.00  0.00    -0.532 OA
HETATM   53  O6  UNL     1     -11.782  17.366  11.797  1.00  0.00    -0.532 OA
ENDBRANCH  49  51
ENDBRANCH  46  47
ENDBRANCH  44  45
ENDBRANCH  42  43
ENDBRANCH  37  40
ENDBRANCH  34  37
ENDBRANCH  31  34
ENDBRANCH  29  30
ENDBRANCH   2  29
TORSDOF 19
ENDMDL
MODEL 2
REMARK minimizedAffinity -7.76673412
REMARK CNNscore 0.27758202
REMARK CNNaffinity 6.18973732
REMARK  19 active torsions:
REMARK  status: ('A' for Active; 'I' for Inactive)
REMARK    1  A    between atoms: O1_2  and  C2_3 
REMARK    2  A    between atoms: C2_3  and  C3_4 
REMARK    3  A    between atoms: C2_3  and  C28_36 
REMARK    4  A    between atoms: C3_4  and  C4_5 
REMARK    5  A    between atoms: C4_5  and  C6_7 
REMARK    6  A    between atoms: C6_7  and  O2_8 
REMARK    7  A    between atoms: C6_7  and  C7_9 
REMARK    8  A    between atoms: C8_10  and  C9_11 
REMARK    9  A    between atoms: C10_12  and  C11_13 
REMARK   10  A    between atoms: C11_13  and  N1_14 
REMARK       I    between atoms: N1_14  and  C12_15 
REMARK   11  A    between atoms: C12_15  and  C13_17 
REMARK   12  A    between atoms: C13_17  and  C16_20 
REMARK   13  A    between atoms: C16_20  and  O4_21 
REMARK   14  A    between atoms: C16_20  and  C17_22 
REMARK   15  A    between atoms: C19_24  and  C20_25 
REMARK   16  A    between atoms: C21_26  and  C22_27 
REMARK   17  A    between atoms: C23_28  and  C24_29 
REMARK   18  A    between atoms: C26_31  and  N2_33 
REMARK   19  A    between atoms: C28_36  and  O7_37 
ROOT
HETATM    1  C9  UNL     1       3.752  11.099  14.558  1.00  0.00    -0.003 C 
HETATM    2  C10 UNL     1       3.538  10.513  13.371  1.00  0.00    -0.007 C 
ENDROOT
BRANCH   1   3
HETATM    3  C8  UNL     1       4.954  11.849  14.846  1.00  0.00    -0.002 C 
HETATM    4  C7  UNL     1       5.254  12.325  16.067  1.00  0.00     0.005 C 
BRANCH   4   5
HETATM    5  C6  UNL     1       6.479  13.132  16.425  1.00  0.00     0.144 C 
BRANCH   5   6
HETATM    6  C4  UNL     1       7.724  12.304  16.829  1.00  0.00     0.016 C 
HETATM    7  C5  UNL     1       7.316  10.949  17.442  1.00  0.00     0.013 C 
BRANCH   6   8
HETATM    8  C3  UNL     1       8.720  12.999  17.790  1.00  0.00     0.042 C 
BRANCH   8   9
HETATM    9  C2  UNL     1       8.711  12.652  19.297  1.00  0.00     0.159 C 
BRANCH   9  10
HETATM   10  O1  UNL     1       8.989  11.253  19.508  1.00  0.00    -0.388 OA
HETATM   11  C1  UNL     1      10.320  10.897  19.137  1.00  0.00     0.202 C 
ENDBRANCH   9  10
BRANCH   9  12
HETATM   12  C28 UNL     1       7.448  12.997  20.167  1.00  0.00     0.133 C 
HETATM   13  C29 UNL     1       6.484  14.041  19.535  1.00  0.00     0.114 C 
HETATM   14  C30 UNL     1       5.012  13.874  19.911  1.00  0.00     0.023 C 
HETATM   15  C31 UNL     1       6.975  15.355  20.109  1.00  0.00     0.227 C 
HETATM   16  O8  UNL     1       6.756  16.458  19.640  1.00  0.00    -0.273 OA
HETATM   17  N3  UNL     1       7.676  15.075  21.269  1.00  0.00    -0.332 N 
HETATM   18  C32 UNL     1       8.412  16.086  21.993  1.00  0.00     0.154 C 
HETATM   19  C33 UNL     1       7.806  13.608  21.534  1.00  0.00     0.183 C 
HETATM   20  C34 UNL     1       9.085  13.116  22.264  1.00  0.00     0.294 C 
HETATM   21  C35 UNL     1       7.141  13.186  22.895  1.00  0.00     0.169 C 
HETATM   22  O9  UNL     1      10.261  12.975  22.011  1.00  0.00    -0.262 OA
HETATM   23  O10 UNL     1       8.463  12.910  23.450  1.00  0.00    -0.311 OA
HETATM   24  C36 UNL     1       6.256  11.966  23.086  1.00  0.00     0.043 C 
BRANCH  12  25
HETATM   25  O7  UNL     1       6.742  11.753  20.331  1.00  0.00    -0.383 OA
HETATM   26  H42 UNL     1       6.740  11.334  19.444  1.00  0.00     0.210 HD
ENDBRANCH  12  25
ENDBRANCH   9  12
ENDBRANCH   8   9
ENDBRANCH   6   8
ENDBRANCH   5   6
BRANCH   5  27
HETATM   27  O2  UNL     1       6.841  13.972  15.323  1.00  0.00    -0.391 OA
HETATM   28  H12 UNL     1       6.075  14.545  15.150  1.00  0.00     0.210 HD
ENDBRANCH   5  27
ENDBRANCH   4   5
ENDBRANCH   1   3
BRANCH   2  29
HETATM   29  C11 UNL     1       2.313   9.720  13.039  1.00  0.00     0.149 C 
BRANCH  29  30
HETATM   30  N1  UNL     1       2.701   8.682  12.116  1.00  0.00    -0.357 N 
HETATM   31  C12 UNL     1       1.884   8.245  11.098  1.00  0.00     0.228 C 
HETATM   32  O3  UNL     1       0.770   8.724  10.902  1.00  0.00    -0.273 OA
HETATM   33  H19 UNL     1       3.581   8.192  12.268  1.00  0.00     0.162 HD
BRANCH  31  34
HETATM   34  C13 UNL     1       2.478   7.120  10.220  1.00  0.00     0.063 C 
HETATM   35  C14 UNL     1       1.582   6.975   8.966  1.00  0.00     0.028 C 
HETATM   36  C15 UNL     1       3.881   7.564   9.770  1.00  0.00     0.028 C 
BRANCH  34  37
HETATM   37  C16 UNL     1       2.469   5.807  11.063  1.00  0.00     0.164 C 
BRANCH  37  38
HETATM   38  O4  UNL     1       2.816   4.679  10.244  1.00  0.00    -0.390 OA
HETATM   39  H27 UNL     1       2.709   3.890  10.806  1.00  0.00     0.210 HD
ENDBRANCH  37  38
BRANCH  37  40
HETATM   40  C17 UNL     1       1.183   5.456  11.808  1.00  0.00    -0.054 C 
HETATM   41  C18 UNL     1       1.065   5.929  13.234  1.00  0.00     0.046 C 
HETATM   42  C19 UNL     1       0.220   4.767  11.158  1.00  0.00     0.005 C 
BRANCH  42  43
HETATM   43  C20 UNL     1      -1.043   4.306  11.696  1.00  0.00     0.000 C 
HETATM   44  C21 UNL     1      -1.809   3.412  11.050  1.00  0.00     0.000 C 
BRANCH  44  45
HETATM   45  C22 UNL     1      -3.071   2.918  11.568  1.00  0.00     0.001 C 
HETATM   46  C23 UNL     1      -4.251   3.447  11.202  1.00  0.00     0.009 C 
BRANCH  46  47
HETATM   47  C24 UNL     1      -5.588   3.017  11.638  1.00  0.00    -0.034 C 
HETATM   48  C25 UNL     1      -6.068   1.687  11.084  1.00  0.00     0.050 C 
HETATM   49  C26 UNL     1      -6.315   3.785  12.486  1.00  0.00     0.082 C 
HETATM   50  C27 UNL     1      -6.036   5.091  13.155  1.00  0.00     0.075 C 
BRANCH  49  51
HETATM   51  N2  UNL     1      -7.642   3.312  12.838  1.00  0.00    -0.120 N 
HETATM   52  O5  UNL     1      -7.721   2.165  13.295  1.00  0.00    -0.532 OA
HETATM   53  O6  UNL     1      -8.580   4.102  12.678  1.00  0.00    -0.532 OA
ENDBRANCH  49  51
ENDBRANCH  46  47
ENDBRANCH  44  45
ENDBRANCH  42  43
ENDBRANCH  37  40
ENDBRANCH  34  37
ENDBRANCH  31  34
ENDBRANCH  29  30
ENDBRANCH   2  29
TORSDOF 19
ENDMDL
MODEL 3
REMARK minimizedAffinity -8.67433167
REMARK CNNscore 0.246640787
REMARK CNNaffinity 5.99739885
REMARK  19 active torsions:
REMARK  status: ('A' for Active; 'I' for Inactive)
REMARK    1  A    between atoms: O1_2  and  C2_3 
REMARK    2  A    between atoms: C2_3  and  C3_4 
REMARK    3  A    between atoms: C2_3  and  C28_36 
REMARK    4  A    between atoms: C3_4  and  C4_5 
REMARK    5  A    between atoms: C4_5  and  C6_7 
REMARK    6  A    between atoms: C6_7  and  O2_8 
REMARK    7  A    between atoms: C6_7  and  C7_9 
REMARK    8  A    between atoms: C8_10  and  C9_11 
REMARK    9  A    between atoms: C10_12  and  C11_13 
REMARK   10  A    between atoms: C11_13  and  N1_14 
REMARK       I    between atoms: N1_14  and  C12_15 
REMARK   11  A    between atoms: C12_15  and  C13_17 
REMARK   12  A    between atoms: C13_17  and  C16_20 
REMARK   13  A    between atoms: C16_20  and  O4_21 
REMARK   14  A    between atoms: C16_20  and  C17_22 
REMARK   15  A    between atoms: C19_24  and  C20_25 
REMARK   16  A    between atoms: C21_26  and  C22_27 
REMARK   17  A    between atoms: C23_28  and  C24_29 
REMARK   18  A    between atoms: C26_31  and  N2_33 
REMARK   19  A    between atoms: C28_36  and  O7_37 
ROOT
HETATM    1  C9  UNL     1       4.890   9.997  12.585  1.00  0.00    -0.003 C 
HETATM    2  C10 UNL     1       5.514  10.200  11.415  1.00  0.00    -0.007 C 
ENDROOT
BRANCH   1   3
HETATM    3  C8  UNL     1       4.720  11.046  13.564  1.00  0.00    -0.002 C 
HETATM    4  C7  UNL     1       5.283  11.017  14.785  1.00  0.00     0.005 C 
BRANCH   4   5
HETATM    5  C6  UNL     1       5.124  12.068  15.858  1.00  0.00     0.144 C 
BRANCH   5   6
HETATM    6  C4  UNL     1       4.162  11.696  17.013  1.00  0.00     0.016 C 
HETATM    7  C5  UNL     1       2.690  11.767  16.558  1.00  0.00     0.013 C 
BRANCH   6   8
HETATM    8  C3  UNL     1       4.314  12.519  18.316  1.00  0.00     0.042 C 
BRANCH   8   9
HETATM    9  C2  UNL     1       4.481  11.798  19.673  1.00  0.00     0.159 C 
BRANCH   9  10
HETATM   10  O1  UNL     1       5.434  10.720  19.573  1.00  0.00    -0.388 OA
HETATM   11  C1  UNL     1       6.776  11.186  19.440  1.00  0.00     0.202 C 
ENDBRANCH   9  10
BRANCH   9  12
HETATM   12  C28 UNL     1       3.218  11.214  20.405  1.00  0.00     0.133 C 
HETATM   13  C29 UNL     1       1.873  11.904  20.037  1.00  0.00     0.114 C 
HETATM   14  C30 UNL     1       0.643  10.999  20.101  1.00  0.00     0.023 C 
HETATM   15  C31 UNL     1       1.733  12.974  21.101  1.00  0.00     0.227 C 
HETATM   16  O8  UNL     1       1.030  13.966  21.019  1.00  0.00    -0.273 OA
HETATM   17  N3  UNL     1       2.511  12.600  22.183  1.00  0.00    -0.332 N 
HETATM   18  C32 UNL     1       2.729  13.468  23.318  1.00  0.00     0.154 C 
HETATM   19  C33 UNL     1       3.293  11.348  21.937  1.00  0.00     0.183 C 
HETATM   20  C34 UNL     1       4.672  11.209  22.636  1.00  0.00     0.294 C 
HETATM   21  C35 UNL     1       2.919  10.202  22.947  1.00  0.00     0.169 C 
HETATM   22  O9  UNL     1       5.780  11.689  22.533  1.00  0.00    -0.262 OA
HETATM   23  O10 UNL     1       4.236  10.326  23.566  1.00  0.00    -0.311 OA
HETATM   24  C36 UNL     1       2.683   8.752  22.563  1.00  0.00     0.043 C 
BRANCH  12  25
HETATM   25  O7  UNL     1       3.152   9.830  20.015  1.00  0.00    -0.383 OA
HETATM   26  H42 UNL     1       3.319   9.822  19.048  1.00  0.00     0.210 HD
ENDBRANCH  12  25
ENDBRANCH   9  12
ENDBRANCH   8   9
ENDBRANCH   6   8
ENDBRANCH   5   6
BRANCH   5  27
HETATM   27  O2  UNL     1       6.403  12.375  16.424  1.00  0.00    -0.391 OA
HETATM   28  H12 UNL     1       6.958  12.694  15.693  1.00  0.00     0.210 HD
ENDBRANCH   5  27
ENDBRANCH   4   5
ENDBRANCH   1   3
BRANCH   2  29
HETATM   29  C11 UNL     1       5.720   9.138  10.382  1.00  0.00     0.149 C 
BRANCH  29  30
HETATM   30  N1  UNL     1       4.451   8.491  10.157  1.00  0.00    -0.357 N 
HETATM   31  C12 UNL     1       4.293   7.125  10.197  1.00  0.00     0.228 C 
HETATM   32  O3  UNL     1       5.226   6.365  10.438  1.00  0.00    -0.273 OA
HETATM   33  H19 UNL     1       3.653   9.059   9.879  1.00  0.00     0.162 HD
BRANCH  31  34
HETATM   34  C13 UNL     1       2.855   6.625   9.924  1.00  0.00     0.063 C 
HETATM   35  C14 UNL     1       1.888   7.809  10.166  1.00  0.00     0.028 C 
HETATM   36  C15 UNL     1       2.771   6.220   8.441  1.00  0.00     0.028 C 
BRANCH  34  37
HETATM   37  C16 UNL     1       2.565   5.458  10.918  1.00  0.00     0.164 C 
BRANCH  37  38
HETATM   38  O4  UNL     1       2.707   4.188  10.259  1.00  0.00    -0.390 OA
HETATM   39  H27 UNL     1       2.431   3.513  10.906  1.00  0.00     0.210 HD
ENDBRANCH  37  38
BRANCH  37  40
HETATM   40  C17 UNL     1       1.213   5.457  11.629  1.00  0.00    -0.054 C 
HETATM   41  C18 UNL     1       1.167   6.046  13.015  1.00  0.00     0.046 C 
HETATM   42  C19 UNL     1       0.138   4.954  10.986  1.00  0.00     0.005 C 
BRANCH  42  43
HETATM   43  C20 UNL     1      -1.211   4.827  11.499  1.00  0.00     0.000 C 
HETATM   44  C21 UNL     1      -2.124   4.034  10.915  1.00  0.00     0.000 C 
BRANCH  44  45
HETATM   45  C22 UNL     1      -3.477   3.872  11.412  1.00  0.00     0.001 C 
HETATM   46  C23 UNL     1      -4.007   4.700  12.328  1.00  0.00     0.009 C 
BRANCH  46  47
HETATM   47  C24 UNL     1      -5.368   4.650  12.885  1.00  0.00    -0.034 C 
HETATM   48  C25 UNL     1      -5.755   5.809  13.787  1.00  0.00     0.050 C 
HETATM   49  C26 UNL     1      -6.196   3.620  12.585  1.00  0.00     0.082 C 
HETATM   50  C27 UNL     1      -6.032   2.411  11.722  1.00  0.00     0.075 C 
BRANCH  49  51
HETATM   51  N2  UNL     1      -7.509   3.622  13.205  1.00  0.00    -0.120 N 
HETATM   52  O5  UNL     1      -7.592   3.123  14.334  1.00  0.00    -0.532 OA
HETATM   53  O6  UNL     1      -8.431   4.145  12.567  1.00  0.00    -0.532 OA
ENDBRANCH  49  51
ENDBRANCH  46  47
ENDBRANCH  44  45
ENDBRANCH  42  43
ENDBRANCH  37  40
ENDBRANCH  34  37
ENDBRANCH  31  34
ENDBRANCH  29  30
ENDBRANCH   2  29
TORSDOF 19
ENDMDL
MODEL 4
REMARK minimizedAffinity -7.52794981
REMARK CNNscore 0.242812634
REMARK CNNaffinity 7.06314659
REMARK  19 active torsions:
REMARK  status: ('A' for Active; 'I' for Inactive)
REMARK    1  A    between atoms: O1_2  and  C2_3 
REMARK    2  A    between atoms: C2_3  and  C3_4 
REMARK    3  A    between atoms: C2_3  and  C28_36 
REMARK    4  A    between atoms: C3_4  and  C4_5 
REMARK    5  A    between atoms: C4_5  and  C6_7 
REMARK    6  A    between atoms: C6_7  and  O2_8 
REMARK    7  A    between atoms: C6_7  and  C7_9 
REMARK    8  A    between atoms: C8_10  and  C9_11 
REMARK    9  A    between atoms: C10_12  and  C11_13 
REMARK   10  A    between atoms: C11_13  and  N1_14 
REMARK       I    between atoms: N1_14  and  C12_15 
REMARK   11  A    between atoms: C12_15  and  C13_17 
REMARK   12  A    between atoms: C13_17  and  C16_20 
REMARK   13  A    between atoms: C16_20  and  O4_21 
REMARK   14  A    between atoms: C16_20  and  C17_22 
REMARK   15  A    between atoms: C19_24  and  C20_25 
REMARK   16  A    between atoms: C21_26  and  C22_27 
REMARK   17  A    between atoms: C23_28  and  C24_29 
REMARK   18  A    between atoms: C26_31  and  N2_33 
REMARK   19  A    between atoms: C28_36  and  O7_37 
ROOT
HETATM    1  C9  UNL     1       0.477   6.153  11.963  1.00  0.00    -0.003 C 
HETATM    2  C10 UNL     1       1.556   6.422  12.712  1.00  0.00    -0.007 C 
ENDROOT
BRANCH   1   3
HETATM    3  C8  UNL     1      -0.187   4.870  11.993  1.00  0.00    -0.002 C 
HETATM    4  C7  UNL     1      -1.444   4.677  11.558  1.00  0.00     0.005 C 
BRANCH   4   5
HETATM    5  C6  UNL     1      -2.199   3.368  11.585  1.00  0.00     0.144 C 
BRANCH   5   6
HETATM    6  C4  UNL     1      -3.569   3.409  12.306  1.00  0.00     0.016 C 
HETATM    7  C5  UNL     1      -4.530   2.345  11.736  1.00  0.00     0.013 C 
BRANCH   6   8
HETATM    8  C3  UNL     1      -4.295   4.776  12.308  1.00  0.00     0.042 C 
BRANCH   8   9
HETATM    9  C2  UNL     1      -4.462   5.562  13.629  1.00  0.00     0.159 C 
BRANCH   9  10
HETATM   10  O1  UNL     1      -3.394   5.260  14.550  1.00  0.00    -0.388 OA
HETATM   11  C1  UNL     1      -2.423   6.303  14.623  1.00  0.00     0.202 C 
ENDBRANCH   9  10
BRANCH   9  12
HETATM   12  C28 UNL     1      -5.803   5.444  14.441  1.00  0.00     0.133 C 
HETATM   13  C29 UNL     1      -6.612   4.141  14.179  1.00  0.00     0.114 C 
HETATM   14  C30 UNL     1      -7.437   3.643  15.366  1.00  0.00     0.023 C 
HETATM   15  C31 UNL     1      -7.565   4.542  13.072  1.00  0.00     0.227 C 
HETATM   16  O8  UNL     1      -8.139   3.775  12.319  1.00  0.00    -0.273 OA
HETATM   17  N3  UNL     1      -7.690   5.920  13.100  1.00  0.00    -0.332 N 
HETATM   18  C32 UNL     1      -8.407   6.655  12.082  1.00  0.00     0.154 C 
HETATM   19  C33 UNL     1      -6.805   6.568  14.118  1.00  0.00     0.183 C 
HETATM   20  C34 UNL     1      -6.263   7.989  13.805  1.00  0.00     0.294 C 
HETATM   21  C35 UNL     1      -7.622   7.365  15.200  1.00  0.00     0.169 C 
HETATM   22  O9  UNL     1      -5.448   8.492  13.063  1.00  0.00    -0.262 OA
HETATM   23  O10 UNL     1      -7.103   8.619  14.661  1.00  0.00    -0.311 OA
HETATM   24  C36 UNL     1      -7.357   7.317  16.694  1.00  0.00     0.043 C 
BRANCH  12  25
HETATM   25  O7  UNL     1      -5.419   5.482  15.827  1.00  0.00    -0.383 OA
HETATM   26  H42 UNL     1      -4.641   4.889  15.900  1.00  0.00     0.210 HD
ENDBRANCH  12  25
ENDBRANCH   9  12
ENDBRANCH   8   9
ENDBRANCH   6   8
ENDBRANCH   5   6
BRANCH   5  27
HETATM   27  O2  UNL     1      -2.413   2.908  10.246  1.00  0.00    -0.391 OA
HETATM   28  H12 UNL     1      -1.533   2.803   9.847  1.00  0.00     0.210 HD
ENDBRANCH   5  27
ENDBRANCH   4   5
ENDBRANCH   1   3
BRANCH   2  29
HETATM   29  C11 UNL     1       2.278   7.733  12.700  1.00  0.00     0.149 C 
BRANCH  29  30
HETATM   30  N1  UNL     1       3.672   7.464  12.449  1.00  0.00    -0.357 N 
HETATM   31  C12 UNL     1       4.688   8.089  13.134  1.00  0.00     0.228 C 
HETATM   32  O3  UNL     1       4.471   8.914  14.017  1.00  0.00    -0.273 OA
HETATM   33  H19 UNL     1       3.922   6.845  11.679  1.00  0.00     0.162 HD
BRANCH  31  34
HETATM   34  C13 UNL     1       6.116   7.669  12.714  1.00  0.00     0.063 C 
HETATM   35  C14 UNL     1       5.988   6.649  11.558  1.00  0.00     0.028 C 
HETATM   36  C15 UNL     1       6.839   8.921  12.185  1.00  0.00     0.028 C 
BRANCH  34  37
HETATM   37  C16 UNL     1       6.801   7.019  13.956  1.00  0.00     0.164 C 
BRANCH  37  38
HETATM   38  O4  UNL     1       5.815   6.586  14.907  1.00  0.00    -0.390 OA
HETATM   39  H27 UNL     1       6.308   6.272  15.687  1.00  0.00     0.210 HD
ENDBRANCH  37  38
BRANCH  37  40
HETATM   40  C17 UNL     1       7.831   7.857  14.711  1.00  0.00    -0.054 C 
HETATM   41  C18 UNL     1       9.198   7.987  14.089  1.00  0.00     0.046 C 
HETATM   42  C19 UNL     1       7.469   8.446  15.871  1.00  0.00     0.005 C 
BRANCH  42  43
HETATM   43  C20 UNL     1       8.304   9.240  16.749  1.00  0.00     0.000 C 
HETATM   44  C21 UNL     1       7.809  10.250  17.481  1.00  0.00     0.000 C 
BRANCH  44  45
HETATM   45  C22 UNL     1       8.614  11.054  18.382  1.00  0.00     0.001 C 
HETATM   46  C23 UNL     1       8.177  11.420  19.599  1.00  0.00     0.009 C 
BRANCH  46  47
HETATM   47  C24 UNL     1       8.908  12.208  20.603  1.00  0.00    -0.034 C 
HETATM   48  C25 UNL     1      10.418  12.234  20.451  1.00  0.00     0.050 C 
HETATM   49  C26 UNL     1       8.240  12.859  21.586  1.00  0.00     0.082 C 
HETATM   50  C27 UNL     1       6.785  12.983  21.906  1.00  0.00     0.075 C 
BRANCH  49  51
HETATM   51  N2  UNL     1       9.034  13.582  22.563  1.00  0.00    -0.120 N 
HETATM   52  O5  UNL     1       9.256  14.776  22.326  1.00  0.00    -0.532 OA
HETATM   53  O6  UNL     1       9.401  12.954  23.564  1.00  0.00    -0.532 OA
ENDBRANCH  49  51
ENDBRANCH  46  47
ENDBRANCH  44  45
ENDBRANCH  42  43
ENDBRANCH  37  40
ENDBRANCH  34  37
ENDBRANCH  31  34
ENDBRANCH  29  30
ENDBRANCH   2  29
TORSDOF 19
ENDMDL
MODEL 5
REMARK minimizedAffinity -8.20042324
REMARK CNNscore 0.241361067
REMARK CNNaffinity 6.28477621
REMARK  19 active torsions:
REMARK  status: ('A' for Active; 'I' for Inactive)
REMARK    1  A    between atoms: O1_2  and  C2_3 
REMARK    2  A    between atoms: C2_3  and  C3_4 
REMARK    3  A    between atoms: C2_3  and  C28_36 
REMARK    4  A    between atoms: C3_4  and  C4_5 
REMARK    5  A    between atoms: C4_5  and  C6_7 
REMARK    6  A    between atoms: C6_7  and  O2_8 
REMARK    7  A    between atoms: C6_7  and  C7_9 
REMARK    8  A    between atoms: C8_10  and  C9_11 
REMARK    9  A    between atoms: C10_12  and  C11_13 
REMARK   10  A    between atoms: C11_13  and  N1_14 
REMARK       I    between atoms: N1_14  and  C12_15 
REMARK   11  A    between atoms: C12_15  and  C13_17 
REMARK   12  A    between atoms: C13_17  and  C16_20 
REMARK   13  A    between atoms: C16_20  and  O4_21 
REMARK   14  A    between atoms: C16_20  and  C17_22 
REMARK   15  A    between atoms: C19_24  and  C20_25 
REMARK   16  A    between atoms: C21_26  and  C22_27 
REMARK   17  A    between atoms: C23_28  and  C24_29 
REMARK   18  A    between atoms: C26_31  and  N2_33 
REMARK   19  A    between atoms: C28_36  and  O7_37 
ROOT
HETATM    1  C9  UNL     1       7.553   7.401  12.892  1.00  0.00    -0.003 C 
HETATM    2  C10 UNL     1       6.720   6.429  12.493  1.00  0.00    -0.007 C 
ENDROOT
BRANCH   1   3
HETATM    3  C8  UNL     1       7.676   7.794  14.277  1.00  0.00    -0.002 C 
HETATM    4  C7  UNL     1       8.825   8.233  14.822  1.00  0.00     0.005 C 
BRANCH   4   5
HETATM    5  C6  UNL     1       9.022   8.635  16.264  1.00  0.00     0.144 C 
BRANCH   5   6
HETATM    6  C4  UNL     1       8.025   9.693  16.800  1.00  0.00     0.016 C 
HETATM    7  C5  UNL     1       6.983  10.069  15.726  1.00  0.00     0.013 C 
BRANCH   6   8
HETATM    8  C3  UNL     1       8.650  10.995  17.357  1.00  0.00     0.042 C 
BRANCH   8   9
HETATM    9  C2  UNL     1      10.029  10.956  18.053  1.00  0.00     0.159 C 
BRANCH   9  10
HETATM   10  O1  UNL     1       9.961  11.534  19.373  1.00  0.00    -0.388 OA
HETATM   11  C1  UNL     1       8.621  11.656  19.848  1.00  0.00     0.202 C 
ENDBRANCH   9  10
BRANCH   9  12
HETATM   12  C28 UNL     1      11.278  11.598  17.345  1.00  0.00     0.133 C 
HETATM   13  C29 UNL     1      12.614  11.463  18.130  1.00  0.00     0.114 C 
HETATM   14  C30 UNL     1      13.869  11.381  17.260  1.00  0.00     0.023 C 
HETATM   15  C31 UNL     1      12.674  12.746  18.932  1.00  0.00     0.227 C 
HETATM   16  O8  UNL     1      13.348  12.926  19.932  1.00  0.00    -0.273 OA
HETATM   17  N3  UNL     1      11.863  13.676  18.306  1.00  0.00    -0.332 N 
HETATM   18  C32 UNL     1      11.569  14.966  18.887  1.00  0.00     0.154 C 
HETATM   19  C33 UNL     1      11.133  13.115  17.126  1.00  0.00     0.183 C 
HETATM   20  C34 UNL     1       9.730  13.695  16.802  1.00  0.00     0.294 C 
HETATM   21  C35 UNL     1      11.499  13.856  15.788  1.00  0.00     0.169 C 
HETATM   22  O9  UNL     1       8.613  13.649  17.268  1.00  0.00    -0.262 OA
HETATM   23  O10 UNL     1      10.153  14.421  15.739  1.00  0.00    -0.311 OA
HETATM   24  C36 UNL     1      11.798  13.166  14.469  1.00  0.00     0.043 C 
BRANCH  12  25
HETATM   25  O7  UNL     1      11.405  10.908  16.089  1.00  0.00    -0.383 OA
HETATM   26  H42 UNL     1      11.280   9.958  16.297  1.00  0.00     0.210 HD
ENDBRANCH  12  25
ENDBRANCH   9  12
ENDBRANCH   8   9
ENDBRANCH   6   8
ENDBRANCH   5   6
BRANCH   5  27
HETATM   27  O2  UNL     1       8.937   7.478  17.103  1.00  0.00    -0.391 OA
HETATM   28  H12 UNL     1       9.635   6.870  16.805  1.00  0.00     0.210 HD
ENDBRANCH   5  27
ENDBRANCH   4   5
ENDBRANCH   1   3
BRANCH   2  29
HETATM   29  C11 UNL     1       6.555   6.001  11.069  1.00  0.00     0.149 C 
BRANCH  29  30
HETATM   30  N1  UNL     1       5.143   5.986  10.776  1.00  0.00    -0.357 N 
HETATM   31  C12 UNL     1       4.460   7.097  10.337  1.00  0.00     0.228 C 
HETATM   32  O3  UNL     1       5.015   8.176  10.155  1.00  0.00    -0.273 OA
HETATM   33  H19 UNL     1       4.608   5.142  10.976  1.00  0.00     0.162 HD
BRANCH  31  34
HETATM   34  C13 UNL     1       2.950   6.878  10.084  1.00  0.00     0.063 C 
HETATM   35  C14 UNL     1       2.752   6.656   8.565  1.00  0.00     0.028 C 
HETATM   36  C15 UNL     1       2.528   5.597  10.825  1.00  0.00     0.028 C 
BRANCH  34  37
HETATM   37  C16 UNL     1       2.200   8.161  10.560  1.00  0.00     0.164 C 
BRANCH  37  38
HETATM   38  O4  UNL     1       2.663   8.562  11.860  1.00  0.00    -0.390 OA
HETATM   39  H27 UNL     1       2.100   9.310  12.132  1.00  0.00     0.210 HD
ENDBRANCH  37  38
BRANCH  37  40
HETATM   40  C17 UNL     1       0.675   8.108  10.613  1.00  0.00    -0.054 C 
HETATM   41  C18 UNL     1      -0.068   8.488   9.358  1.00  0.00     0.046 C 
HETATM   42  C19 UNL     1       0.075   7.711  11.755  1.00  0.00     0.005 C 
BRANCH  42  43
HETATM   43  C20 UNL     1      -1.348   7.633  12.017  1.00  0.00     0.000 C 
HETATM   44  C21 UNL     1      -1.885   6.640  12.744  1.00  0.00     0.000 C 
BRANCH  44  45
HETATM   45  C22 UNL     1      -3.303   6.541  13.038  1.00  0.00     0.001 C 
HETATM   46  C23 UNL     1      -3.927   5.357  13.160  1.00  0.00     0.009 C 
BRANCH  46  47
HETATM   47  C24 UNL     1      -5.345   5.133  13.479  1.00  0.00    -0.034 C 
HETATM   48  C25 UNL     1      -6.060   4.102  12.623  1.00  0.00     0.050 C 
HETATM   49  C26 UNL     1      -5.941   5.820  14.484  1.00  0.00     0.082 C 
HETATM   50  C27 UNL     1      -5.433   6.845  15.446  1.00  0.00     0.075 C 
BRANCH  49  51
HETATM   51  N2  UNL     1      -7.353   5.572  14.712  1.00  0.00    -0.120 N 
HETATM   52  O5  UNL     1      -7.640   4.750  15.591  1.00  0.00    -0.532 OA
HETATM   53  O6  UNL     1      -8.155   6.221  14.028  1.00  0.00    -0.532 OA
ENDBRANCH  49  51
ENDBRANCH  46  47
ENDBRANCH  44  45
ENDBRANCH  42  43
ENDBRANCH  37  40
ENDBRANCH  34  37
ENDBRANCH  31  34
ENDBRANCH  29  30
ENDBRANCH   2  29
TORSDOF 19
ENDMDL
MODEL 6
REMARK minimizedAffinity -9.1973114
REMARK CNNscore 0.240687072
REMARK CNNaffinity 7.11746025
REMARK  19 active torsions:
REMARK  status: ('A' for Active; 'I' for Inactive)
REMARK    1  A    between atoms: O1_2  and  C2_3 
REMARK    2  A    between atoms: C2_3  and  C3_4 
REMARK    3  A    between atoms: C2_3  and  C28_36 
REMARK    4  A    between atoms: C3_4  and  C4_5 
REMARK    5  A    between atoms: C4_5  and  C6_7 
REMARK    6  A    between atoms: C6_7  and  O2_8 
REMARK    7  A    between atoms: C6_7  and  C7_9 
REMARK    8  A    between atoms: C8_10  and  C9_11 
REMARK    9  A    between atoms: C10_12  and  C11_13 
REMARK   10  A    between atoms: C11_13  and  N1_14 
REMARK       I    between atoms: N1_14  and  C12_15 
REMARK   11  A    between atoms: C12_15  and  C13_17 
REMARK   12  A    between atoms: C13_17  and  C16_20 
REMARK   13  A    between atoms: C16_20  and  O4_21 
REMARK   14  A    between atoms: C16_20  and  C17_22 
REMARK   15  A    between atoms: C19_24  and  C20_25 
REMARK   16  A    between atoms: C21_26  and  C22_27 
REMARK   17  A    between atoms: C23_28  and  C24_29 
REMARK   18  A    between atoms: C26_31  and  N2_33 
REMARK   19  A    between atoms: C28_36  and  O7_37 
ROOT
HETATM    1  C9  UNL     1      -5.995   2.928  11.651  1.00  0.00    -0.003 C 
HETATM    2  C10 UNL     1      -6.298   3.484  12.834  1.00  0.00    -0.007 C 
ENDROOT
BRANCH   1   3
HETATM    3  C8  UNL     1      -4.637   2.827  11.168  1.00  0.00    -0.002 C 
HETATM    4  C7  UNL     1      -3.792   3.871  11.114  1.00  0.00     0.005 C 
BRANCH   4   5
HETATM    5  C6  UNL     1      -2.372   3.834  10.599  1.00  0.00     0.144 C 
BRANCH   5   6
HETATM    6  C4  UNL     1      -1.280   4.188  11.639  1.00  0.00     0.016 C 
HETATM    7  C5  UNL     1      -1.908   4.668  12.964  1.00  0.00     0.013 C 
BRANCH   6   8
HETATM    8  C3  UNL     1      -0.226   5.228  11.190  1.00  0.00     0.042 C 
BRANCH   8   9
HETATM    9  C2  UNL     1       1.091   5.388  11.983  1.00  0.00     0.159 C 
BRANCH   9  10
HETATM   10  O1  UNL     1       0.854   5.306  13.403  1.00  0.00    -0.388 OA
HETATM   11  C1  UNL     1       1.096   6.542  14.073  1.00  0.00     0.202 C 
ENDBRANCH   9  10
BRANCH   9  12
HETATM   12  C28 UNL     1       1.991   6.657  11.751  1.00  0.00     0.133 C 
HETATM   13  C29 UNL     1       1.211   7.998  11.640  1.00  0.00     0.114 C 
HETATM   14  C30 UNL     1       1.970   9.230  12.136  1.00  0.00     0.023 C 
HETATM   15  C31 UNL     1       0.988   8.145  10.149  1.00  0.00     0.227 C 
HETATM   16  O8  UNL     1       0.140   8.847   9.625  1.00  0.00    -0.273 OA
HETATM   17  N3  UNL     1       1.937   7.375   9.500  1.00  0.00    -0.332 N 
HETATM   18  C32 UNL     1       1.920   7.164   8.071  1.00  0.00     0.154 C 
HETATM   19  C33 UNL     1       2.798   6.593  10.442  1.00  0.00     0.183 C 
HETATM   20  C34 UNL     1       3.334   5.218   9.958  1.00  0.00     0.294 C 
HETATM   21  C35 UNL     1       4.319   6.973  10.318  1.00  0.00     0.169 C 
HETATM   22  O9  UNL     1       2.893   4.109   9.749  1.00  0.00    -0.262 OA
HETATM   23  O10 UNL     1       4.596   5.661   9.741  1.00  0.00    -0.311 OA
HETATM   24  C36 UNL     1       5.251   7.208  11.494  1.00  0.00     0.043 C 
BRANCH  12  25
HETATM   25  O7  UNL     1       2.867   6.721  12.891  1.00  0.00    -0.383 OA
HETATM   26  H42 UNL     1       2.297   6.548  13.670  1.00  0.00     0.210 HD
ENDBRANCH  12  25
ENDBRANCH   9  12
ENDBRANCH   8   9
ENDBRANCH   6   8
ENDBRANCH   5   6
BRANCH   5  27
HETATM   27  O2  UNL     1      -2.084   2.532  10.076  1.00  0.00    -0.391 OA
HETATM   28  H12 UNL     1      -2.725   2.374   9.363  1.00  0.00     0.210 HD
ENDBRANCH   5  27
ENDBRANCH   4   5
ENDBRANCH   1   3
BRANCH   2  29
HETATM   29  C11 UNL     1      -7.691   3.618  13.364  1.00  0.00     0.149 C 
BRANCH  29  30
HETATM   30  N1  UNL     1      -7.692   4.689  14.329  1.00  0.00    -0.357 N 
HETATM   31  C12 UNL     1      -7.945   5.999  13.990  1.00  0.00     0.228 C 
HETATM   32  O3  UNL     1      -8.200   6.339  12.838  1.00  0.00    -0.273 OA
HETATM   33  H19 UNL     1      -7.416   4.487  15.288  1.00  0.00     0.162 HD
BRANCH  31  34
HETATM   34  C13 UNL     1      -7.895   7.001  15.167  1.00  0.00     0.063 C 
HETATM   35  C14 UNL     1      -7.179   6.306  16.350  1.00  0.00     0.028 C 
HETATM   36  C15 UNL     1      -7.047   8.207  14.723  1.00  0.00     0.028 C 
BRANCH  34  37
HETATM   37  C16 UNL     1      -9.365   7.363  15.543  1.00  0.00     0.164 C 
BRANCH  37  38
HETATM   38  O4  UNL     1     -10.263   6.320  15.129  1.00  0.00    -0.390 OA
HETATM   39  H27 UNL     1     -11.163   6.646  15.314  1.00  0.00     0.210 HD
ENDBRANCH  37  38
BRANCH  37  40
HETATM   40  C17 UNL     1      -9.922   8.684  15.015  1.00  0.00    -0.054 C 
HETATM   41  C18 UNL     1      -9.299   9.951  15.544  1.00  0.00     0.046 C 
HETATM   42  C19 UNL     1     -10.916   8.655  14.102  1.00  0.00     0.005 C 
BRANCH  42  43
HETATM   43  C20 UNL     1     -11.601   9.788  13.515  1.00  0.00     0.000 C 
HETATM   44  C21 UNL     1     -12.925   9.783  13.291  1.00  0.00     0.000 C 
BRANCH  44  45
HETATM   45  C22 UNL     1     -13.644  10.906  12.719  1.00  0.00     0.001 C 
HETATM   46  C23 UNL     1     -14.986  10.957  12.691  1.00  0.00     0.009 C 
BRANCH  46  47
HETATM   47  C24 UNL     1     -15.820  12.048  12.164  1.00  0.00    -0.034 C 
HETATM   48  C25 UNL     1     -15.208  13.436  12.224  1.00  0.00     0.050 C 
HETATM   49  C26 UNL     1     -17.052  11.790  11.660  1.00  0.00     0.082 C 
HETATM   50  C27 UNL     1     -17.827  10.524  11.489  1.00  0.00     0.075 C 
BRANCH  49  51
HETATM   51  N2  UNL     1     -17.830  12.924  11.196  1.00  0.00    -0.120 N 
HETATM   52  O5  UNL     1     -18.486  13.536  12.048  1.00  0.00    -0.532 OA
HETATM   53  O6  UNL     1     -17.754  13.202   9.992  1.00  0.00    -0.532 OA
ENDBRANCH  49  51
ENDBRANCH  46  47
ENDBRANCH  44  45
ENDBRANCH  42  43
ENDBRANCH  37  40
ENDBRANCH  34  37
ENDBRANCH  31  34
ENDBRANCH  29  30
ENDBRANCH   2  29
TORSDOF 19
ENDMDL
MODEL 7
REMARK minimizedAffinity -7.68507338
REMARK CNNscore 0.222448736
REMARK CNNaffinity 6.91218948
REMARK  19 active torsions:
REMARK  status: ('A' for Active; 'I' for Inactive)
REMARK    1  A    between atoms: O1_2  and  C2_3 
REMARK    2  A    between atoms: C2_3  and  C3_4 
REMARK    3  A    between atoms: C2_3  and  C28_36 
REMARK    4  A    between atoms: C3_4  and  C4_5 
REMARK    5  A    between atoms: C4_5  and  C6_7 
REMARK    6  A    between atoms: C6_7  and  O2_8 
REMARK    7  A    between atoms: C6_7  and  C7_9 
REMARK    8  A    between atoms: C8_10  and  C9_11 
REMARK    9  A    between atoms: C10_12  and  C11_13 
REMARK   10  A    between atoms: C11_13  and  N1_14 
REMARK       I    between atoms: N1_14  and  C12_15 
REMARK   11  A    between atoms: C12_15  and  C13_17 
REMARK   12  A    between atoms: C13_17  and  C16_20 
REMARK   13  A    between atoms: C16_20  and  O4_21 
REMARK   14  A    between atoms: C16_20  and  C17_22 
REMARK   15  A    between atoms: C19_24  and  C20_25 
REMARK   16  A    between atoms: C21_26  and  C22_27 
REMARK   17  A    between atoms: C23_28  and  C24_29 
REMARK   18  A    between atoms: C26_31  and  N2_33 
REMARK   19  A    between atoms: C28_36  and  O7_37 
ROOT
HETATM    1  C9  UNL     1       0.625   8.169  16.113  1.00  0.00    -0.003 C 
HETATM    2  C10 UNL     1      -0.585   7.800  15.670  1.00  0.00    -0.007 C 
ENDROOT
BRANCH   1   3
HETATM    3  C8  UNL     1       1.842   7.838  15.407  1.00  0.00    -0.002 C 
HETATM    4  C7  UNL     1       3.020   8.444  15.641  1.00  0.00     0.005 C 
BRANCH   4   5
HETATM    5  C6  UNL     1       4.318   8.160  14.922  1.00  0.00     0.144 C 
BRANCH   5   6
HETATM    6  C4  UNL     1       4.664   9.135  13.769  1.00  0.00     0.016 C 
HETATM    7  C5  UNL     1       4.265  10.582  14.124  1.00  0.00     0.013 C 
BRANCH   6   8
HETATM    8  C3  UNL     1       4.066   8.787  12.383  1.00  0.00     0.042 C 
BRANCH   8   9
HETATM    9  C2  UNL     1       3.710   7.322  12.040  1.00  0.00     0.159 C 
BRANCH   9  10
HETATM   10  O1  UNL     1       4.673   6.754  11.129  1.00  0.00    -0.388 OA
HETATM   11  C1  UNL     1       5.929   6.491  11.754  1.00  0.00     0.202 C 
ENDBRANCH   9  10
BRANCH   9  12
HETATM   12  C28 UNL     1       2.288   6.982  11.460  1.00  0.00     0.133 C 
HETATM   13  C29 UNL     1       1.809   5.525  11.719  1.00  0.00     0.114 C 
HETATM   14  C30 UNL     1       0.295   5.357  11.855  1.00  0.00     0.023 C 
HETATM   15  C31 UNL     1       2.259   4.788  10.475  1.00  0.00     0.227 C 
HETATM   16  O8  UNL     1       2.411   3.582  10.382  1.00  0.00    -0.273 OA
HETATM   17  N3  UNL     1       2.429   5.721   9.466  1.00  0.00    -0.332 N 
HETATM   18  C32 UNL     1       2.999   5.381   8.183  1.00  0.00     0.154 C 
HETATM   19  C33 UNL     1       2.211   7.127   9.929  1.00  0.00     0.183 C 
HETATM   20  C34 UNL     1       3.033   8.249   9.239  1.00  0.00     0.294 C 
HETATM   21  C35 UNL     1       1.032   7.832   9.164  1.00  0.00     0.169 C 
HETATM   22  O9  UNL     1       4.180   8.638   9.225  1.00  0.00    -0.262 OA
HETATM   23  O10 UNL     1       1.994   8.712   8.504  1.00  0.00    -0.311 OA
HETATM   24  C36 UNL     1      -0.045   8.676   9.821  1.00  0.00     0.043 C 
BRANCH  12  25
HETATM   25  O7  UNL     1       1.381   7.892  12.107  1.00  0.00    -0.383 OA
HETATM   26  H42 UNL     1       1.638   7.890  13.054  1.00  0.00     0.210 HD
ENDBRANCH  12  25
ENDBRANCH   9  12
ENDBRANCH   8   9
ENDBRANCH   6   8
ENDBRANCH   5   6
BRANCH   5  27
HETATM   27  O2  UNL     1       5.401   8.176  15.859  1.00  0.00    -0.391 OA
HETATM   28  H12 UNL     1       5.203   7.492  16.520  1.00  0.00     0.210 HD
ENDBRANCH   5  27
ENDBRANCH   4   5
ENDBRANCH   1   3
BRANCH   2  29
HETATM   29  C11 UNL     1      -1.866   8.112  16.377  1.00  0.00     0.149 C 
BRANCH  29  30
HETATM   30  N1  UNL     1      -2.931   7.442  15.672  1.00  0.00    -0.357 N 
HETATM   31  C12 UNL     1      -3.945   8.119  15.034  1.00  0.00     0.228 C 
HETATM   32  O3  UNL     1      -4.002   9.345  15.013  1.00  0.00    -0.273 OA
HETATM   33  H19 UNL     1      -2.984   6.425  15.713  1.00  0.00     0.162 HD
BRANCH  31  34
HETATM   34  C13 UNL     1      -4.996   7.221  14.340  1.00  0.00     0.063 C 
HETATM   35  C14 UNL     1      -5.546   7.994  13.118  1.00  0.00     0.028 C 
HETATM   36  C15 UNL     1      -4.275   5.957  13.835  1.00  0.00     0.028 C 
BRANCH  34  37
HETATM   37  C16 UNL     1      -6.129   6.934  15.373  1.00  0.00     0.164 C 
BRANCH  37  38
HETATM   38  O4  UNL     1      -5.712   5.930  16.313  1.00  0.00    -0.390 OA
HETATM   39  H27 UNL     1      -6.488   5.739  16.871  1.00  0.00     0.210 HD
ENDBRANCH  37  38
BRANCH  37  40
HETATM   40  C17 UNL     1      -7.491   6.513  14.827  1.00  0.00    -0.054 C 
HETATM   41  C18 UNL     1      -7.536   5.262  13.988  1.00  0.00     0.046 C 
HETATM   42  C19 UNL     1      -8.575   7.258  15.130  1.00  0.00     0.005 C 
BRANCH  42  43
HETATM   43  C20 UNL     1      -9.936   7.051  14.680  1.00  0.00     0.000 C 
HETATM   44  C21 UNL     1     -10.412   7.622  13.561  1.00  0.00     0.000 C 
BRANCH  44  45
HETATM   45  C22 UNL     1     -11.764   7.423  13.075  1.00  0.00     0.001 C 
HETATM   46  C23 UNL     1     -12.841   7.831  13.767  1.00  0.00     0.009 C 
BRANCH  46  47
HETATM   47  C24 UNL     1     -14.251   7.708  13.366  1.00  0.00    -0.034 C 
HETATM   48  C25 UNL     1     -14.813   8.868  12.564  1.00  0.00     0.050 C 
HETATM   49  C26 UNL     1     -14.969   6.610  13.706  1.00  0.00     0.082 C 
HETATM   50  C27 UNL     1     -14.617   5.367  14.458  1.00  0.00     0.075 C 
BRANCH  49  51
HETATM   51  N2  UNL     1     -16.364   6.580  13.308  1.00  0.00    -0.120 N 
HETATM   52  O5  UNL     1     -16.611   6.155  12.172  1.00  0.00    -0.532 OA
HETATM   53  O6  UNL     1     -17.195   6.955  14.145  1.00  0.00    -0.532 OA
ENDBRANCH  49  51
ENDBRANCH  46  47
ENDBRANCH  44  45
ENDBRANCH  42  43
ENDBRANCH  37  40
ENDBRANCH  34  37
ENDBRANCH  31  34
ENDBRANCH  29  30
ENDBRANCH   2  29
TORSDOF 19
ENDMDL
MODEL 8
REMARK minimizedAffinity -8.10967255
REMARK CNNscore 0.222179919
REMARK CNNaffinity 6.14679956
REMARK  19 active torsions:
REMARK  status: ('A' for Active; 'I' for Inactive)
REMARK    1  A    between atoms: O1_2  and  C2_3 
REMARK    2  A    between atoms: C2_3  and  C3_4 
REMARK    3  A    between atoms: C2_3  and  C28_36 
REMARK    4  A    between atoms: C3_4  and  C4_5 
REMARK    5  A    between atoms: C4_5  and  C6_7 
REMARK    6  A    between atoms: C6_7  and  O2_8 
REMARK    7  A    between atoms: C6_7  and  C7_9 
REMARK    8  A    between atoms: C8_10  and  C9_11 
REMARK    9  A    between atoms: C10_12  and  C11_13 
REMARK   10  A    between atoms: C11_13  and  N1_14 
REMARK       I    between atoms: N1_14  and  C12_15 
REMARK   11  A    between atoms: C12_15  and  C13_17 
REMARK   12  A    between atoms: C13_17  and  C16_20 
REMARK   13  A    between atoms: C16_20  and  O4_21 
REMARK   14  A    between atoms: C16_20  and  C17_22 
REMARK   15  A    between atoms: C19_24  and  C20_25 
REMARK   16  A    between atoms: C21_26  and  C22_27 
REMARK   17  A    between atoms: C23_28  and  C24_29 
REMARK   18  A    between atoms: C26_31  and  N2_33 
REMARK   19  A    between atoms: C28_36  and  O7_37 
ROOT
HETATM    1  C9  UNL     1       7.046   7.356  13.954  1.00  0.00    -0.003 C 
HETATM    2  C10 UNL     1       6.599   7.449  12.693  1.00  0.00    -0.007 C 
ENDROOT
BRANCH   1   3
HETATM    3  C8  UNL     1       7.236   8.515  14.796  1.00  0.00    -0.002 C 
HETATM    4  C7  UNL     1       8.077   8.537  15.846  1.00  0.00     0.005 C 
BRANCH   4   5
HETATM    5  C6  UNL     1       8.301   9.707  16.775  1.00  0.00     0.144 C 
BRANCH   5   6
HETATM    6  C4  UNL     1       8.429  11.087  16.083  1.00  0.00     0.016 C 
HETATM    7  C5  UNL     1       9.738  11.184  15.272  1.00  0.00     0.013 C 
BRANCH   6   8
HETATM    8  C3  UNL     1       8.332  12.323  17.010  1.00  0.00     0.042 C 
BRANCH   8   9
HETATM    9  C2  UNL     1       9.003  12.300  18.403  1.00  0.00     0.159 C 
BRANCH   9  10
HETATM   10  O1  UNL     1       9.835  11.133  18.559  1.00  0.00    -0.388 OA
HETATM   11  C1  UNL     1      11.227  11.441  18.503  1.00  0.00     0.202 C 
ENDBRANCH   9  10
BRANCH   9  12
HETATM   12  C28 UNL     1       8.113  12.395  19.696  1.00  0.00     0.133 C 
HETATM   13  C29 UNL     1       6.583  12.485  19.432  1.00  0.00     0.114 C 
HETATM   14  C30 UNL     1       5.701  11.866  20.517  1.00  0.00     0.023 C 
HETATM   15  C31 UNL     1       6.326  13.977  19.402  1.00  0.00     0.227 C 
HETATM   16  O8  UNL     1       5.361  14.520  18.892  1.00  0.00    -0.273 OA
HETATM   17  N3  UNL     1       7.356  14.599  20.086  1.00  0.00    -0.332 N 
HETATM   18  C32 UNL     1       7.507  16.035  20.123  1.00  0.00     0.154 C 
HETATM   19  C33 UNL     1       8.413  13.644  20.545  1.00  0.00     0.183 C 
HETATM   20  C34 UNL     1       9.873  14.166  20.622  1.00  0.00     0.294 C 
HETATM   21  C35 UNL     1       8.574  13.636  22.109  1.00  0.00     0.169 C 
HETATM   22  O9  UNL     1      10.757  14.469  19.850  1.00  0.00    -0.262 OA
HETATM   23  O10 UNL     1       9.884  14.265  21.973  1.00  0.00    -0.311 OA
HETATM   24  C36 UNL     1       8.707  12.385  22.959  1.00  0.00     0.043 C 
BRANCH  12  25
HETATM   25  O7  UNL     1       8.387  11.193  20.440  1.00  0.00    -0.383 OA
HETATM   26  H42 UNL     1       8.376  10.468  19.779  1.00  0.00     0.210 HD
ENDBRANCH  12  25
ENDBRANCH   9  12
ENDBRANCH   8   9
ENDBRANCH   6   8
ENDBRANCH   5   6
BRANCH   5  27
HETATM   27  O2  UNL     1       7.229   9.781  17.722  1.00  0.00    -0.391 OA
HETATM   28  H12 UNL     1       7.231   8.938  18.205  1.00  0.00     0.210 HD
ENDBRANCH   5  27
ENDBRANCH   4   5
ENDBRANCH   1   3
BRANCH   2  29
HETATM   29  C11 UNL     1       6.401   6.275  11.787  1.00  0.00     0.149 C 
BRANCH  29  30
HETATM   30  N1  UNL     1       4.987   6.155  11.528  1.00  0.00    -0.357 N 
HETATM   31  C12 UNL     1       4.331   6.927  10.597  1.00  0.00     0.228 C 
HETATM   32  O3  UNL     1       4.913   7.765   9.915  1.00  0.00    -0.273 OA
HETATM   33  H19 UNL     1       4.432   5.530  12.111  1.00  0.00     0.162 HD
BRANCH  31  34
HETATM   34  C13 UNL     1       2.815   6.651  10.470  1.00  0.00     0.063 C 
HETATM   35  C14 UNL     1       2.332   7.264   9.134  1.00  0.00     0.028 C 
HETATM   36  C15 UNL     1       2.617   5.125  10.408  1.00  0.00     0.028 C 
BRANCH  34  37
HETATM   37  C16 UNL     1       2.108   7.333  11.682  1.00  0.00     0.164 C 
BRANCH  37  38
HETATM   38  O4  UNL     1       2.611   6.805  12.921  1.00  0.00    -0.390 OA
HETATM   39  H27 UNL     1       2.072   7.207  13.628  1.00  0.00     0.210 HD
ENDBRANCH  37  38
BRANCH  37  40
HETATM   40  C17 UNL     1       0.583   7.263  11.740  1.00  0.00    -0.054 C 
HETATM   41  C18 UNL     1      -0.179   8.422  11.150  1.00  0.00     0.046 C 
HETATM   42  C19 UNL     1      -0.001   6.177  12.289  1.00  0.00     0.005 C 
BRANCH  42  43
HETATM   43  C20 UNL     1      -1.418   5.941  12.473  1.00  0.00     0.000 C 
HETATM   44  C21 UNL     1      -2.173   6.718  13.267  1.00  0.00     0.000 C 
BRANCH  44  45
HETATM   45  C22 UNL     1      -3.597   6.519  13.461  1.00  0.00     0.001 C 
HETATM   46  C23 UNL     1      -4.217   5.383  13.098  1.00  0.00     0.009 C 
BRANCH  46  47
HETATM   47  C24 UNL     1      -5.641   5.059  13.266  1.00  0.00    -0.034 C 
HETATM   48  C25 UNL     1      -6.382   5.863  14.319  1.00  0.00     0.050 C 
HETATM   49  C26 UNL     1      -6.222   4.098  12.506  1.00  0.00     0.082 C 
HETATM   50  C27 UNL     1      -5.697   3.215  11.421  1.00  0.00     0.075 C 
BRANCH  49  51
HETATM   51  N2  UNL     1      -7.622   3.808  12.758  1.00  0.00    -0.120 N 
HETATM   52  O5  UNL     1      -8.450   4.577  12.256  1.00  0.00    -0.532 OA
HETATM   53  O6  UNL     1      -7.874   2.801  13.432  1.00  0.00    -0.532 OA
ENDBRANCH  49  51
ENDBRANCH  46  47
ENDBRANCH  44  45
ENDBRANCH  42  43
ENDBRANCH  37  40
ENDBRANCH  34  37
ENDBRANCH  31  34
ENDBRANCH  29  30
ENDBRANCH   2  29
TORSDOF 19
ENDMDL
MODEL 9
REMARK minimizedAffinity -8.63816166
REMARK CNNscore 0.21517472
REMARK CNNaffinity 5.74211454
REMARK  19 active torsions:
REMARK  status: ('A' for Active; 'I' for Inactive)
REMARK    1  A    between atoms: O1_2  and  C2_3 
REMARK    2  A    between atoms: C2_3  and  C3_4 
REMARK    3  A    between atoms: C2_3  and  C28_36 
REMARK    4  A    between atoms: C3_4  and  C4_5 
REMARK    5  A    between atoms: C4_5  and  C6_7 
REMARK    6  A    between atoms: C6_7  and  O2_8 
REMARK    7  A    between atoms: C6_7  and  C7_9 
REMARK    8  A    between atoms: C8_10  and  C9_11 
REMARK    9  A    between atoms: C10_12  and  C11_13 
REMARK   10  A    between atoms: C11_13  and  N1_14 
REMARK       I    between atoms: N1_14  and  C12_15 
REMARK   11  A    between atoms: C12_15  and  C13_17 
REMARK   12  A    between atoms: C13_17  and  C16_20 
REMARK   13  A    between atoms: C16_20  and  O4_21 
REMARK   14  A    between atoms: C16_20  and  C17_22 
REMARK   15  A    between atoms: C19_24  and  C20_25 
REMARK   16  A    between atoms: C21_26  and  C22_27 
REMARK   17  A    between atoms: C23_28  and  C24_29 
REMARK   18  A    between atoms: C26_31  and  N2_33 
REMARK   19  A    between atoms: C28_36  and  O7_37 
ROOT
HETATM    1  C9  UNL     1       8.135   7.767  14.598  1.00  0.00    -0.003 C 
HETATM    2  C10 UNL     1       6.959   7.313  14.142  1.00  0.00    -0.007 C 
ENDROOT
BRANCH   1   3
HETATM    3  C8  UNL     1       8.305   8.259  15.947  1.00  0.00    -0.002 C 
HETATM    4  C7  UNL     1       8.186   9.557  16.281  1.00  0.00     0.005 C 
BRANCH   4   5
HETATM    5  C6  UNL     1       8.374  10.134  17.664  1.00  0.00     0.144 C 
BRANCH   5   6
HETATM    6  C4  UNL     1       8.956  11.569  17.709  1.00  0.00     0.016 C 
HETATM    7  C5  UNL     1      10.320  11.640  16.993  1.00  0.00     0.013 C 
BRANCH   6   8
HETATM    8  C3  UNL     1       9.106  12.197  19.116  1.00  0.00     0.042 C 
BRANCH   8   9
HETATM    9  C2  UNL     1       8.500  13.589  19.411  1.00  0.00     0.159 C 
BRANCH   9  10
HETATM   10  O1  UNL     1       9.515  14.513  19.854  1.00  0.00    -0.388 OA
HETATM   11  C1  UNL     1      10.191  15.145  18.768  1.00  0.00     0.202 C 
ENDBRANCH   9  10
BRANCH   9  12
HETATM   12  C28 UNL     1       7.303  13.718  20.423  1.00  0.00     0.133 C 
HETATM   13  C29 UNL     1       6.380  14.947  20.188  1.00  0.00     0.114 C 
HETATM   14  C30 UNL     1       4.919  14.745  20.590  1.00  0.00     0.023 C 
HETATM   15  C31 UNL     1       6.979  16.006  21.090  1.00  0.00     0.227 C 
HETATM   16  O8  UNL     1       6.809  17.208  20.981  1.00  0.00    -0.273 OA
HETATM   17  N3  UNL     1       7.715  15.362  22.069  1.00  0.00    -0.332 N 
HETATM   18  C32 UNL     1       8.546  16.076  23.011  1.00  0.00     0.154 C 
HETATM   19  C33 UNL     1       7.762  13.878  21.883  1.00  0.00     0.183 C 
HETATM   20  C34 UNL     1       9.040  13.132  22.354  1.00  0.00     0.294 C 
HETATM   21  C35 UNL     1       7.136  13.103  23.100  1.00  0.00     0.169 C 
HETATM   22  O9  UNL     1      10.192  13.018  21.997  1.00  0.00    -0.262 OA
HETATM   23  O10 UNL     1       8.463  12.613  23.464  1.00  0.00    -0.311 OA
HETATM   24  C36 UNL     1       6.186  11.924  22.979  1.00  0.00     0.043 C 
BRANCH  12  25
HETATM   25  O7  UNL     1       6.529  12.516  20.258  1.00  0.00    -0.383 OA
HETATM   26  H42 UNL     1       6.459  12.380  19.289  1.00  0.00     0.210 HD
ENDBRANCH  12  25
ENDBRANCH   9  12
ENDBRANCH   8   9
ENDBRANCH   6   8
ENDBRANCH   5   6
BRANCH   5  27
HETATM   27  O2  UNL     1       7.121  10.139  18.357  1.00  0.00    -0.391 OA
HETATM   28  H12 UNL     1       6.824   9.215  18.396  1.00  0.00     0.210 HD
ENDBRANCH   5  27
ENDBRANCH   4   5
ENDBRANCH   1   3
BRANCH   2  29
HETATM   29  C11 UNL     1       6.740   6.807  12.751  1.00  0.00     0.149 C 
BRANCH  29  30
HETATM   30  N1  UNL     1       5.370   7.081  12.394  1.00  0.00    -0.357 N 
HETATM   31  C12 UNL     1       4.774   6.564  11.267  1.00  0.00     0.228 C 
HETATM   32  O3  UNL     1       5.372   5.822  10.493  1.00  0.00    -0.273 OA
HETATM   33  H19 UNL     1       4.841   7.749  12.953  1.00  0.00     0.162 HD
BRANCH  31  34
HETATM   34  C13 UNL     1       3.300   6.980  11.057  1.00  0.00     0.063 C 
HETATM   35  C14 UNL     1       2.769   7.539  12.399  1.00  0.00     0.028 C 
HETATM   36  C15 UNL     1       3.274   8.111  10.012  1.00  0.00     0.028 C 
BRANCH  34  37
HETATM   37  C16 UNL     1       2.506   5.706  10.631  1.00  0.00     0.164 C 
BRANCH  37  38
HETATM   38  O4  UNL     1       2.784   5.372   9.262  1.00  0.00    -0.390 OA
HETATM   39  H27 UNL     1       2.197   4.627   9.038  1.00  0.00     0.210 HD
ENDBRANCH  37  38
BRANCH  37  40
HETATM   40  C17 UNL     1       0.988   5.735  10.797  1.00  0.00    -0.054 C 
HETATM   41  C18 UNL     1       0.249   6.882  10.157  1.00  0.00     0.046 C 
HETATM   42  C19 UNL     1       0.387   4.738  11.482  1.00  0.00     0.005 C 
BRANCH  42  43
HETATM   43  C20 UNL     1      -1.024   4.605  11.781  1.00  0.00     0.000 C 
HETATM   44  C21 UNL     1      -1.833   3.808  11.065  1.00  0.00     0.000 C 
BRANCH  44  45
HETATM   45  C22 UNL     1      -3.246   3.641  11.347  1.00  0.00     0.001 C 
HETATM   46  C23 UNL     1      -3.857   4.292  12.352  1.00  0.00     0.009 C 
BRANCH  46  47
HETATM   47  C24 UNL     1      -5.280   4.222  12.717  1.00  0.00    -0.034 C 
HETATM   48  C25 UNL     1      -5.764   5.277  13.696  1.00  0.00     0.050 C 
HETATM   49  C26 UNL     1      -6.079   3.263  12.188  1.00  0.00     0.082 C 
HETATM   50  C27 UNL     1      -5.822   2.161  11.212  1.00  0.00     0.075 C 
BRANCH  49  51
HETATM   51  N2  UNL     1      -7.462   3.235  12.628  1.00  0.00    -0.120 N 
HETATM   52  O5  UNL     1      -8.171   4.195  12.300  1.00  0.00    -0.532 OA
HETATM   53  O6  UNL     1      -7.827   2.242  13.270  1.00  0.00    -0.532 OA
ENDBRANCH  49  51
ENDBRANCH  46  47
ENDBRANCH  44  45
ENDBRANCH  42  43
ENDBRANCH  37  40
ENDBRANCH  34  37
ENDBRANCH  31  34
ENDBRANCH  29  30
ENDBRANCH   2  29
TORSDOF 19
ENDMDL
