MODEL 1
REMARK minimizedAffinity -6.53989983
REMARK CNNscore 0.608167946
REMARK CNNaffinity 6.83927917
REMARK  5 active torsions:
REMARK  status: ('A' for Active; 'I' for Inactive)
REMARK    1  A    between atoms: C2_2  and  C3_3 
REMARK    2  A    between atoms: C8_8  and  C9_9 
REMARK    3  A    between atoms: C9_9  and  C11_11 
REMARK    4  A    between atoms: C11_11  and  C12_12 
REMARK    5  A    between atoms: C12_12  and  C13_13 
ROOT
HETATM    1  C3  UNL     1     -14.074  -9.040  29.955  1.00  0.00    -0.032 C 
HETATM    2  C4  UNL     1     -12.930 -10.069  29.602  1.00  0.00     0.011 C 
HETATM    3  C5  UNL     1     -12.586 -10.235  28.106  1.00  0.00     0.011 C 
HETATM    4  C6  UNL     1     -13.847 -10.547  27.288  1.00  0.00    -0.032 C 
HETATM    5  C7  UNL     1     -14.428 -11.897  27.816  1.00  0.00     0.016 C 
HETATM    6  C8  UNL     1     -13.699 -10.621  25.741  1.00  0.00    -0.002 C 
HETATM    7  C17 UNL     1     -15.160 -10.414  25.251  1.00  0.00     0.006 C 
HETATM    8  C18 UNL     1     -15.940  -9.773  26.435  1.00  0.00     0.011 C 
HETATM    9  C19 UNL     1     -14.839  -9.319  27.424  1.00  0.00    -0.032 C 
HETATM   10  C20 UNL     1     -14.312  -7.973  26.825  1.00  0.00     0.016 C 
HETATM   11  C21 UNL     1     -15.265  -9.160  28.924  1.00  0.00     0.003 C 
HETATM   12  C22 UNL     1     -16.360  -8.127  29.192  1.00  0.00     0.006 C 
HETATM   13  C23 UNL     1     -15.948  -6.699  29.507  1.00  0.00     0.006 C 
HETATM   14  C24 UNL     1     -14.495  -6.383  29.924  1.00  0.00     0.005 C 
HETATM   15  C25 UNL     1     -13.480  -7.574  29.956  1.00  0.00    -0.000 C 
HETATM   16  C26 UNL     1     -12.328  -7.318  30.957  1.00  0.00     0.013 C 
HETATM   17  C27 UNL     1     -11.862  -5.873  30.902  1.00  0.00     0.079 C 
HETATM   18  C28 UNL     1     -12.950  -4.955  31.391  1.00  0.00     0.135 C 
HETATM   19  O1  UNL     1     -12.654  -3.918  31.988  1.00  0.00    -0.297 OA
HETATM   20  C29 UNL     1     -14.410  -5.349  31.114  1.00  0.00     0.017 C 
HETATM   21  C30 UNL     1     -15.157  -4.046  30.736  1.00  0.00     0.023 C 
HETATM   22  C31 UNL     1     -14.993  -5.872  32.437  1.00  0.00     0.023 C 
ENDROOT
BRANCH   6  23
HETATM   23  C9  UNL     1     -12.837 -11.709  25.042  1.00  0.00    -0.014 C 
HETATM   24  C10 UNL     1     -13.756 -12.830  24.519  1.00  0.00     0.010 C 
BRANCH  23  25
HETATM   25  C11 UNL     1     -11.568 -12.303  25.698  1.00  0.00     0.008 C 
BRANCH  25  26
HETATM   26  C12 UNL     1     -10.471 -12.974  24.865  1.00  0.00     0.028 C 
BRANCH  26  27
HETATM   27  C13 UNL     1      -9.346 -12.079  24.433  1.00  0.00    -0.025 C 
HETATM   28  C14 UNL     1      -8.111 -12.449  24.045  1.00  0.00    -0.091 C 
HETATM   29  C15 UNL     1      -7.609 -13.866  24.008  1.00  0.00     0.042 C 
HETATM   30  C16 UNL     1      -7.099 -11.420  23.616  1.00  0.00     0.042 C 
ENDBRANCH  26  27
ENDBRANCH  25  26
ENDBRANCH  23  25
ENDBRANCH   6  23
BRANCH   1  31
HETATM   31  C2  UNL     1     -14.576  -9.359  31.412  1.00  0.00     0.006 C 
HETATM   32  C1  UNL     1     -13.903 -10.504  32.169  1.00  0.00     0.006 C 
ENDBRANCH   1  31
TORSDOF 5
ENDMDL
MODEL 2
REMARK minimizedAffinity -7.52897596
REMARK CNNscore 0.547895789
REMARK CNNaffinity 6.5083499
REMARK  5 active torsions:
REMARK  status: ('A' for Active; 'I' for Inactive)
REMARK    1  A    between atoms: C2_2  and  C3_3 
REMARK    2  A    between atoms: C8_8  and  C9_9 
REMARK    3  A    between atoms: C9_9  and  C11_11 
REMARK    4  A    between atoms: C11_11  and  C12_12 
REMARK    5  A    between atoms: C12_12  and  C13_13 
ROOT
HETATM    1  C3  UNL     1      -1.821   9.870  15.284  1.00  0.00    -0.032 C 
HETATM    2  C4  UNL     1      -0.361   9.532  15.781  1.00  0.00     0.011 C 
HETATM    3  C5  UNL     1      -0.042   9.850  17.258  1.00  0.00     0.011 C 
HETATM    4  C6  UNL     1      -0.387  11.309  17.589  1.00  0.00    -0.032 C 
HETATM    5  C7  UNL     1       0.501  12.220  16.682  1.00  0.00     0.016 C 
HETATM    6  C8  UNL     1      -0.244  11.763  19.069  1.00  0.00    -0.002 C 
HETATM    7  C17 UNL     1      -1.140  13.031  19.124  1.00  0.00     0.006 C 
HETATM    8  C18 UNL     1      -2.087  12.961  17.890  1.00  0.00     0.011 C 
HETATM    9  C19 UNL     1      -1.945  11.508  17.376  1.00  0.00    -0.032 C 
HETATM   10  C20 UNL     1      -2.855  10.668  18.332  1.00  0.00     0.016 C 
HETATM   11  C21 UNL     1      -2.299  11.258  15.869  1.00  0.00     0.003 C 
HETATM   12  C22 UNL     1      -3.736  11.584  15.468  1.00  0.00     0.006 C 
HETATM   13  C23 UNL     1      -4.779  10.481  15.547  1.00  0.00     0.006 C 
HETATM   14  C24 UNL     1      -4.342   9.004  15.650  1.00  0.00     0.005 C 
HETATM   15  C25 UNL     1      -2.806   8.711  15.720  1.00  0.00    -0.000 C 
HETATM   16  C26 UNL     1      -2.466   7.303  15.174  1.00  0.00     0.013 C 
HETATM   17  C27 UNL     1      -3.496   6.279  15.620  1.00  0.00     0.079 C 
HETATM   18  C28 UNL     1      -4.832   6.575  14.993  1.00  0.00     0.135 C 
HETATM   19  O1  UNL     1      -5.592   5.648  14.705  1.00  0.00    -0.297 OA
HETATM   20  C29 UNL     1      -5.205   8.045  14.742  1.00  0.00     0.017 C 
HETATM   21  C30 UNL     1      -6.706   8.188  15.098  1.00  0.00     0.023 C 
HETATM   22  C31 UNL     1      -5.041   8.299  13.234  1.00  0.00     0.023 C 
ENDROOT
BRANCH   6  23
HETATM   23  C9  UNL     1       1.131  11.802  19.795  1.00  0.00    -0.014 C 
HETATM   24  C10 UNL     1       1.224  10.617  20.776  1.00  0.00     0.010 C 
BRANCH  23  25
HETATM   25  C11 UNL     1       1.685  13.093  20.442  1.00  0.00     0.008 C 
BRANCH  25  26
HETATM   26  C12 UNL     1       2.321  13.085  21.835  1.00  0.00     0.028 C 
BRANCH  26  27
HETATM   27  C13 UNL     1       3.000  11.806  22.230  1.00  0.00    -0.025 C 
HETATM   28  C14 UNL     1       4.250  11.658  22.709  1.00  0.00    -0.091 C 
HETATM   29  C15 UNL     1       5.233  12.778  22.905  1.00  0.00     0.042 C 
HETATM   30  C16 UNL     1       4.774  10.296  23.083  1.00  0.00     0.042 C 
ENDBRANCH  26  27
ENDBRANCH  25  26
ENDBRANCH  23  25
ENDBRANCH   6  23
BRANCH   1  31
HETATM   31  C2  UNL     1      -1.795   9.918  13.711  1.00  0.00     0.006 C 
HETATM   32  C1  UNL     1      -0.620   9.256  12.992  1.00  0.00     0.006 C 
ENDBRANCH   1  31
TORSDOF 5
ENDMDL
MODEL 3
REMARK minimizedAffinity -6.70857096
REMARK CNNscore 0.474298984
REMARK CNNaffinity 6.50927114
REMARK  5 active torsions:
REMARK  status: ('A' for Active; 'I' for Inactive)
REMARK    1  A    between atoms: C2_2  and  C3_3 
REMARK    2  A    between atoms: C8_8  and  C9_9 
REMARK    3  A    between atoms: C9_9  and  C11_11 
REMARK    4  A    between atoms: C11_11  and  C12_12 
REMARK    5  A    between atoms: C12_12  and  C13_13 
ROOT
HETATM    1  C3  UNL     1      -1.479  11.620  16.535  1.00  0.00    -0.032 C 
HETATM    2  C4  UNL     1      -0.870  11.637  15.078  1.00  0.00     0.011 C 
HETATM    3  C5  UNL     1      -1.494  10.662  14.056  1.00  0.00     0.011 C 
HETATM    4  C6  UNL     1      -1.506   9.229  14.606  1.00  0.00    -0.032 C 
HETATM    5  C7  UNL     1      -0.023   8.807  14.853  1.00  0.00     0.016 C 
HETATM    6  C8  UNL     1      -2.216   8.139  13.754  1.00  0.00    -0.002 C 
HETATM    7  C17 UNL     1      -2.498   7.022  14.798  1.00  0.00     0.006 C 
HETATM    8  C18 UNL     1      -2.397   7.689  16.201  1.00  0.00     0.011 C 
HETATM    9  C19 UNL     1      -2.409   9.209  15.909  1.00  0.00    -0.032 C 
HETATM   10  C20 UNL     1      -3.918   9.546  15.673  1.00  0.00     0.016 C 
HETATM   11  C21 UNL     1      -1.769  10.138  16.998  1.00  0.00     0.003 C 
HETATM   12  C22 UNL     1      -2.428  10.087  18.376  1.00  0.00     0.006 C 
HETATM   13  C23 UNL     1      -3.549  11.067  18.681  1.00  0.00     0.006 C 
HETATM   14  C24 UNL     1      -3.755  12.313  17.792  1.00  0.00     0.005 C 
HETATM   15  C25 UNL     1      -2.804  12.484  16.560  1.00  0.00    -0.000 C 
HETATM   16  C26 UNL     1      -2.643  13.971  16.163  1.00  0.00     0.013 C 
HETATM   17  C27 UNL     1      -3.965  14.712  16.260  1.00  0.00     0.079 C 
HETATM   18  C28 UNL     1      -4.417  14.788  17.694  1.00  0.00     0.135 C 
HETATM   19  O1  UNL     1      -5.050  15.771  18.085  1.00  0.00    -0.297 OA
HETATM   20  C29 UNL     1      -4.073  13.615  18.626  1.00  0.00     0.017 C 
HETATM   21  C30 UNL     1      -5.317  13.379  19.519  1.00  0.00     0.023 C 
HETATM   22  C31 UNL     1      -2.915  14.078  19.524  1.00  0.00     0.023 C 
ENDROOT
BRANCH   6  23
HETATM   23  C9  UNL     1      -1.699   7.718  12.350  1.00  0.00    -0.014 C 
HETATM   24  C10 UNL     1      -1.303   6.229  12.377  1.00  0.00     0.010 C 
BRANCH  23  25
HETATM   25  C11 UNL     1      -0.650   8.549  11.574  1.00  0.00     0.008 C 
BRANCH  25  26
HETATM   26  C12 UNL     1       0.022   8.014  10.306  1.00  0.00     0.028 C 
BRANCH  26  27
HETATM   27  C13 UNL     1       1.522   7.967  10.338  1.00  0.00    -0.025 C 
HETATM   28  C14 UNL     1       2.363   7.972   9.285  1.00  0.00    -0.091 C 
HETATM   29  C15 UNL     1       1.936   7.991   7.844  1.00  0.00     0.042 C 
HETATM   30  C16 UNL     1       3.854   7.945   9.492  1.00  0.00     0.042 C 
ENDBRANCH  26  27
ENDBRANCH  25  26
ENDBRANCH  23  25
ENDBRANCH   6  23
BRANCH   1  31
HETATM   31  C2  UNL     1      -0.439  12.303  17.500  1.00  0.00     0.006 C 
HETATM   32  C1  UNL     1       1.034  12.290  17.092  1.00  0.00     0.006 C 
ENDBRANCH   1  31
TORSDOF 5
ENDMDL
MODEL 4
REMARK minimizedAffinity -6.7752986
REMARK CNNscore 0.441231191
REMARK CNNaffinity 6.40487432
REMARK  5 active torsions:
REMARK  status: ('A' for Active; 'I' for Inactive)
REMARK    1  A    between atoms: C2_2  and  C3_3 
REMARK    2  A    between atoms: C8_8  and  C9_9 
REMARK    3  A    between atoms: C9_9  and  C11_11 
REMARK    4  A    between atoms: C11_11  and  C12_12 
REMARK    5  A    between atoms: C12_12  and  C13_13 
ROOT
HETATM    1  C3  UNL     1      -1.876   8.580  15.016  1.00  0.00    -0.032 C 
HETATM    2  C4  UNL     1      -3.161   9.491  15.129  1.00  0.00     0.011 C 
HETATM    3  C5  UNL     1      -2.941  10.943  15.607  1.00  0.00     0.011 C 
HETATM    4  C6  UNL     1      -2.159  10.969  16.927  1.00  0.00    -0.032 C 
HETATM    5  C7  UNL     1      -3.014  10.219  17.997  1.00  0.00     0.016 C 
HETATM    6  C8  UNL     1      -1.740  12.358  17.486  1.00  0.00    -0.002 C 
HETATM    7  C17 UNL     1      -0.578  11.999  18.454  1.00  0.00     0.006 C 
HETATM    8  C18 UNL     1      -0.087  10.578  18.052  1.00  0.00     0.011 C 
HETATM    9  C19 UNL     1      -0.734  10.322  16.670  1.00  0.00    -0.032 C 
HETATM   10  C20 UNL     1       0.175  11.103  15.665  1.00  0.00     0.016 C 
HETATM   11  C21 UNL     1      -0.915   8.823  16.246  1.00  0.00     0.003 C 
HETATM   12  C22 UNL     1       0.375   8.011  16.134  1.00  0.00     0.006 C 
HETATM   13  C23 UNL     1       1.082   7.956  14.789  1.00  0.00     0.006 C 
HETATM   14  C24 UNL     1       0.338   8.371  13.502  1.00  0.00     0.005 C 
HETATM   15  C25 UNL     1      -1.132   8.888  13.655  1.00  0.00    -0.000 C 
HETATM   16  C26 UNL     1      -1.959   8.649  12.369  1.00  0.00     0.013 C 
HETATM   17  C27 UNL     1      -1.137   8.936  11.125  1.00  0.00     0.079 C 
HETATM   18  C28 UNL     1      -0.015   7.940  10.999  1.00  0.00     0.135 C 
HETATM   19  O1  UNL     1       0.367   7.586   9.882  1.00  0.00    -0.297 OA
HETATM   20  C29 UNL     1       0.624   7.402  12.289  1.00  0.00     0.017 C 
HETATM   21  C30 UNL     1       2.149   7.321  12.027  1.00  0.00     0.023 C 
HETATM   22  C31 UNL     1       0.094   5.974  12.493  1.00  0.00     0.023 C 
ENDROOT
BRANCH   6  23
HETATM   23  C9  UNL     1      -2.784  13.413  17.950  1.00  0.00    -0.014 C 
HETATM   24  C10 UNL     1      -2.113  14.400  18.926  1.00  0.00     0.010 C 
BRANCH  23  25
HETATM   25  C11 UNL     1      -4.191  13.015  18.455  1.00  0.00     0.008 C 
BRANCH  25  26
HETATM   26  C12 UNL     1      -4.666  13.363  19.869  1.00  0.00     0.028 C 
BRANCH  26  27
HETATM   27  C13 UNL     1      -6.152  13.483  20.042  1.00  0.00    -0.025 C 
HETATM   28  C14 UNL     1      -6.848  13.420  21.194  1.00  0.00    -0.091 C 
HETATM   29  C15 UNL     1      -6.246  13.175  22.550  1.00  0.00     0.042 C 
HETATM   30  C16 UNL     1      -8.345  13.584  21.198  1.00  0.00     0.042 C 
ENDBRANCH  26  27
ENDBRANCH  25  26
ENDBRANCH  23  25
ENDBRANCH   6  23
BRANCH   1  31
HETATM   31  C2  UNL     1      -2.351   7.080  14.979  1.00  0.00     0.006 C 
HETATM   32  C1  UNL     1      -3.747   6.755  15.511  1.00  0.00     0.006 C 
ENDBRANCH   1  31
TORSDOF 5
ENDMDL
MODEL 5
REMARK minimizedAffinity -5.99845791
REMARK CNNscore 0.280733734
REMARK CNNaffinity 5.26072264
REMARK  5 active torsions:
REMARK  status: ('A' for Active; 'I' for Inactive)
REMARK    1  A    between atoms: C2_2  and  C3_3 
REMARK    2  A    between atoms: C8_8  and  C9_9 
REMARK    3  A    between atoms: C9_9  and  C11_11 
REMARK    4  A    between atoms: C11_11  and  C12_12 
REMARK    5  A    between atoms: C12_12  and  C13_13 
ROOT
HETATM    1  C3  UNL     1       4.652   8.505  13.872  1.00  0.00    -0.032 C 
HETATM    2  C4  UNL     1       4.082   8.437  15.343  1.00  0.00     0.011 C 
HETATM    3  C5  UNL     1       3.417   9.720  15.888  1.00  0.00     0.011 C 
HETATM    4  C6  UNL     1       4.357  10.925  15.741  1.00  0.00    -0.032 C 
HETATM    5  C7  UNL     1       5.635  10.631  16.588  1.00  0.00     0.016 C 
HETATM    6  C8  UNL     1       3.796  12.324  16.126  1.00  0.00    -0.002 C 
HETATM    7  C17 UNL     1       4.756  13.292  15.380  1.00  0.00     0.006 C 
HETATM    8  C18 UNL     1       5.463  12.454  14.275  1.00  0.00     0.011 C 
HETATM    9  C19 UNL     1       4.641  11.144  14.197  1.00  0.00    -0.032 C 
HETATM   10  C20 UNL     1       3.387  11.524  13.342  1.00  0.00     0.016 C 
HETATM   11  C21 UNL     1       5.378   9.886  13.622  1.00  0.00     0.003 C 
HETATM   12  C22 UNL     1       5.879  10.017  12.184  1.00  0.00     0.006 C 
HETATM   13  C23 UNL     1       4.962   9.580  11.054  1.00  0.00     0.006 C 
HETATM   14  C24 UNL     1       3.739   8.684  11.347  1.00  0.00     0.005 C 
HETATM   15  C25 UNL     1       3.470   8.300  12.841  1.00  0.00    -0.000 C 
HETATM   16  C26 UNL     1       2.703   6.960  12.958  1.00  0.00     0.013 C 
HETATM   17  C27 UNL     1       1.621   6.852  11.898  1.00  0.00     0.079 C 
HETATM   18  C28 UNL     1       2.238   6.773  10.527  1.00  0.00     0.135 C 
HETATM   19  O1  UNL     1       1.688   6.112   9.645  1.00  0.00    -0.297 OA
HETATM   20  C29 UNL     1       3.547   7.540  10.277  1.00  0.00     0.017 C 
HETATM   21  C30 UNL     1       3.435   8.156   8.860  1.00  0.00     0.023 C 
HETATM   22  C31 UNL     1       4.681   6.502  10.263  1.00  0.00     0.023 C 
ENDROOT
BRANCH   6  23
HETATM   23  C9  UNL     1       3.381  12.678  17.582  1.00  0.00    -0.014 C 
HETATM   24  C10 UNL     1       4.530  13.441  18.269  1.00  0.00     0.010 C 
BRANCH  23  25
HETATM   25  C11 UNL     1       2.767  11.631  18.542  1.00  0.00     0.008 C 
BRANCH  25  26
HETATM   26  C12 UNL     1       3.547  11.087  19.743  1.00  0.00     0.028 C 
BRANCH  26  27
HETATM   27  C13 UNL     1       2.866   9.995  20.517  1.00  0.00    -0.025 C 
HETATM   28  C14 UNL     1       3.106   9.625  21.790  1.00  0.00    -0.091 C 
HETATM   29  C15 UNL     1       4.157  10.231  22.678  1.00  0.00     0.042 C 
HETATM   30  C16 UNL     1       2.312   8.517  22.431  1.00  0.00     0.042 C 
ENDBRANCH  26  27
ENDBRANCH  25  26
ENDBRANCH  23  25
ENDBRANCH   6  23
BRANCH   1  31
HETATM   31  C2  UNL     1       5.664   7.313  13.692  1.00  0.00     0.006 C 
HETATM   32  C1  UNL     1       7.026   7.418  14.377  1.00  0.00     0.006 C 
ENDBRANCH   1  31
TORSDOF 5
ENDMDL
MODEL 6
REMARK minimizedAffinity -6.17818642
REMARK CNNscore 0.280239344
REMARK CNNaffinity 6.05372477
REMARK  5 active torsions:
REMARK  status: ('A' for Active; 'I' for Inactive)
REMARK    1  A    between atoms: C2_2  and  C3_3 
REMARK    2  A    between atoms: C8_8  and  C9_9 
REMARK    3  A    between atoms: C9_9  and  C11_11 
REMARK    4  A    between atoms: C11_11  and  C12_12 
REMARK    5  A    between atoms: C12_12  and  C13_13 
ROOT
HETATM    1  C3  UNL     1     -15.089   3.598  24.192  1.00  0.00    -0.032 C 
HETATM    2  C4  UNL     1     -14.757   3.389  22.662  1.00  0.00     0.011 C 
HETATM    3  C5  UNL     1     -14.076   4.569  21.934  1.00  0.00     0.011 C 
HETATM    4  C6  UNL     1     -14.878   5.864  22.127  1.00  0.00    -0.032 C 
HETATM    5  C7  UNL     1     -16.290   5.642  21.499  1.00  0.00     0.016 C 
HETATM    6  C8  UNL     1     -14.266   7.178  21.564  1.00  0.00    -0.002 C 
HETATM    7  C17 UNL     1     -15.016   8.275  22.369  1.00  0.00     0.006 C 
HETATM    8  C18 UNL     1     -15.615   7.575  23.624  1.00  0.00     0.011 C 
HETATM    9  C19 UNL     1     -14.905   6.201  23.676  1.00  0.00    -0.032 C 
HETATM   10  C20 UNL     1     -13.508   6.510  24.310  1.00  0.00     0.016 C 
HETATM   11  C21 UNL     1     -15.649   5.054  24.443  1.00  0.00     0.003 C 
HETATM   12  C22 UNL     1     -15.913   5.317  25.925  1.00  0.00     0.006 C 
HETATM   13  C23 UNL     1     -14.876   4.863  26.939  1.00  0.00     0.006 C 
HETATM   14  C24 UNL     1     -13.792   3.839  26.536  1.00  0.00     0.005 C 
HETATM   15  C25 UNL     1     -13.786   3.344  25.051  1.00  0.00    -0.000 C 
HETATM   16  C26 UNL     1     -13.162   1.933  24.921  1.00  0.00     0.013 C 
HETATM   17  C27 UNL     1     -11.944   1.787  25.817  1.00  0.00     0.079 C 
HETATM   18  C28 UNL     1     -12.351   1.848  27.265  1.00  0.00     0.135 C 
HETATM   19  O1  UNL     1     -11.730   1.191  28.104  1.00  0.00    -0.297 OA
HETATM   20  C29 UNL     1     -13.537   2.748  27.647  1.00  0.00     0.017 C 
HETATM   21  C30 UNL     1     -13.159   3.434  28.984  1.00  0.00     0.023 C 
HETATM   22  C31 UNL     1     -14.739   1.825  27.902  1.00  0.00     0.023 C 
ENDROOT
BRANCH   6  23
HETATM   23  C9  UNL     1     -14.048   7.404  20.041  1.00  0.00    -0.014 C 
HETATM   24  C10 UNL     1     -13.200   8.674  19.830  1.00  0.00     0.010 C 
BRANCH  23  25
HETATM   25  C11 UNL     1     -15.212   7.347  19.024  1.00  0.00     0.008 C 
BRANCH  25  26
HETATM   26  C12 UNL     1     -15.025   7.771  17.563  1.00  0.00     0.028 C 
BRANCH  26  27
HETATM   27  C13 UNL     1     -15.352   6.724  16.538  1.00  0.00    -0.025 C 
HETATM   28  C14 UNL     1     -14.662   6.436  15.417  1.00  0.00    -0.091 C 
HETATM   29  C15 UNL     1     -13.425   7.156  14.959  1.00  0.00     0.042 C 
HETATM   30  C16 UNL     1     -15.115   5.331  14.499  1.00  0.00     0.042 C 
ENDBRANCH  26  27
ENDBRANCH  25  26
ENDBRANCH  23  25
ENDBRANCH   6  23
BRANCH   1  31
HETATM   31  C2  UNL     1     -16.159   2.520  24.603  1.00  0.00     0.006 C 
HETATM   32  C1  UNL     1     -17.599   2.719  24.130  1.00  0.00     0.006 C 
ENDBRANCH   1  31
TORSDOF 5
ENDMDL
MODEL 7
REMARK minimizedAffinity -6.26158905
REMARK CNNscore 0.276981771
REMARK CNNaffinity 5.90651751
REMARK  5 active torsions:
REMARK  status: ('A' for Active; 'I' for Inactive)
REMARK    1  A    between atoms: C2_2  and  C3_3 
REMARK    2  A    between atoms: C8_8  and  C9_9 
REMARK    3  A    between atoms: C9_9  and  C11_11 
REMARK    4  A    between atoms: C11_11  and  C12_12 
REMARK    5  A    between atoms: C12_12  and  C13_13 
ROOT
HETATM    1  C3  UNL     1      -4.871 -11.655   3.240  1.00  0.00    -0.032 C 
HETATM    2  C4  UNL     1      -4.083 -11.551   1.876  1.00  0.00     0.011 C 
HETATM    3  C5  UNL     1      -4.692 -10.633   0.793  1.00  0.00     0.011 C 
HETATM    4  C6  UNL     1      -6.158 -11.002   0.528  1.00  0.00    -0.032 C 
HETATM    5  C7  UNL     1      -6.187 -12.473   0.005  1.00  0.00     0.016 C 
HETATM    6  C8  UNL     1      -6.962 -10.095  -0.447  1.00  0.00    -0.002 C 
HETATM    7  C17 UNL     1      -8.436 -10.411  -0.068  1.00  0.00     0.006 C 
HETATM    8  C18 UNL     1      -8.403 -11.060   1.346  1.00  0.00     0.011 C 
HETATM    9  C19 UNL     1      -6.974 -10.776   1.869  1.00  0.00    -0.032 C 
HETATM   10  C20 UNL     1      -7.030  -9.294   2.367  1.00  0.00     0.016 C 
HETATM   11  C21 UNL     1      -6.427 -11.741   2.977  1.00  0.00     0.003 C 
HETATM   12  C22 UNL     1      -7.227 -11.770   4.278  1.00  0.00     0.006 C 
HETATM   13  C23 UNL     1      -6.834 -10.813   5.392  1.00  0.00     0.006 C 
HETATM   14  C24 UNL     1      -5.456 -10.117   5.369  1.00  0.00     0.005 C 
HETATM   15  C25 UNL     1      -4.526 -10.403   4.143  1.00  0.00    -0.000 C 
HETATM   16  C26 UNL     1      -3.031 -10.230   4.506  1.00  0.00     0.013 C 
HETATM   17  C27 UNL     1      -2.820  -9.024   5.405  1.00  0.00     0.079 C 
HETATM   18  C28 UNL     1      -3.472  -9.250   6.743  1.00  0.00     0.135 C 
HETATM   19  O1  UNL     1      -2.969  -8.766   7.759  1.00  0.00    -0.297 OA
HETATM   20  C29 UNL     1      -4.765 -10.080   6.788  1.00  0.00     0.017 C 
HETATM   21  C30 UNL     1      -5.700  -9.390   7.812  1.00  0.00     0.023 C 
HETATM   22  C31 UNL     1      -4.390 -11.467   7.335  1.00  0.00     0.023 C 
ENDROOT
BRANCH   6  23
HETATM   23  C9  UNL     1      -6.600  -9.973  -1.954  1.00  0.00    -0.014 C 
HETATM   24  C10 UNL     1      -5.069 -10.049  -2.118  1.00  0.00     0.010 C 
BRANCH  23  25
HETATM   25  C11 UNL     1      -7.193  -8.867  -2.858  1.00  0.00     0.008 C 
BRANCH  25  26
HETATM   26  C12 UNL     1      -8.224  -7.864  -2.330  1.00  0.00     0.028 C 
BRANCH  26  27
HETATM   27  C13 UNL     1      -9.557  -7.880  -3.022  1.00  0.00    -0.025 C 
HETATM   28  C14 UNL     1     -10.063  -6.937  -3.841  1.00  0.00    -0.091 C 
HETATM   29  C15 UNL     1      -9.379  -5.644  -4.190  1.00  0.00     0.042 C 
HETATM   30  C16 UNL     1     -11.415  -7.118  -4.477  1.00  0.00     0.042 C 
ENDBRANCH  26  27
ENDBRANCH  25  26
ENDBRANCH  23  25
ENDBRANCH   6  23
BRANCH   1  31
HETATM   31  C2  UNL     1      -4.369 -12.945   3.989  1.00  0.00     0.006 C 
HETATM   32  C1  UNL     1      -4.690 -14.305   3.370  1.00  0.00     0.006 C 
ENDBRANCH   1  31
TORSDOF 5
ENDMDL
MODEL 8
REMARK minimizedAffinity -5.97975111
REMARK CNNscore 0.252404064
REMARK CNNaffinity 5.11309433
REMARK  5 active torsions:
REMARK  status: ('A' for Active; 'I' for Inactive)
REMARK    1  A    between atoms: C2_2  and  C3_3 
REMARK    2  A    between atoms: C8_8  and  C9_9 
REMARK    3  A    between atoms: C9_9  and  C11_11 
REMARK    4  A    between atoms: C11_11  and  C12_12 
REMARK    5  A    between atoms: C12_12  and  C13_13 
ROOT
HETATM    1  C3  UNL     1     -16.120  -4.273  15.089  1.00  0.00    -0.032 C 
HETATM    2  C4  UNL     1     -16.053  -5.335  16.256  1.00  0.00     0.011 C 
HETATM    3  C5  UNL     1     -14.649  -5.846  16.648  1.00  0.00     0.011 C 
HETATM    4  C6  UNL     1     -13.895  -6.367  15.417  1.00  0.00    -0.032 C 
HETATM    5  C7  UNL     1     -14.713  -7.564  14.835  1.00  0.00     0.016 C 
HETATM    6  C8  UNL     1     -12.415  -6.804  15.614  1.00  0.00    -0.002 C 
HETATM    7  C17 UNL     1     -11.850  -6.746  14.167  1.00  0.00     0.006 C 
HETATM    8  C18 UNL     1     -12.825  -5.857  13.342  1.00  0.00     0.011 C 
HETATM    9  C19 UNL     1     -13.707  -5.161  14.406  1.00  0.00    -0.032 C 
HETATM   10  C20 UNL     1     -12.820  -3.986  14.936  1.00  0.00     0.016 C 
HETATM   11  C21 UNL     1     -15.114  -4.658  13.932  1.00  0.00     0.003 C 
HETATM   12  C22 UNL     1     -15.098  -3.612  12.817  1.00  0.00     0.006 C 
HETATM   13  C23 UNL     1     -15.076  -2.142  13.202  1.00  0.00     0.006 C 
HETATM   14  C24 UNL     1     -15.446  -1.708  14.638  1.00  0.00     0.005 C 
HETATM   15  C25 UNL     1     -15.788  -2.839  15.665  1.00  0.00    -0.000 C 
HETATM   16  C26 UNL     1     -16.730  -2.330  16.782  1.00  0.00     0.013 C 
HETATM   17  C27 UNL     1     -16.345  -0.931  17.232  1.00  0.00     0.079 C 
HETATM   18  C28 UNL     1     -16.572   0.056  16.118  1.00  0.00     0.135 C 
HETATM   19  O1  UNL     1     -16.912   1.210  16.383  1.00  0.00    -0.297 OA
HETATM   20  C29 UNL     1     -16.357  -0.421  14.673  1.00  0.00     0.017 C 
HETATM   21  C30 UNL     1     -15.659   0.741  13.922  1.00  0.00     0.023 C 
HETATM   22  C31 UNL     1     -17.750  -0.625  14.055  1.00  0.00     0.023 C 
ENDROOT
BRANCH   6  23
HETATM   23  C9  UNL     1     -12.020  -8.010  16.511  1.00  0.00    -0.014 C 
HETATM   24  C10 UNL     1     -13.232  -8.430  17.365  1.00  0.00     0.010 C 
BRANCH  23  25
HETATM   25  C11 UNL     1     -10.724  -8.020  17.356  1.00  0.00     0.008 C 
BRANCH  25  26
HETATM   26  C12 UNL     1     -10.000  -9.324  17.702  1.00  0.00     0.028 C 
BRANCH  26  27
HETATM   27  C13 UNL     1      -9.364  -9.371  19.061  1.00  0.00    -0.025 C 
HETATM   28  C14 UNL     1      -9.741 -10.123  20.114  1.00  0.00    -0.091 C 
HETATM   29  C15 UNL     1     -10.924 -11.050  20.128  1.00  0.00     0.042 C 
HETATM   30  C16 UNL     1      -8.976 -10.069  21.410  1.00  0.00     0.042 C 
ENDBRANCH  26  27
ENDBRANCH  25  26
ENDBRANCH  23  25
ENDBRANCH   6  23
BRANCH   1  31
HETATM   31  C2  UNL     1     -17.597  -4.247  14.546  1.00  0.00     0.006 C 
HETATM   32  C1  UNL     1     -18.187  -5.550  14.007  1.00  0.00     0.006 C 
ENDBRANCH   1  31
TORSDOF 5
ENDMDL
MODEL 9
REMARK minimizedAffinity -6.66878986
REMARK CNNscore 0.230603755
REMARK CNNaffinity 6.03852797
REMARK  5 active torsions:
REMARK  status: ('A' for Active; 'I' for Inactive)
REMARK    1  A    between atoms: C2_2  and  C3_3 
REMARK    2  A    between atoms: C8_8  and  C9_9 
REMARK    3  A    between atoms: C9_9  and  C11_11 
REMARK    4  A    between atoms: C11_11  and  C12_12 
REMARK    5  A    between atoms: C12_12  and  C13_13 
ROOT
HETATM    1  C3  UNL     1      -0.980  10.829  17.126  1.00  0.00    -0.032 C 
HETATM    2  C4  UNL     1       0.542  10.696  16.729  1.00  0.00     0.011 C 
HETATM    3  C5  UNL     1       0.844  10.201  15.297  1.00  0.00     0.011 C 
HETATM    4  C6  UNL     1       0.107   8.886  15.009  1.00  0.00    -0.032 C 
HETATM    5  C7  UNL     1       0.631   7.820  16.022  1.00  0.00     0.016 C 
HETATM    6  C8  UNL     1       0.201   8.312  13.566  1.00  0.00    -0.002 C 
HETATM    7  C17 UNL     1      -1.023   7.357  13.500  1.00  0.00     0.006 C 
HETATM    8  C18 UNL     1      -1.981   7.780  14.652  1.00  0.00     0.011 C 
HETATM    9  C19 UNL     1      -1.451   9.161  15.108  1.00  0.00    -0.032 C 
HETATM   10  C20 UNL     1      -2.014  10.163  14.046  1.00  0.00     0.016 C 
HETATM   11  C21 UNL     1      -1.807   9.602  16.570  1.00  0.00     0.003 C 
HETATM   12  C22 UNL     1      -3.299   9.734  16.872  1.00  0.00     0.006 C 
HETATM   13  C23 UNL     1      -3.965  11.084  16.662  1.00  0.00     0.006 C 
HETATM   14  C24 UNL     1      -3.108  12.361  16.525  1.00  0.00     0.005 C 
HETATM   15  C25 UNL     1      -1.552  12.191  16.562  1.00  0.00    -0.000 C 
HETATM   16  C26 UNL     1      -0.849  13.474  17.066  1.00  0.00     0.013 C 
HETATM   17  C27 UNL     1      -1.503  14.720  16.496  1.00  0.00     0.079 C 
HETATM   18  C28 UNL     1      -2.903  14.866  17.029  1.00  0.00     0.135 C 
HETATM   19  O1  UNL     1      -3.373  15.990  17.215  1.00  0.00    -0.297 OA
HETATM   20  C29 UNL     1      -3.705  13.588  17.318  1.00  0.00     0.017 C 
HETATM   21  C30 UNL     1      -5.158  13.861  16.853  1.00  0.00     0.023 C 
HETATM   22  C31 UNL     1      -3.716  13.398  18.844  1.00  0.00     0.023 C 
ENDROOT
BRANCH   6  23
HETATM   23  C9  UNL     1       1.545   7.828  12.952  1.00  0.00    -0.014 C 
HETATM   24  C10 UNL     1       2.288   9.031  12.338  1.00  0.00     0.010 C 
BRANCH  23  25
HETATM   25  C11 UNL     1       1.629   6.598  12.019  1.00  0.00     0.008 C 
BRANCH  25  26
HETATM   26  C12 UNL     1       0.740   6.467  10.778  1.00  0.00     0.028 C 
BRANCH  26  27
HETATM   27  C13 UNL     1       1.142   7.309   9.602  1.00  0.00    -0.025 C 
HETATM   28  C14 UNL     1       2.098   7.038   8.692  1.00  0.00    -0.091 C 
HETATM   29  C15 UNL     1       2.986   5.825   8.713  1.00  0.00     0.042 C 
HETATM   30  C16 UNL     1       2.362   7.984   7.550  1.00  0.00     0.042 C 
ENDBRANCH  26  27
ENDBRANCH  25  26
ENDBRANCH  23  25
ENDBRANCH   6  23
BRANCH   1  31
HETATM   31  C2  UNL     1      -1.065  10.881  18.696  1.00  0.00     0.006 C 
HETATM   32  C1  UNL     1       0.241  10.984  19.484  1.00  0.00     0.006 C 
ENDBRANCH   1  31
TORSDOF 5
ENDMDL
