MODEL 1
REMARK minimizedAffinity -9.9892807
REMARK  11 active torsions:
REMARK  status: ('A' for Active; 'I' for Inactive)
REMARK    1  A    between atoms: C6_6  and  C8_8 
REMARK    2  A    between atoms: C8_8  and  O1_9 
REMARK    3  A    between atoms: O1_9  and  C9_10 
REMARK    4  A    between atoms: C10_12  and  C11_13 
REMARK    5  A    between atoms: C11_13  and  O3_14 
REMARK    6  A    between atoms: C12_15  and  O4_16 
REMARK    7  A    between atoms: C13_17  and  O5_18 
REMARK    8  A    between atoms: C14_19  and  O6_20 
REMARK    9  A    between atoms: C20_26  and  C21_27 
REMARK   10  A    between atoms: C21_27  and  C22_28 
REMARK   11  A    between atoms: C26_34  and  O9_35 
ROOT
HETATM    1  C1  UNL     1      -1.694  51.348 -21.114  1.00  0.00     0.015 C 
HETATM    2  C2  UNL     1      -2.757  51.196 -21.923  1.00  0.00    -0.084 C 
HETATM    3  C3  UNL     1      -4.160  51.496 -21.462  1.00  0.00     0.034 C 
HETATM    4  C4  UNL     1      -5.095  50.303 -21.676  1.00  0.00     0.010 C 
HETATM    5  C5  UNL     1      -4.997  49.707 -23.104  1.00  0.00     0.005 C 
HETATM    6  C6  UNL     1      -6.069  48.582 -23.394  1.00  0.00    -0.018 C 
HETATM    7  C7  UNL     1      -6.333  47.650 -22.192  1.00  0.00     0.018 C 
HETATM    8  C15 UNL     1      -5.639  47.697 -24.598  1.00  0.00     0.012 C 
HETATM    9  C16 UNL     1      -4.762  48.456 -25.584  1.00  0.00     0.002 C 
HETATM   10  C17 UNL     1      -3.415  48.785 -24.949  1.00  0.00     0.010 C 
HETATM   11  C18 UNL     1      -3.512  49.363 -23.500  1.00  0.00    -0.032 C 
HETATM   12  C19 UNL     1      -2.916  48.273 -22.561  1.00  0.00     0.016 C 
HETATM   13  C20 UNL     1      -2.625  50.669 -23.352  1.00  0.00     0.025 C 
ENDROOT
BRANCH   6  14
HETATM   14  C8  UNL     1      -7.414  49.297 -23.744  1.00  0.00     0.180 C 
BRANCH  14  15
HETATM   15  O1  UNL     1      -8.536  48.488 -23.386  1.00  0.00    -0.358 OA
BRANCH  15  16
HETATM   16  C9  UNL     1      -9.063  47.769 -24.507  1.00  0.00     0.291 C 
HETATM   17  O2  UNL     1     -10.460  47.559 -24.329  1.00  0.00    -0.348 OA
HETATM   18  C10 UNL     1     -11.048  46.846 -25.427  1.00  0.00     0.179 C 
HETATM   19  C12 UNL     1     -10.957  47.671 -26.721  1.00  0.00     0.180 C 
HETATM   20  C13 UNL     1      -9.487  48.040 -26.993  1.00  0.00     0.183 C 
HETATM   21  C14 UNL     1      -8.783  48.621 -25.761  1.00  0.00     0.204 C 
BRANCH  18  22
HETATM   22  C11 UNL     1     -12.493  46.503 -25.061  1.00  0.00     0.198 C 
BRANCH  22  23
HETATM   23  O3  UNL     1     -13.390  47.384 -25.730  1.00  0.00    -0.398 OA
HETATM   24  H17 UNL     1     -14.291  47.107 -25.485  1.00  0.00     0.209 HD
ENDBRANCH  22  23
ENDBRANCH  18  22
BRANCH  19  25
HETATM   25  O4  UNL     1     -11.750  48.863 -26.620  1.00  0.00    -0.390 OA
HETATM   26  H19 UNL     1     -11.495  49.409 -27.389  1.00  0.00     0.210 HD
ENDBRANCH  19  25
BRANCH  20  27
HETATM   27  O5  UNL     1      -9.430  48.995 -28.065  1.00  0.00    -0.390 OA
HETATM   28  H21 UNL     1      -9.369  49.866 -27.612  1.00  0.00     0.210 HD
ENDBRANCH  20  27
BRANCH  21  29
HETATM   29  O6  UNL     1      -9.227  49.987 -25.594  1.00  0.00    -0.388 OA
HETATM   30  H23 UNL     1      -9.284  50.120 -24.624  1.00  0.00     0.210 HD
ENDBRANCH  21  29
ENDBRANCH  15  16
ENDBRANCH  14  15
ENDBRANCH   6  14
BRANCH  13  31
HETATM   31  C21 UNL     1      -2.945  51.803 -24.372  1.00  0.00     0.037 C 
BRANCH  31  32
HETATM   32  C22 UNL     1      -1.791  52.743 -24.608  1.00  0.00    -0.010 C 
HETATM   33  C23 UNL     1      -0.900  52.671 -25.612  1.00  0.00     0.044 C 
HETATM   34  C24 UNL     1       0.182  53.676 -25.752  1.00  0.00     0.291 C 
HETATM   35  C26 UNL     1      -0.726  51.690 -26.711  1.00  0.00     0.181 C 
HETATM   36  O7  UNL     1       0.266  54.739 -25.166  1.00  0.00    -0.260 OA
HETATM   37  O8  UNL     1       1.064  53.223 -26.688  1.00  0.00    -0.315 OA
HETATM   38  C25 UNL     1       0.746  51.871 -27.016  1.00  0.00     0.215 C 
BRANCH  35  39
HETATM   39  O9  UNL     1      -1.029  50.362 -26.318  1.00  0.00    -0.389 OA
HETATM   40  H40 UNL     1      -0.789  49.770 -27.051  1.00  0.00     0.210 HD
ENDBRANCH  35  39
ENDBRANCH  31  32
ENDBRANCH  13  31
TORSDOF 11
ENDMDL
MODEL 2
REMARK minimizedAffinity -9.85981274
REMARK  11 active torsions:
REMARK  status: ('A' for Active; 'I' for Inactive)
REMARK    1  A    between atoms: C6_6  and  C8_8 
REMARK    2  A    between atoms: C8_8  and  O1_9 
REMARK    3  A    between atoms: O1_9  and  C9_10 
REMARK    4  A    between atoms: C10_12  and  C11_13 
REMARK    5  A    between atoms: C11_13  and  O3_14 
REMARK    6  A    between atoms: C12_15  and  O4_16 
REMARK    7  A    between atoms: C13_17  and  O5_18 
REMARK    8  A    between atoms: C14_19  and  O6_20 
REMARK    9  A    between atoms: C20_26  and  C21_27 
REMARK   10  A    between atoms: C21_27  and  C22_28 
REMARK   11  A    between atoms: C26_34  and  O9_35 
ROOT
HETATM    1  C1  UNL     1       0.497  68.048 -36.848  1.00  0.00     0.015 C 
HETATM    2  C2  UNL     1       1.665  67.411 -37.042  1.00  0.00    -0.084 C 
HETATM    3  C3  UNL     1       1.982  66.103 -36.366  1.00  0.00     0.034 C 
HETATM    4  C4  UNL     1       3.301  66.168 -35.593  1.00  0.00     0.010 C 
HETATM    5  C5  UNL     1       4.463  66.762 -36.430  1.00  0.00     0.005 C 
HETATM    6  C6  UNL     1       5.866  66.687 -35.705  1.00  0.00    -0.018 C 
HETATM    7  C7  UNL     1       5.797  66.961 -34.187  1.00  0.00     0.018 C 
HETATM    8  C15 UNL     1       6.871  67.697 -36.327  1.00  0.00     0.012 C 
HETATM    9  C16 UNL     1       6.568  67.980 -37.792  1.00  0.00     0.002 C 
HETATM   10  C17 UNL     1       5.251  68.739 -37.923  1.00  0.00     0.010 C 
HETATM   11  C18 UNL     1       4.086  68.155 -37.059  1.00  0.00    -0.032 C 
HETATM   12  C19 UNL     1       3.796  69.214 -35.955  1.00  0.00     0.016 C 
HETATM   13  C20 UNL     1       2.770  67.987 -37.927  1.00  0.00     0.025 C 
ENDROOT
BRANCH   6  14
HETATM   14  C8  UNL     1       6.416  65.237 -35.900  1.00  0.00     0.180 C 
BRANCH  14  15
HETATM   15  O1  UNL     1       6.789  64.655 -34.649  1.00  0.00    -0.358 OA
BRANCH  15  16
HETATM   16  C9  UNL     1       7.763  63.616 -34.807  1.00  0.00     0.291 C 
HETATM   17  O2  UNL     1       8.803  63.784 -33.848  1.00  0.00    -0.348 OA
HETATM   18  C10 UNL     1       9.809  62.766 -33.953  1.00  0.00     0.179 C 
HETATM   19  C12 UNL     1       9.219  61.385 -33.624  1.00  0.00     0.180 C 
HETATM   20  C13 UNL     1       8.019  61.106 -34.547  1.00  0.00     0.183 C 
HETATM   21  C14 UNL     1       7.029  62.276 -34.603  1.00  0.00     0.204 C 
BRANCH  18  22
HETATM   22  C11 UNL     1      10.967  63.136 -33.024  1.00  0.00     0.198 C 
BRANCH  22  23
HETATM   23  O3  UNL     1      10.478  63.847 -31.891  1.00  0.00    -0.398 OA
HETATM   24  H17 UNL     1      11.247  64.033 -31.323  1.00  0.00     0.209 HD
ENDBRANCH  22  23
ENDBRANCH  18  22
BRANCH  19  25
HETATM   25  O4  UNL     1       8.806  61.322 -32.251  1.00  0.00    -0.390 OA
HETATM   26  H19 UNL     1       8.285  60.500 -32.175  1.00  0.00     0.210 HD
ENDBRANCH  19  25
BRANCH  20  27
HETATM   27  O5  UNL     1       7.334  59.928 -34.089  1.00  0.00    -0.390 OA
HETATM   28  H21 UNL     1       6.594  60.274 -33.542  1.00  0.00     0.210 HD
ENDBRANCH  20  27
BRANCH  21  29
HETATM   29  O6  UNL     1       6.255  62.267 -33.381  1.00  0.00    -0.388 OA
HETATM   30  H23 UNL     1       6.115  63.211 -33.161  1.00  0.00     0.210 HD
ENDBRANCH  21  29
ENDBRANCH  15  16
ENDBRANCH  14  15
ENDBRANCH   6  14
BRANCH  13  31
HETATM   31  C21 UNL     1       2.933  67.119 -39.212  1.00  0.00     0.037 C 
BRANCH  31  32
HETATM   32  C22 UNL     1       2.515  67.828 -40.474  1.00  0.00    -0.010 C 
HETATM   33  C23 UNL     1       1.266  67.909 -40.964  1.00  0.00     0.044 C 
HETATM   34  C24 UNL     1       0.976  68.662 -42.209  1.00  0.00     0.291 C 
HETATM   35  C26 UNL     1      -0.018  67.328 -40.500  1.00  0.00     0.181 C 
HETATM   36  O7  UNL     1       1.723  69.434 -42.781  1.00  0.00    -0.260 OA
HETATM   37  O8  UNL     1      -0.299  68.370 -42.595  1.00  0.00    -0.315 OA
HETATM   38  C25 UNL     1      -0.795  67.296 -41.799  1.00  0.00     0.215 C 
BRANCH  35  39
HETATM   39  O9  UNL     1       0.132  66.036 -39.937  1.00  0.00    -0.389 OA
HETATM   40  H40 UNL     1      -0.755  65.680 -39.759  1.00  0.00     0.210 HD
ENDBRANCH  35  39
ENDBRANCH  31  32
ENDBRANCH  13  31
TORSDOF 11
ENDMDL
MODEL 3
REMARK minimizedAffinity -9.58233547
REMARK  11 active torsions:
REMARK  status: ('A' for Active; 'I' for Inactive)
REMARK    1  A    between atoms: C6_6  and  C8_8 
REMARK    2  A    between atoms: C8_8  and  O1_9 
REMARK    3  A    between atoms: O1_9  and  C9_10 
REMARK    4  A    between atoms: C10_12  and  C11_13 
REMARK    5  A    between atoms: C11_13  and  O3_14 
REMARK    6  A    between atoms: C12_15  and  O4_16 
REMARK    7  A    between atoms: C13_17  and  O5_18 
REMARK    8  A    between atoms: C14_19  and  O6_20 
REMARK    9  A    between atoms: C20_26  and  C21_27 
REMARK   10  A    between atoms: C21_27  and  C22_28 
REMARK   11  A    between atoms: C26_34  and  O9_35 
ROOT
HETATM    1  C1  UNL     1      -6.002  46.804 -21.682  1.00  0.00     0.015 C 
HETATM    2  C2  UNL     1      -5.133  47.569 -22.365  1.00  0.00    -0.084 C 
HETATM    3  C3  UNL     1      -3.643  47.367 -22.268  1.00  0.00     0.034 C 
HETATM    4  C4  UNL     1      -2.918  48.656 -21.876  1.00  0.00     0.010 C 
HETATM    5  C5  UNL     1      -3.351  49.876 -22.731  1.00  0.00     0.005 C 
HETATM    6  C6  UNL     1      -2.498  51.177 -22.451  1.00  0.00    -0.018 C 
HETATM    7  C7  UNL     1      -2.135  51.375 -20.963  1.00  0.00     0.018 C 
HETATM    8  C15 UNL     1      -3.249  52.451 -22.932  1.00  0.00     0.012 C 
HETATM    9  C16 UNL     1      -4.191  52.159 -24.091  1.00  0.00     0.002 C 
HETATM   10  C17 UNL     1      -5.347  51.280 -23.625  1.00  0.00     0.010 C 
HETATM   11  C18 UNL     1      -4.914  50.065 -22.742  1.00  0.00    -0.032 C 
HETATM   12  C19 UNL     1      -5.458  50.355 -21.312  1.00  0.00     0.016 C 
HETATM   13  C20 UNL     1      -5.589  48.725 -23.255  1.00  0.00     0.025 C 
ENDROOT
BRANCH   6  14
HETATM   14  C8  UNL     1      -1.163  51.042 -23.251  1.00  0.00     0.180 C 
BRANCH  14  15
HETATM   15  O1  UNL     1      -1.411  50.932 -24.654  1.00  0.00    -0.358 OA
BRANCH  15  16
HETATM   16  C9  UNL     1      -0.699  51.921 -25.407  1.00  0.00     0.291 C 
HETATM   17  O2  UNL     1       0.365  51.303 -26.125  1.00  0.00    -0.348 OA
HETATM   18  C10 UNL     1       1.114  52.246 -26.906  1.00  0.00     0.179 C 
HETATM   19  C12 UNL     1       0.233  52.863 -28.003  1.00  0.00     0.180 C 
HETATM   20  C13 UNL     1      -1.012  53.505 -27.362  1.00  0.00     0.183 C 
HETATM   21  C14 UNL     1      -1.713  52.575 -26.366  1.00  0.00     0.204 C 
BRANCH  18  22
HETATM   22  C11 UNL     1       2.337  51.530 -27.481  1.00  0.00     0.198 C 
BRANCH  22  23
HETATM   23  O3  UNL     1       3.198  51.108 -26.428  1.00  0.00    -0.398 OA
HETATM   24  H17 UNL     1       3.942  50.637 -26.846  1.00  0.00     0.209 HD
ENDBRANCH  22  23
ENDBRANCH  18  22
BRANCH  19  25
HETATM   25  O4  UNL     1      -0.166  51.867 -28.956  1.00  0.00    -0.390 OA
HETATM   26  H19 UNL     1      -0.858  52.290 -29.499  1.00  0.00     0.210 HD
ENDBRANCH  19  25
BRANCH  20  27
HETATM   27  O5  UNL     1      -1.938  53.875 -28.397  1.00  0.00    -0.390 OA
HETATM   28  H21 UNL     1      -2.574  53.127 -28.434  1.00  0.00     0.210 HD
ENDBRANCH  20  27
BRANCH  21  29
HETATM   29  O6  UNL     1      -2.453  51.587 -27.120  1.00  0.00    -0.388 OA
HETATM   30  H23 UNL     1      -2.374  50.759 -26.602  1.00  0.00     0.210 HD
ENDBRANCH  21  29
ENDBRANCH  15  16
ENDBRANCH  14  15
ENDBRANCH   6  14
BRANCH  13  31
HETATM   31  C21 UNL     1      -5.324  48.383 -24.753  1.00  0.00     0.037 C 
BRANCH  31  32
HETATM   32  C22 UNL     1      -6.548  47.896 -25.484  1.00  0.00    -0.010 C 
HETATM   33  C23 UNL     1      -6.640  47.645 -26.802  1.00  0.00     0.044 C 
HETATM   34  C24 UNL     1      -7.899  47.142 -27.403  1.00  0.00     0.291 C 
HETATM   35  C26 UNL     1      -5.664  47.803 -27.909  1.00  0.00     0.181 C 
HETATM   36  O7  UNL     1      -8.864  46.704 -26.805  1.00  0.00    -0.260 OA
HETATM   37  O8  UNL     1      -7.781  47.215 -28.759  1.00  0.00    -0.315 OA
HETATM   38  C25 UNL     1      -6.602  47.947 -29.088  1.00  0.00     0.215 C 
BRANCH  35  39
HETATM   39  O9  UNL     1      -4.830  48.938 -27.750  1.00  0.00    -0.389 OA
HETATM   40  H40 UNL     1      -4.299  49.036 -28.559  1.00  0.00     0.210 HD
ENDBRANCH  35  39
ENDBRANCH  31  32
ENDBRANCH  13  31
TORSDOF 11
ENDMDL
MODEL 4
REMARK minimizedAffinity -9.57409286
REMARK  11 active torsions:
REMARK  status: ('A' for Active; 'I' for Inactive)
REMARK    1  A    between atoms: C6_6  and  C8_8 
REMARK    2  A    between atoms: C8_8  and  O1_9 
REMARK    3  A    between atoms: O1_9  and  C9_10 
REMARK    4  A    between atoms: C10_12  and  C11_13 
REMARK    5  A    between atoms: C11_13  and  O3_14 
REMARK    6  A    between atoms: C12_15  and  O4_16 
REMARK    7  A    between atoms: C13_17  and  O5_18 
REMARK    8  A    between atoms: C14_19  and  O6_20 
REMARK    9  A    between atoms: C20_26  and  C21_27 
REMARK   10  A    between atoms: C21_27  and  C22_28 
REMARK   11  A    between atoms: C26_34  and  O9_35 
ROOT
HETATM    1  C1  UNL     1      -4.244  46.578 -20.866  1.00  0.00     0.015 C 
HETATM    2  C2  UNL     1      -3.906  47.471 -21.813  1.00  0.00    -0.084 C 
HETATM    3  C3  UNL     1      -2.493  47.599 -22.321  1.00  0.00     0.034 C 
HETATM    4  C4  UNL     1      -1.976  49.035 -22.207  1.00  0.00     0.010 C 
HETATM    5  C5  UNL     1      -2.967  50.080 -22.781  1.00  0.00     0.005 C 
HETATM    6  C6  UNL     1      -2.383  51.549 -22.821  1.00  0.00    -0.018 C 
HETATM    7  C7  UNL     1      -1.517  51.906 -21.593  1.00  0.00     0.018 C 
HETATM    8  C15 UNL     1      -3.522  52.601 -22.924  1.00  0.00     0.012 C 
HETATM    9  C16 UNL     1      -4.755  52.046 -23.623  1.00  0.00     0.002 C 
HETATM   10  C17 UNL     1      -5.410  50.968 -22.765  1.00  0.00     0.010 C 
HETATM   11  C18 UNL     1      -4.408  49.929 -22.165  1.00  0.00    -0.032 C 
HETATM   12  C19 UNL     1      -4.396  50.179 -20.628  1.00  0.00     0.016 C 
HETATM   13  C20 UNL     1      -4.918  48.447 -22.411  1.00  0.00     0.025 C 
ENDROOT
BRANCH   6  14
HETATM   14  C8  UNL     1      -1.475  51.657 -24.088  1.00  0.00     0.180 C 
BRANCH  14  15
HETATM   15  O1  UNL     1      -0.572  52.759 -23.983  1.00  0.00    -0.358 OA
BRANCH  15  16
HETATM   16  C9  UNL     1      -0.032  53.138 -25.255  1.00  0.00     0.291 C 
HETATM   17  O2  UNL     1       0.635  52.026 -25.843  1.00  0.00    -0.348 OA
HETATM   18  C10 UNL     1       1.194  52.343 -27.126  1.00  0.00     0.179 C 
HETATM   19  C12 UNL     1       0.083  52.684 -28.132  1.00  0.00     0.180 C 
HETATM   20  C13 UNL     1      -0.776  53.835 -27.577  1.00  0.00     0.183 C 
HETATM   21  C14 UNL     1      -1.216  53.601 -26.127  1.00  0.00     0.204 C 
BRANCH  18  22
HETATM   22  C11 UNL     1       2.046  51.158 -27.587  1.00  0.00     0.198 C 
BRANCH  22  23
HETATM   23  O3  UNL     1       3.418  51.400 -27.293  1.00  0.00    -0.398 OA
HETATM   24  H17 UNL     1       3.910  50.609 -27.581  1.00  0.00     0.209 HD
ENDBRANCH  22  23
ENDBRANCH  18  22
BRANCH  19  25
HETATM   25  O4  UNL     1      -0.741  51.538 -28.388  1.00  0.00    -0.390 OA
HETATM   26  H19 UNL     1      -1.514  51.879 -28.878  1.00  0.00     0.210 HD
ENDBRANCH  19  25
BRANCH  20  27
HETATM   27  O5  UNL     1      -1.941  53.997 -28.404  1.00  0.00    -0.390 OA
HETATM   28  H21 UNL     1      -2.644  53.495 -27.935  1.00  0.00     0.210 HD
ENDBRANCH  20  27
BRANCH  21  29
HETATM   29  O6  UNL     1      -2.290  52.633 -26.134  1.00  0.00    -0.388 OA
HETATM   30  H23 UNL     1      -2.150  52.090 -25.330  1.00  0.00     0.210 HD
ENDBRANCH  21  29
ENDBRANCH  15  16
ENDBRANCH  14  15
ENDBRANCH   6  14
BRANCH  13  31
HETATM   31  C21 UNL     1      -5.195  48.083 -23.901  1.00  0.00     0.037 C 
BRANCH  31  32
HETATM   32  C22 UNL     1      -4.114  48.543 -24.845  1.00  0.00    -0.010 C 
HETATM   33  C23 UNL     1      -4.237  48.712 -26.172  1.00  0.00     0.044 C 
HETATM   34  C24 UNL     1      -3.100  49.197 -26.993  1.00  0.00     0.291 C 
HETATM   35  C26 UNL     1      -5.369  48.470 -27.100  1.00  0.00     0.181 C 
HETATM   36  O7  UNL     1      -2.064  49.686 -26.582  1.00  0.00    -0.260 OA
HETATM   37  O8  UNL     1      -3.427  49.037 -28.307  1.00  0.00    -0.315 OA
HETATM   38  C25 UNL     1      -4.624  48.268 -28.402  1.00  0.00     0.215 C 
BRANCH  35  39
HETATM   39  O9  UNL     1      -6.139  47.334 -26.745  1.00  0.00    -0.389 OA
HETATM   40  H40 UNL     1      -6.788  47.177 -27.452  1.00  0.00     0.210 HD
ENDBRANCH  35  39
ENDBRANCH  31  32
ENDBRANCH  13  31
TORSDOF 11
ENDMDL
MODEL 5
REMARK minimizedAffinity -9.56337357
REMARK  11 active torsions:
REMARK  status: ('A' for Active; 'I' for Inactive)
REMARK    1  A    between atoms: C6_6  and  C8_8 
REMARK    2  A    between atoms: C8_8  and  O1_9 
REMARK    3  A    between atoms: O1_9  and  C9_10 
REMARK    4  A    between atoms: C10_12  and  C11_13 
REMARK    5  A    between atoms: C11_13  and  O3_14 
REMARK    6  A    between atoms: C12_15  and  O4_16 
REMARK    7  A    between atoms: C13_17  and  O5_18 
REMARK    8  A    between atoms: C14_19  and  O6_20 
REMARK    9  A    between atoms: C20_26  and  C21_27 
REMARK   10  A    between atoms: C21_27  and  C22_28 
REMARK   11  A    between atoms: C26_34  and  O9_35 
ROOT
HETATM    1  C1  UNL     1      -3.885  49.658 -18.435  1.00  0.00     0.015 C 
HETATM    2  C2  UNL     1      -3.327  50.035 -19.599  1.00  0.00    -0.084 C 
HETATM    3  C3  UNL     1      -3.237  51.482 -20.008  1.00  0.00     0.034 C 
HETATM    4  C4  UNL     1      -3.857  51.723 -21.387  1.00  0.00     0.010 C 
HETATM    5  C5  UNL     1      -3.360  50.716 -22.456  1.00  0.00     0.005 C 
HETATM    6  C6  UNL     1      -3.863  51.047 -23.918  1.00  0.00    -0.018 C 
HETATM    7  C7  UNL     1      -5.316  51.568 -23.972  1.00  0.00     0.018 C 
HETATM    8  C15 UNL     1      -3.769  49.798 -24.838  1.00  0.00     0.012 C 
HETATM    9  C16 UNL     1      -2.664  48.846 -24.402  1.00  0.00     0.002 C 
HETATM   10  C17 UNL     1      -3.011  48.211 -23.059  1.00  0.00     0.010 C 
HETATM   11  C18 UNL     1      -3.537  49.222 -21.989  1.00  0.00    -0.032 C 
HETATM   12  C19 UNL     1      -5.038  48.874 -21.767  1.00  0.00     0.016 C 
HETATM   13  C20 UNL     1      -2.783  49.025 -20.608  1.00  0.00     0.025 C 
ENDROOT
BRANCH   6  14
HETATM   14  C8  UNL     1      -2.936  52.169 -24.488  1.00  0.00     0.180 C 
BRANCH  14  15
HETATM   15  O1  UNL     1      -1.590  52.005 -24.034  1.00  0.00    -0.358 OA
BRANCH  15  16
HETATM   16  C9  UNL     1      -0.644  52.615 -24.921  1.00  0.00     0.291 C 
HETATM   17  O2  UNL     1       0.386  51.683 -25.238  1.00  0.00    -0.348 OA
HETATM   18  C10 UNL     1       1.364  52.236 -26.130  1.00  0.00     0.179 C 
HETATM   19  C12 UNL     1       0.731  52.568 -27.490  1.00  0.00     0.180 C 
HETATM   20  C13 UNL     1      -0.463  53.518 -27.283  1.00  0.00     0.183 C 
HETATM   21  C14 UNL     1      -1.419  53.040 -26.184  1.00  0.00     0.204 C 
BRANCH  18  22
HETATM   22  C11 UNL     1       2.517  51.239 -26.257  1.00  0.00     0.198 C 
BRANCH  22  23
HETATM   23  O3  UNL     1       3.311  51.553 -27.397  1.00  0.00    -0.398 OA
HETATM   24  H17 UNL     1       4.042  50.908 -27.416  1.00  0.00     0.209 HD
ENDBRANCH  22  23
ENDBRANCH  18  22
BRANCH  19  25
HETATM   25  O4  UNL     1       0.295  51.372 -28.154  1.00  0.00    -0.390 OA
HETATM   26  H19 UNL     1      -0.250  51.676 -28.905  1.00  0.00     0.210 HD
ENDBRANCH  19  25
BRANCH  20  27
HETATM   27  O5  UNL     1      -1.188  53.643 -28.519  1.00  0.00    -0.390 OA
HETATM   28  H21 UNL     1      -1.926  52.999 -28.434  1.00  0.00     0.210 HD
ENDBRANCH  20  27
BRANCH  21  29
HETATM   29  O6  UNL     1      -2.211  51.955 -26.719  1.00  0.00    -0.388 OA
HETATM   30  H23 UNL     1      -2.328  51.331 -25.972  1.00  0.00     0.210 HD
ENDBRANCH  21  29
ENDBRANCH  15  16
ENDBRANCH  14  15
ENDBRANCH   6  14
BRANCH  13  31
HETATM   31  C21 UNL     1      -1.229  49.127 -20.682  1.00  0.00     0.037 C 
BRANCH  31  32
HETATM   32  C22 UNL     1      -0.623  49.912 -19.547  1.00  0.00    -0.010 C 
HETATM   33  C23 UNL     1      -0.130  51.160 -19.618  1.00  0.00     0.044 C 
HETATM   34  C24 UNL     1       0.420  51.838 -18.419  1.00  0.00     0.291 C 
HETATM   35  C26 UNL     1       0.026  52.099 -20.757  1.00  0.00     0.181 C 
HETATM   36  O7  UNL     1       0.300  51.478 -17.263  1.00  0.00    -0.260 OA
HETATM   37  O8  UNL     1       1.062  52.969 -18.828  1.00  0.00    -0.315 OA
HETATM   38  C25 UNL     1       1.160  52.964 -20.251  1.00  0.00     0.215 C 
BRANCH  35  39
HETATM   39  O9  UNL     1       0.356  51.444 -21.970  1.00  0.00    -0.389 OA
HETATM   40  H40 UNL     1       0.547  52.125 -22.637  1.00  0.00     0.210 HD
ENDBRANCH  35  39
ENDBRANCH  31  32
ENDBRANCH  13  31
TORSDOF 11
ENDMDL
MODEL 6
REMARK minimizedAffinity -9.28360081
REMARK  11 active torsions:
REMARK  status: ('A' for Active; 'I' for Inactive)
REMARK    1  A    between atoms: C6_6  and  C8_8 
REMARK    2  A    between atoms: C8_8  and  O1_9 
REMARK    3  A    between atoms: O1_9  and  C9_10 
REMARK    4  A    between atoms: C10_12  and  C11_13 
REMARK    5  A    between atoms: C11_13  and  O3_14 
REMARK    6  A    between atoms: C12_15  and  O4_16 
REMARK    7  A    between atoms: C13_17  and  O5_18 
REMARK    8  A    between atoms: C14_19  and  O6_20 
REMARK    9  A    between atoms: C20_26  and  C21_27 
REMARK   10  A    between atoms: C21_27  and  C22_28 
REMARK   11  A    between atoms: C26_34  and  O9_35 
ROOT
HETATM    1  C1  UNL     1      -3.447  50.057 -27.496  1.00  0.00     0.015 C 
HETATM    2  C2  UNL     1      -3.033  50.281 -26.237  1.00  0.00    -0.084 C 
HETATM    3  C3  UNL     1      -1.911  49.491 -25.614  1.00  0.00     0.034 C 
HETATM    4  C4  UNL     1      -2.334  48.851 -24.289  1.00  0.00     0.010 C 
HETATM    5  C5  UNL     1      -3.032  49.850 -23.331  1.00  0.00     0.005 C 
HETATM    6  C6  UNL     1      -3.329  49.250 -21.899  1.00  0.00    -0.018 C 
HETATM    7  C7  UNL     1      -3.778  47.773 -21.926  1.00  0.00     0.018 C 
HETATM    8  C15 UNL     1      -4.428  50.070 -21.166  1.00  0.00     0.012 C 
HETATM    9  C16 UNL     1      -4.454  51.524 -21.615  1.00  0.00     0.002 C 
HETATM   10  C17 UNL     1      -4.916  51.622 -23.066  1.00  0.00     0.010 C 
HETATM   11  C18 UNL     1      -4.231  50.598 -24.027  1.00  0.00    -0.032 C 
HETATM   12  C19 UNL     1      -5.345  49.599 -24.458  1.00  0.00     0.016 C 
HETATM   13  C20 UNL     1      -3.696  51.320 -25.334  1.00  0.00     0.025 C 
ENDROOT
BRANCH   6  14
HETATM   14  C8  UNL     1      -2.003  49.327 -21.076  1.00  0.00     0.180 C 
BRANCH  14  15
HETATM   15  O1  UNL     1      -1.954  50.520 -20.290  1.00  0.00    -0.358 OA
BRANCH  15  16
HETATM   16  C9  UNL     1      -0.625  51.049 -20.195  1.00  0.00     0.291 C 
HETATM   17  O2  UNL     1      -0.453  52.088 -21.155  1.00  0.00    -0.348 OA
HETATM   18  C10 UNL     1       0.861  52.663 -21.105  1.00  0.00     0.179 C 
HETATM   19  C12 UNL     1       1.096  53.359 -19.755  1.00  0.00     0.180 C 
HETATM   20  C13 UNL     1       0.862  52.356 -18.611  1.00  0.00     0.183 C 
HETATM   21  C14 UNL     1      -0.454  51.583 -18.760  1.00  0.00     0.204 C 
BRANCH  18  22
HETATM   22  C11 UNL     1       1.011  53.624 -22.285  1.00  0.00     0.198 C 
BRANCH  22  23
HETATM   23  O3  UNL     1       1.855  54.713 -21.925  1.00  0.00    -0.398 OA
HETATM   24  H17 UNL     1       1.938  55.276 -22.716  1.00  0.00     0.209 HD
ENDBRANCH  22  23
ENDBRANCH  18  22
BRANCH  19  25
HETATM   25  O4  UNL     1       0.221  54.487 -19.605  1.00  0.00    -0.390 OA
HETATM   26  H19 UNL     1       0.301  54.754 -18.669  1.00  0.00     0.210 HD
ENDBRANCH  19  25
BRANCH  20  27
HETATM   27  O5  UNL     1       0.858  53.061 -17.358  1.00  0.00    -0.390 OA
HETATM   28  H21 UNL     1      -0.095  53.214 -17.168  1.00  0.00     0.210 HD
ENDBRANCH  20  27
BRANCH  21  29
HETATM   29  O6  UNL     1      -1.536  52.464 -18.380  1.00  0.00    -0.388 OA
HETATM   30  H23 UNL     1      -2.272  52.240 -18.988  1.00  0.00     0.210 HD
ENDBRANCH  21  29
ENDBRANCH  15  16
ENDBRANCH  14  15
ENDBRANCH   6  14
BRANCH  13  31
HETATM   31  C21 UNL     1      -2.718  52.507 -25.078  1.00  0.00     0.037 C 
BRANCH  31  32
HETATM   32  C22 UNL     1      -1.271  52.154 -25.303  1.00  0.00    -0.010 C 
HETATM   33  C23 UNL     1      -0.479  52.628 -26.280  1.00  0.00     0.044 C 
HETATM   34  C24 UNL     1       0.944  52.222 -26.382  1.00  0.00     0.291 C 
HETATM   35  C26 UNL     1      -0.751  53.544 -27.416  1.00  0.00     0.181 C 
HETATM   36  O7  UNL     1       1.594  51.638 -25.535  1.00  0.00    -0.260 OA
HETATM   37  O8  UNL     1       1.423  52.650 -27.584  1.00  0.00    -0.315 OA
HETATM   38  C25 UNL     1       0.338  53.122 -28.380  1.00  0.00     0.215 C 
BRANCH  35  39
HETATM   39  O9  UNL     1      -2.045  53.371 -27.966  1.00  0.00    -0.389 OA
HETATM   40  H40 UNL     1      -2.109  53.921 -28.765  1.00  0.00     0.210 HD
ENDBRANCH  35  39
ENDBRANCH  31  32
ENDBRANCH  13  31
TORSDOF 11
ENDMDL
MODEL 7
REMARK minimizedAffinity -9.22289658
REMARK  11 active torsions:
REMARK  status: ('A' for Active; 'I' for Inactive)
REMARK    1  A    between atoms: C6_6  and  C8_8 
REMARK    2  A    between atoms: C8_8  and  O1_9 
REMARK    3  A    between atoms: O1_9  and  C9_10 
REMARK    4  A    between atoms: C10_12  and  C11_13 
REMARK    5  A    between atoms: C11_13  and  O3_14 
REMARK    6  A    between atoms: C12_15  and  O4_16 
REMARK    7  A    between atoms: C13_17  and  O5_18 
REMARK    8  A    between atoms: C14_19  and  O6_20 
REMARK    9  A    between atoms: C20_26  and  C21_27 
REMARK   10  A    between atoms: C21_27  and  C22_28 
REMARK   11  A    between atoms: C26_34  and  O9_35 
ROOT
HETATM    1  C1  UNL     1       0.667  52.655 -18.884  1.00  0.00     0.015 C 
HETATM    2  C2  UNL     1      -0.382  51.979 -19.383  1.00  0.00    -0.084 C 
HETATM    3  C3  UNL     1      -1.804  52.389 -19.100  1.00  0.00     0.034 C 
HETATM    4  C4  UNL     1      -2.623  51.235 -18.518  1.00  0.00     0.010 C 
HETATM    5  C5  UNL     1      -2.478  49.922 -19.330  1.00  0.00     0.005 C 
HETATM    6  C6  UNL     1      -3.440  48.767 -18.840  1.00  0.00    -0.018 C 
HETATM    7  C7  UNL     1      -3.606  48.705 -17.306  1.00  0.00     0.018 C 
HETATM    8  C15 UNL     1      -2.936  47.377 -19.321  1.00  0.00     0.012 C 
HETATM    9  C16 UNL     1      -2.142  47.472 -20.616  1.00  0.00     0.002 C 
HETATM   10  C17 UNL     1      -0.827  48.209 -20.379  1.00  0.00     0.010 C 
HETATM   11  C18 UNL     1      -0.970  49.520 -19.539  1.00  0.00    -0.032 C 
HETATM   12  C19 UNL     1      -0.266  49.239 -18.178  1.00  0.00     0.016 C 
HETATM   13  C20 UNL     1      -0.211  50.724 -20.238  1.00  0.00     0.025 C 
ENDROOT
BRANCH   6  14
HETATM   14  C8  UNL     1      -4.849  49.038 -19.458  1.00  0.00     0.180 C 
BRANCH  14  15
HETATM   15  O1  UNL     1      -4.964  48.451 -20.756  1.00  0.00    -0.358 OA
BRANCH  15  16
HETATM   16  C9  UNL     1      -4.356  49.260 -21.770  1.00  0.00     0.291 C 
HETATM   17  O2  UNL     1      -4.722  48.771 -23.057  1.00  0.00    -0.348 OA
HETATM   18  C10 UNL     1      -4.146  49.547 -24.118  1.00  0.00     0.179 C 
HETATM   19  C12 UNL     1      -4.691  50.984 -24.096  1.00  0.00     0.180 C 
HETATM   20  C13 UNL     1      -4.430  51.612 -22.715  1.00  0.00     0.183 C 
HETATM   21  C14 UNL     1      -4.859  50.702 -21.559  1.00  0.00     0.204 C 
BRANCH  18  22
HETATM   22  C11 UNL     1      -4.433  48.840 -25.443  1.00  0.00     0.198 C 
BRANCH  22  23
HETATM   23  O3  UNL     1      -5.789  48.405 -25.482  1.00  0.00    -0.398 OA
HETATM   24  H17 UNL     1      -5.924  47.987 -26.352  1.00  0.00     0.209 HD
ENDBRANCH  22  23
ENDBRANCH  18  22
BRANCH  19  25
HETATM   25  O4  UNL     1      -6.097  50.998 -24.383  1.00  0.00    -0.390 OA
HETATM   26  H19 UNL     1      -6.396  51.903 -24.171  1.00  0.00     0.210 HD
ENDBRANCH  19  25
BRANCH  20  27
HETATM   27  O5  UNL     1      -5.138  52.860 -22.622  1.00  0.00    -0.390 OA
HETATM   28  H21 UNL     1      -5.972  52.633 -22.154  1.00  0.00     0.210 HD
ENDBRANCH  20  27
BRANCH  21  29
HETATM   29  O6  UNL     1      -6.300  50.758 -21.454  1.00  0.00    -0.388 OA
HETATM   30  H23 UNL     1      -6.574  49.851 -21.205  1.00  0.00     0.210 HD
ENDBRANCH  21  29
ENDBRANCH  15  16
ENDBRANCH  14  15
ENDBRANCH   6  14
BRANCH  13  31
HETATM   31  C21 UNL     1      -0.644  51.014 -21.707  1.00  0.00     0.037 C 
BRANCH  31  32
HETATM   32  C22 UNL     1       0.119  52.145 -22.347  1.00  0.00    -0.010 C 
HETATM   33  C23 UNL     1      -0.024  52.586 -23.608  1.00  0.00     0.044 C 
HETATM   34  C24 UNL     1       0.771  53.731 -24.116  1.00  0.00     0.291 C 
HETATM   35  C26 UNL     1      -0.870  52.114 -24.732  1.00  0.00     0.181 C 
HETATM   36  O7  UNL     1       1.432  54.507 -23.452  1.00  0.00    -0.260 OA
HETATM   37  O8  UNL     1       0.606  53.796 -25.468  1.00  0.00    -0.315 OA
HETATM   38  C25 UNL     1      -0.075  52.625 -25.914  1.00  0.00     0.215 C 
BRANCH  35  39
HETATM   39  O9  UNL     1      -1.016  50.704 -24.757  1.00  0.00    -0.389 OA
HETATM   40  H40 UNL     1      -1.486  50.465 -25.574  1.00  0.00     0.210 HD
ENDBRANCH  35  39
ENDBRANCH  31  32
ENDBRANCH  13  31
TORSDOF 11
ENDMDL
MODEL 8
REMARK minimizedAffinity -9.18235016
REMARK  11 active torsions:
REMARK  status: ('A' for Active; 'I' for Inactive)
REMARK    1  A    between atoms: C6_6  and  C8_8 
REMARK    2  A    between atoms: C8_8  and  O1_9 
REMARK    3  A    between atoms: O1_9  and  C9_10 
REMARK    4  A    between atoms: C10_12  and  C11_13 
REMARK    5  A    between atoms: C11_13  and  O3_14 
REMARK    6  A    between atoms: C12_15  and  O4_16 
REMARK    7  A    between atoms: C13_17  and  O5_18 
REMARK    8  A    between atoms: C14_19  and  O6_20 
REMARK    9  A    between atoms: C20_26  and  C21_27 
REMARK   10  A    between atoms: C21_27  and  C22_28 
REMARK   11  A    between atoms: C26_34  and  O9_35 
ROOT
HETATM    1  C1  UNL     1      -3.176  52.164 -22.934  1.00  0.00     0.015 C 
HETATM    2  C2  UNL     1      -3.771  50.975 -23.135  1.00  0.00    -0.084 C 
HETATM    3  C3  UNL     1      -5.026  50.840 -23.958  1.00  0.00     0.034 C 
HETATM    4  C4  UNL     1      -6.140  50.133 -23.184  1.00  0.00     0.010 C 
HETATM    5  C5  UNL     1      -5.666  48.820 -22.507  1.00  0.00     0.005 C 
HETATM    6  C6  UNL     1      -6.837  47.994 -21.841  1.00  0.00    -0.018 C 
HETATM    7  C7  UNL     1      -7.901  48.873 -21.147  1.00  0.00     0.018 C 
HETATM    8  C15 UNL     1      -6.286  46.992 -20.788  1.00  0.00     0.012 C 
HETATM    9  C16 UNL     1      -4.867  46.546 -21.108  1.00  0.00     0.002 C 
HETATM   10  C17 UNL     1      -3.897  47.714 -20.956  1.00  0.00     0.010 C 
HETATM   11  C18 UNL     1      -4.387  49.044 -21.616  1.00  0.00    -0.032 C 
HETATM   12  C19 UNL     1      -4.679  50.025 -20.443  1.00  0.00     0.016 C 
HETATM   13  C20 UNL     1      -3.244  49.684 -22.510  1.00  0.00     0.025 C 
ENDROOT
BRANCH   6  14
HETATM   14  C8  UNL     1      -7.551  47.195 -22.978  1.00  0.00     0.180 C 
BRANCH  14  15
HETATM   15  O1  UNL     1      -8.839  47.744 -23.263  1.00  0.00    -0.358 OA
BRANCH  15  16
HETATM   16  C9  UNL     1      -9.321  47.348 -24.554  1.00  0.00     0.291 C 
HETATM   17  O2  UNL     1     -10.745  47.357 -24.558  1.00  0.00    -0.348 OA
HETATM   18  C10 UNL     1     -11.288  46.974 -25.829  1.00  0.00     0.179 C 
HETATM   19  C12 UNL     1     -10.907  47.995 -26.912  1.00  0.00     0.180 C 
HETATM   20  C13 UNL     1      -9.375  48.145 -26.961  1.00  0.00     0.183 C 
HETATM   21  C14 UNL     1      -8.755  48.355 -25.574  1.00  0.00     0.204 C 
BRANCH  18  22
HETATM   22  C11 UNL     1     -12.804  46.827 -25.681  1.00  0.00     0.198 C 
BRANCH  22  23
HETATM   23  O3  UNL     1     -13.458  47.303 -26.853  1.00  0.00    -0.398 OA
HETATM   24  H17 UNL     1     -14.413  47.163 -26.718  1.00  0.00     0.209 HD
ENDBRANCH  22  23
ENDBRANCH  18  22
BRANCH  19  25
HETATM   25  O4  UNL     1     -11.515  49.268 -26.647  1.00  0.00    -0.390 OA
HETATM   26  H19 UNL     1     -11.083  49.894 -27.260  1.00  0.00     0.210 HD
ENDBRANCH  19  25
BRANCH  20  27
HETATM   27  O5  UNL     1      -9.035  49.258 -27.805  1.00  0.00    -0.390 OA
HETATM   28  H21 UNL     1      -8.901  50.005 -27.180  1.00  0.00     0.210 HD
ENDBRANCH  20  27
BRANCH  21  29
HETATM   29  O6  UNL     1      -9.003  49.723 -25.175  1.00  0.00    -0.388 OA
HETATM   30  H23 UNL     1      -9.164  49.682 -24.209  1.00  0.00     0.210 HD
ENDBRANCH  21  29
ENDBRANCH  15  16
ENDBRANCH  14  15
ENDBRANCH   6  14
BRANCH  13  31
HETATM   31  C21 UNL     1      -2.671  48.749 -23.618  1.00  0.00     0.037 C 
BRANCH  31  32
HETATM   32  C22 UNL     1      -3.571  48.617 -24.820  1.00  0.00    -0.010 C 
HETATM   33  C23 UNL     1      -3.299  49.039 -26.066  1.00  0.00     0.044 C 
HETATM   34  C24 UNL     1      -4.261  48.827 -27.176  1.00  0.00     0.291 C 
HETATM   35  C26 UNL     1      -2.138  49.770 -26.633  1.00  0.00     0.181 C 
HETATM   36  O7  UNL     1      -5.239  48.103 -27.161  1.00  0.00    -0.260 OA
HETATM   37  O8  UNL     1      -3.843  49.561 -28.246  1.00  0.00    -0.315 OA
HETATM   38  C25 UNL     1      -2.780  50.421 -27.838  1.00  0.00     0.215 C 
BRANCH  35  39
HETATM   39  O9  UNL     1      -1.598  50.725 -25.736  1.00  0.00    -0.389 OA
HETATM   40  H40 UNL     1      -0.919  51.234 -26.211  1.00  0.00     0.210 HD
ENDBRANCH  35  39
ENDBRANCH  31  32
ENDBRANCH  13  31
TORSDOF 11
ENDMDL
MODEL 9
REMARK minimizedAffinity -9.10891628
REMARK  11 active torsions:
REMARK  status: ('A' for Active; 'I' for Inactive)
REMARK    1  A    between atoms: C6_6  and  C8_8 
REMARK    2  A    between atoms: C8_8  and  O1_9 
REMARK    3  A    between atoms: O1_9  and  C9_10 
REMARK    4  A    between atoms: C10_12  and  C11_13 
REMARK    5  A    between atoms: C11_13  and  O3_14 
REMARK    6  A    between atoms: C12_15  and  O4_16 
REMARK    7  A    between atoms: C13_17  and  O5_18 
REMARK    8  A    between atoms: C14_19  and  O6_20 
REMARK    9  A    between atoms: C20_26  and  C21_27 
REMARK   10  A    between atoms: C21_27  and  C22_28 
REMARK   11  A    between atoms: C26_34  and  O9_35 
ROOT
HETATM    1  C1  UNL     1       0.583  52.674 -28.010  1.00  0.00     0.015 C 
HETATM    2  C2  UNL     1       0.274  52.185 -26.796  1.00  0.00    -0.084 C 
HETATM    3  C3  UNL     1       0.626  50.778 -26.390  1.00  0.00     0.034 C 
HETATM    4  C4  UNL     1      -0.600  50.003 -25.902  1.00  0.00     0.010 C 
HETATM    5  C5  UNL     1      -1.435  50.789 -24.857  1.00  0.00     0.005 C 
HETATM    6  C6  UNL     1      -2.611  49.944 -24.223  1.00  0.00    -0.018 C 
HETATM    7  C7  UNL     1      -3.323  49.016 -25.231  1.00  0.00     0.018 C 
HETATM    8  C15 UNL     1      -3.684  50.870 -23.586  1.00  0.00     0.012 C 
HETATM    9  C16 UNL     1      -3.095  52.190 -23.111  1.00  0.00     0.002 C 
HETATM   10  C17 UNL     1      -2.637  53.026 -24.302  1.00  0.00     0.010 C 
HETATM   11  C18 UNL     1      -1.818  52.228 -25.368  1.00  0.00    -0.032 C 
HETATM   12  C19 UNL     1      -2.718  52.156 -26.637  1.00  0.00     0.016 C 
HETATM   13  C20 UNL     1      -0.491  53.005 -25.758  1.00  0.00     0.025 C 
ENDROOT
BRANCH   6  14
HETATM   14  C8  UNL     1      -1.990  49.043 -23.107  1.00  0.00     0.180 C 
BRANCH  14  15
HETATM   15  O1  UNL     1      -2.976  48.185 -22.530  1.00  0.00    -0.358 OA
BRANCH  15  16
HETATM   16  C9  UNL     1      -3.239  48.510 -21.160  1.00  0.00     0.291 C 
HETATM   17  O2  UNL     1      -4.644  48.640 -20.959  1.00  0.00    -0.348 OA
HETATM   18  C10 UNL     1      -4.971  48.961 -19.599  1.00  0.00     0.179 C 
HETATM   19  C12 UNL     1      -4.565  47.816 -18.659  1.00  0.00     0.180 C 
HETATM   20  C13 UNL     1      -3.066  47.514 -18.834  1.00  0.00     0.183 C 
HETATM   21  C14 UNL     1      -2.658  47.367 -20.305  1.00  0.00     0.204 C 
BRANCH  18  22
HETATM   22  C11 UNL     1      -6.468  49.268 -19.524  1.00  0.00     0.198 C 
BRANCH  22  23
HETATM   23  O3  UNL     1      -6.779  50.394 -20.339  1.00  0.00    -0.398 OA
HETATM   24  H17 UNL     1      -7.742  50.528 -20.277  1.00  0.00     0.209 HD
ENDBRANCH  22  23
ENDBRANCH  18  22
BRANCH  19  25
HETATM   25  O4  UNL     1      -5.337  46.637 -18.930  1.00  0.00    -0.390 OA
HETATM   26  H19 UNL     1      -4.900  45.920 -18.431  1.00  0.00     0.210 HD
ENDBRANCH  19  25
BRANCH  20  27
HETATM   27  O5  UNL     1      -2.742  46.303 -18.130  1.00  0.00    -0.390 OA
HETATM   28  H21 UNL     1      -2.772  45.604 -18.821  1.00  0.00     0.210 HD
ENDBRANCH  20  27
BRANCH  21  29
HETATM   29  O6  UNL     1      -3.104  46.071 -20.766  1.00  0.00    -0.388 OA
HETATM   30  H23 UNL     1      -3.383  46.212 -21.695  1.00  0.00     0.210 HD
ENDBRANCH  21  29
ENDBRANCH  15  16
ENDBRANCH  14  15
ENDBRANCH   6  14
BRANCH  13  31
HETATM   31  C21 UNL     1       0.443  53.358 -24.561  1.00  0.00     0.037 C 
BRANCH  31  32
HETATM   32  C22 UNL     1       0.277  52.439 -23.377  1.00  0.00    -0.010 C 
HETATM   33  C23 UNL     1       0.431  52.773 -22.085  1.00  0.00     0.044 C 
HETATM   34  C24 UNL     1       0.215  51.780 -21.004  1.00  0.00     0.291 C 
HETATM   35  C26 UNL     1       0.839  54.042 -21.432  1.00  0.00     0.181 C 
HETATM   36  O7  UNL     1      -0.310  50.688 -21.116  1.00  0.00    -0.260 OA
HETATM   37  O8  UNL     1       0.675  52.316 -19.837  1.00  0.00    -0.315 OA
HETATM   38  C25 UNL     1       1.387  53.518 -20.122  1.00  0.00     0.215 C 
BRANCH  35  39
HETATM   39  O9  UNL     1       1.817  54.753 -22.172  1.00  0.00    -0.389 OA
HETATM   40  H40 UNL     1       2.110  55.508 -21.636  1.00  0.00     0.210 HD
ENDBRANCH  35  39
ENDBRANCH  31  32
ENDBRANCH  13  31
TORSDOF 11
ENDMDL
