MODEL 1
REMARK minimizedAffinity -9.04614544
REMARK CNNscore 0.549621224
REMARK CNNaffinity 7.21560287
REMARK  13 active torsions:
REMARK  status: ('A' for Active; 'I' for Inactive)
REMARK    1  A    between atoms: C19_20  and  O2_21 
REMARK    2  A    between atoms: C19_20  and  C20_22 
REMARK    3  A    between atoms: C20_22  and  C21_24 
REMARK    4  A    between atoms: C21_24  and  O4_25 
REMARK    5  A    between atoms: O4_25  and  C22_26 
REMARK    6  A    between atoms: C22_26  and  C23_28 
REMARK    7  A    between atoms: C23_28  and  C24_29 
REMARK    8  A    between atoms: C24_29  and  C25_30 
REMARK       I    between atoms: C25_30  and  N1_32 
REMARK    9  A    between atoms: N1_32  and  C26_33 
REMARK   10  A    between atoms: C26_33  and  C27_34 
REMARK   11  A    between atoms: C26_33  and  C36_44 
REMARK   12  A    between atoms: C27_34  and  C28_35 
REMARK   13  A    between atoms: C36_44  and  O8_46 
ROOT
HETATM    1  C21 UNL     1       0.725   9.691  15.418  1.00  0.00     0.260 C 
ENDROOT
BRANCH   1   2
HETATM    2  C20 UNL     1       0.822   8.827  14.148  1.00  0.00     0.185 C 
HETATM    3  O3  UNL     1       1.513   9.240  13.206  1.00  0.00    -0.292 OA
BRANCH   2   4
HETATM    4  C19 UNL     1       0.164   7.410  14.105  1.00  0.00     0.128 C 
HETATM    5  C14 UNL     1      -1.278   7.387  13.488  1.00  0.00    -0.002 C 
HETATM    6  C13 UNL     1      -1.730   5.939  13.147  1.00  0.00     0.013 C 
HETATM    7  C15 UNL     1      -1.358   8.216  12.194  1.00  0.00     0.019 C 
HETATM    8  C16 UNL     1      -2.133   7.976  14.643  1.00  0.00     0.002 C 
HETATM    9  C12 UNL     1      -3.246   5.780  12.987  1.00  0.00     0.007 C 
HETATM   10  C11 UNL     1      -3.991   6.213  14.263  1.00  0.00     0.002 C 
HETATM   11  C2  UNL     1      -5.555   5.945  14.294  1.00  0.00    -0.016 C 
HETATM   12  C10 UNL     1      -3.653   7.691  14.600  1.00  0.00    -0.004 C 
HETATM   13  C1  UNL     1      -5.982   4.854  13.289  1.00  0.00     0.020 C 
HETATM   14  C3  UNL     1      -5.931   5.481  15.733  1.00  0.00     0.022 C 
HETATM   15  C7  UNL     1      -6.347   7.215  13.994  1.00  0.00    -0.068 C 
HETATM   16  C4  UNL     1      -7.435   5.356  15.965  1.00  0.00     0.084 C 
HETATM   17  C5  UNL     1      -8.173   6.599  15.535  1.00  0.00     0.149 C 
HETATM   18  O1  UNL     1      -9.301   6.862  15.947  1.00  0.00    -0.293 OA
HETATM   19  C6  UNL     1      -7.531   7.510  14.558  1.00  0.00     0.053 C 
HETATM   20  C8  UNL     1      -5.679   8.184  13.065  1.00  0.00     0.035 C 
HETATM   21  C9  UNL     1      -4.390   8.708  13.695  1.00  0.00     0.010 C 
HETATM   22  C17 UNL     1      -1.482   7.421  15.929  1.00  0.00     0.009 C 
HETATM   23  C18 UNL     1      -0.082   6.938  15.553  1.00  0.00     0.047 C 
BRANCH   4  24
HETATM   24  O2  UNL     1       1.005   6.450  13.479  1.00  0.00    -0.381 OA
HETATM   25  H27 UNL     1       1.819   6.404  14.022  1.00  0.00     0.211 HD
ENDBRANCH   4  24
ENDBRANCH   2   4
ENDBRANCH   1   2
BRANCH   1  26
HETATM   26  O4  UNL     1       1.461   9.444  16.603  1.00  0.00    -0.314 OA
BRANCH  26  27
HETATM   27  C22 UNL     1       2.740   9.899  16.595  1.00  0.00     0.259 C 
HETATM   28  O5  UNL     1       3.673   9.338  16.035  1.00  0.00    -0.265 OA
BRANCH  27  29
HETATM   29  C23 UNL     1       2.852  11.205  17.328  1.00  0.00     0.120 C 
BRANCH  29  30
HETATM   30  C24 UNL     1       2.096  11.148  18.646  1.00  0.00     0.112 C 
BRANCH  30  31
HETATM   31  C25 UNL     1       3.002  10.704  19.774  1.00  0.00     0.218 C 
HETATM   32  O6  UNL     1       4.218  10.852  19.759  1.00  0.00    -0.274 OA
HETATM   33  N1  UNL     1       2.321  10.112  20.817  1.00  0.00    -0.346 N 
HETATM   34  H34 UNL     1       1.339  10.350  20.895  1.00  0.00     0.163 HD
BRANCH  33  35
HETATM   35  C26 UNL     1       2.990   9.816  22.101  1.00  0.00     0.186 C 
BRANCH  35  36
HETATM   36  C27 UNL     1       3.088  11.025  23.047  1.00  0.00     0.077 C 
BRANCH  36  37
HETATM   37  C28 UNL     1       4.443  11.675  23.044  1.00  0.00    -0.028 A 
HETATM   38  C29 UNL     1       5.663  11.023  23.015  1.00  0.00     0.096 A 
HETATM   39  N2  UNL     1       6.656  11.966  23.000  1.00  0.00    -0.365 N 
HETATM   40  C30 UNL     1       6.115  13.229  23.017  1.00  0.00     0.042 A 
HETATM   41  H39 UNL     1       7.647  11.773  22.976  1.00  0.00     0.165 HD
HETATM   42  C31 UNL     1       6.745  14.481  23.006  1.00  0.00     0.030 A 
HETATM   43  C35 UNL     1       4.727  13.079  23.044  1.00  0.00    -0.002 A 
HETATM   44  C32 UNL     1       5.930  15.617  23.026  1.00  0.00     0.002 A 
HETATM   45  C33 UNL     1       4.543  15.503  23.053  1.00  0.00     0.001 A 
HETATM   46  C34 UNL     1       3.932  14.244  23.063  1.00  0.00     0.014 A 
ENDBRANCH  36  37
ENDBRANCH  35  36
BRANCH  35  47
HETATM   47  C36 UNL     1       2.345   8.595  22.777  1.00  0.00     0.163 C 
HETATM   48  O7  UNL     1       1.784   7.655  22.239  1.00  0.00    -0.648 OA
BRANCH  47  49
HETATM   49  O8  UNL     1       2.332   8.674  24.131  1.00  0.00    -0.775 OA
HETATM   50  H44 UNL     1       1.882   7.841  24.392  1.00  0.00     0.167 HD
ENDBRANCH  47  49
ENDBRANCH  35  47
ENDBRANCH  33  35
ENDBRANCH  30  31
ENDBRANCH  29  30
ENDBRANCH  27  29
ENDBRANCH  26  27
ENDBRANCH   1  26
TORSDOF 13
ENDMDL
MODEL 2
REMARK minimizedAffinity -9.25041485
REMARK CNNscore 0.475415677
REMARK CNNaffinity 7.40171003
REMARK  13 active torsions:
REMARK  status: ('A' for Active; 'I' for Inactive)
REMARK    1  A    between atoms: C19_20  and  O2_21 
REMARK    2  A    between atoms: C19_20  and  C20_22 
REMARK    3  A    between atoms: C20_22  and  C21_24 
REMARK    4  A    between atoms: C21_24  and  O4_25 
REMARK    5  A    between atoms: O4_25  and  C22_26 
REMARK    6  A    between atoms: C22_26  and  C23_28 
REMARK    7  A    between atoms: C23_28  and  C24_29 
REMARK    8  A    between atoms: C24_29  and  C25_30 
REMARK       I    between atoms: C25_30  and  N1_32 
REMARK    9  A    between atoms: N1_32  and  C26_33 
REMARK   10  A    between atoms: C26_33  and  C27_34 
REMARK   11  A    between atoms: C26_33  and  C36_44 
REMARK   12  A    between atoms: C27_34  and  C28_35 
REMARK   13  A    between atoms: C36_44  and  O8_46 
ROOT
HETATM    1  C21 UNL     1      -3.039   4.883  13.664  1.00  0.00     0.260 C 
ENDROOT
BRANCH   1   2
HETATM    2  C20 UNL     1      -4.526   5.231  13.853  1.00  0.00     0.185 C 
HETATM    3  O3  UNL     1      -5.362   4.644  13.151  1.00  0.00    -0.292 OA
BRANCH   2   4
HETATM    4  C19 UNL     1      -4.970   6.208  14.989  1.00  0.00     0.128 C 
HETATM    5  C14 UNL     1      -6.519   6.251  15.233  1.00  0.00    -0.002 C 
HETATM    6  C13 UNL     1      -6.865   6.947  16.579  1.00  0.00     0.013 C 
HETATM    7  C15 UNL     1      -7.131   4.839  15.269  1.00  0.00     0.019 C 
HETATM    8  C16 UNL     1      -7.013   7.098  14.029  1.00  0.00     0.002 C 
HETATM    9  C12 UNL     1      -8.315   7.438  16.673  1.00  0.00     0.007 C 
HETATM   10  C11 UNL     1      -8.645   8.425  15.538  1.00  0.00     0.002 C 
HETATM   11  C2  UNL     1     -10.062   9.137  15.610  1.00  0.00    -0.016 C 
HETATM   12  C10 UNL     1      -8.410   7.748  14.160  1.00  0.00    -0.004 C 
HETATM   13  C1  UNL     1     -10.651   9.124  17.037  1.00  0.00     0.020 C 
HETATM   14  C3  UNL     1      -9.876  10.615  15.154  1.00  0.00     0.022 C 
HETATM   15  C7  UNL     1     -11.067   8.482  14.666  1.00  0.00    -0.068 C 
HETATM   16  C4  UNL     1     -11.188  11.380  15.001  1.00  0.00     0.084 C 
HETATM   17  C5  UNL     1     -12.183  10.624  14.156  1.00  0.00     0.149 C 
HETATM   18  O1  UNL     1     -13.135  11.182  13.614  1.00  0.00    -0.293 OA
HETATM   19  C6  UNL     1     -12.025   9.158  14.008  1.00  0.00     0.053 C 
HETATM   20  C8  UNL     1     -10.876   7.012  14.445  1.00  0.00     0.035 C 
HETATM   21  C9  UNL     1      -9.532   6.755  13.767  1.00  0.00     0.010 C 
HETATM   22  C17 UNL     1      -5.907   8.155  13.819  1.00  0.00     0.009 C 
HETATM   23  C18 UNL     1      -4.660   7.652  14.545  1.00  0.00     0.047 C 
BRANCH   4  24
HETATM   24  O2  UNL     1      -4.267   5.971  16.201  1.00  0.00    -0.381 OA
HETATM   25  H27 UNL     1      -3.321   6.127  16.002  1.00  0.00     0.211 HD
ENDBRANCH   4  24
ENDBRANCH   2   4
ENDBRANCH   1   2
BRANCH   1  26
HETATM   26  O4  UNL     1      -2.246   5.350  12.586  1.00  0.00    -0.314 OA
BRANCH  26  27
HETATM   27  C22 UNL     1      -0.905   5.305  12.793  1.00  0.00     0.259 C 
HETATM   28  O5  UNL     1      -0.239   4.277  12.816  1.00  0.00    -0.265 OA
BRANCH  27  29
HETATM   29  C23 UNL     1      -0.336   6.686  12.947  1.00  0.00     0.120 C 
BRANCH  29  30
HETATM   30  C24 UNL     1       1.045   6.630  13.580  1.00  0.00     0.112 C 
BRANCH  30  31
HETATM   31  C25 UNL     1       1.966   7.664  12.969  1.00  0.00     0.218 C 
HETATM   32  O6  UNL     1       1.570   8.590  12.272  1.00  0.00    -0.274 OA
HETATM   33  N1  UNL     1       3.296   7.453  13.272  1.00  0.00    -0.346 N 
HETATM   34  H34 UNL     1       3.477   6.906  14.105  1.00  0.00     0.163 HD
BRANCH  33  35
HETATM   35  C26 UNL     1       4.323   8.469  12.962  1.00  0.00     0.186 C 
BRANCH  35  36
HETATM   36  C27 UNL     1       4.546   8.692  11.456  1.00  0.00     0.077 C 
BRANCH  36  37
HETATM   37  C28 UNL     1       4.287   7.464  10.627  1.00  0.00    -0.028 A 
HETATM   38  C29 UNL     1       4.738   6.185  10.897  1.00  0.00     0.096 A 
HETATM   39  N2  UNL     1       4.272   5.348   9.920  1.00  0.00    -0.365 N 
HETATM   40  C30 UNL     1       3.519   6.049   9.010  1.00  0.00     0.042 A 
HETATM   41  H39 UNL     1       4.447   4.355   9.867  1.00  0.00     0.165 HD
HETATM   42  C31 UNL     1       2.849   5.607   7.861  1.00  0.00     0.030 A 
HETATM   43  C35 UNL     1       3.509   7.382   9.427  1.00  0.00    -0.002 A 
HETATM   44  C32 UNL     1       2.147   6.557   7.113  1.00  0.00     0.002 A 
HETATM   45  C33 UNL     1       2.117   7.894   7.502  1.00  0.00     0.001 A 
HETATM   46  C34 UNL     1       2.792   8.317   8.652  1.00  0.00     0.014 A 
ENDBRANCH  36  37
ENDBRANCH  35  36
BRANCH  35  47
HETATM   47  C36 UNL     1       4.030   9.779  13.709  1.00  0.00     0.163 C 
HETATM   48  O7  UNL     1       3.487  10.781  13.273  1.00  0.00    -0.648 OA
BRANCH  47  49
HETATM   49  O8  UNL     1       4.549   9.812  14.962  1.00  0.00    -0.775 OA
HETATM   50  H44 UNL     1       4.287  10.703  15.281  1.00  0.00     0.167 HD
ENDBRANCH  47  49
ENDBRANCH  35  47
ENDBRANCH  33  35
ENDBRANCH  30  31
ENDBRANCH  29  30
ENDBRANCH  27  29
ENDBRANCH  26  27
ENDBRANCH   1  26
TORSDOF 13
ENDMDL
MODEL 3
REMARK minimizedAffinity -9.95749283
REMARK CNNscore 0.454261303
REMARK CNNaffinity 7.51257515
REMARK  13 active torsions:
REMARK  status: ('A' for Active; 'I' for Inactive)
REMARK    1  A    between atoms: C19_20  and  O2_21 
REMARK    2  A    between atoms: C19_20  and  C20_22 
REMARK    3  A    between atoms: C20_22  and  C21_24 
REMARK    4  A    between atoms: C21_24  and  O4_25 
REMARK    5  A    between atoms: O4_25  and  C22_26 
REMARK    6  A    between atoms: C22_26  and  C23_28 
REMARK    7  A    between atoms: C23_28  and  C24_29 
REMARK    8  A    between atoms: C24_29  and  C25_30 
REMARK       I    between atoms: C25_30  and  N1_32 
REMARK    9  A    between atoms: N1_32  and  C26_33 
REMARK   10  A    between atoms: C26_33  and  C27_34 
REMARK   11  A    between atoms: C26_33  and  C36_44 
REMARK   12  A    between atoms: C27_34  and  C28_35 
REMARK   13  A    between atoms: C36_44  and  O8_46 
ROOT
HETATM    1  C21 UNL     1      -0.272   7.250  11.292  1.00  0.00     0.260 C 
ENDROOT
BRANCH   1   2
HETATM    2  C20 UNL     1      -1.062   6.302  12.213  1.00  0.00     0.185 C 
HETATM    3  O3  UNL     1      -1.139   5.106  11.900  1.00  0.00    -0.292 OA
BRANCH   2   4
HETATM    4  C19 UNL     1      -1.641   6.820  13.569  1.00  0.00     0.128 C 
HETATM    5  C14 UNL     1      -3.015   6.179  13.970  1.00  0.00    -0.002 C 
HETATM    6  C13 UNL     1      -3.360   6.454  15.461  1.00  0.00     0.013 C 
HETATM    7  C15 UNL     1      -3.013   4.654  13.767  1.00  0.00     0.019 C 
HETATM    8  C16 UNL     1      -4.004   6.918  13.028  1.00  0.00     0.002 C 
HETATM    9  C12 UNL     1      -4.844   6.278  15.801  1.00  0.00     0.007 C 
HETATM   10  C11 UNL     1      -5.728   7.200  14.940  1.00  0.00     0.002 C 
HETATM   11  C2  UNL     1      -7.272   7.240  15.303  1.00  0.00    -0.016 C 
HETATM   12  C10 UNL     1      -5.497   6.901  13.433  1.00  0.00    -0.004 C 
HETATM   13  C1  UNL     1      -7.547   6.765  16.746  1.00  0.00     0.020 C 
HETATM   14  C3  UNL     1      -7.760   8.712  15.154  1.00  0.00     0.022 C 
HETATM   15  C7  UNL     1      -8.095   6.379  14.346  1.00  0.00    -0.068 C 
HETATM   16  C4  UNL     1      -9.270   8.877  15.298  1.00  0.00     0.084 C 
HETATM   17  C5  UNL     1     -10.026   7.915  14.416  1.00  0.00     0.149 C 
HETATM   18  O1  UNL     1     -11.200   8.103  14.102  1.00  0.00    -0.293 OA
HETATM   19  C6  UNL     1      -9.340   6.688  13.945  1.00  0.00     0.053 C 
HETATM   20  C8  UNL     1      -7.391   5.173  13.800  1.00  0.00     0.035 C 
HETATM   21  C9  UNL     1      -6.196   5.605  12.953  1.00  0.00     0.010 C 
HETATM   22  C17 UNL     1      -3.451   8.357  12.938  1.00  0.00     0.009 C 
HETATM   23  C18 UNL     1      -2.000   8.313  13.413  1.00  0.00     0.047 C 
BRANCH   4  24
HETATM   24  O2  UNL     1      -0.698   6.715  14.627  1.00  0.00    -0.381 OA
HETATM   25  H27 UNL     1       0.062   7.278  14.373  1.00  0.00     0.211 HD
ENDBRANCH   4  24
ENDBRANCH   2   4
ENDBRANCH   1   2
BRANCH   1  26
HETATM   26  O4  UNL     1       0.377   6.840  10.101  1.00  0.00    -0.314 OA
BRANCH  26  27
HETATM   27  C22 UNL     1       0.716   7.844   9.253  1.00  0.00     0.259 C 
HETATM   28  O5  UNL     1       0.054   8.860   9.079  1.00  0.00    -0.265 OA
BRANCH  27  29
HETATM   29  C23 UNL     1       2.032   7.565   8.587  1.00  0.00     0.120 C 
BRANCH  29  30
HETATM   30  C24 UNL     1       2.656   6.294   9.141  1.00  0.00     0.112 C 
BRANCH  30  31
HETATM   31  C25 UNL     1       3.828   6.610  10.044  1.00  0.00     0.218 C 
HETATM   32  O6  UNL     1       4.907   6.036   9.972  1.00  0.00    -0.274 OA
HETATM   33  N1  UNL     1       3.555   7.606  10.959  1.00  0.00    -0.346 N 
HETATM   34  H34 UNL     1       2.799   8.235  10.715  1.00  0.00     0.163 HD
BRANCH  33  35
HETATM   35  C26 UNL     1       4.627   8.214  11.775  1.00  0.00     0.186 C 
BRANCH  35  36
HETATM   36  C27 UNL     1       5.657   7.201  12.305  1.00  0.00     0.077 C 
BRANCH  36  37
HETATM   37  C28 UNL     1       6.182   7.546  13.671  1.00  0.00    -0.028 A 
HETATM   38  C29 UNL     1       5.433   7.670  14.827  1.00  0.00     0.096 A 
HETATM   39  N2  UNL     1       6.280   7.971  15.860  1.00  0.00    -0.365 N 
HETATM   40  C30 UNL     1       7.575   8.045  15.408  1.00  0.00     0.042 A 
HETATM   41  H39 UNL     1       6.004   8.115  16.820  1.00  0.00     0.165 HD
HETATM   42  C31 UNL     1       8.760   8.320  16.105  1.00  0.00     0.030 A 
HETATM   43  C35 UNL     1       7.546   7.783  14.037  1.00  0.00    -0.002 A 
HETATM   44  C32 UNL     1       9.954   8.327  15.377  1.00  0.00     0.002 A 
HETATM   45  C33 UNL     1       9.960   8.070  14.009  1.00  0.00     0.001 A 
HETATM   46  C34 UNL     1       8.767   7.797  13.330  1.00  0.00     0.014 A 
ENDBRANCH  36  37
ENDBRANCH  35  36
BRANCH  35  47
HETATM   47  C36 UNL     1       5.287   9.377  11.018  1.00  0.00     0.163 C 
HETATM   48  O7  UNL     1       5.329   9.554   9.812  1.00  0.00    -0.648 OA
BRANCH  47  49
HETATM   49  O8  UNL     1       5.978  10.221  11.825  1.00  0.00    -0.775 OA
HETATM   50  H44 UNL     1       6.338  10.879  11.191  1.00  0.00     0.167 HD
ENDBRANCH  47  49
ENDBRANCH  35  47
ENDBRANCH  33  35
ENDBRANCH  30  31
ENDBRANCH  29  30
ENDBRANCH  27  29
ENDBRANCH  26  27
ENDBRANCH   1  26
TORSDOF 13
ENDMDL
MODEL 4
REMARK minimizedAffinity -9.84526825
REMARK CNNscore 0.447311282
REMARK CNNaffinity 7.46516275
REMARK  13 active torsions:
REMARK  status: ('A' for Active; 'I' for Inactive)
REMARK    1  A    between atoms: C19_20  and  O2_21 
REMARK    2  A    between atoms: C19_20  and  C20_22 
REMARK    3  A    between atoms: C20_22  and  C21_24 
REMARK    4  A    between atoms: C21_24  and  O4_25 
REMARK    5  A    between atoms: O4_25  and  C22_26 
REMARK    6  A    between atoms: C22_26  and  C23_28 
REMARK    7  A    between atoms: C23_28  and  C24_29 
REMARK    8  A    between atoms: C24_29  and  C25_30 
REMARK       I    between atoms: C25_30  and  N1_32 
REMARK    9  A    between atoms: N1_32  and  C26_33 
REMARK   10  A    between atoms: C26_33  and  C27_34 
REMARK   11  A    between atoms: C26_33  and  C36_44 
REMARK   12  A    between atoms: C27_34  and  C28_35 
REMARK   13  A    between atoms: C36_44  and  O8_46 
ROOT
HETATM    1  C21 UNL     1       0.013   6.375  11.756  1.00  0.00     0.260 C 
ENDROOT
BRANCH   1   2
HETATM    2  C20 UNL     1      -1.389   6.008  12.275  1.00  0.00     0.185 C 
HETATM    3  O3  UNL     1      -2.030   5.134  11.673  1.00  0.00    -0.292 OA
BRANCH   2   4
HETATM    4  C19 UNL     1      -1.931   6.636  13.599  1.00  0.00     0.128 C 
HETATM    5  C14 UNL     1      -3.324   6.078  14.055  1.00  0.00    -0.002 C 
HETATM    6  C13 UNL     1      -3.638   6.464  15.528  1.00  0.00     0.013 C 
HETATM    7  C15 UNL     1      -3.384   4.544  13.954  1.00  0.00     0.019 C 
HETATM    8  C16 UNL     1      -4.295   6.792  13.077  1.00  0.00     0.002 C 
HETATM    9  C12 UNL     1      -5.124   6.370  15.894  1.00  0.00     0.007 C 
HETATM   10  C11 UNL     1      -5.982   7.268  14.983  1.00  0.00     0.002 C 
HETATM   11  C2  UNL     1      -7.519   7.393  15.357  1.00  0.00    -0.016 C 
HETATM   12  C10 UNL     1      -5.782   6.861  13.497  1.00  0.00    -0.004 C 
HETATM   13  C1  UNL     1      -7.793   7.025  16.832  1.00  0.00     0.020 C 
HETATM   14  C3  UNL     1      -7.950   8.870  15.116  1.00  0.00     0.022 C 
HETATM   15  C7  UNL     1      -8.386   6.505  14.469  1.00  0.00    -0.068 C 
HETATM   16  C4  UNL     1      -9.451   9.104  15.265  1.00  0.00     0.084 C 
HETATM   17  C5  UNL     1     -10.255   8.117  14.456  1.00  0.00     0.149 C 
HETATM   18  O1  UNL     1     -11.424   8.330  14.142  1.00  0.00    -0.293 OA
HETATM   19  C6  UNL     1      -9.623   6.836  14.061  1.00  0.00     0.053 C 
HETATM   20  C8  UNL     1      -7.737   5.238  13.997  1.00  0.00     0.035 C 
HETATM   21  C9  UNL     1      -6.537   5.566  13.111  1.00  0.00     0.010 C 
HETATM   22  C17 UNL     1      -3.688   8.199  12.886  1.00  0.00     0.009 C 
HETATM   23  C18 UNL     1      -2.233   8.128  13.348  1.00  0.00     0.047 C 
BRANCH   4  24
HETATM   24  O2  UNL     1      -0.979   6.564  14.652  1.00  0.00    -0.381 OA
HETATM   25  H27 UNL     1      -0.201   7.078  14.353  1.00  0.00     0.211 HD
ENDBRANCH   4  24
ENDBRANCH   2   4
ENDBRANCH   1   2
BRANCH   1  26
HETATM   26  O4  UNL     1       0.962   7.123  12.496  1.00  0.00    -0.314 OA
BRANCH  26  27
HETATM   27  C22 UNL     1       1.108   8.416  12.108  1.00  0.00     0.259 C 
HETATM   28  O5  UNL     1       0.961   8.818  10.961  1.00  0.00    -0.265 OA
BRANCH  27  29
HETATM   29  C23 UNL     1       1.431   9.297  13.281  1.00  0.00     0.120 C 
BRANCH  29  30
HETATM   30  C24 UNL     1       2.366   8.585  14.245  1.00  0.00     0.112 C 
BRANCH  30  31
HETATM   31  C25 UNL     1       3.796   9.043  14.056  1.00  0.00     0.218 C 
HETATM   32  O6  UNL     1       4.644   8.986  14.938  1.00  0.00    -0.274 OA
HETATM   33  N1  UNL     1       4.046   9.536  12.791  1.00  0.00    -0.346 N 
HETATM   34  H34 UNL     1       3.414   9.223  12.063  1.00  0.00     0.163 HD
BRANCH  33  35
HETATM   35  C26 UNL     1       5.422   9.822  12.337  1.00  0.00     0.186 C 
BRANCH  35  36
HETATM   36  C27 UNL     1       5.737   9.293  10.927  1.00  0.00     0.077 C 
BRANCH  36  37
HETATM   37  C28 UNL     1       5.003   8.025  10.590  1.00  0.00    -0.028 A 
HETATM   38  C29 UNL     1       5.120   6.813  11.246  1.00  0.00     0.096 A 
HETATM   39  N2  UNL     1       4.273   5.917  10.651  1.00  0.00    -0.365 N 
HETATM   40  C30 UNL     1       3.597   6.514   9.615  1.00  0.00     0.042 A 
HETATM   41  H39 UNL     1       4.151   4.954  10.928  1.00  0.00     0.165 HD
HETATM   42  C31 UNL     1       2.637   5.988   8.740  1.00  0.00     0.030 A 
HETATM   43  C35 UNL     1       4.033   7.840   9.552  1.00  0.00    -0.002 A 
HETATM   44  C32 UNL     1       2.108   6.842   7.767  1.00  0.00     0.002 A 
HETATM   45  C33 UNL     1       2.522   8.168   7.677  1.00  0.00     0.001 A 
HETATM   46  C34 UNL     1       3.481   8.677   8.560  1.00  0.00     0.014 A 
ENDBRANCH  36  37
ENDBRANCH  35  36
BRANCH  35  47
HETATM   47  C36 UNL     1       5.739  11.319  12.483  1.00  0.00     0.163 C 
HETATM   48  O7  UNL     1       5.763  12.165  11.605  1.00  0.00    -0.648 OA
BRANCH  47  49
HETATM   49  O8  UNL     1       6.132  11.667  13.734  1.00  0.00    -0.775 OA
HETATM   50  H44 UNL     1       6.304  12.630  13.647  1.00  0.00     0.167 HD
ENDBRANCH  47  49
ENDBRANCH  35  47
ENDBRANCH  33  35
ENDBRANCH  30  31
ENDBRANCH  29  30
ENDBRANCH  27  29
ENDBRANCH  26  27
ENDBRANCH   1  26
TORSDOF 13
ENDMDL
MODEL 5
REMARK minimizedAffinity -8.75722599
REMARK CNNscore 0.372714639
REMARK CNNaffinity 7.42355394
REMARK  13 active torsions:
REMARK  status: ('A' for Active; 'I' for Inactive)
REMARK    1  A    between atoms: C19_20  and  O2_21 
REMARK    2  A    between atoms: C19_20  and  C20_22 
REMARK    3  A    between atoms: C20_22  and  C21_24 
REMARK    4  A    between atoms: C21_24  and  O4_25 
REMARK    5  A    between atoms: O4_25  and  C22_26 
REMARK    6  A    between atoms: C22_26  and  C23_28 
REMARK    7  A    between atoms: C23_28  and  C24_29 
REMARK    8  A    between atoms: C24_29  and  C25_30 
REMARK       I    between atoms: C25_30  and  N1_32 
REMARK    9  A    between atoms: N1_32  and  C26_33 
REMARK   10  A    between atoms: C26_33  and  C27_34 
REMARK   11  A    between atoms: C26_33  and  C36_44 
REMARK   12  A    between atoms: C27_34  and  C28_35 
REMARK   13  A    between atoms: C36_44  and  O8_46 
ROOT
HETATM    1  C21 UNL     1      -3.513   4.610  13.443  1.00  0.00     0.260 C 
ENDROOT
BRANCH   1   2
HETATM    2  C20 UNL     1      -4.965   5.051  13.702  1.00  0.00     0.185 C 
HETATM    3  O3  UNL     1      -5.869   4.511  13.049  1.00  0.00    -0.292 OA
BRANCH   2   4
HETATM    4  C19 UNL     1      -5.291   6.064  14.846  1.00  0.00     0.128 C 
HETATM    5  C14 UNL     1      -6.817   6.184  15.185  1.00  0.00    -0.002 C 
HETATM    6  C13 UNL     1      -7.045   6.915  16.538  1.00  0.00     0.013 C 
HETATM    7  C15 UNL     1      -7.490   4.804  15.284  1.00  0.00     0.019 C 
HETATM    8  C16 UNL     1      -7.346   7.037  14.000  1.00  0.00     0.002 C 
HETATM    9  C12 UNL     1      -8.461   7.475  16.715  1.00  0.00     0.007 C 
HETATM   10  C11 UNL     1      -8.816   8.462  15.586  1.00  0.00     0.002 C 
HETATM   11  C2  UNL     1     -10.190   9.241  15.734  1.00  0.00    -0.016 C 
HETATM   12  C10 UNL     1      -8.700   7.755  14.208  1.00  0.00    -0.004 C 
HETATM   13  C1  UNL     1     -10.689   9.276  17.195  1.00  0.00     0.020 C 
HETATM   14  C3  UNL     1      -9.965  10.702  15.242  1.00  0.00     0.022 C 
HETATM   15  C7  UNL     1     -11.283   8.622  14.866  1.00  0.00    -0.068 C 
HETATM   16  C4  UNL     1     -11.247  11.527  15.158  1.00  0.00     0.084 C 
HETATM   17  C5  UNL     1     -12.327  10.807  14.390  1.00  0.00     0.149 C 
HETATM   18  O1  UNL     1     -13.285  11.402  13.899  1.00  0.00    -0.293 OA
HETATM   19  C6  UNL     1     -12.247   9.333  14.257  1.00  0.00     0.053 C 
HETATM   20  C8  UNL     1     -11.175   7.141  14.658  1.00  0.00     0.035 C 
HETATM   21  C9  UNL     1      -9.889   6.811  13.902  1.00  0.00     0.010 C 
HETATM   22  C17 UNL     1      -6.207   8.037  13.704  1.00  0.00     0.009 C 
HETATM   23  C18 UNL     1      -4.942   7.486  14.359  1.00  0.00     0.047 C 
BRANCH   4  24
HETATM   24  O2  UNL     1      -4.524   5.811  16.016  1.00  0.00    -0.381 OA
HETATM   25  H27 UNL     1      -3.586   5.919  15.756  1.00  0.00     0.211 HD
ENDBRANCH   4  24
ENDBRANCH   2   4
ENDBRANCH   1   2
BRANCH   1  26
HETATM   26  O4  UNL     1      -3.145   3.578  12.545  1.00  0.00    -0.314 OA
BRANCH  26  27
HETATM   27  C22 UNL     1      -2.463   3.985  11.444  1.00  0.00     0.259 C 
HETATM   28  O5  UNL     1      -2.680   3.587  10.306  1.00  0.00    -0.265 OA
BRANCH  27  29
HETATM   29  C23 UNL     1      -1.435   5.021  11.799  1.00  0.00     0.120 C 
BRANCH  29  30
HETATM   30  C24 UNL     1      -0.213   4.370  12.427  1.00  0.00     0.112 C 
BRANCH  30  31
HETATM   31  C25 UNL     1       0.940   5.347  12.512  1.00  0.00     0.218 C 
HETATM   32  O6  UNL     1       1.895   5.330  11.746  1.00  0.00    -0.274 OA
HETATM   33  N1  UNL     1       0.809   6.253  13.545  1.00  0.00    -0.346 N 
HETATM   34  H34 UNL     1      -0.135   6.409  13.878  1.00  0.00     0.163 HD
BRANCH  33  35
HETATM   35  C26 UNL     1       1.707   7.421  13.659  1.00  0.00     0.186 C 
BRANCH  35  36
HETATM   36  C27 UNL     1       1.125   8.716  13.067  1.00  0.00     0.077 C 
BRANCH  36  37
HETATM   37  C28 UNL     1       0.724   8.584  11.624  1.00  0.00    -0.028 A 
HETATM   38  C29 UNL     1      -0.561   8.668  11.122  1.00  0.00     0.096 A 
HETATM   39  N2  UNL     1      -0.504   8.516   9.762  1.00  0.00    -0.365 N 
HETATM   40  C30 UNL     1       0.796   8.335   9.356  1.00  0.00     0.042 A 
HETATM   41  H39 UNL     1      -1.296   8.536   9.136  1.00  0.00     0.165 HD
HETATM   42  C31 UNL     1       1.323   8.146   8.071  1.00  0.00     0.030 A 
HETATM   43  C35 UNL     1       1.592   8.373  10.504  1.00  0.00    -0.002 A 
HETATM   44  C32 UNL     1       2.708   7.989   7.955  1.00  0.00     0.002 A 
HETATM   45  C33 UNL     1       3.529   8.022   9.079  1.00  0.00     0.001 A 
HETATM   46  C34 UNL     1       2.985   8.212  10.354  1.00  0.00     0.014 A 
ENDBRANCH  36  37
ENDBRANCH  35  36
BRANCH  35  47
HETATM   47  C36 UNL     1       2.175   7.601  15.112  1.00  0.00     0.163 C 
HETATM   48  O7  UNL     1       3.063   6.995  15.690  1.00  0.00    -0.648 OA
BRANCH  47  49
HETATM   49  O8  UNL     1       1.412   8.470  15.820  1.00  0.00    -0.775 OA
HETATM   50  H44 UNL     1       1.832   8.454  16.708  1.00  0.00     0.167 HD
ENDBRANCH  47  49
ENDBRANCH  35  47
ENDBRANCH  33  35
ENDBRANCH  30  31
ENDBRANCH  29  30
ENDBRANCH  27  29
ENDBRANCH  26  27
ENDBRANCH   1  26
TORSDOF 13
ENDMDL
MODEL 6
REMARK minimizedAffinity -9.21274757
REMARK CNNscore 0.360246539
REMARK CNNaffinity 7.02777815
REMARK  13 active torsions:
REMARK  status: ('A' for Active; 'I' for Inactive)
REMARK    1  A    between atoms: C19_20  and  O2_21 
REMARK    2  A    between atoms: C19_20  and  C20_22 
REMARK    3  A    between atoms: C20_22  and  C21_24 
REMARK    4  A    between atoms: C21_24  and  O4_25 
REMARK    5  A    between atoms: O4_25  and  C22_26 
REMARK    6  A    between atoms: C22_26  and  C23_28 
REMARK    7  A    between atoms: C23_28  and  C24_29 
REMARK    8  A    between atoms: C24_29  and  C25_30 
REMARK       I    between atoms: C25_30  and  N1_32 
REMARK    9  A    between atoms: N1_32  and  C26_33 
REMARK   10  A    between atoms: C26_33  and  C27_34 
REMARK   11  A    between atoms: C26_33  and  C36_44 
REMARK   12  A    between atoms: C27_34  and  C28_35 
REMARK   13  A    between atoms: C36_44  and  O8_46 
ROOT
HETATM    1  C21 UNL     1       2.446   9.107  13.361  1.00  0.00     0.260 C 
ENDROOT
BRANCH   1   2
HETATM    2  C20 UNL     1       1.112   8.914  14.106  1.00  0.00     0.185 C 
HETATM    3  O3  UNL     1       0.543   9.915  14.563  1.00  0.00    -0.292 OA
BRANCH   2   4
HETATM    4  C19 UNL     1       0.441   7.504  14.169  1.00  0.00     0.128 C 
HETATM    5  C14 UNL     1      -1.001   7.449  13.555  1.00  0.00    -0.002 C 
HETATM    6  C13 UNL     1      -1.467   5.984  13.323  1.00  0.00     0.013 C 
HETATM    7  C15 UNL     1      -1.073   8.179  12.202  1.00  0.00     0.019 C 
HETATM    8  C16 UNL     1      -1.851   8.132  14.661  1.00  0.00     0.002 C 
HETATM    9  C12 UNL     1      -2.985   5.828  13.174  1.00  0.00     0.007 C 
HETATM   10  C11 UNL     1      -3.726   6.363  14.413  1.00  0.00     0.002 C 
HETATM   11  C2  UNL     1      -5.293   6.114  14.463  1.00  0.00    -0.016 C 
HETATM   12  C10 UNL     1      -3.374   7.859  14.638  1.00  0.00    -0.004 C 
HETATM   13  C1  UNL     1      -5.730   4.955  13.542  1.00  0.00     0.020 C 
HETATM   14  C3  UNL     1      -5.674   5.764  15.932  1.00  0.00     0.022 C 
HETATM   15  C7  UNL     1      -6.072   7.365  14.067  1.00  0.00    -0.068 C 
HETATM   16  C4  UNL     1      -7.179   5.671  16.171  1.00  0.00     0.084 C 
HETATM   17  C5  UNL     1      -7.905   6.885  15.649  1.00  0.00     0.149 C 
HETATM   18  O1  UNL     1      -9.030   7.189  16.039  1.00  0.00    -0.293 OA
HETATM   19  C6  UNL     1      -7.253   7.713  14.606  1.00  0.00     0.053 C 
HETATM   20  C8  UNL     1      -5.394   8.255  13.068  1.00  0.00     0.035 C 
HETATM   21  C9  UNL     1      -4.101   8.813  13.659  1.00  0.00     0.010 C 
HETATM   22  C17 UNL     1      -1.206   7.669  15.986  1.00  0.00     0.009 C 
HETATM   23  C18 UNL     1       0.189   7.145  15.649  1.00  0.00     0.047 C 
BRANCH   4  24
HETATM   24  O2  UNL     1       1.272   6.492  13.618  1.00  0.00    -0.381 OA
HETATM   25  H27 UNL     1       2.085   6.479  14.164  1.00  0.00     0.211 HD
ENDBRANCH   4  24
ENDBRANCH   2   4
ENDBRANCH   1   2
BRANCH   1  26
HETATM   26  O4  UNL     1       3.158  10.331  13.315  1.00  0.00    -0.314 OA
BRANCH  26  27
HETATM   27  C22 UNL     1       4.042  10.524  14.328  1.00  0.00     0.259 C 
HETATM   28  O5  UNL     1       3.744  10.544  15.515  1.00  0.00    -0.265 OA
BRANCH  27  29
HETATM   29  C23 UNL     1       5.442  10.665  13.802  1.00  0.00     0.120 C 
BRANCH  29  30
HETATM   30  C24 UNL     1       6.364   9.644  14.449  1.00  0.00     0.112 C 
BRANCH  30  31
HETATM   31  C25 UNL     1       5.989   8.236  14.041  1.00  0.00     0.218 C 
HETATM   32  O6  UNL     1       5.561   7.399  14.827  1.00  0.00    -0.274 OA
HETATM   33  N1  UNL     1       6.184   7.989  12.698  1.00  0.00    -0.346 N 
HETATM   34  H34 UNL     1       6.195   8.805  12.097  1.00  0.00     0.163 HD
BRANCH  33  35
HETATM   35  C26 UNL     1       5.671   6.758  12.062  1.00  0.00     0.186 C 
BRANCH  35  36
HETATM   36  C27 UNL     1       4.175   6.814  11.709  1.00  0.00     0.077 C 
BRANCH  36  37
HETATM   37  C28 UNL     1       3.847   6.153  10.399  1.00  0.00    -0.028 A 
HETATM   38  C29 UNL     1       4.077   4.830  10.070  1.00  0.00     0.096 A 
HETATM   39  N2  UNL     1       3.619   4.615   8.798  1.00  0.00    -0.365 N 
HETATM   40  C30 UNL     1       3.089   5.771   8.280  1.00  0.00     0.042 A 
HETATM   41  H39 UNL     1       3.657   3.736   8.302  1.00  0.00     0.165 HD
HETATM   42  C31 UNL     1       2.507   6.017   7.029  1.00  0.00     0.030 A 
HETATM   43  C35 UNL     1       3.217   6.756   9.262  1.00  0.00    -0.002 A 
HETATM   44  C32 UNL     1       2.042   7.311   6.771  1.00  0.00     0.002 A 
HETATM   45  C33 UNL     1       2.155   8.315   7.729  1.00  0.00     0.001 A 
HETATM   46  C34 UNL     1       2.739   8.051   8.974  1.00  0.00     0.014 A 
ENDBRANCH  36  37
ENDBRANCH  35  36
BRANCH  35  47
HETATM   47  C36 UNL     1       6.542   6.372  10.855  1.00  0.00     0.163 C 
HETATM   48  O7  UNL     1       6.908   5.255  10.527  1.00  0.00    -0.648 OA
BRANCH  47  49
HETATM   49  O8  UNL     1       7.019   7.441  10.171  1.00  0.00    -0.775 OA
HETATM   50  H44 UNL     1       7.553   7.022   9.461  1.00  0.00     0.167 HD
ENDBRANCH  47  49
ENDBRANCH  35  47
ENDBRANCH  33  35
ENDBRANCH  30  31
ENDBRANCH  29  30
ENDBRANCH  27  29
ENDBRANCH  26  27
ENDBRANCH   1  26
TORSDOF 13
ENDMDL
MODEL 7
REMARK minimizedAffinity -9.22220898
REMARK CNNscore 0.346052229
REMARK CNNaffinity 6.7273612
REMARK  13 active torsions:
REMARK  status: ('A' for Active; 'I' for Inactive)
REMARK    1  A    between atoms: C19_20  and  O2_21 
REMARK    2  A    between atoms: C19_20  and  C20_22 
REMARK    3  A    between atoms: C20_22  and  C21_24 
REMARK    4  A    between atoms: C21_24  and  O4_25 
REMARK    5  A    between atoms: O4_25  and  C22_26 
REMARK    6  A    between atoms: C22_26  and  C23_28 
REMARK    7  A    between atoms: C23_28  and  C24_29 
REMARK    8  A    between atoms: C24_29  and  C25_30 
REMARK       I    between atoms: C25_30  and  N1_32 
REMARK    9  A    between atoms: N1_32  and  C26_33 
REMARK   10  A    between atoms: C26_33  and  C27_34 
REMARK   11  A    between atoms: C26_33  and  C36_44 
REMARK   12  A    between atoms: C27_34  and  C28_35 
REMARK   13  A    between atoms: C36_44  and  O8_46 
ROOT
HETATM    1  C21 UNL     1      -1.003  11.188  17.482  1.00  0.00     0.260 C 
ENDROOT
BRANCH   1   2
HETATM    2  C20 UNL     1      -0.242   9.903  17.113  1.00  0.00     0.185 C 
HETATM    3  O3  UNL     1       0.816   9.653  17.708  1.00  0.00    -0.292 OA
BRANCH   2   4
HETATM    4  C19 UNL     1      -0.858   8.883  16.102  1.00  0.00     0.128 C 
HETATM    5  C14 UNL     1       0.190   8.201  15.154  1.00  0.00    -0.002 C 
HETATM    6  C13 UNL     1      -0.414   6.963  14.434  1.00  0.00     0.013 C 
HETATM    7  C15 UNL     1       1.434   7.729  15.926  1.00  0.00     0.019 C 
HETATM    8  C16 UNL     1       0.496   9.336  14.140  1.00  0.00     0.002 C 
HETATM    9  C12 UNL     1       0.358   6.532  13.181  1.00  0.00     0.007 C 
HETATM   10  C11 UNL     1       0.438   7.677  12.153  1.00  0.00     0.002 C 
HETATM   11  C2  UNL     1       1.067   7.317  10.742  1.00  0.00    -0.016 C 
HETATM   12  C10 UNL     1       1.125   8.915  12.791  1.00  0.00    -0.004 C 
HETATM   13  C1  UNL     1       1.020   5.802  10.450  1.00  0.00     0.020 C 
HETATM   14  C3  UNL     1       0.249   8.068   9.649  1.00  0.00     0.022 C 
HETATM   15  C7  UNL     1       2.517   7.784  10.639  1.00  0.00    -0.068 C 
HETATM   16  C4  UNL     1       0.848   7.959   8.249  1.00  0.00     0.084 C 
HETATM   17  C5  UNL     1       2.313   8.318   8.238  1.00  0.00     0.149 C 
HETATM   18  O1  UNL     1       2.896   8.644   7.205  1.00  0.00    -0.293 OA
HETATM   19  C6  UNL     1       3.078   8.238   9.504  1.00  0.00     0.053 C 
HETATM   20  C8  UNL     1       3.286   7.781  11.926  1.00  0.00     0.035 C 
HETATM   21  C9  UNL     1       2.662   8.770  12.909  1.00  0.00     0.010 C 
HETATM   22  C17 UNL     1      -0.857  10.054  13.942  1.00  0.00     0.009 C 
HETATM   23  C18 UNL     1      -1.755   9.653  15.111  1.00  0.00     0.047 C 
BRANCH   4  24
HETATM   24  O2  UNL     1      -1.670   7.913  16.750  1.00  0.00    -0.381 OA
HETATM   25  H27 UNL     1      -2.396   8.409  17.181  1.00  0.00     0.211 HD
ENDBRANCH   4  24
ENDBRANCH   2   4
ENDBRANCH   1   2
BRANCH   1  26
HETATM   26  O4  UNL     1      -0.769  11.938  18.662  1.00  0.00    -0.314 OA
BRANCH  26  27
HETATM   27  C22 UNL     1       0.370  12.678  18.659  1.00  0.00     0.259 C 
HETATM   28  O5  UNL     1       0.659  13.505  17.803  1.00  0.00    -0.265 OA
BRANCH  27  29
HETATM   29  C23 UNL     1       1.208  12.381  19.869  1.00  0.00     0.120 C 
BRANCH  29  30
HETATM   30  C24 UNL     1       2.687  12.401  19.515  1.00  0.00     0.112 C 
BRANCH  30  31
HETATM   31  C25 UNL     1       3.398  11.189  20.077  1.00  0.00     0.218 C 
HETATM   32  O6  UNL     1       4.377  10.678  19.548  1.00  0.00    -0.274 OA
HETATM   33  N1  UNL     1       2.828  10.717  21.242  1.00  0.00    -0.346 N 
HETATM   34  H34 UNL     1       2.277  11.385  21.766  1.00  0.00     0.163 HD
BRANCH  33  35
HETATM   35  C26 UNL     1       3.501   9.689  22.063  1.00  0.00     0.186 C 
BRANCH  35  36
HETATM   36  C27 UNL     1       4.433  10.264  23.143  1.00  0.00     0.077 C 
BRANCH  36  37
HETATM   37  C28 UNL     1       4.525  11.765  23.112  1.00  0.00    -0.028 A 
HETATM   38  C29 UNL     1       3.463  12.650  23.152  1.00  0.00     0.096 A 
HETATM   39  N2  UNL     1       3.962  13.925  23.126  1.00  0.00    -0.365 N 
HETATM   40  C30 UNL     1       5.334  13.899  23.073  1.00  0.00     0.042 A 
HETATM   41  H39 UNL     1       3.411  14.770  23.147  1.00  0.00     0.165 HD
HETATM   42  C31 UNL     1       6.257  14.953  23.036  1.00  0.00     0.030 A 
HETATM   43  C35 UNL     1       5.718  12.556  23.063  1.00  0.00    -0.002 A 
HETATM   44  C32 UNL     1       7.616  14.626  22.987  1.00  0.00     0.002 A 
HETATM   45  C33 UNL     1       8.032  13.296  22.976  1.00  0.00     0.001 A 
HETATM   46  C34 UNL     1       7.096  12.257  23.013  1.00  0.00     0.014 A 
ENDBRANCH  36  37
ENDBRANCH  35  36
BRANCH  35  47
HETATM   47  C36 UNL     1       2.474   8.703  22.642  1.00  0.00     0.163 C 
HETATM   48  O7  UNL     1       1.576   8.128  22.049  1.00  0.00    -0.648 OA
BRANCH  47  49
HETATM   49  O8  UNL     1       2.552   8.575  23.990  1.00  0.00    -0.775 OA
HETATM   50  H44 UNL     1       1.833   7.936  24.189  1.00  0.00     0.167 HD
ENDBRANCH  47  49
ENDBRANCH  35  47
ENDBRANCH  33  35
ENDBRANCH  30  31
ENDBRANCH  29  30
ENDBRANCH  27  29
ENDBRANCH  26  27
ENDBRANCH   1  26
TORSDOF 13
ENDMDL
MODEL 8
REMARK minimizedAffinity -9.1386385
REMARK CNNscore 0.334211826
REMARK CNNaffinity 7.36272001
REMARK  13 active torsions:
REMARK  status: ('A' for Active; 'I' for Inactive)
REMARK    1  A    between atoms: C19_20  and  O2_21 
REMARK    2  A    between atoms: C19_20  and  C20_22 
REMARK    3  A    between atoms: C20_22  and  C21_24 
REMARK    4  A    between atoms: C21_24  and  O4_25 
REMARK    5  A    between atoms: O4_25  and  C22_26 
REMARK    6  A    between atoms: C22_26  and  C23_28 
REMARK    7  A    between atoms: C23_28  and  C24_29 
REMARK    8  A    between atoms: C24_29  and  C25_30 
REMARK       I    between atoms: C25_30  and  N1_32 
REMARK    9  A    between atoms: N1_32  and  C26_33 
REMARK   10  A    between atoms: C26_33  and  C27_34 
REMARK   11  A    between atoms: C26_33  and  C36_44 
REMARK   12  A    between atoms: C27_34  and  C28_35 
REMARK   13  A    between atoms: C36_44  and  O8_46 
ROOT
HETATM    1  C21 UNL     1      -2.613   4.232  12.647  1.00  0.00     0.260 C 
ENDROOT
BRANCH   1   2
HETATM    2  C20 UNL     1      -4.025   4.816  12.834  1.00  0.00     0.185 C 
HETATM    3  O3  UNL     1      -4.901   4.515  12.011  1.00  0.00    -0.292 OA
BRANCH   2   4
HETATM    4  C19 UNL     1      -4.367   5.664  14.102  1.00  0.00     0.128 C 
HETATM    5  C14 UNL     1      -5.892   5.689  14.468  1.00  0.00    -0.002 C 
HETATM    6  C13 UNL     1      -6.124   6.235  15.905  1.00  0.00     0.013 C 
HETATM    7  C15 UNL     1      -6.519   4.286  14.397  1.00  0.00     0.019 C 
HETATM    8  C16 UNL     1      -6.464   6.667  13.407  1.00  0.00     0.002 C 
HETATM    9  C12 UNL     1      -7.555   6.721  16.165  1.00  0.00     0.007 C 
HETATM   10  C11 UNL     1      -7.957   7.830  15.175  1.00  0.00     0.002 C 
HETATM   11  C2  UNL     1      -9.353   8.538  15.434  1.00  0.00    -0.016 C 
HETATM   12  C10 UNL     1      -7.837   7.307  13.717  1.00  0.00    -0.004 C 
HETATM   13  C1  UNL     1      -9.831   8.370  16.892  1.00  0.00     0.020 C 
HETATM   14  C3  UNL     1      -9.181  10.056  15.130  1.00  0.00     0.022 C 
HETATM   15  C7  UNL     1     -10.437   7.997  14.505  1.00  0.00    -0.068 C 
HETATM   16  C4  UNL     1     -10.490  10.841  15.164  1.00  0.00     0.084 C 
HETATM   17  C5  UNL     1     -11.557  10.189  14.321  1.00  0.00     0.149 C 
HETATM   18  O1  UNL     1     -12.539  10.809  13.919  1.00  0.00    -0.293 OA
HETATM   19  C6  UNL     1     -11.432   8.747  14.001  1.00  0.00     0.053 C 
HETATM   20  C8  UNL     1     -10.285   6.559  14.109  1.00  0.00     0.035 C 
HETATM   21  C9  UNL     1      -9.000   6.371  13.305  1.00  0.00     0.010 C 
HETATM   22  C17 UNL     1      -5.362   7.734  13.229  1.00  0.00     0.009 C 
HETATM   23  C18 UNL     1      -4.070   7.147  13.796  1.00  0.00     0.047 C 
BRANCH   4  24
HETATM   24  O2  UNL     1      -3.577   5.291  15.222  1.00  0.00    -0.381 OA
HETATM   25  H27 UNL     1      -2.646   5.462  14.969  1.00  0.00     0.211 HD
ENDBRANCH   4  24
ENDBRANCH   2   4
ENDBRANCH   1   2
BRANCH   1  26
HETATM   26  O4  UNL     1      -2.226   3.433  11.543  1.00  0.00    -0.314 OA
BRANCH  26  27
HETATM   27  C22 UNL     1      -0.898   3.161  11.464  1.00  0.00     0.259 C 
HETATM   28  O5  UNL     1      -0.429   2.058  11.213  1.00  0.00    -0.265 OA
BRANCH  27  29
HETATM   29  C23 UNL     1      -0.080   4.401  11.682  1.00  0.00     0.120 C 
BRANCH  29  30
HETATM   30  C24 UNL     1       0.315   4.533  13.145  1.00  0.00     0.112 C 
BRANCH  30  31
HETATM   31  C25 UNL     1       0.650   5.968  13.491  1.00  0.00     0.218 C 
HETATM   32  O6  UNL     1       1.322   6.286  14.464  1.00  0.00    -0.274 OA
HETATM   33  N1  UNL     1       0.116   6.880  12.603  1.00  0.00    -0.346 N 
HETATM   34  H34 UNL     1      -0.105   6.521  11.682  1.00  0.00     0.163 HD
BRANCH  33  35
HETATM   35  C26 UNL     1       0.511   8.303  12.636  1.00  0.00     0.186 C 
BRANCH  35  36
HETATM   36  C27 UNL     1       1.137   8.808  11.324  1.00  0.00     0.077 C 
BRANCH  36  37
HETATM   37  C28 UNL     1       1.922   7.753  10.596  1.00  0.00    -0.028 A 
HETATM   38  C29 UNL     1       2.832   6.876  11.158  1.00  0.00     0.096 A 
HETATM   39  N2  UNL     1       3.314   6.061  10.168  1.00  0.00    -0.365 N 
HETATM   40  C30 UNL     1       2.737   6.381   8.963  1.00  0.00     0.042 A 
HETATM   41  H39 UNL     1       3.992   5.324  10.295  1.00  0.00     0.165 HD
HETATM   42  C31 UNL     1       2.924   5.816   7.694  1.00  0.00     0.030 A 
HETATM   43  C35 UNL     1       1.858   7.440   9.199  1.00  0.00    -0.002 A 
HETATM   44  C32 UNL     1       2.189   6.351   6.631  1.00  0.00     0.002 A 
HETATM   45  C33 UNL     1       1.304   7.407   6.832  1.00  0.00     0.001 A 
HETATM   46  C34 UNL     1       1.131   7.958   8.107  1.00  0.00     0.014 A 
ENDBRANCH  36  37
ENDBRANCH  35  36
BRANCH  35  47
HETATM   47  C36 UNL     1      -0.665   9.179  13.096  1.00  0.00     0.163 C 
HETATM   48  O7  UNL     1      -1.646   9.510  12.450  1.00  0.00    -0.648 OA
BRANCH  47  49
HETATM   49  O8  UNL     1      -0.492   9.706  14.334  1.00  0.00    -0.775 OA
HETATM   50  H44 UNL     1      -1.310  10.236  14.460  1.00  0.00     0.167 HD
ENDBRANCH  47  49
ENDBRANCH  35  47
ENDBRANCH  33  35
ENDBRANCH  30  31
ENDBRANCH  29  30
ENDBRANCH  27  29
ENDBRANCH  26  27
ENDBRANCH   1  26
TORSDOF 13
ENDMDL
MODEL 9
REMARK minimizedAffinity -9.64797688
REMARK CNNscore 0.332130671
REMARK CNNaffinity 7.24711561
REMARK  13 active torsions:
REMARK  status: ('A' for Active; 'I' for Inactive)
REMARK    1  A    between atoms: C19_20  and  O2_21 
REMARK    2  A    between atoms: C19_20  and  C20_22 
REMARK    3  A    between atoms: C20_22  and  C21_24 
REMARK    4  A    between atoms: C21_24  and  O4_25 
REMARK    5  A    between atoms: O4_25  and  C22_26 
REMARK    6  A    between atoms: C22_26  and  C23_28 
REMARK    7  A    between atoms: C23_28  and  C24_29 
REMARK    8  A    between atoms: C24_29  and  C25_30 
REMARK       I    between atoms: C25_30  and  N1_32 
REMARK    9  A    between atoms: N1_32  and  C26_33 
REMARK   10  A    between atoms: C26_33  and  C27_34 
REMARK   11  A    between atoms: C26_33  and  C36_44 
REMARK   12  A    between atoms: C27_34  and  C28_35 
REMARK   13  A    between atoms: C36_44  and  O8_46 
ROOT
HETATM    1  C21 UNL     1       0.120   6.992  11.554  1.00  0.00     0.260 C 
ENDROOT
BRANCH   1   2
HETATM    2  C20 UNL     1      -1.070   6.297  12.241  1.00  0.00     0.185 C 
HETATM    3  O3  UNL     1      -1.487   5.233  11.763  1.00  0.00    -0.292 OA
BRANCH   2   4
HETATM    4  C19 UNL     1      -1.649   6.863  13.578  1.00  0.00     0.128 C 
HETATM    5  C14 UNL     1      -3.016   6.225  14.009  1.00  0.00    -0.002 C 
HETATM    6  C13 UNL     1      -3.357   6.555  15.489  1.00  0.00     0.013 C 
HETATM    7  C15 UNL     1      -3.001   4.693  13.865  1.00  0.00     0.019 C 
HETATM    8  C16 UNL     1      -4.015   6.919  13.043  1.00  0.00     0.002 C 
HETATM    9  C12 UNL     1      -4.839   6.379  15.842  1.00  0.00     0.007 C 
HETATM   10  C11 UNL     1      -5.734   7.259  14.950  1.00  0.00     0.002 C 
HETATM   11  C2  UNL     1      -7.277   7.300  15.316  1.00  0.00    -0.016 C 
HETATM   12  C10 UNL     1      -5.506   6.904  13.455  1.00  0.00    -0.004 C 
HETATM   13  C1  UNL     1      -7.542   6.878  16.778  1.00  0.00     0.020 C 
HETATM   14  C3  UNL     1      -7.778   8.761  15.113  1.00  0.00     0.022 C 
HETATM   15  C7  UNL     1      -8.095   6.396  14.397  1.00  0.00    -0.068 C 
HETATM   16  C4  UNL     1      -9.290   8.918  15.256  1.00  0.00     0.084 C 
HETATM   17  C5  UNL     1     -10.040   7.916  14.415  1.00  0.00     0.149 C 
HETATM   18  O1  UNL     1     -11.216   8.082  14.099  1.00  0.00    -0.293 OA
HETATM   19  C6  UNL     1      -9.345   6.678  13.989  1.00  0.00     0.053 C 
HETATM   20  C8  UNL     1      -7.383   5.176  13.895  1.00  0.00     0.035 C 
HETATM   21  C9  UNL     1      -6.194   5.585  13.028  1.00  0.00     0.010 C 
HETATM   22  C17 UNL     1      -3.475   8.358  12.895  1.00  0.00     0.009 C 
HETATM   23  C18 UNL     1      -2.021   8.345  13.366  1.00  0.00     0.047 C 
BRANCH   4  24
HETATM   24  O2  UNL     1      -0.701   6.807  14.636  1.00  0.00    -0.381 OA
HETATM   25  H27 UNL     1       0.053   7.366  14.357  1.00  0.00     0.211 HD
ENDBRANCH   4  24
ENDBRANCH   2   4
ENDBRANCH   1   2
BRANCH   1  26
HETATM   26  O4  UNL     1       0.823   6.452  10.448  1.00  0.00    -0.314 OA
BRANCH  26  27
HETATM   27  C22 UNL     1       1.916   5.712  10.764  1.00  0.00     0.259 C 
HETATM   28  O5  UNL     1       2.044   4.520  10.514  1.00  0.00    -0.265 OA
BRANCH  27  29
HETATM   29  C23 UNL     1       2.968   6.558  11.423  1.00  0.00     0.120 C 
BRANCH  29  30
HETATM   30  C24 UNL     1       4.323   6.335  10.770  1.00  0.00     0.112 C 
BRANCH  30  31
HETATM   31  C25 UNL     1       5.425   7.006  11.561  1.00  0.00     0.218 C 
HETATM   32  O6  UNL     1       6.525   7.269  11.091  1.00  0.00    -0.274 OA
HETATM   33  N1  UNL     1       5.067   7.284  12.864  1.00  0.00    -0.346 N 
HETATM   34  H34 UNL     1       4.073   7.355  13.043  1.00  0.00     0.163 HD
BRANCH  33  35
HETATM   35  C26 UNL     1       5.915   8.133  13.727  1.00  0.00     0.186 C 
BRANCH  35  36
HETATM   36  C27 UNL     1       5.890   9.625  13.353  1.00  0.00     0.077 C 
BRANCH  36  37
HETATM   37  C28 UNL     1       7.260  10.209  13.146  1.00  0.00    -0.028 A 
HETATM   38  C29 UNL     1       7.546  11.463  12.638  1.00  0.00     0.096 A 
HETATM   39  N2  UNL     1       8.906  11.625  12.629  1.00  0.00    -0.365 N 
HETATM   40  C30 UNL     1       9.524  10.502  13.123  1.00  0.00     0.042 A 
HETATM   41  H39 UNL     1       9.396  12.449  12.311  1.00  0.00     0.165 HD
HETATM   42  C31 UNL     1      10.886  10.225  13.302  1.00  0.00     0.030 A 
HETATM   43  C35 UNL     1       8.516   9.594  13.457  1.00  0.00    -0.002 A 
HETATM   44  C32 UNL     1      11.231   8.980  13.838  1.00  0.00     0.002 A 
HETATM   45  C33 UNL     1      10.250   8.053  14.181  1.00  0.00     0.001 A 
HETATM   46  C34 UNL     1       8.895   8.347  13.996  1.00  0.00     0.014 A 
ENDBRANCH  36  37
ENDBRANCH  35  36
BRANCH  35  47
HETATM   47  C36 UNL     1       5.582   7.897  15.209  1.00  0.00     0.163 C 
HETATM   48  O7  UNL     1       6.261   8.186  16.180  1.00  0.00    -0.648 OA
BRANCH  47  49
HETATM   49  O8  UNL     1       4.442   7.188  15.399  1.00  0.00    -0.775 OA
HETATM   50  H44 UNL     1       4.390   7.118  16.377  1.00  0.00     0.167 HD
ENDBRANCH  47  49
ENDBRANCH  35  47
ENDBRANCH  33  35
ENDBRANCH  30  31
ENDBRANCH  29  30
ENDBRANCH  27  29
ENDBRANCH  26  27
ENDBRANCH   1  26
TORSDOF 13
ENDMDL
