MODEL 1
REMARK minimizedAffinity -6.59658575
REMARK CNNscore 0.411862731
REMARK CNNaffinity 5.61449766
REMARK  11 active torsions:
REMARK  status: ('A' for Active; 'I' for Inactive)
REMARK    1  A    between atoms: C3_4  and  O2_5 
REMARK    2  A    between atoms: O2_5  and  C4_6 
REMARK    3  A    between atoms: C7_9  and  C8_10 
REMARK    4  A    between atoms: N1_11  and  C9_13 
REMARK    5  A    between atoms: C9_13  and  C10_14 
REMARK    6  A    between atoms: C10_14  and  O3_15 
REMARK    7  A    between atoms: C16_21  and  C17_22 
REMARK    8  A    between atoms: C23_30  and  O6_31 
REMARK    9  A    between atoms: C27_35  and  O7_36 
REMARK   10  A    between atoms: C30_39  and  O8_40 
REMARK   11  A    between atoms: C31_41  and  O9_42 
ROOT
HETATM    1  C4  UNL     1      -0.094  54.318  -4.707  1.00  0.00     0.127 C 
HETATM    2  C5  UNL     1       1.065  53.329  -4.785  1.00  0.00     0.033 C 
HETATM    3  C6  UNL     1       0.864  52.324  -5.915  1.00  0.00     0.021 C 
HETATM    4  C7  UNL     1       0.694  52.972  -7.327  1.00  0.00     0.026 C 
HETATM    5  C11 UNL     1       2.034  53.620  -7.836  1.00  0.00     0.009 C 
HETATM    6  C12 UNL     1       3.199  52.646  -7.999  1.00  0.00     0.007 C 
HETATM    7  C13 UNL     1       4.533  53.380  -8.124  1.00  0.00     0.013 C 
HETATM    8  C14 UNL     1       4.509  54.704  -8.927  1.00  0.00    -0.005 C 
HETATM    9  C15 UNL     1       5.816  54.723  -9.771  1.00  0.00     0.019 C 
HETATM   10  C16 UNL     1       4.416  55.990  -8.036  1.00  0.00     0.028 C 
HETATM   11  C21 UNL     1       3.938  57.094  -9.001  1.00  0.00     0.013 C 
HETATM   12  C22 UNL     1       3.311  56.372 -10.197  1.00  0.00     0.040 C 
HETATM   13  C23 UNL     1       3.234  54.881  -9.818  1.00  0.00     0.070 C 
HETATM   14  C24 UNL     1       1.870  54.400  -9.172  1.00  0.00     0.026 C 
HETATM   15  C25 UNL     1       0.772  55.466  -9.037  1.00  0.00     0.011 C 
HETATM   16  C26 UNL     1      -0.551  54.887  -8.545  1.00  0.00     0.039 C 
HETATM   17  C27 UNL     1      -0.440  54.057  -7.254  1.00  0.00     0.073 C 
HETATM   18  C28 UNL     1      -0.235  55.035  -6.058  1.00  0.00     0.071 C 
ENDROOT
BRANCH   1  19
HETATM   19  O2  UNL     1      -1.355  53.692  -4.443  1.00  0.00    -0.356 OA
BRANCH  19  20
HETATM   20  C3  UNL     1      -2.376  54.566  -3.960  1.00  0.00     0.263 C 
HETATM   21  O1  UNL     1      -1.768  55.588  -3.173  1.00  0.00    -0.354 OA
HETATM   22  C2  UNL     1      -2.721  56.515  -2.646  1.00  0.00     0.151 C 
HETATM   23  C1  UNL     1      -1.930  57.609  -1.934  1.00  0.00     0.042 C 
HETATM   24  C31 UNL     1      -3.689  55.798  -1.689  1.00  0.00     0.175 C 
HETATM   25  C30 UNL     1      -4.342  54.607  -2.407  1.00  0.00     0.154 C 
HETATM   26  C29 UNL     1      -3.303  53.728  -3.082  1.00  0.00     0.095 C 
BRANCH  24  27
HETATM   27  O9  UNL     1      -4.734  56.663  -1.239  1.00  0.00    -0.390 OA
HETATM   28  H47 UNL     1      -4.328  57.341  -0.672  1.00  0.00     0.210 HD
ENDBRANCH  24  27
BRANCH  25  29
HETATM   29  O8  UNL     1      -5.261  55.092  -3.396  1.00  0.00    -0.393 OA
HETATM   30  H45 UNL     1      -5.806  55.757  -2.922  1.00  0.00     0.210 HD
ENDBRANCH  25  29
ENDBRANCH  19  20
ENDBRANCH   1  19
BRANCH  17  31
HETATM   31  O7  UNL     1      -1.719  53.419  -7.083  1.00  0.00    -0.389 OA
HETATM   32  H39 UNL     1      -1.847  53.255  -6.124  1.00  0.00     0.210 HD
ENDBRANCH  17  31
BRANCH   4  33
HETATM   33  C8  UNL     1       0.308  51.790  -8.231  1.00  0.00     0.068 C 
HETATM   34  N1  UNL     1      -0.604  51.871  -9.139  1.00  0.00    -0.399 N 
ATOM     35  H1  UNL     1      -1.103  52.736  -9.345  1.00  0.00     0.158 HD
BRANCH  34  36
HETATM   36  C9  UNL     1      -0.866  50.616  -9.853  1.00  0.00     0.144 C 
BRANCH  36  37
HETATM   37  C10 UNL     1      -1.464  50.975 -11.216  1.00  0.00     0.183 C 
BRANCH  37  38
HETATM   38  O3  UNL     1      -2.518  50.064 -11.525  1.00  0.00    -0.399 OA
HETATM   39  H16 UNL     1      -3.123  50.106 -10.752  1.00  0.00     0.209 HD
ENDBRANCH  37  38
ENDBRANCH  36  37
ENDBRANCH  34  36
ENDBRANCH   4  33
BRANCH  13  40
HETATM   40  O6  UNL     1       3.407  54.116 -11.018  1.00  0.00    -0.389 OA
HETATM   41  H33 UNL     1       2.639  54.282 -11.595  1.00  0.00     0.210 HD
ENDBRANCH  13  40
BRANCH  10  42
HETATM   42  C17 UNL     1       5.592  56.359  -7.175  1.00  0.00    -0.045 A 
HETATM   43  C18 UNL     1       6.685  55.613  -7.010  1.00  0.00     0.087 A 
HETATM   44  C19 UNL     1       7.562  56.316  -6.078  1.00  0.00     0.283 A 
HETATM   45  O4  UNL     1       8.645  55.908  -5.700  1.00  0.00    -0.260 OA
HETATM   46  O5  UNL     1       6.967  57.478  -5.702  1.00  0.00    -0.314 OA
HETATM   47  C20 UNL     1       5.688  57.576  -6.331  1.00  0.00     0.213 A 
ENDBRANCH  10  42
TORSDOF 11
ENDMDL
MODEL 2
REMARK minimizedAffinity -7.2851963
REMARK CNNscore 0.390703976
REMARK CNNaffinity 6.28975058
REMARK  11 active torsions:
REMARK  status: ('A' for Active; 'I' for Inactive)
REMARK    1  A    between atoms: C3_4  and  O2_5 
REMARK    2  A    between atoms: O2_5  and  C4_6 
REMARK    3  A    between atoms: C7_9  and  C8_10 
REMARK    4  A    between atoms: N1_11  and  C9_13 
REMARK    5  A    between atoms: C9_13  and  C10_14 
REMARK    6  A    between atoms: C10_14  and  O3_15 
REMARK    7  A    between atoms: C16_21  and  C17_22 
REMARK    8  A    between atoms: C23_30  and  O6_31 
REMARK    9  A    between atoms: C27_35  and  O7_36 
REMARK   10  A    between atoms: C30_39  and  O8_40 
REMARK   11  A    between atoms: C31_41  and  O9_42 
ROOT
HETATM    1  C4  UNL     1      -3.325  48.064 -18.179  1.00  0.00     0.127 C 
HETATM    2  C5  UNL     1      -2.492  47.507 -19.330  1.00  0.00     0.033 C 
HETATM    3  C6  UNL     1      -3.340  46.652 -20.267  1.00  0.00     0.021 C 
HETATM    4  C7  UNL     1      -4.566  47.400 -20.884  1.00  0.00     0.026 C 
HETATM    5  C11 UNL     1      -4.119  48.497 -21.919  1.00  0.00     0.009 C 
HETATM    6  C12 UNL     1      -3.347  47.968 -23.125  1.00  0.00     0.007 C 
HETATM    7  C13 UNL     1      -2.631  49.091 -23.874  1.00  0.00     0.013 C 
HETATM    8  C14 UNL     1      -3.390  50.438 -23.968  1.00  0.00    -0.005 C 
HETATM    9  C15 UNL     1      -3.138  50.978 -25.405  1.00  0.00     0.019 C 
HETATM   10  C16 UNL     1      -2.948  51.497 -22.901  1.00  0.00     0.028 C 
HETATM   11  C21 UNL     1      -4.103  52.516 -22.867  1.00  0.00     0.013 C 
HETATM   12  C22 UNL     1      -5.318  51.805 -23.470  1.00  0.00     0.040 C 
HETATM   13  C23 UNL     1      -4.918  50.327 -23.643  1.00  0.00     0.070 C 
HETATM   14  C24 UNL     1      -5.301  49.361 -22.447  1.00  0.00     0.026 C 
HETATM   15  C25 UNL     1      -6.059  50.003 -21.276  1.00  0.00     0.011 C 
HETATM   16  C26 UNL     1      -6.515  48.978 -20.241  1.00  0.00     0.039 C 
HETATM   17  C27 UNL     1      -5.397  48.056 -19.723  1.00  0.00     0.073 C 
HETATM   18  C28 UNL     1      -4.494  48.878 -18.753  1.00  0.00     0.071 C 
ENDROOT
BRANCH   1  19
HETATM   19  O2  UNL     1      -3.902  47.046 -17.353  1.00  0.00    -0.356 OA
BRANCH  19  20
HETATM   20  C3  UNL     1      -3.360  46.956 -16.034  1.00  0.00     0.263 C 
HETATM   21  O1  UNL     1      -4.422  46.692 -15.122  1.00  0.00    -0.354 OA
HETATM   22  C2  UNL     1      -3.970  46.585 -13.769  1.00  0.00     0.151 C 
HETATM   23  C1  UNL     1      -5.178  46.186 -12.926  1.00  0.00     0.042 C 
HETATM   24  C31 UNL     1      -3.366  47.920 -13.301  1.00  0.00     0.175 C 
HETATM   25  C30 UNL     1      -2.259  48.358 -14.273  1.00  0.00     0.154 C 
HETATM   26  C29 UNL     1      -2.736  48.313 -15.715  1.00  0.00     0.095 C 
BRANCH  24  27
HETATM   27  O9  UNL     1      -2.787  47.816 -11.998  1.00  0.00    -0.390 OA
HETATM   28  H47 UNL     1      -3.512  47.672 -11.367  1.00  0.00     0.210 HD
ENDBRANCH  24  27
BRANCH  25  29
HETATM   29  O8  UNL     1      -1.126  47.490 -14.127  1.00  0.00    -0.393 OA
HETATM   30  H45 UNL     1      -0.964  47.455 -13.159  1.00  0.00     0.210 HD
ENDBRANCH  25  29
ENDBRANCH  19  20
ENDBRANCH   1  19
BRANCH  17  31
HETATM   31  O7  UNL     1      -6.052  47.035 -18.951  1.00  0.00    -0.389 OA
HETATM   32  H39 UNL     1      -5.415  46.710 -18.279  1.00  0.00     0.210 HD
ENDBRANCH  17  31
BRANCH   4  33
HETATM   33  C8  UNL     1      -5.351  46.292 -21.603  1.00  0.00     0.068 C 
HETATM   34  N1  UNL     1      -6.621  46.359 -21.819  1.00  0.00    -0.399 N 
ATOM     35  H1  UNL     1      -7.182  47.171 -21.563  1.00  0.00     0.158 HD
BRANCH  34  36
HETATM   36  C9  UNL     1      -7.193  45.171 -22.465  1.00  0.00     0.144 C 
BRANCH  36  37
HETATM   37  C10 UNL     1      -8.707  45.375 -22.548  1.00  0.00     0.183 C 
BRANCH  37  38
HETATM   38  O3  UNL     1      -9.237  44.565 -23.598  1.00  0.00    -0.399 OA
HETATM   39  H16 UNL     1      -8.923  43.656 -23.398  1.00  0.00     0.209 HD
ENDBRANCH  37  38
ENDBRANCH  36  37
ENDBRANCH  34  36
ENDBRANCH   4  33
BRANCH  13  40
HETATM   40  O6  UNL     1      -5.596  49.825 -24.803  1.00  0.00    -0.389 OA
HETATM   41  H33 UNL     1      -6.552  49.819 -24.616  1.00  0.00     0.210 HD
ENDBRANCH  13  40
BRANCH  10  42
HETATM   42  C17 UNL     1      -1.572  52.094 -23.004  1.00  0.00    -0.045 A 
HETATM   43  C18 UNL     1      -0.698  52.182 -22.001  1.00  0.00     0.087 A 
HETATM   44  C19 UNL     1       0.495  52.850 -22.514  1.00  0.00     0.283 A 
HETATM   45  O4  UNL     1       1.489  53.100 -21.856  1.00  0.00    -0.260 OA
HETATM   46  O5  UNL     1       0.305  53.151 -23.824  1.00  0.00    -0.314 OA
HETATM   47  C20 UNL     1      -1.003  52.731 -24.218  1.00  0.00     0.213 A 
ENDBRANCH  10  42
TORSDOF 11
ENDMDL
MODEL 3
REMARK minimizedAffinity -9.02095699
REMARK CNNscore 0.389471233
REMARK CNNaffinity 6.3390255
REMARK  11 active torsions:
REMARK  status: ('A' for Active; 'I' for Inactive)
REMARK    1  A    between atoms: C3_4  and  O2_5 
REMARK    2  A    between atoms: O2_5  and  C4_6 
REMARK    3  A    between atoms: C7_9  and  C8_10 
REMARK    4  A    between atoms: N1_11  and  C9_13 
REMARK    5  A    between atoms: C9_13  and  C10_14 
REMARK    6  A    between atoms: C10_14  and  O3_15 
REMARK    7  A    between atoms: C16_21  and  C17_22 
REMARK    8  A    between atoms: C23_30  and  O6_31 
REMARK    9  A    between atoms: C27_35  and  O7_36 
REMARK   10  A    between atoms: C30_39  and  O8_40 
REMARK   11  A    between atoms: C31_41  and  O9_42 
ROOT
HETATM    1  C4  UNL     1      -6.816  48.373 -24.512  1.00  0.00     0.127 C 
HETATM    2  C5  UNL     1      -6.832  49.717 -23.790  1.00  0.00     0.033 C 
HETATM    3  C6  UNL     1      -7.413  49.587 -22.385  1.00  0.00     0.021 C 
HETATM    4  C7  UNL     1      -6.662  48.565 -21.472  1.00  0.00     0.026 C 
HETATM    5  C11 UNL     1      -5.228  49.079 -21.079  1.00  0.00     0.009 C 
HETATM    6  C12 UNL     1      -5.206  50.385 -20.289  1.00  0.00     0.007 C 
HETATM    7  C13 UNL     1      -3.813  51.009 -20.271  1.00  0.00     0.013 C 
HETATM    8  C14 UNL     1      -2.625  50.021 -20.169  1.00  0.00    -0.005 C 
HETATM    9  C15 UNL     1      -1.595  50.677 -19.205  1.00  0.00     0.019 C 
HETATM   10  C16 UNL     1      -1.950  49.688 -21.544  1.00  0.00     0.028 C 
HETATM   11  C21 UNL     1      -1.162  48.390 -21.283  1.00  0.00     0.013 C 
HETATM   12  C22 UNL     1      -1.771  47.766 -20.024  1.00  0.00     0.040 C 
HETATM   13  C23 UNL     1      -3.035  48.585 -19.698  1.00  0.00     0.070 C 
HETATM   14  C24 UNL     1      -4.394  48.027 -20.291  1.00  0.00     0.026 C 
HETATM   15  C25 UNL     1      -4.298  46.717 -21.086  1.00  0.00     0.011 C 
HETATM   16  C26 UNL     1      -5.666  46.176 -21.493  1.00  0.00     0.039 C 
HETATM   17  C27 UNL     1      -6.558  47.191 -22.228  1.00  0.00     0.073 C 
HETATM   18  C28 UNL     1      -6.012  47.364 -23.678  1.00  0.00     0.071 C 
ENDROOT
BRANCH   1  19
HETATM   19  O2  UNL     1      -8.122  47.809 -24.687  1.00  0.00    -0.356 OA
BRANCH  19  20
HETATM   20  C3  UNL     1      -8.836  48.278 -25.831  1.00  0.00     0.263 C 
HETATM   21  O1  UNL     1     -10.157  47.744 -25.795  1.00  0.00    -0.354 OA
HETATM   22  C2  UNL     1     -10.950  48.164 -26.909  1.00  0.00     0.151 C 
HETATM   23  C1  UNL     1     -12.359  47.624 -26.682  1.00  0.00     0.042 C 
HETATM   24  C31 UNL     1     -10.344  47.640 -28.222  1.00  0.00     0.175 C 
HETATM   25  C30 UNL     1      -8.875  48.080 -28.329  1.00  0.00     0.154 C 
HETATM   26  C29 UNL     1      -8.104  47.749 -27.062  1.00  0.00     0.095 C 
BRANCH  24  27
HETATM   27  O9  UNL     1     -11.035  48.144 -29.368  1.00  0.00    -0.390 OA
HETATM   28  H47 UNL     1     -11.925  47.754 -29.367  1.00  0.00     0.210 HD
ENDBRANCH  24  27
BRANCH  25  29
HETATM   29  O8  UNL     1      -8.817  49.494 -28.558  1.00  0.00    -0.393 OA
HETATM   30  H45 UNL     1      -9.446  49.652 -29.296  1.00  0.00     0.210 HD
ENDBRANCH  25  29
ENDBRANCH  19  20
ENDBRANCH   1  19
BRANCH  17  31
HETATM   31  O7  UNL     1      -7.858  46.582 -22.320  1.00  0.00    -0.389 OA
HETATM   32  H39 UNL     1      -8.309  46.954 -23.108  1.00  0.00     0.210 HD
ENDBRANCH  17  31
BRANCH   4  33
HETATM   33  C8  UNL     1      -7.546  48.471 -20.219  1.00  0.00     0.068 C 
HETATM   34  N1  UNL     1      -8.829  48.351 -20.273  1.00  0.00    -0.399 N 
ATOM     35  H1  UNL     1      -9.339  48.271 -21.153  1.00  0.00     0.158 HD
BRANCH  34  36
HETATM   36  C9  UNL     1      -9.496  48.340 -18.966  1.00  0.00     0.144 C 
BRANCH  36  37
HETATM   37  C10 UNL     1      -8.586  49.072 -17.977  1.00  0.00     0.183 C 
BRANCH  37  38
HETATM   38  O3  UNL     1      -8.259  48.196 -16.898  1.00  0.00    -0.399 OA
HETATM   39  H16 UNL     1      -7.891  47.394 -17.326  1.00  0.00     0.209 HD
ENDBRANCH  37  38
ENDBRANCH  36  37
ENDBRANCH  34  36
ENDBRANCH   4  33
BRANCH  13  40
HETATM   40  O6  UNL     1      -3.189  48.599 -18.273  1.00  0.00    -0.389 OA
HETATM   41  H33 UNL     1      -3.382  47.690 -17.980  1.00  0.00     0.210 HD
ENDBRANCH  13  40
BRANCH  10  42
HETATM   42  C17 UNL     1      -1.183  50.770 -22.253  1.00  0.00    -0.045 A 
HETATM   43  C18 UNL     1      -0.299  51.585 -21.676  1.00  0.00     0.087 A 
HETATM   44  C19 UNL     1       0.190  52.502 -22.704  1.00  0.00     0.283 A 
HETATM   45  O4  UNL     1       1.006  53.385 -22.515  1.00  0.00    -0.260 OA
HETATM   46  O5  UNL     1      -0.421  52.212 -23.881  1.00  0.00    -0.314 OA
HETATM   47  C20 UNL     1      -1.340  51.136 -23.683  1.00  0.00     0.213 A 
ENDBRANCH  10  42
TORSDOF 11
ENDMDL
MODEL 4
REMARK minimizedAffinity -9.41357136
REMARK CNNscore 0.367093176
REMARK CNNaffinity 6.60032511
REMARK  11 active torsions:
REMARK  status: ('A' for Active; 'I' for Inactive)
REMARK    1  A    between atoms: C3_4  and  O2_5 
REMARK    2  A    between atoms: O2_5  and  C4_6 
REMARK    3  A    between atoms: C7_9  and  C8_10 
REMARK    4  A    between atoms: N1_11  and  C9_13 
REMARK    5  A    between atoms: C9_13  and  C10_14 
REMARK    6  A    between atoms: C10_14  and  O3_15 
REMARK    7  A    between atoms: C16_21  and  C17_22 
REMARK    8  A    between atoms: C23_30  and  O6_31 
REMARK    9  A    between atoms: C27_35  and  O7_36 
REMARK   10  A    between atoms: C30_39  and  O8_40 
REMARK   11  A    between atoms: C31_41  and  O9_42 
ROOT
HETATM    1  C4  UNL     1      -1.071  51.013 -18.443  1.00  0.00     0.127 C 
HETATM    2  C5  UNL     1      -0.436  50.079 -19.469  1.00  0.00     0.033 C 
HETATM    3  C6  UNL     1      -1.088  48.699 -19.444  1.00  0.00     0.021 C 
HETATM    4  C7  UNL     1      -2.630  48.714 -19.701  1.00  0.00     0.026 C 
HETATM    5  C11 UNL     1      -2.969  49.099 -21.188  1.00  0.00     0.009 C 
HETATM    6  C12 UNL     1      -2.415  48.144 -22.243  1.00  0.00     0.007 C 
HETATM    7  C13 UNL     1      -2.452  48.763 -23.638  1.00  0.00     0.013 C 
HETATM    8  C14 UNL     1      -3.685  49.644 -23.960  1.00  0.00    -0.005 C 
HETATM    9  C15 UNL     1      -4.080  49.317 -25.429  1.00  0.00     0.019 C 
HETATM   10  C16 UNL     1      -3.433  51.182 -23.791  1.00  0.00     0.028 C 
HETATM   11  C21 UNL     1      -4.844  51.795 -23.691  1.00  0.00     0.013 C 
HETATM   12  C22 UNL     1      -5.781  50.647 -23.304  1.00  0.00     0.040 C 
HETATM   13  C23 UNL     1      -4.882  49.441 -22.972  1.00  0.00     0.070 C 
HETATM   14  C24 UNL     1      -4.495  49.265 -21.446  1.00  0.00     0.026 C 
HETATM   15  C25 UNL     1      -5.093  50.292 -20.474  1.00  0.00     0.011 C 
HETATM   16  C26 UNL     1      -4.790  49.964 -19.014  1.00  0.00     0.039 C 
HETATM   17  C27 UNL     1      -3.300  49.733 -18.711  1.00  0.00     0.073 C 
HETATM   18  C28 UNL     1      -2.578  51.115 -18.720  1.00  0.00     0.071 C 
ENDROOT
BRANCH   1  19
HETATM   19  O2  UNL     1      -0.934  50.548 -17.095  1.00  0.00    -0.356 OA
BRANCH  19  20
HETATM   20  C3  UNL     1      -0.166  51.394 -16.237  1.00  0.00     0.263 C 
HETATM   21  O1  UNL     1       1.179  51.423 -16.710  1.00  0.00    -0.354 OA
HETATM   22  C2  UNL     1       2.024  52.251 -15.907  1.00  0.00     0.151 C 
HETATM   23  C1  UNL     1       3.389  52.286 -16.589  1.00  0.00     0.042 C 
HETATM   24  C31 UNL     1       2.117  51.692 -14.477  1.00  0.00     0.175 C 
HETATM   25  C30 UNL     1       0.706  51.527 -13.892  1.00  0.00     0.154 C 
HETATM   26  C29 UNL     1      -0.205  50.771 -14.844  1.00  0.00     0.095 C 
BRANCH  24  27
HETATM   27  O9  UNL     1       2.850  52.561 -13.611  1.00  0.00    -0.390 OA
HETATM   28  H47 UNL     1       3.776  52.555 -13.907  1.00  0.00     0.210 HD
ENDBRANCH  24  27
BRANCH  25  29
HETATM   29  O8  UNL     1       0.143  52.821 -13.633  1.00  0.00    -0.393 OA
HETATM   30  H45 UNL     1       0.843  53.301 -13.137  1.00  0.00     0.210 HD
ENDBRANCH  25  29
ENDBRANCH  19  20
ENDBRANCH   1  19
BRANCH  17  31
HETATM   31  O7  UNL     1      -3.245  49.220 -17.367  1.00  0.00    -0.389 OA
HETATM   32  H39 UNL     1      -2.372  49.462 -16.988  1.00  0.00     0.210 HD
ENDBRANCH  17  31
BRANCH   4  33
HETATM   33  C8  UNL     1      -3.064  47.266 -19.423  1.00  0.00     0.068 C 
HETATM   34  N1  UNL     1      -2.755  46.637 -18.340  1.00  0.00    -0.399 N 
ATOM     35  H1  UNL     1      -2.236  47.073 -17.578  1.00  0.00     0.158 HD
BRANCH  34  36
HETATM   36  C9  UNL     1      -3.212  45.243 -18.293  1.00  0.00     0.144 C 
BRANCH  36  37
HETATM   37  C10 UNL     1      -2.956  44.720 -16.878  1.00  0.00     0.183 C 
BRANCH  37  38
HETATM   38  O3  UNL     1      -1.902  43.758 -16.913  1.00  0.00    -0.399 OA
HETATM   39  H16 UNL     1      -1.156  44.216 -17.356  1.00  0.00     0.209 HD
ENDBRANCH  37  38
ENDBRANCH  36  37
ENDBRANCH  34  36
ENDBRANCH   4  33
BRANCH  13  40
HETATM   40  O6  UNL     1      -5.590  48.253 -23.351  1.00  0.00    -0.389 OA
HETATM   41  H33 UNL     1      -6.369  48.167 -22.773  1.00  0.00     0.210 HD
ENDBRANCH  13  40
BRANCH  10  42
HETATM   42  C17 UNL     1      -2.503  51.871 -24.751  1.00  0.00    -0.045 A 
HETATM   43  C18 UNL     1      -1.238  52.198 -24.490  1.00  0.00     0.087 A 
HETATM   44  C19 UNL     1      -0.705  52.874 -25.671  1.00  0.00     0.283 A 
HETATM   45  O4  UNL     1       0.426  53.314 -25.769  1.00  0.00    -0.260 OA
HETATM   46  O5  UNL     1      -1.675  52.938 -26.619  1.00  0.00    -0.314 OA
HETATM   47  C20 UNL     1      -2.872  52.347 -26.108  1.00  0.00     0.213 A 
ENDBRANCH  10  42
TORSDOF 11
ENDMDL
MODEL 5
REMARK minimizedAffinity -6.79412413
REMARK CNNscore 0.310972393
REMARK CNNaffinity 5.30422449
REMARK  11 active torsions:
REMARK  status: ('A' for Active; 'I' for Inactive)
REMARK    1  A    between atoms: C3_4  and  O2_5 
REMARK    2  A    between atoms: O2_5  and  C4_6 
REMARK    3  A    between atoms: C7_9  and  C8_10 
REMARK    4  A    between atoms: N1_11  and  C9_13 
REMARK    5  A    between atoms: C9_13  and  C10_14 
REMARK    6  A    between atoms: C10_14  and  O3_15 
REMARK    7  A    between atoms: C16_21  and  C17_22 
REMARK    8  A    between atoms: C23_30  and  O6_31 
REMARK    9  A    between atoms: C27_35  and  O7_36 
REMARK   10  A    between atoms: C30_39  and  O8_40 
REMARK   11  A    between atoms: C31_41  and  O9_42 
ROOT
HETATM    1  C4  UNL     1       7.043  55.514  -6.089  1.00  0.00     0.127 C 
HETATM    2  C5  UNL     1       6.193  54.364  -5.558  1.00  0.00     0.033 C 
HETATM    3  C6  UNL     1       4.895  54.872  -4.936  1.00  0.00     0.021 C 
HETATM    4  C7  UNL     1       4.005  55.713  -5.907  1.00  0.00     0.026 C 
HETATM    5  C11 UNL     1       3.380  54.823  -7.043  1.00  0.00     0.009 C 
HETATM    6  C12 UNL     1       2.461  53.706  -6.553  1.00  0.00     0.007 C 
HETATM    7  C13 UNL     1       2.199  52.672  -7.647  1.00  0.00     0.013 C 
HETATM    8  C14 UNL     1       2.049  53.226  -9.085  1.00  0.00    -0.005 C 
HETATM    9  C15 UNL     1       0.898  52.414  -9.745  1.00  0.00     0.019 C 
HETATM   10  C16 UNL     1       3.354  53.124  -9.949  1.00  0.00     0.028 C 
HETATM   11  C21 UNL     1       3.131  54.119 -11.104  1.00  0.00     0.013 C 
HETATM   12  C22 UNL     1       2.032  55.078 -10.635  1.00  0.00     0.040 C 
HETATM   13  C23 UNL     1       1.788  54.768  -9.145  1.00  0.00     0.070 C 
HETATM   14  C24 UNL     1       2.605  55.647  -8.112  1.00  0.00     0.026 C 
HETATM   15  C25 UNL     1       3.513  56.730  -8.714  1.00  0.00     0.011 C 
HETATM   16  C26 UNL     1       4.147  57.622  -7.650  1.00  0.00     0.039 C 
HETATM   17  C27 UNL     1       4.881  56.857  -6.534  1.00  0.00     0.073 C 
HETATM   18  C28 UNL     1       6.223  56.314  -7.112  1.00  0.00     0.071 C 
ENDROOT
BRANCH   1  19
HETATM   19  O2  UNL     1       7.442  56.440  -5.072  1.00  0.00    -0.356 OA
BRANCH  19  20
HETATM   20  C3  UNL     1       8.753  56.987  -5.230  1.00  0.00     0.263 C 
HETATM   21  O1  UNL     1       9.708  55.956  -4.993  1.00  0.00    -0.354 OA
HETATM   22  C2  UNL     1      11.055  56.414  -5.131  1.00  0.00     0.151 C 
HETATM   23  C1  UNL     1      11.959  55.195  -4.971  1.00  0.00     0.042 C 
HETATM   24  C31 UNL     1      11.362  57.492  -4.076  1.00  0.00     0.175 C 
HETATM   25  C30 UNL     1      10.328  58.624  -4.174  1.00  0.00     0.154 C 
HETATM   26  C29 UNL     1       8.909  58.081  -4.177  1.00  0.00     0.095 C 
BRANCH  24  27
HETATM   27  O9  UNL     1      12.658  58.067  -4.262  1.00  0.00    -0.390 OA
HETATM   28  H47 UNL     1      13.314  57.377  -4.066  1.00  0.00     0.210 HD
ENDBRANCH  24  27
BRANCH  25  29
HETATM   29  O8  UNL     1      10.548  59.367  -5.382  1.00  0.00    -0.393 OA
HETATM   30  H45 UNL     1      11.511  59.561  -5.381  1.00  0.00     0.210 HD
ENDBRANCH  25  29
ENDBRANCH  19  20
ENDBRANCH   1  19
BRANCH  17  31
HETATM   31  O7  UNL     1       5.202  57.837  -5.530  1.00  0.00    -0.389 OA
HETATM   32  H39 UNL     1       5.998  57.524  -5.049  1.00  0.00     0.210 HD
ENDBRANCH  17  31
BRANCH   4  33
HETATM   33  C8  UNL     1       2.893  56.265  -5.002  1.00  0.00     0.068 C 
HETATM   34  N1  UNL     1       2.263  57.362  -5.255  1.00  0.00    -0.399 N 
ATOM     35  H1  UNL     1       2.434  57.916  -6.094  1.00  0.00     0.158 HD
BRANCH  34  36
HETATM   36  C9  UNL     1       1.279  57.749  -4.236  1.00  0.00     0.144 C 
BRANCH  36  37
HETATM   37  C10 UNL     1       0.034  56.882  -4.444  1.00  0.00     0.183 C 
BRANCH  37  38
HETATM   38  O3  UNL     1      -0.465  57.081  -5.766  1.00  0.00    -0.399 OA
HETATM   39  H16 UNL     1       0.300  56.903  -6.355  1.00  0.00     0.209 HD
ENDBRANCH  37  38
ENDBRANCH  36  37
ENDBRANCH  34  36
ENDBRANCH   4  33
BRANCH  13  40
HETATM   40  O6  UNL     1       0.400  55.007  -8.873  1.00  0.00    -0.389 OA
HETATM   41  H33 UNL     1       0.232  55.961  -8.975  1.00  0.00     0.210 HD
ENDBRANCH  13  40
BRANCH  10  42
HETATM   42  C17 UNL     1       3.841  51.763 -10.363  1.00  0.00    -0.045 A 
HETATM   43  C18 UNL     1       3.427  51.096 -11.441  1.00  0.00     0.087 A 
HETATM   44  C19 UNL     1       4.121  49.811 -11.458  1.00  0.00     0.283 A 
HETATM   45  O4  UNL     1       3.971  48.951 -12.306  1.00  0.00    -0.260 OA
HETATM   46  O5  UNL     1       4.942  49.738 -10.378  1.00  0.00    -0.314 OA
HETATM   47  C20 UNL     1       4.806  50.931  -9.602  1.00  0.00     0.213 A 
ENDBRANCH  10  42
TORSDOF 11
ENDMDL
MODEL 6
REMARK minimizedAffinity -7.65694189
REMARK CNNscore 0.298077881
REMARK CNNaffinity 5.57740784
REMARK  11 active torsions:
REMARK  status: ('A' for Active; 'I' for Inactive)
REMARK    1  A    between atoms: C3_4  and  O2_5 
REMARK    2  A    between atoms: O2_5  and  C4_6 
REMARK    3  A    between atoms: C7_9  and  C8_10 
REMARK    4  A    between atoms: N1_11  and  C9_13 
REMARK    5  A    between atoms: C9_13  and  C10_14 
REMARK    6  A    between atoms: C10_14  and  O3_15 
REMARK    7  A    between atoms: C16_21  and  C17_22 
REMARK    8  A    between atoms: C23_30  and  O6_31 
REMARK    9  A    between atoms: C27_35  and  O7_36 
REMARK   10  A    between atoms: C30_39  and  O8_40 
REMARK   11  A    between atoms: C31_41  and  O9_42 
ROOT
HETATM    1  C4  UNL     1       0.627  53.531 -10.831  1.00  0.00     0.127 C 
HETATM    2  C5  UNL     1       0.850  52.703  -9.569  1.00  0.00     0.033 C 
HETATM    3  C6  UNL     1       2.325  52.357  -9.383  1.00  0.00     0.021 C 
HETATM    4  C7  UNL     1       3.271  53.599  -9.313  1.00  0.00     0.026 C 
HETATM    5  C11 UNL     1       3.061  54.416  -7.986  1.00  0.00     0.009 C 
HETATM    6  C12 UNL     1       3.348  53.643  -6.701  1.00  0.00     0.007 C 
HETATM    7  C13 UNL     1       2.774  54.353  -5.476  1.00  0.00     0.013 C 
HETATM    8  C14 UNL     1       2.854  55.900  -5.485  1.00  0.00    -0.005 C 
HETATM    9  C15 UNL     1       3.227  56.324  -4.036  1.00  0.00     0.019 C 
HETATM   10  C16 UNL     1       1.530  56.606  -5.937  1.00  0.00     0.028 C 
HETATM   11  C21 UNL     1       1.966  58.033  -6.322  1.00  0.00     0.013 C 
HETATM   12  C22 UNL     1       3.476  57.967  -6.569  1.00  0.00     0.040 C 
HETATM   13  C23 UNL     1       3.858  56.474  -6.541  1.00  0.00     0.070 C 
HETATM   14  C24 UNL     1       3.881  55.739  -7.943  1.00  0.00     0.026 C 
HETATM   15  C25 UNL     1       3.558  56.607  -9.168  1.00  0.00     0.011 C 
HETATM   16  C26 UNL     1       3.746  55.857 -10.485  1.00  0.00     0.039 C 
HETATM   17  C27 UNL     1       3.002  54.513 -10.562  1.00  0.00     0.073 C 
HETATM   18  C28 UNL     1       1.483  54.804 -10.755  1.00  0.00     0.071 C 
ENDROOT
BRANCH   1  19
HETATM   19  O2  UNL     1       1.015  52.849 -12.030  1.00  0.00    -0.356 OA
BRANCH  19  20
HETATM   20  C3  UNL     1      -0.066  52.420 -12.860  1.00  0.00     0.263 C 
HETATM   21  O1  UNL     1      -1.291  52.653 -12.169  1.00  0.00    -0.354 OA
HETATM   22  C2  UNL     1      -2.434  52.252 -12.930  1.00  0.00     0.151 C 
HETATM   23  C1  UNL     1      -3.667  52.665 -12.131  1.00  0.00     0.042 C 
HETATM   24  C31 UNL     1      -2.401  50.734 -13.181  1.00  0.00     0.175 C 
HETATM   25  C30 UNL     1      -1.071  50.347 -13.845  1.00  0.00     0.154 C 
HETATM   26  C29 UNL     1       0.115  50.922 -13.089  1.00  0.00     0.095 C 
BRANCH  24  27
HETATM   27  O9  UNL     1      -3.459  50.314 -14.045  1.00  0.00    -0.390 OA
HETATM   28  H47 UNL     1      -4.295  50.437 -13.565  1.00  0.00     0.210 HD
ENDBRANCH  24  27
BRANCH  25  29
HETATM   29  O8  UNL     1      -1.050  50.838 -15.193  1.00  0.00    -0.393 OA
HETATM   30  H45 UNL     1      -1.908  50.550 -15.575  1.00  0.00     0.210 HD
ENDBRANCH  25  29
ENDBRANCH  19  20
ENDBRANCH   1  19
BRANCH  17  31
HETATM   31  O7  UNL     1       3.478  53.866 -11.756  1.00  0.00    -0.389 OA
HETATM   32  H39 UNL     1       2.772  53.264 -12.074  1.00  0.00     0.210 HD
ENDBRANCH  17  31
BRANCH   4  33
HETATM   33  C8  UNL     1       4.682  52.989  -9.334  1.00  0.00     0.068 C 
HETATM   34  N1  UNL     1       4.931  51.814  -9.805  1.00  0.00    -0.399 N 
ATOM     35  H1  UNL     1       4.214  51.227 -10.231  1.00  0.00     0.158 HD
BRANCH  34  36
HETATM   36  C9  UNL     1       6.330  51.391  -9.678  1.00  0.00     0.144 C 
BRANCH  36  37
HETATM   37  C10 UNL     1       6.480  50.061 -10.422  1.00  0.00     0.183 C 
BRANCH  37  38
HETATM   38  O3  UNL     1       7.796  49.971 -10.968  1.00  0.00    -0.399 OA
HETATM   39  H16 UNL     1       8.397  50.121 -10.207  1.00  0.00     0.209 HD
ENDBRANCH  37  38
ENDBRANCH  36  37
ENDBRANCH  34  36
ENDBRANCH   4  33
BRANCH  13  40
HETATM   40  O6  UNL     1       5.186  56.375  -6.009  1.00  0.00    -0.389 OA
HETATM   41  H33 UNL     1       5.798  56.792  -6.642  1.00  0.00     0.210 HD
ENDBRANCH  13  40
BRANCH  10  42
HETATM   42  C17 UNL     1       0.326  56.524  -5.040  1.00  0.00    -0.045 A 
HETATM   43  C18 UNL     1      -0.109  57.507  -4.251  1.00  0.00     0.087 A 
HETATM   44  C19 UNL     1      -1.277  57.009  -3.530  1.00  0.00     0.283 A 
HETATM   45  O4  UNL     1      -1.918  57.650  -2.717  1.00  0.00    -0.260 OA
HETATM   46  O5  UNL     1      -1.516  55.726  -3.907  1.00  0.00    -0.314 OA
HETATM   47  C20 UNL     1      -0.520  55.320  -4.849  1.00  0.00     0.213 A 
ENDBRANCH  10  42
TORSDOF 11
ENDMDL
MODEL 7
REMARK minimizedAffinity -8.93283272
REMARK CNNscore 0.29189077
REMARK CNNaffinity 6.83858347
REMARK  11 active torsions:
REMARK  status: ('A' for Active; 'I' for Inactive)
REMARK    1  A    between atoms: C3_4  and  O2_5 
REMARK    2  A    between atoms: O2_5  and  C4_6 
REMARK    3  A    between atoms: C7_9  and  C8_10 
REMARK    4  A    between atoms: N1_11  and  C9_13 
REMARK    5  A    between atoms: C9_13  and  C10_14 
REMARK    6  A    between atoms: C10_14  and  O3_15 
REMARK    7  A    between atoms: C16_21  and  C17_22 
REMARK    8  A    between atoms: C23_30  and  O6_31 
REMARK    9  A    between atoms: C27_35  and  O7_36 
REMARK   10  A    between atoms: C30_39  and  O8_40 
REMARK   11  A    between atoms: C31_41  and  O9_42 
ROOT
HETATM    1  C4  UNL     1      -2.749  49.536 -23.833  1.00  0.00     0.127 C 
HETATM    2  C5  UNL     1      -2.340  48.289 -23.053  1.00  0.00     0.033 C 
HETATM    3  C6  UNL     1      -1.838  48.646 -21.657  1.00  0.00     0.021 C 
HETATM    4  C7  UNL     1      -2.869  49.436 -20.787  1.00  0.00     0.026 C 
HETATM    5  C11 UNL     1      -4.088  48.536 -20.367  1.00  0.00     0.009 C 
HETATM    6  C12 UNL     1      -3.728  47.318 -19.520  1.00  0.00     0.007 C 
HETATM    7  C13 UNL     1      -4.872  46.308 -19.471  1.00  0.00     0.013 C 
HETATM    8  C14 UNL     1      -6.302  46.901 -19.408  1.00  0.00    -0.005 C 
HETATM    9  C15 UNL     1      -7.099  46.009 -18.413  1.00  0.00     0.019 C 
HETATM   10  C16 UNL     1      -7.031  46.958 -20.794  1.00  0.00     0.028 C 
HETATM   11  C21 UNL     1      -8.173  47.973 -20.588  1.00  0.00     0.013 C 
HETATM   12  C22 UNL     1      -7.789  48.803 -19.359  1.00  0.00     0.040 C 
HETATM   13  C23 UNL     1      -6.342  48.412 -19.002  1.00  0.00     0.070 C 
HETATM   14  C24 UNL     1      -5.206  49.324 -19.623  1.00  0.00     0.026 C 
HETATM   15  C25 UNL     1      -5.680  50.511 -20.474  1.00  0.00     0.011 C 
HETATM   16  C26 UNL     1      -4.530  51.417 -20.910  1.00  0.00     0.039 C 
HETATM   17  C27 UNL     1      -3.370  50.683 -21.602  1.00  0.00     0.073 C 
HETATM   18  C28 UNL     1      -3.825  50.293 -23.042  1.00  0.00     0.071 C 
ENDROOT
BRANCH   1  19
HETATM   19  O2  UNL     1      -1.669  50.454 -24.037  1.00  0.00    -0.356 OA
BRANCH  19  20
HETATM   20  C3  UNL     1      -1.375  50.751 -25.403  1.00  0.00     0.263 C 
HETATM   21  O1  UNL     1       0.007  51.082 -25.511  1.00  0.00    -0.354 OA
HETATM   22  C2  UNL     1       0.394  51.394 -26.852  1.00  0.00     0.151 C 
HETATM   23  C1  UNL     1       1.905  51.608 -26.841  1.00  0.00     0.042 C 
HETATM   24  C31 UNL     1      -0.355  52.645 -27.345  1.00  0.00     0.175 C 
HETATM   25  C30 UNL     1      -1.869  52.440 -27.187  1.00  0.00     0.154 C 
HETATM   26  C29 UNL     1      -2.222  51.962 -25.789  1.00  0.00     0.095 C 
BRANCH  24  27
HETATM   27  O9  UNL     1      -0.092  52.916 -28.723  1.00  0.00    -0.390 OA
HETATM   28  H47 UNL     1       0.842  53.177 -28.797  1.00  0.00     0.210 HD
ENDBRANCH  24  27
BRANCH  25  29
HETATM   29  O8  UNL     1      -2.321  51.470 -28.142  1.00  0.00    -0.393 OA
HETATM   30  H45 UNL     1      -1.937  51.766 -28.996  1.00  0.00     0.210 HD
ENDBRANCH  25  29
ENDBRANCH  19  20
ENDBRANCH   1  19
BRANCH  17  31
HETATM   31  O7  UNL     1      -2.309  51.647 -21.725  1.00  0.00    -0.389 OA
HETATM   32  H39 UNL     1      -1.760  51.393 -22.497  1.00  0.00     0.210 HD
ENDBRANCH  17  31
BRANCH   4  33
HETATM   33  C8  UNL     1      -2.065  49.843 -19.542  1.00  0.00     0.068 C 
HETATM   34  N1  UNL     1      -0.890  50.371 -19.608  1.00  0.00    -0.399 N 
ATOM     35  H1  UNL     1      -0.432  50.591 -20.492  1.00  0.00     0.158 HD
BRANCH  34  36
HETATM   36  C9  UNL     1      -0.265  50.631 -18.305  1.00  0.00     0.144 C 
BRANCH  36  37
HETATM   37  C10 UNL     1       0.260  52.069 -18.323  1.00  0.00     0.183 C 
BRANCH  37  38
HETATM   38  O3  UNL     1       1.159  52.257 -17.231  1.00  0.00    -0.399 OA
HETATM   39  H16 UNL     1       1.826  51.542 -17.326  1.00  0.00     0.209 HD
ENDBRANCH  37  38
ENDBRANCH  36  37
ENDBRANCH  34  36
ENDBRANCH   4  33
BRANCH  13  40
HETATM   40  O6  UNL     1      -6.205  48.506 -17.578  1.00  0.00    -0.389 OA
HETATM   41  H33 UNL     1      -6.295  49.443 -17.326  1.00  0.00     0.210 HD
ENDBRANCH  13  40
BRANCH  10  42
HETATM   42  C17 UNL     1      -7.434  45.667 -21.452  1.00  0.00    -0.045 A 
HETATM   43  C18 UNL     1      -6.592  44.794 -22.004  1.00  0.00     0.087 A 
HETATM   44  C19 UNL     1      -7.390  43.700 -22.554  1.00  0.00     0.283 A 
HETATM   45  O4  UNL     1      -6.936  42.733 -23.138  1.00  0.00    -0.260 OA
HETATM   46  O5  UNL     1      -8.704  43.949 -22.316  1.00  0.00    -0.314 OA
HETATM   47  C20 UNL     1      -8.831  45.202 -21.641  1.00  0.00     0.213 A 
ENDBRANCH  10  42
TORSDOF 11
ENDMDL
MODEL 8
REMARK minimizedAffinity -7.85066509
REMARK CNNscore 0.276756287
REMARK CNNaffinity 6.03203344
REMARK  11 active torsions:
REMARK  status: ('A' for Active; 'I' for Inactive)
REMARK    1  A    between atoms: C3_4  and  O2_5 
REMARK    2  A    between atoms: O2_5  and  C4_6 
REMARK    3  A    between atoms: C7_9  and  C8_10 
REMARK    4  A    between atoms: N1_11  and  C9_13 
REMARK    5  A    between atoms: C9_13  and  C10_14 
REMARK    6  A    between atoms: C10_14  and  O3_15 
REMARK    7  A    between atoms: C16_21  and  C17_22 
REMARK    8  A    between atoms: C23_30  and  O6_31 
REMARK    9  A    between atoms: C27_35  and  O7_36 
REMARK   10  A    between atoms: C30_39  and  O8_40 
REMARK   11  A    between atoms: C31_41  and  O9_42 
ROOT
HETATM    1  C4  UNL     1      -3.244  47.743 -18.418  1.00  0.00     0.127 C 
HETATM    2  C5  UNL     1      -2.625  47.187 -19.697  1.00  0.00     0.033 C 
HETATM    3  C6  UNL     1      -3.679  46.528 -20.583  1.00  0.00     0.021 C 
HETATM    4  C7  UNL     1      -4.855  47.472 -20.992  1.00  0.00     0.026 C 
HETATM    5  C11 UNL     1      -4.383  48.590 -21.994  1.00  0.00     0.009 C 
HETATM    6  C12 UNL     1      -3.827  48.074 -23.319  1.00  0.00     0.007 C 
HETATM    7  C13 UNL     1      -3.056  49.159 -24.067  1.00  0.00     0.013 C 
HETATM    8  C14 UNL     1      -3.635  50.593 -23.974  1.00  0.00    -0.005 C 
HETATM    9  C15 UNL     1      -3.474  51.219 -25.389  1.00  0.00     0.019 C 
HETATM   10  C16 UNL     1      -2.939  51.494 -22.896  1.00  0.00     0.028 C 
HETATM   11  C21 UNL     1      -3.938  52.642 -22.650  1.00  0.00     0.013 C 
HETATM   12  C22 UNL     1      -5.296  52.141 -23.151  1.00  0.00     0.040 C 
HETATM   13  C23 UNL     1      -5.118  50.645 -23.475  1.00  0.00     0.070 C 
HETATM   14  C24 UNL     1      -5.491  49.636 -22.313  1.00  0.00     0.026 C 
HETATM   15  C25 UNL     1      -6.022  50.264 -21.016  1.00  0.00     0.011 C 
HETATM   16  C26 UNL     1      -6.493  49.218 -20.008  1.00  0.00     0.039 C 
HETATM   17  C27 UNL     1      -5.457  48.125 -19.696  1.00  0.00     0.073 C 
HETATM   18  C28 UNL     1      -4.351  48.742 -18.787  1.00  0.00     0.071 C 
ENDROOT
BRANCH   1  19
HETATM   19  O2  UNL     1      -3.856  46.738 -17.601  1.00  0.00    -0.356 OA
BRANCH  19  20
HETATM   20  C3  UNL     1      -2.984  45.690 -17.174  1.00  0.00     0.263 C 
HETATM   21  O1  UNL     1      -3.454  44.457 -17.714  1.00  0.00    -0.354 OA
HETATM   22  C2  UNL     1      -2.636  43.346 -17.337  1.00  0.00     0.151 C 
HETATM   23  C1  UNL     1      -3.178  42.124 -18.074  1.00  0.00     0.042 C 
HETATM   24  C31 UNL     1      -2.671  43.152 -15.811  1.00  0.00     0.175 C 
HETATM   25  C30 UNL     1      -2.269  44.460 -15.112  1.00  0.00     0.154 C 
HETATM   26  C29 UNL     1      -3.057  45.642 -15.650  1.00  0.00     0.095 C 
BRANCH  24  27
HETATM   27  O9  UNL     1      -1.767  42.131 -15.382  1.00  0.00    -0.390 OA
HETATM   28  H47 UNL     1      -2.104  41.283 -15.718  1.00  0.00     0.210 HD
ENDBRANCH  24  27
BRANCH  25  29
HETATM   29  O8  UNL     1      -0.869  44.698 -15.315  1.00  0.00    -0.393 OA
HETATM   30  H45 UNL     1      -0.437  43.846 -15.082  1.00  0.00     0.210 HD
ENDBRANCH  25  29
ENDBRANCH  19  20
ENDBRANCH   1  19
BRANCH  17  31
HETATM   31  O7  UNL     1      -6.153  47.130 -18.924  1.00  0.00    -0.389 OA
HETATM   32  H39 UNL     1      -5.494  46.672 -18.359  1.00  0.00     0.210 HD
ENDBRANCH  17  31
BRANCH   4  33
HETATM   33  C8  UNL     1      -5.855  46.535 -21.687  1.00  0.00     0.068 C 
HETATM   34  N1  UNL     1      -6.254  45.425 -21.166  1.00  0.00    -0.399 N 
ATOM     35  H1  UNL     1      -5.963  45.114 -20.239  1.00  0.00     0.158 HD
BRANCH  34  36
HETATM   36  C9  UNL     1      -7.163  44.645 -22.015  1.00  0.00     0.144 C 
BRANCH  36  37
HETATM   37  C10 UNL     1      -6.528  43.268 -22.228  1.00  0.00     0.183 C 
BRANCH  37  38
HETATM   38  O3  UNL     1      -5.873  42.859 -21.027  1.00  0.00    -0.399 OA
HETATM   39  H16 UNL     1      -6.560  42.925 -20.329  1.00  0.00     0.209 HD
ENDBRANCH  37  38
ENDBRANCH  36  37
ENDBRANCH  34  36
ENDBRANCH   4  33
BRANCH  13  40
HETATM   40  O6  UNL     1      -5.981  50.332 -24.576  1.00  0.00    -0.389 OA
HETATM   41  H33 UNL     1      -6.903  50.429 -24.276  1.00  0.00     0.210 HD
ENDBRANCH  13  40
BRANCH  10  42
HETATM   42  C17 UNL     1      -1.516  51.922 -23.123  1.00  0.00    -0.045 A 
HETATM   43  C18 UNL     1      -1.100  52.699 -24.124  1.00  0.00     0.087 A 
HETATM   44  C19 UNL     1       0.348  52.845 -23.995  1.00  0.00     0.283 A 
HETATM   45  O4  UNL     1       1.052  53.487 -24.753  1.00  0.00    -0.260 OA
HETATM   46  O5  UNL     1       0.768  52.145 -22.909  1.00  0.00    -0.314 OA
HETATM   47  C20 UNL     1      -0.353  51.496 -22.305  1.00  0.00     0.213 A 
ENDBRANCH  10  42
TORSDOF 11
ENDMDL
MODEL 9
REMARK minimizedAffinity -10.1521597
REMARK CNNscore 0.275346428
REMARK CNNaffinity 6.70603323
REMARK  11 active torsions:
REMARK  status: ('A' for Active; 'I' for Inactive)
REMARK    1  A    between atoms: C3_4  and  O2_5 
REMARK    2  A    between atoms: O2_5  and  C4_6 
REMARK    3  A    between atoms: C7_9  and  C8_10 
REMARK    4  A    between atoms: N1_11  and  C9_13 
REMARK    5  A    between atoms: C9_13  and  C10_14 
REMARK    6  A    between atoms: C10_14  and  O3_15 
REMARK    7  A    between atoms: C16_21  and  C17_22 
REMARK    8  A    between atoms: C23_30  and  O6_31 
REMARK    9  A    between atoms: C27_35  and  O7_36 
REMARK   10  A    between atoms: C30_39  and  O8_40 
REMARK   11  A    between atoms: C31_41  and  O9_42 
ROOT
HETATM    1  C4  UNL     1      -0.660  50.084 -19.331  1.00  0.00     0.127 C 
HETATM    2  C5  UNL     1      -0.541  48.917 -20.307  1.00  0.00     0.033 C 
HETATM    3  C6  UNL     1      -1.839  48.118 -20.378  1.00  0.00     0.021 C 
HETATM    4  C7  UNL     1      -3.090  48.959 -20.790  1.00  0.00     0.026 C 
HETATM    5  C11 UNL     1      -3.018  49.410 -22.295  1.00  0.00     0.009 C 
HETATM    6  C12 UNL     1      -2.975  48.268 -23.308  1.00  0.00     0.007 C 
HETATM    7  C13 UNL     1      -2.533  48.754 -24.687  1.00  0.00     0.013 C 
HETATM    8  C14 UNL     1      -3.047  50.150 -25.114  1.00  0.00    -0.005 C 
HETATM    9  C15 UNL     1      -3.412  50.036 -26.622  1.00  0.00     0.019 C 
HETATM   10  C16 UNL     1      -2.016  51.309 -24.888  1.00  0.00     0.028 C 
HETATM   11  C21 UNL     1      -2.866  52.594 -24.920  1.00  0.00     0.013 C 
HETATM   12  C22 UNL     1      -4.310  52.158 -24.654  1.00  0.00     0.040 C 
HETATM   13  C23 UNL     1      -4.251  50.670 -24.258  1.00  0.00     0.070 C 
HETATM   14  C24 UNL     1      -4.173  50.370 -22.705  1.00  0.00     0.026 C 
HETATM   15  C25 UNL     1      -4.204  51.593 -21.777  1.00  0.00     0.011 C 
HETATM   16  C26 UNL     1      -4.273  51.209 -20.301  1.00  0.00     0.039 C 
HETATM   17  C27 UNL     1      -3.188  50.216 -19.852  1.00  0.00     0.073 C 
HETATM   18  C28 UNL     1      -1.832  50.980 -19.759  1.00  0.00     0.071 C 
ENDROOT
BRANCH   1  19
HETATM   19  O2  UNL     1      -0.930  49.672 -17.986  1.00  0.00    -0.356 OA
BRANCH  19  20
HETATM   20  C3  UNL     1      -0.532  50.601 -16.976  1.00  0.00     0.263 C 
HETATM   21  O1  UNL     1       0.754  51.116 -17.311  1.00  0.00    -0.354 OA
HETATM   22  C2  UNL     1       1.235  52.059 -16.351  1.00  0.00     0.151 C 
HETATM   23  C1  UNL     1       2.550  52.614 -16.890  1.00  0.00     0.042 C 
HETATM   24  C31 UNL     1       1.423  51.379 -14.983  1.00  0.00     0.175 C 
HETATM   25  C30 UNL     1       0.112  50.701 -14.556  1.00  0.00     0.154 C 
HETATM   26  C29 UNL     1      -0.445  49.823 -15.665  1.00  0.00     0.095 C 
BRANCH  24  27
HETATM   27  O9  UNL     1       1.781  52.317 -13.965  1.00  0.00    -0.390 OA
HETATM   28  H47 UNL     1       2.673  52.644 -14.170  1.00  0.00     0.210 HD
ENDBRANCH  24  27
BRANCH  25  29
HETATM   29  O8  UNL     1      -0.857  51.704 -14.221  1.00  0.00    -0.393 OA
HETATM   30  H45 UNL     1      -0.382  52.313 -13.614  1.00  0.00     0.210 HD
ENDBRANCH  25  29
ENDBRANCH  19  20
ENDBRANCH   1  19
BRANCH  17  31
HETATM   31  O7  UNL     1      -3.552  49.807 -18.521  1.00  0.00    -0.389 OA
HETATM   32  H39 UNL     1      -2.730  49.549 -18.050  1.00  0.00     0.210 HD
ENDBRANCH  17  31
BRANCH   4  33
HETATM   33  C8  UNL     1      -4.268  47.993 -20.588  1.00  0.00     0.068 C 
HETATM   34  N1  UNL     1      -4.475  46.972 -21.349  1.00  0.00    -0.399 N 
ATOM     35  H1  UNL     1      -3.849  46.716 -22.112  1.00  0.00     0.158 HD
BRANCH  34  36
HETATM   36  C9  UNL     1      -5.687  46.209 -21.028  1.00  0.00     0.144 C 
BRANCH  36  37
HETATM   37  C10 UNL     1      -5.324  44.723 -21.076  1.00  0.00     0.183 C 
BRANCH  37  38
HETATM   38  O3  UNL     1      -3.933  44.567 -20.797  1.00  0.00    -0.399 OA
HETATM   39  H16 UNL     1      -3.793  45.029 -19.943  1.00  0.00     0.209 HD
ENDBRANCH  37  38
ENDBRANCH  36  37
ENDBRANCH  34  36
ENDBRANCH   4  33
BRANCH  13  40
HETATM   40  O6  UNL     1      -5.451  50.045 -24.732  1.00  0.00    -0.389 OA
HETATM   41  H33 UNL     1      -6.203  50.420 -24.238  1.00  0.00     0.210 HD
ENDBRANCH  13  40
BRANCH  10  42
HETATM   42  C17 UNL     1      -0.773  51.343 -25.733  1.00  0.00    -0.045 A 
HETATM   43  C18 UNL     1       0.449  51.634 -25.287  1.00  0.00     0.087 A 
HETATM   44  C19 UNL     1       1.358  51.587 -26.429  1.00  0.00     0.283 A 
HETATM   45  O4  UNL     1       2.554  51.810 -26.376  1.00  0.00    -0.260 OA
HETATM   46  O5  UNL     1       0.652  51.267 -27.544  1.00  0.00    -0.314 OA
HETATM   47  C20 UNL     1      -0.728  51.122 -27.201  1.00  0.00     0.213 A 
ENDBRANCH  10  42
TORSDOF 11
ENDMDL
