MODEL 1
REMARK minimizedAffinity -9.25999928
REMARK CNNscore 0.50620842
REMARK CNNaffinity 6.51424408
REMARK  5 active torsions:
REMARK  status: ('A' for Active; 'I' for Inactive)
REMARK    1  A    between atoms: C4_4  and  O1_5 
REMARK    2  A    between atoms: C5_6  and  O2_7 
REMARK    3  A    between atoms: C8_11  and  C9_12 
REMARK    4  A    between atoms: C19_23  and  C20_24 
REMARK    5  A    between atoms: C26_32  and  O7_33 
ROOT
HETATM    1  C1  UNL     1      -5.145  14.105  20.477  1.00  0.00     0.040 C 
HETATM    2  C2  UNL     1      -3.966  13.589  19.662  1.00  0.00     0.123 C 
HETATM    3  C3  UNL     1      -3.263  14.733  18.924  1.00  0.00     0.069 C 
HETATM    4  C4  UNL     1      -2.591  14.261  17.636  1.00  0.00     0.188 C 
HETATM    5  C5  UNL     1      -2.151  12.790  17.729  1.00  0.00     0.240 C 
HETATM    6  O3  UNL     1      -1.450  12.440  16.526  1.00  0.00    -0.341 OA
HETATM    7  C6  UNL     1      -1.661  11.062  16.216  1.00  0.00     0.156 C 
HETATM    8  C7  UNL     1      -0.776  10.686  15.024  1.00  0.00     0.056 C 
HETATM    9  C8  UNL     1      -1.001   9.232  14.527  1.00  0.00     0.043 C 
HETATM   10  C10 UNL     1      -2.502   8.969  14.376  1.00  0.00    -0.065 C 
HETATM   11  C11 UNL     1      -3.017   8.343  13.304  1.00  0.00    -0.022 C 
HETATM   12  C12 UNL     1      -2.208   7.799  12.168  1.00  0.00     0.035 C 
HETATM   13  C13 UNL     1      -0.687   7.741  12.433  1.00  0.00     0.030 C 
HETATM   14  C14 UNL     1      -0.228   9.027  13.167  1.00  0.00     0.012 C 
HETATM   15  C15 UNL     1       1.302   9.069  13.330  1.00  0.00     0.007 C 
HETATM   16  C16 UNL     1       2.032   8.860  12.009  1.00  0.00     0.013 C 
HETATM   17  C17 UNL     1       1.656   7.532  11.297  1.00  0.00    -0.005 C 
HETATM   18  C18 UNL     1       2.241   6.354  12.102  1.00  0.00     0.019 C 
HETATM   19  C19 UNL     1       2.186   7.613   9.817  1.00  0.00     0.028 C 
HETATM   20  C24 UNL     1       0.990   8.134   8.983  1.00  0.00     0.013 C 
HETATM   21  C25 UNL     1      -0.166   8.372   9.954  1.00  0.00     0.040 C 
HETATM   22  C26 UNL     1       0.111   7.430  11.134  1.00  0.00     0.070 C 
HETATM   23  C27 UNL     1      -3.410   9.429  15.497  1.00  0.00     0.069 C 
HETATM   24  C28 UNL     1      -3.140  10.884  15.873  1.00  0.00     0.158 C 
HETATM   25  O8  UNL     1      -4.029  11.291  16.915  1.00  0.00    -0.347 OA
HETATM   26  C29 UNL     1      -3.413  11.898  18.058  1.00  0.00     0.325 C 
HETATM   27  O9  UNL     1      -4.454  12.631  18.728  1.00  0.00    -0.351 OA
ENDROOT
BRANCH  19  28
HETATM   28  C20 UNL     1       2.817   6.376   9.234  1.00  0.00    -0.045 A 
HETATM   29  C21 UNL     1       3.545   5.434   9.835  1.00  0.00     0.087 A 
HETATM   30  C22 UNL     1       3.892   4.441   8.822  1.00  0.00     0.283 A 
HETATM   31  O5  UNL     1       4.541   3.433   9.025  1.00  0.00    -0.260 OA
HETATM   32  O6  UNL     1       3.356   4.815   7.628  1.00  0.00    -0.314 OA
HETATM   33  C23 UNL     1       2.651   6.043   7.800  1.00  0.00     0.213 A 
ENDBRANCH  19  28
BRANCH  22  34
HETATM   34  O7  UNL     1      -0.215   6.100  10.706  1.00  0.00    -0.389 OA
HETATM   35  H34 UNL     1      -1.157   6.063  10.471  1.00  0.00     0.210 HD
ENDBRANCH  22  34
BRANCH   9  36
HETATM   36  C9  UNL     1      -0.441   8.267  15.592  1.00  0.00     0.245 C 
HETATM   37  O4  UNL     1       0.304   8.581  16.515  1.00  0.00    -0.306 OA
ENDBRANCH   9  36
BRANCH   5  38
HETATM   38  O2  UNL     1      -1.184  12.675  18.786  1.00  0.00    -0.360 OA
HETATM   39  H9  UNL     1      -0.672  13.505  18.740  1.00  0.00     0.213 HD
ENDBRANCH   5  38
BRANCH   4  40
HETATM   40  O1  UNL     1      -1.438  15.090  17.398  1.00  0.00    -0.390 OA
HETATM   41  H8  UNL     1      -1.020  14.730  16.591  1.00  0.00     0.210 HD
ENDBRANCH   4  40
TORSDOF 5
ENDMDL
MODEL 2
REMARK minimizedAffinity -7.48780346
REMARK CNNscore 0.447775275
REMARK CNNaffinity 5.65773964
REMARK  5 active torsions:
REMARK  status: ('A' for Active; 'I' for Inactive)
REMARK    1  A    between atoms: C4_4  and  O1_5 
REMARK    2  A    between atoms: C5_6  and  O2_7 
REMARK    3  A    between atoms: C8_11  and  C9_12 
REMARK    4  A    between atoms: C19_23  and  C20_24 
REMARK    5  A    between atoms: C26_32  and  O7_33 
ROOT
HETATM    1  C1  UNL     1       9.966 -16.286   1.927  1.00  0.00     0.040 C 
HETATM    2  C2  UNL     1      10.983 -15.486   2.729  1.00  0.00     0.123 C 
HETATM    3  C3  UNL     1      10.989 -15.918   4.199  1.00  0.00     0.069 C 
HETATM    4  C4  UNL     1      11.411 -14.783   5.131  1.00  0.00     0.188 C 
HETATM    5  C5  UNL     1      12.368 -13.800   4.434  1.00  0.00     0.240 C 
HETATM    6  O3  UNL     1      12.795 -12.816   5.389  1.00  0.00    -0.341 OA
HETATM    7  C6  UNL     1      13.029 -11.567   4.737  1.00  0.00     0.156 C 
HETATM    8  C7  UNL     1      13.631 -10.589   5.750  1.00  0.00     0.056 C 
HETATM    9  C8  UNL     1      13.830  -9.159   5.180  1.00  0.00     0.043 C 
HETATM   10  C10 UNL     1      12.551  -8.708   4.471  1.00  0.00    -0.065 C 
HETATM   11  C11 UNL     1      12.032  -7.479   4.637  1.00  0.00    -0.022 C 
HETATM   12  C12 UNL     1      12.643  -6.406   5.484  1.00  0.00     0.035 C 
HETATM   13  C13 UNL     1      14.089  -6.697   5.942  1.00  0.00     0.030 C 
HETATM   14  C14 UNL     1      14.225  -8.185   6.357  1.00  0.00     0.012 C 
HETATM   15  C15 UNL     1      15.615  -8.484   6.947  1.00  0.00     0.007 C 
HETATM   16  C16 UNL     1      15.983  -7.529   8.075  1.00  0.00     0.013 C 
HETATM   17  C17 UNL     1      15.943  -6.033   7.659  1.00  0.00    -0.005 C 
HETATM   18  C18 UNL     1      17.115  -5.754   6.695  1.00  0.00     0.019 C 
HETATM   19  C19 UNL     1      15.984  -5.166   8.972  1.00  0.00     0.028 C 
HETATM   20  C24 UNL     1      14.502  -4.875   9.315  1.00  0.00     0.013 C 
HETATM   21  C25 UNL     1      13.650  -5.575   8.258  1.00  0.00     0.040 C 
HETATM   22  C26 UNL     1      14.562  -5.688   7.029  1.00  0.00     0.070 C 
HETATM   23  C27 UNL     1      11.878  -9.698   3.544  1.00  0.00     0.069 C 
HETATM   24  C28 UNL     1      11.685 -11.054   4.218  1.00  0.00     0.158 C 
HETATM   25  O8  UNL     1      11.027 -11.954   3.325  1.00  0.00    -0.347 OA
HETATM   26  C29 UNL     1      11.662 -13.226   3.143  1.00  0.00     0.325 C 
HETATM   27  O9  UNL     1      10.648 -14.105   2.625  1.00  0.00    -0.351 OA
ENDROOT
BRANCH  19  28
HETATM   28  C20 UNL     1      16.842  -3.928   8.964  1.00  0.00    -0.045 A 
HETATM   29  C21 UNL     1      16.578  -2.711   9.440  1.00  0.00     0.087 A 
HETATM   30  C22 UNL     1      17.757  -1.884   9.199  1.00  0.00     0.283 A 
HETATM   31  O5  UNL     1      17.870  -0.717   9.520  1.00  0.00    -0.260 OA
HETATM   32  O6  UNL     1      18.709  -2.635   8.580  1.00  0.00    -0.314 OA
HETATM   33  C23 UNL     1      18.209  -3.957   8.391  1.00  0.00     0.213 A 
ENDBRANCH  19  28
BRANCH  22  34
HETATM   34  O7  UNL     1      14.644  -4.385   6.435  1.00  0.00    -0.389 OA
HETATM   35  H34 UNL     1      13.756  -4.104   6.160  1.00  0.00     0.210 HD
ENDBRANCH  22  34
BRANCH   9  36
HETATM   36  C9  UNL     1      14.971  -9.208   4.143  1.00  0.00     0.245 C 
HETATM   37  O4  UNL     1      15.226 -10.159   3.411  1.00  0.00    -0.306 OA
ENDBRANCH   9  36
BRANCH   5  38
HETATM   38  O2  UNL     1      13.557 -14.517   4.062  1.00  0.00    -0.360 OA
HETATM   39  H9  UNL     1      13.696 -15.154   4.788  1.00  0.00     0.213 HD
ENDBRANCH   5  38
BRANCH   4  40
HETATM   40  O1  UNL     1      12.069 -15.359   6.275  1.00  0.00    -0.390 OA
HETATM   41  H8  UNL     1      12.354 -14.601   6.822  1.00  0.00     0.210 HD
ENDBRANCH   4  40
TORSDOF 5
ENDMDL
MODEL 3
REMARK minimizedAffinity -7.69467592
REMARK CNNscore 0.335675985
REMARK CNNaffinity 5.80945206
REMARK  5 active torsions:
REMARK  status: ('A' for Active; 'I' for Inactive)
REMARK    1  A    between atoms: C4_4  and  O1_5 
REMARK    2  A    between atoms: C5_6  and  O2_7 
REMARK    3  A    between atoms: C8_11  and  C9_12 
REMARK    4  A    between atoms: C19_23  and  C20_24 
REMARK    5  A    between atoms: C26_32  and  O7_33 
ROOT
HETATM    1  C1  UNL     1      -7.863  -9.719  10.508  1.00  0.00     0.040 C 
HETATM    2  C2  UNL     1      -7.418  -9.922   9.066  1.00  0.00     0.123 C 
HETATM    3  C3  UNL     1      -6.125  -9.154   8.775  1.00  0.00     0.069 C 
HETATM    4  C4  UNL     1      -6.015  -8.749   7.306  1.00  0.00     0.188 C 
HETATM    5  C5  UNL     1      -6.750  -9.739   6.385  1.00  0.00     0.240 C 
HETATM    6  O3  UNL     1      -6.529  -9.351   5.020  1.00  0.00    -0.341 OA
HETATM    7  C6  UNL     1      -7.664  -9.693   4.222  1.00  0.00     0.156 C 
HETATM    8  C7  UNL     1      -7.333  -9.412   2.753  1.00  0.00     0.056 C 
HETATM    9  C8  UNL     1      -8.535  -9.647   1.799  1.00  0.00     0.043 C 
HETATM   10  C10 UNL     1      -9.780  -8.958   2.363  1.00  0.00    -0.065 C 
HETATM   11  C11 UNL     1     -10.609  -8.230   1.596  1.00  0.00    -0.022 C 
HETATM   12  C12 UNL     1     -10.450  -8.036   0.120  1.00  0.00     0.035 C 
HETATM   13  C13 UNL     1      -9.417  -8.975  -0.542  1.00  0.00     0.030 C 
HETATM   14  C14 UNL     1      -8.165  -9.107   0.363  1.00  0.00     0.012 C 
HETATM   15  C15 UNL     1      -7.055  -9.926  -0.322  1.00  0.00     0.007 C 
HETATM   16  C16 UNL     1      -6.718  -9.396  -1.710  1.00  0.00     0.013 C 
HETATM   17  C17 UNL     1      -7.940  -9.339  -2.666  1.00  0.00    -0.005 C 
HETATM   18  C18 UNL     1      -8.350 -10.780  -3.035  1.00  0.00     0.019 C 
HETATM   19  C19 UNL     1      -7.541  -8.458  -3.908  1.00  0.00     0.028 C 
HETATM   20  C24 UNL     1      -8.028  -7.028  -3.568  1.00  0.00     0.013 C 
HETATM   21  C25 UNL     1      -8.652  -7.086  -2.174  1.00  0.00     0.040 C 
HETATM   22  C26 UNL     1      -9.103  -8.543  -2.004  1.00  0.00     0.070 C 
HETATM   23  C27 UNL     1     -10.069  -9.134   3.839  1.00  0.00     0.069 C 
HETATM   24  C28 UNL     1      -8.837  -8.832   4.690  1.00  0.00     0.158 C 
HETATM   25  O8  UNL     1      -9.152  -8.985   6.075  1.00  0.00    -0.347 OA
HETATM   26  C29 UNL     1      -8.264  -9.821   6.827  1.00  0.00     0.325 C 
HETATM   27  O9  UNL     1      -8.461  -9.470   8.208  1.00  0.00    -0.351 OA
ENDROOT
BRANCH  19  28
HETATM   28  C20 UNL     1      -7.988  -8.926  -5.268  1.00  0.00    -0.045 A 
HETATM   29  C21 UNL     1      -7.414  -9.802  -6.093  1.00  0.00     0.087 A 
HETATM   30  C22 UNL     1      -8.269  -9.915  -7.271  1.00  0.00     0.283 A 
HETATM   31  O5  UNL     1      -8.055 -10.640  -8.223  1.00  0.00    -0.260 OA
HETATM   32  O6  UNL     1      -9.347  -9.097  -7.120  1.00  0.00    -0.314 OA
HETATM   33  C23 UNL     1      -9.248  -8.425  -5.866  1.00  0.00     0.213 A 
ENDBRANCH  19  28
BRANCH  22  34
HETATM   34  O7  UNL     1     -10.286  -8.720  -2.796  1.00  0.00    -0.389 OA
HETATM   35  H34 UNL     1     -10.979  -8.122  -2.471  1.00  0.00     0.210 HD
ENDBRANCH  22  34
BRANCH   9  36
HETATM   36  C9  UNL     1      -8.806 -11.163   1.728  1.00  0.00     0.245 C 
HETATM   37  O4  UNL     1      -8.494 -11.982   2.587  1.00  0.00    -0.306 OA
ENDBRANCH   9  36
BRANCH   5  38
HETATM   38  O2  UNL     1      -6.130 -11.028   6.524  1.00  0.00    -0.360 OA
HETATM   39  H9  UNL     1      -5.181 -10.832   6.642  1.00  0.00     0.213 HD
ENDBRANCH   5  38
BRANCH   4  40
HETATM   40  O1  UNL     1      -4.620  -8.713   6.951  1.00  0.00    -0.390 OA
HETATM   41  H8  UNL     1      -4.598  -8.490   5.999  1.00  0.00     0.210 HD
ENDBRANCH   4  40
TORSDOF 5
ENDMDL
MODEL 4
REMARK minimizedAffinity -7.66913509
REMARK CNNscore 0.322926641
REMARK CNNaffinity 6.14909744
REMARK  5 active torsions:
REMARK  status: ('A' for Active; 'I' for Inactive)
REMARK    1  A    between atoms: C4_4  and  O1_5 
REMARK    2  A    between atoms: C5_6  and  O2_7 
REMARK    3  A    between atoms: C8_11  and  C9_12 
REMARK    4  A    between atoms: C19_23  and  C20_24 
REMARK    5  A    between atoms: C26_32  and  O7_33 
ROOT
HETATM    1  C1  UNL     1      -4.993 -10.287   6.989  1.00  0.00     0.040 C 
HETATM    2  C2  UNL     1      -5.521  -9.854   8.350  1.00  0.00     0.123 C 
HETATM    3  C3  UNL     1      -4.442  -9.988   9.429  1.00  0.00     0.069 C 
HETATM    4  C4  UNL     1      -5.038 -10.246  10.812  1.00  0.00     0.188 C 
HETATM    5  C5  UNL     1      -6.439  -9.624  10.953  1.00  0.00     0.240 C 
HETATM    6  O3  UNL     1      -6.900  -9.825  12.299  1.00  0.00    -0.341 OA
HETATM    7  C6  UNL     1      -8.321  -9.965  12.316  1.00  0.00     0.156 C 
HETATM    8  C7  UNL     1      -8.791 -10.017  13.773  1.00  0.00     0.056 C 
HETATM    9  C8  UNL     1     -10.315 -10.276  13.917  1.00  0.00     0.043 C 
HETATM   10  C10 UNL     1     -10.721 -11.451  13.024  1.00  0.00    -0.065 C 
HETATM   11  C11 UNL     1     -11.537 -12.430  13.452  1.00  0.00    -0.022 C 
HETATM   12  C12 UNL     1     -12.171 -12.476  14.807  1.00  0.00     0.035 C 
HETATM   13  C13 UNL     1     -12.063 -11.161  15.611  1.00  0.00     0.030 C 
HETATM   14  C14 UNL     1     -10.650 -10.547  15.435  1.00  0.00     0.012 C 
HETATM   15  C15 UNL     1     -10.457  -9.307  16.326  1.00  0.00     0.007 C 
HETATM   16  C16 UNL     1     -10.794  -9.584  17.786  1.00  0.00     0.013 C 
HETATM   17  C17 UNL     1     -12.237 -10.115  17.999  1.00  0.00    -0.005 C 
HETATM   18  C18 UNL     1     -13.234  -8.971  17.719  1.00  0.00     0.019 C 
HETATM   19  C19 UNL     1     -12.329 -10.691  19.461  1.00  0.00     0.028 C 
HETATM   20  C24 UNL     1     -12.036 -12.205  19.323  1.00  0.00     0.013 C 
HETATM   21  C25 UNL     1     -11.757 -12.476  17.845  1.00  0.00     0.040 C 
HETATM   22  C26 UNL     1     -12.491 -11.357  17.094  1.00  0.00     0.070 C 
HETATM   23  C27 UNL     1     -10.181 -11.475  11.610  1.00  0.00     0.069 C 
HETATM   24  C28 UNL     1      -8.670 -11.261  11.585  1.00  0.00     0.158 C 
HETATM   25  O8  UNL     1      -8.191 -11.314  10.240  1.00  0.00    -0.347 OA
HETATM   26  C29 UNL     1      -7.375 -10.212   9.825  1.00  0.00     0.325 C 
HETATM   27  O9  UNL     1      -6.643 -10.671   8.675  1.00  0.00    -0.351 OA
ENDROOT
BRANCH  19  28
HETATM   28  C20 UNL     1     -13.580 -10.401  20.247  1.00  0.00    -0.045 A 
HETATM   29  C21 UNL     1     -13.815 -10.553  21.551  1.00  0.00     0.087 A 
HETATM   30  C22 UNL     1     -15.181 -10.100  21.803  1.00  0.00     0.283 A 
HETATM   31  O5  UNL     1     -15.723 -10.085  22.891  1.00  0.00    -0.260 OA
HETATM   32  O6  UNL     1     -15.735  -9.683  20.631  1.00  0.00    -0.314 OA
HETATM   33  C23 UNL     1     -14.780  -9.840  19.583  1.00  0.00     0.213 A 
ENDBRANCH  19  28
BRANCH  22  34
HETATM   34  O7  UNL     1     -13.891 -11.667  17.127  1.00  0.00    -0.389 OA
HETATM   35  H34 UNL     1     -14.041 -12.515  16.679  1.00  0.00     0.210 HD
ENDBRANCH  22  34
BRANCH   9  36
HETATM   36  C9  UNL     1     -11.065  -9.016  13.438  1.00  0.00     0.245 C 
HETATM   37  O4  UNL     1     -10.659  -7.863  13.544  1.00  0.00    -0.306 OA
ENDBRANCH   9  36
BRANCH   5  38
HETATM   38  O2  UNL     1      -6.318  -8.201  10.795  1.00  0.00    -0.360 OA
HETATM   39  H9  UNL     1      -5.464  -7.980  11.213  1.00  0.00     0.213 HD
ENDBRANCH   5  38
BRANCH   4  40
HETATM   40  O1  UNL     1      -4.160  -9.671  11.797  1.00  0.00    -0.390 OA
HETATM   41  H8  UNL     1      -4.597  -9.824  12.658  1.00  0.00     0.210 HD
ENDBRANCH   4  40
TORSDOF 5
ENDMDL
MODEL 5
REMARK minimizedAffinity -9.10603142
REMARK CNNscore 0.311192214
REMARK CNNaffinity 5.48588943
REMARK  5 active torsions:
REMARK  status: ('A' for Active; 'I' for Inactive)
REMARK    1  A    between atoms: C4_4  and  O1_5 
REMARK    2  A    between atoms: C5_6  and  O2_7 
REMARK    3  A    between atoms: C8_11  and  C9_12 
REMARK    4  A    between atoms: C19_23  and  C20_24 
REMARK    5  A    between atoms: C26_32  and  O7_33 
ROOT
HETATM    1  C1  UNL     1       1.710   6.988   6.789  1.00  0.00     0.040 C 
HETATM    2  C2  UNL     1       2.207   7.074   8.226  1.00  0.00     0.123 C 
HETATM    3  C3  UNL     1       1.090   7.531   9.169  1.00  0.00     0.069 C 
HETATM    4  C4  UNL     1       1.633   8.275  10.387  1.00  0.00     0.188 C 
HETATM    5  C5  UNL     1       3.047   7.797  10.764  1.00  0.00     0.240 C 
HETATM    6  O3  UNL     1       3.458   8.469  11.965  1.00  0.00    -0.341 OA
HETATM    7  C6  UNL     1       4.873   8.662  11.961  1.00  0.00     0.156 C 
HETATM    8  C7  UNL     1       5.294   9.234  13.317  1.00  0.00     0.056 C 
HETATM    9  C8  UNL     1       6.804   9.586  13.393  1.00  0.00     0.043 C 
HETATM   10  C10 UNL     1       7.204  10.394  12.156  1.00  0.00    -0.065 C 
HETATM   11  C11 UNL     1       7.976  11.491  12.233  1.00  0.00    -0.022 C 
HETATM   12  C12 UNL     1       8.564  12.030  13.500  1.00  0.00     0.035 C 
HETATM   13  C13 UNL     1       8.469  11.071  14.708  1.00  0.00     0.030 C 
HETATM   14  C14 UNL     1       7.082  10.379  14.728  1.00  0.00     0.012 C 
HETATM   15  C15 UNL     1       6.897   9.518  15.991  1.00  0.00     0.007 C 
HETATM   16  C16 UNL     1       7.178  10.298  17.270  1.00  0.00     0.013 C 
HETATM   17  C17 UNL     1       8.598  10.926  17.313  1.00  0.00    -0.005 C 
HETATM   18  C18 UNL     1       9.636   9.796  17.468  1.00  0.00     0.019 C 
HETATM   19  C19 UNL     1       8.625  11.976  18.486  1.00  0.00     0.028 C 
HETATM   20  C24 UNL     1       8.291  13.335  17.824  1.00  0.00     0.013 C 
HETATM   21  C25 UNL     1       8.052  13.066  16.340  1.00  0.00     0.040 C 
HETATM   22  C26 UNL     1       8.843  11.786  16.039  1.00  0.00     0.070 C 
HETATM   23  C27 UNL     1       6.709   9.906  10.810  1.00  0.00     0.069 C 
HETATM   24  C28 UNL     1       5.206   9.637  10.832  1.00  0.00     0.158 C 
HETATM   25  O8  UNL     1       4.770   9.202   9.542  1.00  0.00    -0.347 OA
HETATM   26  C29 UNL     1       4.001   7.993   9.521  1.00  0.00     0.325 C 
HETATM   27  O9  UNL     1       3.292   7.996   8.269  1.00  0.00    -0.351 OA
ENDROOT
BRANCH  19  28
HETATM   28  C20 UNL     1       9.858  12.026  19.349  1.00  0.00    -0.045 A 
HETATM   29  C21 UNL     1      11.143  12.025  18.991  1.00  0.00     0.087 A 
HETATM   30  C22 UNL     1      11.935  12.112  20.214  1.00  0.00     0.283 A 
HETATM   31  O5  UNL     1      13.150  12.149  20.259  1.00  0.00    -0.260 OA
HETATM   32  O6  UNL     1      11.098  12.163  21.286  1.00  0.00    -0.314 OA
HETATM   33  C23 UNL     1       9.749  12.113  20.824  1.00  0.00     0.213 A 
ENDBRANCH  19  28
BRANCH  22  34
HETATM   34  O7  UNL     1      10.232  12.143  15.990  1.00  0.00    -0.389 OA
HETATM   35  H34 UNL     1      10.370  12.788  15.278  1.00  0.00     0.210 HD
ENDBRANCH  22  34
BRANCH   9  36
HETATM   36  C9  UNL     1       7.606   8.269  13.396  1.00  0.00     0.245 C 
HETATM   37  O4  UNL     1       7.739   7.515  12.437  1.00  0.00    -0.306 OA
ENDBRANCH   9  36
BRANCH   5  38
HETATM   38  O2  UNL     1       2.973   6.403  11.108  1.00  0.00    -0.360 OA
HETATM   39  H9  UNL     1       2.113   6.307  11.559  1.00  0.00     0.213 HD
ENDBRANCH   5  38
BRANCH   4  40
HETATM   40  O1  UNL     1       0.741   8.043  11.494  1.00  0.00    -0.390 OA
HETATM   41  H8  UNL     1       1.145   8.502  12.256  1.00  0.00     0.210 HD
ENDBRANCH   4  40
TORSDOF 5
ENDMDL
MODEL 6
REMARK minimizedAffinity -8.66024113
REMARK CNNscore 0.292510033
REMARK CNNaffinity 6.14084101
REMARK  5 active torsions:
REMARK  status: ('A' for Active; 'I' for Inactive)
REMARK    1  A    between atoms: C4_4  and  O1_5 
REMARK    2  A    between atoms: C5_6  and  O2_7 
REMARK    3  A    between atoms: C8_11  and  C9_12 
REMARK    4  A    between atoms: C19_23  and  C20_24 
REMARK    5  A    between atoms: C26_32  and  O7_33 
ROOT
HETATM    1  C1  UNL     1       4.192   3.780   8.847  1.00  0.00     0.040 C 
HETATM    2  C2  UNL     1       3.612   5.066   9.420  1.00  0.00     0.123 C 
HETATM    3  C3  UNL     1       4.716   5.959   9.997  1.00  0.00     0.069 C 
HETATM    4  C4  UNL     1       4.207   6.843  11.133  1.00  0.00     0.188 C 
HETATM    5  C5  UNL     1       2.714   7.179  10.969  1.00  0.00     0.240 C 
HETATM    6  O3  UNL     1       2.325   8.082  12.015  1.00  0.00    -0.341 OA
HETATM    7  C6  UNL     1       0.960   7.864  12.373  1.00  0.00     0.156 C 
HETATM    8  C7  UNL     1       0.535   8.943  13.373  1.00  0.00     0.056 C 
HETATM    9  C8  UNL     1      -0.905   8.743  13.916  1.00  0.00     0.043 C 
HETATM   10  C10 UNL     1      -1.089   7.289  14.359  1.00  0.00    -0.065 C 
HETATM   11  C11 UNL     1      -1.688   6.961  15.516  1.00  0.00    -0.022 C 
HETATM   12  C12 UNL     1      -2.276   7.946  16.478  1.00  0.00     0.035 C 
HETATM   13  C13 UNL     1      -2.415   9.381  15.922  1.00  0.00     0.030 C 
HETATM   14  C14 UNL     1      -1.154   9.754  15.101  1.00  0.00     0.012 C 
HETATM   15  C15 UNL     1      -1.193  11.224  14.642  1.00  0.00     0.007 C 
HETATM   16  C16 UNL     1      -1.442  12.185  15.797  1.00  0.00     0.013 C 
HETATM   17  C17 UNL     1      -2.750  11.886  16.581  1.00  0.00    -0.005 C 
HETATM   18  C18 UNL     1      -3.956  12.241  15.687  1.00  0.00     0.019 C 
HETATM   19  C19 UNL     1      -2.700  12.698  17.929  1.00  0.00     0.028 C 
HETATM   20  C24 UNL     1      -2.117  11.717  18.975  1.00  0.00     0.013 C 
HETATM   21  C25 UNL     1      -1.817  10.409  18.246  1.00  0.00     0.040 C 
HETATM   22  C26 UNL     1      -2.770  10.400  17.043  1.00  0.00     0.070 C 
HETATM   23  C27 UNL     1      -0.579   6.205  13.433  1.00  0.00     0.069 C 
HETATM   24  C28 UNL     1       0.860   6.472  12.999  1.00  0.00     0.158 C 
HETATM   25  O8  UNL     1       1.316   5.419  12.146  1.00  0.00    -0.347 OA
HETATM   26  C29 UNL     1       1.891   5.832  10.901  1.00  0.00     0.325 C 
HETATM   27  O9  UNL     1       2.679   4.720  10.440  1.00  0.00    -0.351 OA
ENDROOT
BRANCH  19  28
HETATM   28  C20 UNL     1      -3.970  13.365  18.388  1.00  0.00    -0.045 A 
HETATM   29  C21 UNL     1      -4.847  12.972  19.311  1.00  0.00     0.087 A 
HETATM   30  C22 UNL     1      -5.887  13.994  19.387  1.00  0.00     0.283 A 
HETATM   31  O5  UNL     1      -6.842  13.965  20.139  1.00  0.00    -0.260 OA
HETATM   32  O6  UNL     1      -5.604  14.986  18.498  1.00  0.00    -0.314 OA
HETATM   33  C23 UNL     1      -4.393  14.666  17.815  1.00  0.00     0.213 A 
ENDBRANCH  19  28
BRANCH  22  34
HETATM   34  O7  UNL     1      -4.081  10.095  17.538  1.00  0.00    -0.389 OA
HETATM   35  H34 UNL     1      -4.069   9.216  17.953  1.00  0.00     0.210 HD
ENDBRANCH  22  34
BRANCH   9  36
HETATM   36  C9  UNL     1      -1.897   9.033  12.771  1.00  0.00     0.245 C 
HETATM   37  O4  UNL     1      -1.590   9.382  11.635  1.00  0.00    -0.306 OA
ENDBRANCH   9  36
BRANCH   5  38
HETATM   38  O2  UNL     1       2.549   7.913   9.745  1.00  0.00    -0.360 OA
HETATM   39  H9  UNL     1       3.351   8.468   9.683  1.00  0.00     0.213 HD
ENDBRANCH   5  38
BRANCH   4  40
HETATM   40  O1  UNL     1       4.972   8.063  11.134  1.00  0.00    -0.390 OA
HETATM   41  H8  UNL     1       4.589   8.611  11.847  1.00  0.00     0.210 HD
ENDBRANCH   4  40
TORSDOF 5
ENDMDL
MODEL 7
REMARK minimizedAffinity -7.29433012
REMARK CNNscore 0.285990715
REMARK CNNaffinity 5.29844332
REMARK  5 active torsions:
REMARK  status: ('A' for Active; 'I' for Inactive)
REMARK    1  A    between atoms: C4_4  and  O1_5 
REMARK    2  A    between atoms: C5_6  and  O2_7 
REMARK    3  A    between atoms: C8_11  and  C9_12 
REMARK    4  A    between atoms: C19_23  and  C20_24 
REMARK    5  A    between atoms: C26_32  and  O7_33 
ROOT
HETATM    1  C1  UNL     1       9.640   7.976  14.031  1.00  0.00     0.040 C 
HETATM    2  C2  UNL     1       8.164   7.942  14.406  1.00  0.00     0.123 C 
HETATM    3  C3  UNL     1       7.321   7.352  13.271  1.00  0.00     0.069 C 
HETATM    4  C4  UNL     1       5.895   7.899  13.268  1.00  0.00     0.188 C 
HETATM    5  C5  UNL     1       5.430   8.286  14.683  1.00  0.00     0.240 C 
HETATM    6  O3  UNL     1       4.058   8.704  14.621  1.00  0.00    -0.341 OA
HETATM    7  C6  UNL     1       3.801   9.700  15.612  1.00  0.00     0.156 C 
HETATM    8  C7  UNL     1       2.301  10.007  15.623  1.00  0.00     0.056 C 
HETATM    9  C8  UNL     1       1.917  11.157  16.592  1.00  0.00     0.043 C 
HETATM   10  C10 UNL     1       2.857  12.346  16.373  1.00  0.00    -0.065 C 
HETATM   11  C11 UNL     1       2.410  13.611  16.301  1.00  0.00    -0.022 C 
HETATM   12  C12 UNL     1       0.978  14.018  16.463  1.00  0.00     0.035 C 
HETATM   13  C13 UNL     1       0.055  12.907  17.013  1.00  0.00     0.030 C 
HETATM   14  C14 UNL     1       0.408  11.550  16.354  1.00  0.00     0.012 C 
HETATM   15  C15 UNL     1      -0.577  10.443  16.775  1.00  0.00     0.007 C 
HETATM   16  C16 UNL     1      -2.030  10.842  16.546  1.00  0.00     0.013 C 
HETATM   17  C17 UNL     1      -2.433  12.155  17.273  1.00  0.00    -0.005 C 
HETATM   18  C18 UNL     1      -2.477  11.888  18.791  1.00  0.00     0.019 C 
HETATM   19  C19 UNL     1      -3.809  12.633  16.674  1.00  0.00     0.028 C 
HETATM   20  C24 UNL     1      -3.439  13.636  15.553  1.00  0.00     0.013 C 
HETATM   21  C25 UNL     1      -1.914  13.701  15.493  1.00  0.00     0.040 C 
HETATM   22  C26 UNL     1      -1.447  13.300  16.899  1.00  0.00     0.070 C 
HETATM   23  C27 UNL     1       4.338  12.055  16.252  1.00  0.00     0.069 C 
HETATM   24  C28 UNL     1       4.608  10.944  15.240  1.00  0.00     0.158 C 
HETATM   25  O8  UNL     1       6.014  10.713  15.133  1.00  0.00    -0.347 OA
HETATM   26  C29 UNL     1       6.434   9.350  15.278  1.00  0.00     0.325 C 
HETATM   27  O9  UNL     1       7.743   9.273  14.688  1.00  0.00    -0.351 OA
ENDROOT
BRANCH  19  28
HETATM   28  C20 UNL     1      -4.836  13.173  17.633  1.00  0.00    -0.045 A 
HETATM   29  C21 UNL     1      -5.989  13.792  17.379  1.00  0.00     0.087 A 
HETATM   30  C22 UNL     1      -6.618  14.086  18.664  1.00  0.00     0.283 A 
HETATM   31  O5  UNL     1      -7.693  14.635  18.807  1.00  0.00    -0.260 OA
HETATM   32  O6  UNL     1      -5.818  13.629  19.667  1.00  0.00    -0.314 OA
HETATM   33  C23 UNL     1      -4.656  13.030  19.098  1.00  0.00     0.213 A 
ENDBRANCH  19  28
BRANCH  22  34
HETATM   34  O7  UNL     1      -1.694  14.415  17.767  1.00  0.00    -0.389 OA
HETATM   35  H34 UNL     1      -1.181  15.179  17.457  1.00  0.00     0.210 HD
ENDBRANCH  22  34
BRANCH   9  36
HETATM   36  C9  UNL     1       2.099  10.651  18.037  1.00  0.00     0.245 C 
HETATM   37  O4  UNL     1       2.258   9.479  18.366  1.00  0.00    -0.306 OA
ENDBRANCH   9  36
BRANCH   5  38
HETATM   38  O2  UNL     1       5.436   7.101  15.498  1.00  0.00    -0.360 OA
HETATM   39  H9  UNL     1       5.155   6.388  14.893  1.00  0.00     0.213 HD
ENDBRANCH   5  38
BRANCH   4  40
HETATM   40  O1  UNL     1       5.022   6.883  12.740  1.00  0.00    -0.390 OA
HETATM   41  H8  UNL     1       4.121   7.259  12.793  1.00  0.00     0.210 HD
ENDBRANCH   4  40
TORSDOF 5
ENDMDL
MODEL 8
REMARK minimizedAffinity -6.91925764
REMARK CNNscore 0.285217345
REMARK CNNaffinity 5.8073411
REMARK  5 active torsions:
REMARK  status: ('A' for Active; 'I' for Inactive)
REMARK    1  A    between atoms: C4_4  and  O1_5 
REMARK    2  A    between atoms: C5_6  and  O2_7 
REMARK    3  A    between atoms: C8_11  and  C9_12 
REMARK    4  A    between atoms: C19_23  and  C20_24 
REMARK    5  A    between atoms: C26_32  and  O7_33 
ROOT
HETATM    1  C1  UNL     1     -14.616  -9.305  18.518  1.00  0.00     0.040 C 
HETATM    2  C2  UNL     1     -13.383  -9.009  17.676  1.00  0.00     0.123 C 
HETATM    3  C3  UNL     1     -13.318  -7.527  17.294  1.00  0.00     0.069 C 
HETATM    4  C4  UNL     1     -12.584  -7.303  15.973  1.00  0.00     0.188 C 
HETATM    5  C5  UNL     1     -11.522  -8.387  15.721  1.00  0.00     0.240 C 
HETATM    6  O3  UNL     1     -10.812  -8.067  14.515  1.00  0.00    -0.341 OA
HETATM    7  C6  UNL     1     -10.395  -9.264  13.856  1.00  0.00     0.156 C 
HETATM    8  C7  UNL     1      -9.509  -8.887  12.665  1.00  0.00     0.056 C 
HETATM    9  C8  UNL     1      -9.082 -10.108  11.807  1.00  0.00     0.043 C 
HETATM   10  C10 UNL     1     -10.307 -10.973  11.502  1.00  0.00    -0.065 C 
HETATM   11  C11 UNL     1     -10.546 -11.473  10.277  1.00  0.00    -0.022 C 
HETATM   12  C12 UNL     1      -9.649 -11.288   9.093  1.00  0.00     0.035 C 
HETATM   13  C13 UNL     1      -8.254 -10.717   9.430  1.00  0.00     0.030 C 
HETATM   14  C14 UNL     1      -8.383  -9.593  10.490  1.00  0.00     0.012 C 
HETATM   15  C15 UNL     1      -7.030  -8.906  10.754  1.00  0.00     0.007 C 
HETATM   16  C16 UNL     1      -6.365  -8.423   9.471  1.00  0.00     0.013 C 
HETATM   17  C17 UNL     1      -6.142  -9.550   8.426  1.00  0.00    -0.005 C 
HETATM   18  C18 UNL     1      -5.040 -10.497   8.945  1.00  0.00     0.019 C 
HETATM   19  C19 UNL     1      -5.796  -8.870   7.049  1.00  0.00     0.028 C 
HETATM   20  C24 UNL     1      -7.146  -8.755   6.300  1.00  0.00     0.013 C 
HETATM   21  C25 UNL     1      -8.223  -9.318   7.226  1.00  0.00     0.040 C 
HETATM   22  C26 UNL     1      -7.480 -10.295   8.147  1.00  0.00     0.070 C 
HETATM   23  C27 UNL     1     -11.256 -11.272  12.644  1.00  0.00     0.069 C 
HETATM   24  C28 UNL     1     -11.651  -9.999  13.389  1.00  0.00     0.158 C 
HETATM   25  O8  UNL     1     -12.564 -10.315  14.442  1.00  0.00    -0.347 OA
HETATM   26  C29 UNL     1     -12.222  -9.803  15.736  1.00  0.00     0.325 C 
HETATM   27  O9  UNL     1     -13.439  -9.815  16.502  1.00  0.00    -0.351 OA
ENDROOT
BRANCH  19  28
HETATM   28  C20 UNL     1      -4.710  -9.497   6.216  1.00  0.00    -0.045 A 
HETATM   29  C21 UNL     1      -4.811 -10.250   5.121  1.00  0.00     0.087 A 
HETATM   30  C22 UNL     1      -3.454 -10.578   4.691  1.00  0.00     0.283 A 
HETATM   31  O5  UNL     1      -3.172 -11.242   3.713  1.00  0.00    -0.260 OA
HETATM   32  O6  UNL     1      -2.564 -10.006   5.548  1.00  0.00    -0.314 OA
HETATM   33  C23 UNL     1      -3.281  -9.294   6.555  1.00  0.00     0.213 A 
ENDBRANCH  19  28
BRANCH  22  34
HETATM   34  O7  UNL     1      -7.195 -11.473   7.379  1.00  0.00    -0.389 OA
HETATM   35  H34 UNL     1      -8.030 -11.871   7.084  1.00  0.00     0.210 HD
ENDBRANCH  22  34
BRANCH   9  36
HETATM   36  C9  UNL     1      -8.083 -10.949  12.629  1.00  0.00     0.245 C 
HETATM   37  O4  UNL     1      -8.385 -11.792  13.468  1.00  0.00    -0.306 OA
ENDBRANCH   9  36
BRANCH   5  38
HETATM   38  O2  UNL     1     -10.546  -8.314  16.774  1.00  0.00    -0.360 OA
HETATM   39  H9  UNL     1     -10.468  -7.361  16.969  1.00  0.00     0.213 HD
ENDBRANCH   5  38
BRANCH   4  40
HETATM   40  O1  UNL     1     -11.947  -6.013  16.023  1.00  0.00    -0.390 OA
HETATM   41  H8  UNL     1     -11.460  -5.929  15.179  1.00  0.00     0.210 HD
ENDBRANCH   4  40
TORSDOF 5
ENDMDL
MODEL 9
REMARK minimizedAffinity -6.94925165
REMARK CNNscore 0.27137655
REMARK CNNaffinity 5.0912075
REMARK  5 active torsions:
REMARK  status: ('A' for Active; 'I' for Inactive)
REMARK    1  A    between atoms: C4_4  and  O1_5 
REMARK    2  A    between atoms: C5_6  and  O2_7 
REMARK    3  A    between atoms: C8_11  and  C9_12 
REMARK    4  A    between atoms: C19_23  and  C20_24 
REMARK    5  A    between atoms: C26_32  and  O7_33 
ROOT
HETATM    1  C1  UNL     1      12.709  23.130  23.032  1.00  0.00     0.040 C 
HETATM    2  C2  UNL     1      12.183  21.721  23.272  1.00  0.00     0.123 C 
HETATM    3  C3  UNL     1      13.218  20.669  22.861  1.00  0.00     0.069 C 
HETATM    4  C4  UNL     1      12.566  19.358  22.425  1.00  0.00     0.188 C 
HETATM    5  C5  UNL     1      11.220  19.128  23.135  1.00  0.00     0.240 C 
HETATM    6  O3  UNL     1      10.708  17.843  22.750  1.00  0.00    -0.341 OA
HETATM    7  C6  UNL     1       9.281  17.866  22.736  1.00  0.00     0.156 C 
HETATM    8  C7  UNL     1       8.769  16.445  22.478  1.00  0.00     0.056 C 
HETATM    9  C8  UNL     1       7.226  16.365  22.334  1.00  0.00     0.043 C 
HETATM   10  C10 UNL     1       6.744  17.452  21.369  1.00  0.00    -0.065 C 
HETATM   11  C11 UNL     1       5.837  17.208  20.408  1.00  0.00    -0.022 C 
HETATM   12  C12 UNL     1       5.166  15.888  20.188  1.00  0.00     0.035 C 
HETATM   13  C13 UNL     1       5.364  14.869  21.332  1.00  0.00     0.030 C 
HETATM   14  C14 UNL     1       6.828  14.921  21.839  1.00  0.00     0.012 C 
HETATM   15  C15 UNL     1       7.103  13.827  22.887  1.00  0.00     0.007 C 
HETATM   16  C16 UNL     1       6.705  12.441  22.396  1.00  0.00     0.013 C 
HETATM   17  C17 UNL     1       5.216  12.339  21.966  1.00  0.00    -0.005 C 
HETATM   18  C18 UNL     1       4.329  12.429  23.225  1.00  0.00     0.019 C 
HETATM   19  C19 UNL     1       5.037  10.999  21.160  1.00  0.00     0.028 C 
HETATM   20  C24 UNL     1       5.204  11.392  19.672  1.00  0.00     0.013 C 
HETATM   21  C25 UNL     1       5.498  12.891  19.633  1.00  0.00     0.040 C 
HETATM   22  C26 UNL     1       4.882  13.447  20.924  1.00  0.00     0.070 C 
HETATM   23  C27 UNL     1       7.318  18.843  21.538  1.00  0.00     0.069 C 
HETATM   24  C28 UNL     1       8.842  18.813  21.619  1.00  0.00     0.158 C 
HETATM   25  O8  UNL     1       9.349  20.142  21.753  1.00  0.00    -0.347 OA
HETATM   26  C29 UNL     1      10.267  20.351  22.834  1.00  0.00     0.325 C 
HETATM   27  O9  UNL     1      10.988  21.555  22.515  1.00  0.00    -0.351 OA
ENDROOT
BRANCH  19  28
HETATM   28  C20 UNL     1       3.795  10.189  21.422  1.00  0.00    -0.045 A 
HETATM   29  C21 UNL     1       3.587   9.222  22.315  1.00  0.00     0.087 A 
HETATM   30  C22 UNL     1       2.201   8.785  22.170  1.00  0.00     0.283 A 
HETATM   31  O5  UNL     1       1.666   7.922  22.839  1.00  0.00    -0.260 OA
HETATM   32  O6  UNL     1       1.607   9.509  21.182  1.00  0.00    -0.314 OA
HETATM   33  C23 UNL     1       2.554  10.432  20.648  1.00  0.00     0.213 A 
ENDBRANCH  19  28
BRANCH  22  34
HETATM   34  O7  UNL     1       3.460  13.483  20.739  1.00  0.00    -0.389 OA
HETATM   35  H34 UNL     1       3.250  14.073  19.996  1.00  0.00     0.210 HD
ENDBRANCH  22  34
BRANCH   9  36
HETATM   36  C9  UNL     1       6.598  16.629  23.718  1.00  0.00     0.245 C 
HETATM   37  O4  UNL     1       7.218  16.931  24.734  1.00  0.00    -0.306 OA
ENDBRANCH   9  36
BRANCH   5  38
HETATM   38  O2  UNL     1      11.466  19.038  24.548  1.00  0.00    -0.360 OA
HETATM   39  H9  UNL     1      12.325  18.578  24.618  1.00  0.00     0.213 HD
ENDBRANCH   5  38
BRANCH   4  40
HETATM   40  O1  UNL     1      13.464  18.279  22.744  1.00  0.00    -0.390 OA
HETATM   41  H8  UNL     1      12.993  17.462  22.486  1.00  0.00     0.210 HD
ENDBRANCH   4  40
TORSDOF 5
ENDMDL
