MODEL 1
REMARK minimizedAffinity -8.05857849
REMARK CNNscore 0.730156541
REMARK CNNaffinity 7.00156593
REMARK  11 active torsions:
REMARK  status: ('A' for Active; 'I' for Inactive)
REMARK    1  A    between atoms: C12_13  and  O2_14 
REMARK    2  A    between atoms: C19_21  and  O3_22 
REMARK    3  A    between atoms: C19_21  and  C20_23 
REMARK    4  A    between atoms: C20_23  and  C21_25 
REMARK    5  A    between atoms: C21_25  and  O5_26 
REMARK    6  A    between atoms: O5_26  and  C22_27 
REMARK    7  A    between atoms: C22_27  and  C23_29 
REMARK    8  A    between atoms: C23_29  and  C24_30 
REMARK    9  A    between atoms: C24_30  and  C25_31 
REMARK       I    between atoms: C25_31  and  N1_33 
REMARK   10  A    between atoms: N1_33  and  C26_34 
REMARK   11  A    between atoms: C26_34  and  C27_35 
ROOT
HETATM    1  C1  UNL     1      -1.250  70.255 -43.346  1.00  0.00     0.020 C 
HETATM    2  C2  UNL     1      -1.819  69.635 -42.046  1.00  0.00    -0.014 C 
HETATM    3  C3  UNL     1      -2.827  68.518 -42.413  1.00  0.00     0.022 C 
HETATM    4  C4  UNL     1      -4.091  69.039 -43.091  1.00  0.00     0.084 C 
HETATM    5  C5  UNL     1      -4.723  70.172 -42.321  1.00  0.00     0.149 C 
HETATM    6  O1  UNL     1      -5.904  70.479 -42.468  1.00  0.00    -0.293 OA
HETATM    7  C6  UNL     1      -3.882  70.964 -41.396  1.00  0.00     0.053 C 
HETATM    8  C7  UNL     1      -2.564  70.733 -41.268  1.00  0.00    -0.068 C 
HETATM    9  C8  UNL     1      -1.744  71.495 -40.254  1.00  0.00     0.035 C 
HETATM   10  C9  UNL     1      -1.177  70.561 -39.172  1.00  0.00     0.010 C 
HETATM   11  C10 UNL     1      -0.994  69.113 -39.667  1.00  0.00    -0.002 C 
HETATM   12  C11 UNL     1      -0.610  69.117 -41.173  1.00  0.00     0.031 C 
HETATM   13  C12 UNL     1       0.073  67.800 -41.603  1.00  0.00     0.124 C 
HETATM   14  C13 UNL     1       1.381  67.534 -40.815  1.00  0.00     0.045 C 
HETATM   15  C14 UNL     1       1.395  68.090 -39.361  1.00  0.00     0.001 C 
HETATM   16  C15 UNL     1       2.164  69.438 -39.331  1.00  0.00     0.019 C 
HETATM   17  C16 UNL     1      -0.057  68.223 -38.838  1.00  0.00     0.002 C 
HETATM   18  C17 UNL     1       0.092  68.462 -37.341  1.00  0.00     0.009 C 
HETATM   19  C18 UNL     1       1.345  67.653 -36.952  1.00  0.00     0.047 C 
HETATM   20  C19 UNL     1       1.974  67.120 -38.275  1.00  0.00     0.128 C 
ENDROOT
BRANCH  20  21
HETATM   21  O3  UNL     1       1.436  65.807 -38.472  1.00  0.00    -0.381 OA
HETATM   22  H27 UNL     1       1.801  65.246 -37.755  1.00  0.00     0.211 HD
ENDBRANCH  20  21
BRANCH  20  23
HETATM   23  C20 UNL     1       3.524  67.080 -38.208  1.00  0.00     0.185 C 
HETATM   24  O4  UNL     1       4.215  67.224 -39.222  1.00  0.00    -0.292 OA
BRANCH  23  25
HETATM   25  C21 UNL     1       4.202  66.739 -36.874  1.00  0.00     0.260 C 
BRANCH  25  26
HETATM   26  O5  UNL     1       5.343  67.456 -36.429  1.00  0.00    -0.314 OA
BRANCH  26  27
HETATM   27  C22 UNL     1       6.529  67.021 -36.928  1.00  0.00     0.259 C 
HETATM   28  O6  UNL     1       7.513  67.735 -37.088  1.00  0.00    -0.265 OA
BRANCH  27  29
HETATM   29  C23 UNL     1       6.549  65.525 -37.137  1.00  0.00     0.120 C 
BRANCH  29  30
HETATM   30  C24 UNL     1       7.804  64.819 -36.638  1.00  0.00     0.112 C 
BRANCH  30  31
HETATM   31  C25 UNL     1       7.495  63.769 -35.591  1.00  0.00     0.218 C 
HETATM   32  O7  UNL     1       8.304  63.403 -34.746  1.00  0.00    -0.274 OA
HETATM   33  N1  UNL     1       6.225  63.247 -35.709  1.00  0.00    -0.357 N 
HETATM   34  H34 UNL     1       5.559  63.720 -36.304  1.00  0.00     0.162 HD
BRANCH  33  35
HETATM   35  C26 UNL     1       5.704  62.301 -34.749  1.00  0.00     0.161 C 
BRANCH  35  36
HETATM   36  C27 UNL     1       4.967  63.004 -33.642  1.00  0.00    -0.038 A 
HETATM   37  C28 UNL     1       3.992  62.344 -32.890  1.00  0.00     0.025 A 
HETATM   38  C29 UNL     1       3.329  63.049 -31.896  1.00  0.00     0.088 A 
HETATM   39  N2  UNL     1       3.565  64.347 -31.610  1.00  0.00    -0.375 N 
HETATM   40  C30 UNL     1       4.505  64.969 -32.353  1.00  0.00     0.088 A 
ATOM     41  H2  UNL     1       3.059  64.833 -30.870  1.00  0.00     0.164 HD
HETATM   42  C31 UNL     1       5.221  64.352 -33.365  1.00  0.00     0.025 A 
ENDBRANCH  35  36
ENDBRANCH  33  35
ENDBRANCH  30  31
ENDBRANCH  29  30
ENDBRANCH  27  29
ENDBRANCH  26  27
ENDBRANCH  25  26
ENDBRANCH  23  25
ENDBRANCH  20  23
BRANCH  13  43
HETATM   43  O2  UNL     1      -0.807  66.687 -41.462  1.00  0.00    -0.395 OA
HETATM   44  H16 UNL     1      -0.582  66.191 -40.656  1.00  0.00     0.210 HD
ENDBRANCH  13  43
TORSDOF 11
ENDMDL
MODEL 2
REMARK minimizedAffinity -7.9103055
REMARK CNNscore 0.716268778
REMARK CNNaffinity 6.16825676
REMARK  11 active torsions:
REMARK  status: ('A' for Active; 'I' for Inactive)
REMARK    1  A    between atoms: C12_13  and  O2_14 
REMARK    2  A    between atoms: C19_21  and  O3_22 
REMARK    3  A    between atoms: C19_21  and  C20_23 
REMARK    4  A    between atoms: C20_23  and  C21_25 
REMARK    5  A    between atoms: C21_25  and  O5_26 
REMARK    6  A    between atoms: O5_26  and  C22_27 
REMARK    7  A    between atoms: C22_27  and  C23_29 
REMARK    8  A    between atoms: C23_29  and  C24_30 
REMARK    9  A    between atoms: C24_30  and  C25_31 
REMARK       I    between atoms: C25_31  and  N1_33 
REMARK   10  A    between atoms: N1_33  and  C26_34 
REMARK   11  A    between atoms: C26_34  and  C27_35 
ROOT
HETATM    1  C1  UNL     1     -15.686  44.050 -24.495  1.00  0.00     0.020 C 
HETATM    2  C2  UNL     1     -15.722  45.341 -25.349  1.00  0.00    -0.014 C 
HETATM    3  C3  UNL     1     -16.368  46.481 -24.524  1.00  0.00     0.022 C 
HETATM    4  C4  UNL     1     -17.849  46.256 -24.232  1.00  0.00     0.084 C 
HETATM    5  C5  UNL     1     -18.630  45.917 -25.478  1.00  0.00     0.149 C 
HETATM    6  O1  UNL     1     -19.848  46.064 -25.542  1.00  0.00    -0.293 OA
HETATM    7  C6  UNL     1     -17.909  45.349 -26.640  1.00  0.00     0.053 C 
HETATM    8  C7  UNL     1     -16.593  45.078 -26.591  1.00  0.00    -0.068 C 
HETATM    9  C8  UNL     1     -15.864  44.581 -27.815  1.00  0.00     0.035 C 
HETATM   10  C9  UNL     1     -14.802  45.589 -28.286  1.00  0.00     0.010 C 
HETATM   11  C10 UNL     1     -14.273  46.478 -27.143  1.00  0.00    -0.002 C 
HETATM   12  C11 UNL     1     -14.251  45.670 -25.816  1.00  0.00     0.031 C 
HETATM   13  C12 UNL     1     -13.290  46.286 -24.776  1.00  0.00     0.124 C 
HETATM   14  C13 UNL     1     -11.826  46.335 -25.286  1.00  0.00     0.045 C 
HETATM   15  C14 UNL     1     -11.675  46.511 -26.825  1.00  0.00     0.001 C 
HETATM   16  C15 UNL     1     -11.398  45.130 -27.478  1.00  0.00     0.019 C 
HETATM   17  C16 UNL     1     -12.940  47.196 -27.400  1.00  0.00     0.002 C 
HETATM   18  C17 UNL     1     -12.552  47.595 -28.818  1.00  0.00     0.009 C 
HETATM   19  C18 UNL     1     -11.051  47.933 -28.719  1.00  0.00     0.047 C 
HETATM   20  C19 UNL     1     -10.590  47.544 -27.281  1.00  0.00     0.128 C 
ENDROOT
BRANCH  20  21
HETATM   21  O3  UNL     1     -10.703  48.735 -26.492  1.00  0.00    -0.381 OA
HETATM   22  H27 UNL     1     -10.027  49.359 -26.831  1.00  0.00     0.211 HD
ENDBRANCH  20  21
BRANCH  20  23
HETATM   23  C20 UNL     1      -9.136  47.003 -27.263  1.00  0.00     0.185 C 
HETATM   24  O4  UNL     1      -8.569  46.646 -28.301  1.00  0.00    -0.292 OA
BRANCH  23  25
HETATM   25  C21 UNL     1      -8.434  46.800 -25.913  1.00  0.00     0.260 C 
BRANCH  25  26
HETATM   26  O5  UNL     1      -7.821  47.887 -25.237  1.00  0.00    -0.314 OA
BRANCH  26  27
HETATM   27  C22 UNL     1      -6.475  47.978 -25.393  1.00  0.00     0.259 C 
HETATM   28  O6  UNL     1      -5.898  47.879 -26.470  1.00  0.00    -0.265 OA
BRANCH  27  29
HETATM   29  C23 UNL     1      -5.772  48.351 -24.109  1.00  0.00     0.120 C 
BRANCH  29  30
HETATM   30  C24 UNL     1      -5.046  49.691 -24.134  1.00  0.00     0.112 C 
BRANCH  30  31
HETATM   31  C25 UNL     1      -3.550  49.531 -24.316  1.00  0.00     0.218 C 
HETATM   32  O7  UNL     1      -3.026  48.484 -24.679  1.00  0.00    -0.274 OA
HETATM   33  N1  UNL     1      -2.844  50.671 -24.001  1.00  0.00    -0.357 N 
HETATM   34  H34 UNL     1      -3.348  51.539 -23.888  1.00  0.00     0.162 HD
BRANCH  33  35
HETATM   35  C26 UNL     1      -1.414  50.753 -24.197  1.00  0.00     0.161 C 
BRANCH  35  36
HETATM   36  C27 UNL     1      -0.733  51.317 -22.980  1.00  0.00    -0.038 A 
HETATM   37  C28 UNL     1      -1.034  50.844 -21.700  1.00  0.00     0.025 A 
HETATM   38  C29 UNL     1      -0.391  51.417 -20.612  1.00  0.00     0.088 A 
HETATM   39  N2  UNL     1       0.511  52.416 -20.712  1.00  0.00    -0.375 N 
HETATM   40  C30 UNL     1       0.782  52.865 -21.957  1.00  0.00     0.088 A 
ATOM     41  H2  UNL     1       0.965  52.812 -19.890  1.00  0.00     0.164 HD
HETATM   42  C31 UNL     1       0.193  52.358 -23.104  1.00  0.00     0.025 A 
ENDBRANCH  35  36
ENDBRANCH  33  35
ENDBRANCH  30  31
ENDBRANCH  29  30
ENDBRANCH  27  29
ENDBRANCH  26  27
ENDBRANCH  25  26
ENDBRANCH  23  25
ENDBRANCH  20  23
BRANCH  13  43
HETATM   43  O2  UNL     1     -13.708  47.594 -24.390  1.00  0.00    -0.395 OA
HETATM   44  H16 UNL     1     -13.162  48.259 -24.845  1.00  0.00     0.210 HD
ENDBRANCH  13  43
TORSDOF 11
ENDMDL
MODEL 3
REMARK minimizedAffinity -7.89352131
REMARK CNNscore 0.696722925
REMARK CNNaffinity 6.15308952
REMARK  11 active torsions:
REMARK  status: ('A' for Active; 'I' for Inactive)
REMARK    1  A    between atoms: C12_13  and  O2_14 
REMARK    2  A    between atoms: C19_21  and  O3_22 
REMARK    3  A    between atoms: C19_21  and  C20_23 
REMARK    4  A    between atoms: C20_23  and  C21_25 
REMARK    5  A    between atoms: C21_25  and  O5_26 
REMARK    6  A    between atoms: O5_26  and  C22_27 
REMARK    7  A    between atoms: C22_27  and  C23_29 
REMARK    8  A    between atoms: C23_29  and  C24_30 
REMARK    9  A    between atoms: C24_30  and  C25_31 
REMARK       I    between atoms: C25_31  and  N1_33 
REMARK   10  A    between atoms: N1_33  and  C26_34 
REMARK   11  A    between atoms: C26_34  and  C27_35 
ROOT
HETATM    1  C1  UNL     1     -16.440  44.262 -23.842  1.00  0.00     0.020 C 
HETATM    2  C2  UNL     1     -16.408  45.451 -24.833  1.00  0.00    -0.014 C 
HETATM    3  C3  UNL     1     -17.016  46.701 -24.150  1.00  0.00     0.022 C 
HETATM    4  C4  UNL     1     -18.510  46.571 -23.865  1.00  0.00     0.084 C 
HETATM    5  C5  UNL     1     -19.285  46.129 -25.081  1.00  0.00     0.149 C 
HETATM    6  O1  UNL     1     -20.495  46.319 -25.186  1.00  0.00    -0.293 OA
HETATM    7  C6  UNL     1     -18.572  45.407 -26.159  1.00  0.00     0.053 C 
HETATM    8  C7  UNL     1     -17.271  45.089 -26.055  1.00  0.00    -0.068 C 
HETATM    9  C8  UNL     1     -16.545  44.430 -27.203  1.00  0.00     0.035 C 
HETATM   10  C9  UNL     1     -15.433  45.335 -27.760  1.00  0.00     0.010 C 
HETATM   11  C10 UNL     1     -14.883  46.322 -26.711  1.00  0.00    -0.002 C 
HETATM   12  C11 UNL     1     -14.917  45.666 -25.304  1.00  0.00     0.031 C 
HETATM   13  C12 UNL     1     -13.946  46.352 -24.318  1.00  0.00     0.124 C 
HETATM   14  C13 UNL     1     -12.474  46.283 -24.801  1.00  0.00     0.045 C 
HETATM   15  C14 UNL     1     -12.292  46.282 -26.347  1.00  0.00     0.001 C 
HETATM   16  C15 UNL     1     -12.065  44.827 -26.839  1.00  0.00     0.019 C 
HETATM   17  C16 UNL     1     -13.517  46.952 -27.018  1.00  0.00     0.002 C 
HETATM   18  C17 UNL     1     -13.091  47.175 -28.464  1.00  0.00     0.009 C 
HETATM   19  C18 UNL     1     -11.578  47.459 -28.372  1.00  0.00     0.047 C 
HETATM   20  C19 UNL     1     -11.156  47.213 -26.892  1.00  0.00     0.128 C 
ENDROOT
BRANCH  20  21
HETATM   21  O3  UNL     1     -11.229  48.487 -26.240  1.00  0.00    -0.381 OA
HETATM   22  H27 UNL     1     -10.522  49.041 -26.632  1.00  0.00     0.211 HD
ENDBRANCH  20  21
BRANCH  20  23
HETATM   23  C20 UNL     1      -9.728  46.617 -26.785  1.00  0.00     0.185 C 
HETATM   24  O4  UNL     1      -9.464  45.494 -27.228  1.00  0.00    -0.292 OA
BRANCH  23  25
HETATM   25  C21 UNL     1      -8.653  47.393 -26.011  1.00  0.00     0.260 C 
BRANCH  25  26
HETATM   26  O5  UNL     1      -8.101  46.878 -24.810  1.00  0.00    -0.314 OA
BRANCH  26  27
HETATM   27  C22 UNL     1      -8.569  47.447 -23.669  1.00  0.00     0.259 C 
HETATM   28  O6  UNL     1      -9.374  46.914 -22.914  1.00  0.00    -0.265 OA
BRANCH  27  29
HETATM   29  C23 UNL     1      -7.885  48.757 -23.358  1.00  0.00     0.120 C 
BRANCH  29  30
HETATM   30  C24 UNL     1      -6.421  48.837 -23.773  1.00  0.00     0.112 C 
BRANCH  30  31
HETATM   31  C25 UNL     1      -5.744  50.089 -23.252  1.00  0.00     0.218 C 
HETATM   32  O7  UNL     1      -5.427  50.242 -22.078  1.00  0.00    -0.274 OA
HETATM   33  N1  UNL     1      -5.554  51.044 -24.227  1.00  0.00    -0.357 N 
HETATM   34  H34 UNL     1      -5.671  50.780 -25.195  1.00  0.00     0.162 HD
BRANCH  33  35
HETATM   35  C26 UNL     1      -4.841  52.271 -23.953  1.00  0.00     0.161 C 
BRANCH  35  36
HETATM   36  C27 UNL     1      -3.480  52.260 -24.594  1.00  0.00    -0.038 A 
HETATM   37  C28 UNL     1      -3.321  51.946 -25.945  1.00  0.00     0.025 A 
HETATM   38  C29 UNL     1      -2.039  51.929 -26.477  1.00  0.00     0.088 A 
HETATM   39  N2  UNL     1      -0.925  52.194 -25.763  1.00  0.00    -0.375 N 
HETATM   40  C30 UNL     1      -1.099  52.488 -24.456  1.00  0.00     0.088 A 
ATOM     41  H2  UNL     1       0.001  52.174 -26.188  1.00  0.00     0.164 HD
HETATM   42  C31 UNL     1      -2.337  52.531 -23.834  1.00  0.00     0.025 A 
ENDBRANCH  35  36
ENDBRANCH  33  35
ENDBRANCH  30  31
ENDBRANCH  29  30
ENDBRANCH  27  29
ENDBRANCH  26  27
ENDBRANCH  25  26
ENDBRANCH  23  25
ENDBRANCH  20  23
BRANCH  13  43
HETATM   43  O2  UNL     1     -14.313  47.710 -24.086  1.00  0.00    -0.395 OA
HETATM   44  H16 UNL     1     -13.732  48.298 -24.601  1.00  0.00     0.210 HD
ENDBRANCH  13  43
TORSDOF 11
ENDMDL
MODEL 4
REMARK minimizedAffinity -8.65127563
REMARK CNNscore 0.639987826
REMARK CNNaffinity 6.36030245
REMARK  11 active torsions:
REMARK  status: ('A' for Active; 'I' for Inactive)
REMARK    1  A    between atoms: C12_13  and  O2_14 
REMARK    2  A    between atoms: C19_21  and  O3_22 
REMARK    3  A    between atoms: C19_21  and  C20_23 
REMARK    4  A    between atoms: C20_23  and  C21_25 
REMARK    5  A    between atoms: C21_25  and  O5_26 
REMARK    6  A    between atoms: O5_26  and  C22_27 
REMARK    7  A    between atoms: C22_27  and  C23_29 
REMARK    8  A    between atoms: C23_29  and  C24_30 
REMARK    9  A    between atoms: C24_30  and  C25_31 
REMARK       I    between atoms: C25_31  and  N1_33 
REMARK   10  A    between atoms: N1_33  and  C26_34 
REMARK   11  A    between atoms: C26_34  and  C27_35 
ROOT
HETATM    1  C1  UNL     1     -13.617  44.489 -24.819  1.00  0.00     0.020 C 
HETATM    2  C2  UNL     1     -13.866  45.768 -25.655  1.00  0.00    -0.014 C 
HETATM    3  C3  UNL     1     -14.164  46.951 -24.702  1.00  0.00     0.022 C 
HETATM    4  C4  UNL     1     -15.483  46.807 -23.948  1.00  0.00     0.084 C 
HETATM    5  C5  UNL     1     -16.634  46.492 -24.871  1.00  0.00     0.149 C 
HETATM    6  O1  UNL     1     -17.802  46.701 -24.549  1.00  0.00    -0.293 OA
HETATM    7  C6  UNL     1     -16.347  45.871 -26.184  1.00  0.00     0.053 C 
HETATM    8  C7  UNL     1     -15.098  45.533 -26.547  1.00  0.00    -0.068 C 
HETATM    9  C8  UNL     1     -14.820  44.982 -27.925  1.00  0.00     0.035 C 
HETATM   10  C9  UNL     1     -13.919  45.926 -28.738  1.00  0.00     0.010 C 
HETATM   11  C10 UNL     1     -13.014  46.802 -27.850  1.00  0.00    -0.002 C 
HETATM   12  C11 UNL     1     -12.607  46.013 -26.575  1.00  0.00     0.031 C 
HETATM   13  C12 UNL     1     -11.338  46.593 -25.912  1.00  0.00     0.124 C 
HETATM   14  C13 UNL     1     -10.113  46.558 -26.862  1.00  0.00     0.045 C 
HETATM   15  C14 UNL     1     -10.452  46.705 -28.374  1.00  0.00     0.001 C 
HETATM   16  C15 UNL     1     -10.460  45.302 -29.040  1.00  0.00     0.019 C 
HETATM   17  C16 UNL     1     -11.802  47.447 -28.537  1.00  0.00     0.002 C 
HETATM   18  C17 UNL     1     -11.869  47.805 -30.016  1.00  0.00     0.009 C 
HETATM   19  C18 UNL     1     -10.401  48.066 -30.409  1.00  0.00     0.047 C 
HETATM   20  C19 UNL     1      -9.524  47.674 -29.181  1.00  0.00     0.128 C 
ENDROOT
BRANCH  20  21
HETATM   21  O3  UNL     1      -9.326  48.880 -28.433  1.00  0.00    -0.381 OA
HETATM   22  H27 UNL     1      -8.766  49.463 -28.988  1.00  0.00     0.211 HD
ENDBRANCH  20  21
BRANCH  20  23
HETATM   23  C20 UNL     1      -8.165  47.058 -29.609  1.00  0.00     0.185 C 
HETATM   24  O4  UNL     1      -8.103  45.942 -30.136  1.00  0.00    -0.292 OA
BRANCH  23  25
HETATM   25  C21 UNL     1      -6.869  47.804 -29.266  1.00  0.00     0.260 C 
BRANCH  25  26
HETATM   26  O5  UNL     1      -6.267  47.675 -27.987  1.00  0.00    -0.314 OA
BRANCH  26  27
HETATM   27  C22 UNL     1      -4.976  48.090 -27.912  1.00  0.00     0.259 C 
HETATM   28  O6  UNL     1      -4.262  48.298 -28.886  1.00  0.00    -0.265 OA
BRANCH  27  29
HETATM   29  C23 UNL     1      -4.555  48.402 -26.496  1.00  0.00     0.120 C 
BRANCH  29  30
HETATM   30  C24 UNL     1      -3.059  48.618 -26.297  1.00  0.00     0.112 C 
BRANCH  30  31
HETATM   31  C25 UNL     1      -2.712  50.079 -26.091  1.00  0.00     0.218 C 
HETATM   32  O7  UNL     1      -3.460  50.998 -26.404  1.00  0.00    -0.274 OA
HETATM   33  N1  UNL     1      -1.459  50.263 -25.549  1.00  0.00    -0.357 N 
HETATM   34  H34 UNL     1      -0.980  49.467 -25.151  1.00  0.00     0.162 HD
BRANCH  33  35
HETATM   35  C26 UNL     1      -0.978  51.577 -25.188  1.00  0.00     0.161 C 
BRANCH  35  36
HETATM   36  C27 UNL     1      -0.586  51.631 -23.737  1.00  0.00    -0.038 A 
HETATM   37  C28 UNL     1       0.364  52.546 -23.278  1.00  0.00     0.025 A 
HETATM   38  C29 UNL     1       0.702  52.535 -21.932  1.00  0.00     0.088 A 
HETATM   39  N2  UNL     1       0.171  51.683 -21.030  1.00  0.00    -0.375 N 
HETATM   40  C30 UNL     1      -0.739  50.800 -21.495  1.00  0.00     0.088 A 
ATOM     41  H2  UNL     1       0.443  51.704 -20.048  1.00  0.00     0.164 HD
HETATM   42  C31 UNL     1      -1.143  50.733 -22.819  1.00  0.00     0.025 A 
ENDBRANCH  35  36
ENDBRANCH  33  35
ENDBRANCH  30  31
ENDBRANCH  29  30
ENDBRANCH  27  29
ENDBRANCH  26  27
ENDBRANCH  25  26
ENDBRANCH  23  25
ENDBRANCH  20  23
BRANCH  13  43
HETATM   43  O2  UNL     1     -11.552  47.926 -25.453  1.00  0.00    -0.395 OA
HETATM   44  H16 UNL     1     -11.151  48.556 -26.077  1.00  0.00     0.210 HD
ENDBRANCH  13  43
TORSDOF 11
ENDMDL
MODEL 5
REMARK minimizedAffinity -9.09520054
REMARK CNNscore 0.534824491
REMARK CNNaffinity 6.66270781
REMARK  11 active torsions:
REMARK  status: ('A' for Active; 'I' for Inactive)
REMARK    1  A    between atoms: C12_13  and  O2_14 
REMARK    2  A    between atoms: C19_21  and  O3_22 
REMARK    3  A    between atoms: C19_21  and  C20_23 
REMARK    4  A    between atoms: C20_23  and  C21_25 
REMARK    5  A    between atoms: C21_25  and  O5_26 
REMARK    6  A    between atoms: O5_26  and  C22_27 
REMARK    7  A    between atoms: C22_27  and  C23_29 
REMARK    8  A    between atoms: C23_29  and  C24_30 
REMARK    9  A    between atoms: C24_30  and  C25_31 
REMARK       I    between atoms: C25_31  and  N1_33 
REMARK   10  A    between atoms: N1_33  and  C26_34 
REMARK   11  A    between atoms: C26_34  and  C27_35 
ROOT
HETATM    1  C1  UNL     1      -2.005  53.039 -24.390  1.00  0.00     0.020 C 
HETATM    2  C2  UNL     1      -1.239  51.724 -24.106  1.00  0.00    -0.014 C 
HETATM    3  C3  UNL     1       0.281  51.978 -24.247  1.00  0.00     0.022 C 
HETATM    4  C4  UNL     1       0.716  52.291 -25.676  1.00  0.00     0.084 C 
HETATM    5  C5  UNL     1       0.196  51.277 -26.664  1.00  0.00     0.149 C 
HETATM    6  O1  UNL     1       0.713  51.119 -27.768  1.00  0.00    -0.293 OA
HETATM    7  C6  UNL     1      -1.001  50.481 -26.307  1.00  0.00     0.053 C 
HETATM    8  C7  UNL     1      -1.662  50.679 -25.154  1.00  0.00    -0.068 C 
HETATM    9  C8  UNL     1      -2.826  49.796 -24.773  1.00  0.00     0.035 C 
HETATM   10  C9  UNL     1      -2.524  48.982 -23.505  1.00  0.00     0.010 C 
HETATM   11  C10 UNL     1      -1.493  49.665 -22.586  1.00  0.00    -0.002 C 
HETATM   12  C11 UNL     1      -1.652  51.208 -22.672  1.00  0.00     0.031 C 
HETATM   13  C12 UNL     1      -1.041  51.926 -21.449  1.00  0.00     0.124 C 
HETATM   14  C13 UNL     1      -1.707  51.488 -20.119  1.00  0.00     0.045 C 
HETATM   15  C14 UNL     1      -2.228  50.021 -20.100  1.00  0.00     0.001 C 
HETATM   16  C15 UNL     1      -3.758  50.013 -20.363  1.00  0.00     0.019 C 
HETATM   17  C16 UNL     1      -1.443  49.174 -21.132  1.00  0.00     0.002 C 
HETATM   18  C17 UNL     1      -1.807  47.732 -20.804  1.00  0.00     0.009 C 
HETATM   19  C18 UNL     1      -1.995  47.728 -19.274  1.00  0.00     0.047 C 
HETATM   20  C19 UNL     1      -1.906  49.210 -18.799  1.00  0.00     0.128 C 
ENDROOT
BRANCH  20  21
HETATM   21  O3  UNL     1      -0.539  49.427 -18.427  1.00  0.00    -0.381 OA
HETATM   22  H27 UNL     1      -0.377  48.879 -17.630  1.00  0.00     0.211 HD
ENDBRANCH  20  21
BRANCH  20  23
HETATM   23  C20 UNL     1      -2.857  49.498 -17.608  1.00  0.00     0.185 C 
HETATM   24  O4  UNL     1      -3.770  48.720 -17.311  1.00  0.00    -0.292 OA
BRANCH  23  25
HETATM   25  C21 UNL     1      -2.730  50.832 -16.859  1.00  0.00     0.260 C 
BRANCH  25  26
HETATM   26  O5  UNL     1      -3.421  51.055 -15.640  1.00  0.00    -0.314 OA
BRANCH  26  27
HETATM   27  C22 UNL     1      -2.631  51.177 -14.542  1.00  0.00     0.259 C 
HETATM   28  O6  UNL     1      -1.575  50.575 -14.384  1.00  0.00    -0.265 OA
BRANCH  27  29
HETATM   29  C23 UNL     1      -3.127  52.242 -13.594  1.00  0.00     0.120 C 
BRANCH  29  30
HETATM   30  C24 UNL     1      -3.057  51.876 -12.116  1.00  0.00     0.112 C 
BRANCH  30  31
HETATM   31  C25 UNL     1      -3.194  53.088 -11.216  1.00  0.00     0.218 C 
HETATM   32  O7  UNL     1      -4.257  53.435 -10.714  1.00  0.00    -0.274 OA
HETATM   33  N1  UNL     1      -2.010  53.773 -11.052  1.00  0.00    -0.357 N 
HETATM   34  H34 UNL     1      -1.149  53.332 -11.343  1.00  0.00     0.162 HD
BRANCH  33  35
HETATM   35  C26 UNL     1      -1.909  54.904 -10.158  1.00  0.00     0.161 C 
BRANCH  35  36
HETATM   36  C27 UNL     1      -0.477  55.170  -9.782  1.00  0.00    -0.038 A 
HETATM   37  C28 UNL     1       0.570  54.834 -10.644  1.00  0.00     0.025 A 
HETATM   38  C29 UNL     1       1.873  55.082 -10.235  1.00  0.00     0.088 A 
HETATM   39  N2  UNL     1       2.196  55.627  -9.044  1.00  0.00    -0.375 N 
HETATM   40  C30 UNL     1       1.171  55.937  -8.222  1.00  0.00     0.088 A 
ATOM     41  H2  UNL     1       3.166  55.796  -8.778  1.00  0.00     0.164 HD
HETATM   42  C31 UNL     1      -0.162  55.729  -8.539  1.00  0.00     0.025 A 
ENDBRANCH  35  36
ENDBRANCH  33  35
ENDBRANCH  30  31
ENDBRANCH  29  30
ENDBRANCH  27  29
ENDBRANCH  26  27
ENDBRANCH  25  26
ENDBRANCH  23  25
ENDBRANCH  20  23
BRANCH  13  43
HETATM   43  O2  UNL     1       0.367  51.718 -21.373  1.00  0.00    -0.395 OA
HETATM   44  H16 UNL     1       0.562  51.044 -20.698  1.00  0.00     0.210 HD
ENDBRANCH  13  43
TORSDOF 11
ENDMDL
MODEL 6
REMARK minimizedAffinity -8.23595047
REMARK CNNscore 0.527460754
REMARK CNNaffinity 6.2716918
REMARK  11 active torsions:
REMARK  status: ('A' for Active; 'I' for Inactive)
REMARK    1  A    between atoms: C12_13  and  O2_14 
REMARK    2  A    between atoms: C19_21  and  O3_22 
REMARK    3  A    between atoms: C19_21  and  C20_23 
REMARK    4  A    between atoms: C20_23  and  C21_25 
REMARK    5  A    between atoms: C21_25  and  O5_26 
REMARK    6  A    between atoms: O5_26  and  C22_27 
REMARK    7  A    between atoms: C22_27  and  C23_29 
REMARK    8  A    between atoms: C23_29  and  C24_30 
REMARK    9  A    between atoms: C24_30  and  C25_31 
REMARK       I    between atoms: C25_31  and  N1_33 
REMARK   10  A    between atoms: N1_33  and  C26_34 
REMARK   11  A    between atoms: C26_34  and  C27_35 
ROOT
HETATM    1  C1  UNL     1      -1.864  51.607 -21.468  1.00  0.00     0.020 C 
HETATM    2  C2  UNL     1      -2.589  50.494 -20.674  1.00  0.00    -0.014 C 
HETATM    3  C3  UNL     1      -3.123  51.081 -19.345  1.00  0.00     0.022 C 
HETATM    4  C4  UNL     1      -2.019  51.491 -18.374  1.00  0.00     0.084 C 
HETATM    5  C5  UNL     1      -1.008  50.391 -18.166  1.00  0.00     0.149 C 
HETATM    6  O1  UNL     1      -0.276  50.358 -17.179  1.00  0.00    -0.293 OA
HETATM    7  C6  UNL     1      -0.864  49.347 -19.206  1.00  0.00     0.053 C 
HETATM    8  C7  UNL     1      -1.571  49.387 -20.348  1.00  0.00    -0.068 C 
HETATM    9  C8  UNL     1      -1.472  48.265 -21.354  1.00  0.00     0.035 C 
HETATM   10  C9  UNL     1      -2.814  47.532 -21.513  1.00  0.00     0.010 C 
HETATM   11  C10 UNL     1      -4.027  48.423 -21.180  1.00  0.00    -0.002 C 
HETATM   12  C11 UNL     1      -3.727  49.892 -21.588  1.00  0.00     0.031 C 
HETATM   13  C12 UNL     1      -5.017  50.721 -21.766  1.00  0.00     0.124 C 
HETATM   14  C13 UNL     1      -5.942  50.139 -22.866  1.00  0.00     0.045 C 
HETATM   15  C14 UNL     1      -5.869  48.593 -23.031  1.00  0.00     0.001 C 
HETATM   16  C15 UNL     1      -4.947  48.245 -24.232  1.00  0.00     0.019 C 
HETATM   17  C16 UNL     1      -5.388  47.948 -21.708  1.00  0.00     0.002 C 
HETATM   18  C17 UNL     1      -5.657  46.459 -21.885  1.00  0.00     0.009 C 
HETATM   19  C18 UNL     1      -6.931  46.405 -22.751  1.00  0.00     0.047 C 
HETATM   20  C19 UNL     1      -7.248  47.867 -23.189  1.00  0.00     0.128 C 
ENDROOT
BRANCH  20  21
HETATM   21  O3  UNL     1      -8.171  48.381 -22.222  1.00  0.00    -0.381 OA
HETATM   22  H27 UNL     1      -9.005  47.879 -22.339  1.00  0.00     0.211 HD
ENDBRANCH  20  21
BRANCH  20  23
HETATM   23  C20 UNL     1      -7.849  47.929 -24.618  1.00  0.00     0.185 C 
HETATM   24  O4  UNL     1      -7.511  47.127 -25.494  1.00  0.00    -0.292 OA
BRANCH  23  25
HETATM   25  C21 UNL     1      -8.797  49.083 -24.977  1.00  0.00     0.260 C 
BRANCH  25  26
HETATM   26  O5  UNL     1      -9.415  49.152 -26.253  1.00  0.00    -0.314 OA
BRANCH  26  27
HETATM   27  C22 UNL     1     -10.377  48.221 -26.478  1.00  0.00     0.259 C 
HETATM   28  O6  UNL     1     -11.382  48.089 -25.789  1.00  0.00    -0.265 OA
BRANCH  27  29
HETATM   29  C23 UNL     1     -10.144  47.453 -27.757  1.00  0.00     0.120 C 
BRANCH  29  30
HETATM   30  C24 UNL     1      -9.429  48.228 -28.858  1.00  0.00     0.112 C 
BRANCH  30  31
HETATM   31  C25 UNL     1      -8.043  47.684 -29.136  1.00  0.00     0.218 C 
HETATM   32  O7  UNL     1      -7.630  46.626 -28.673  1.00  0.00    -0.274 OA
HETATM   33  N1  UNL     1      -7.288  48.515 -29.934  1.00  0.00    -0.357 N 
HETATM   34  H34 UNL     1      -7.749  49.270 -30.423  1.00  0.00     0.162 HD
BRANCH  33  35
HETATM   35  C26 UNL     1      -5.971  48.133 -30.392  1.00  0.00     0.161 C 
BRANCH  35  36
HETATM   36  C27 UNL     1      -5.944  47.972 -31.888  1.00  0.00    -0.038 A 
HETATM   37  C28 UNL     1      -7.124  47.811 -32.618  1.00  0.00     0.025 A 
HETATM   38  C29 UNL     1      -7.037  47.644 -33.993  1.00  0.00     0.088 A 
HETATM   39  N2  UNL     1      -5.873  47.621 -34.675  1.00  0.00    -0.375 N 
HETATM   40  C30 UNL     1      -4.744  47.770 -33.951  1.00  0.00     0.088 A 
ATOM     41  H2  UNL     1      -5.848  47.498 -35.687  1.00  0.00     0.164 HD
HETATM   42  C31 UNL     1      -4.727  47.943 -32.576  1.00  0.00     0.025 A 
ENDBRANCH  35  36
ENDBRANCH  33  35
ENDBRANCH  30  31
ENDBRANCH  29  30
ENDBRANCH  27  29
ENDBRANCH  26  27
ENDBRANCH  25  26
ENDBRANCH  23  25
ENDBRANCH  20  23
BRANCH  13  43
HETATM   43  O2  UNL     1      -5.739  50.832 -20.541  1.00  0.00    -0.395 OA
HETATM   44  H16 UNL     1      -6.492  50.215 -20.548  1.00  0.00     0.210 HD
ENDBRANCH  13  43
TORSDOF 11
ENDMDL
MODEL 7
REMARK minimizedAffinity -8.91946411
REMARK CNNscore 0.361911416
REMARK CNNaffinity 6.28429413
REMARK  11 active torsions:
REMARK  status: ('A' for Active; 'I' for Inactive)
REMARK    1  A    between atoms: C12_13  and  O2_14 
REMARK    2  A    between atoms: C19_21  and  O3_22 
REMARK    3  A    between atoms: C19_21  and  C20_23 
REMARK    4  A    between atoms: C20_23  and  C21_25 
REMARK    5  A    between atoms: C21_25  and  O5_26 
REMARK    6  A    between atoms: O5_26  and  C22_27 
REMARK    7  A    between atoms: C22_27  and  C23_29 
REMARK    8  A    between atoms: C23_29  and  C24_30 
REMARK    9  A    between atoms: C24_30  and  C25_31 
REMARK       I    between atoms: C25_31  and  N1_33 
REMARK   10  A    between atoms: N1_33  and  C26_34 
REMARK   11  A    between atoms: C26_34  and  C27_35 
ROOT
HETATM    1  C1  UNL     1       0.191  50.710 -26.272  1.00  0.00     0.020 C 
HETATM    2  C2  UNL     1      -1.005  51.595 -25.846  1.00  0.00    -0.014 C 
HETATM    3  C3  UNL     1      -1.577  52.314 -27.093  1.00  0.00     0.022 C 
HETATM    4  C4  UNL     1      -0.622  53.344 -27.691  1.00  0.00     0.084 C 
HETATM    5  C5  UNL     1      -0.093  54.300 -26.652  1.00  0.00     0.149 C 
HETATM    6  O1  UNL     1       0.370  55.398 -26.954  1.00  0.00    -0.293 OA
HETATM    7  C6  UNL     1      -0.091  53.882 -25.231  1.00  0.00     0.053 C 
HETATM    8  C7  UNL     1      -0.497  52.657 -24.856  1.00  0.00    -0.068 C 
HETATM    9  C8  UNL     1      -0.569  52.285 -23.395  1.00  0.00     0.035 C 
HETATM   10  C9  UNL     1      -2.014  51.999 -22.957  1.00  0.00     0.010 C 
HETATM   11  C10 UNL     1      -2.908  51.520 -24.118  1.00  0.00    -0.002 C 
HETATM   12  C11 UNL     1      -2.066  50.680 -25.117  1.00  0.00     0.031 C 
HETATM   13  C12 UNL     1      -2.947  49.765 -25.996  1.00  0.00     0.124 C 
HETATM   14  C13 UNL     1      -3.766  48.754 -25.152  1.00  0.00     0.045 C 
HETATM   15  C14 UNL     1      -4.172  49.261 -23.737  1.00  0.00     0.001 C 
HETATM   16  C15 UNL     1      -3.192  48.684 -22.681  1.00  0.00     0.019 C 
HETATM   17  C16 UNL     1      -4.212  50.809 -23.727  1.00  0.00     0.002 C 
HETATM   18  C17 UNL     1      -4.912  51.169 -22.423  1.00  0.00     0.009 C 
HETATM   19  C18 UNL     1      -5.928  50.029 -22.212  1.00  0.00     0.047 C 
HETATM   20  C19 UNL     1      -5.650  48.961 -23.314  1.00  0.00     0.128 C 
ENDROOT
BRANCH  20  21
HETATM   21  O3  UNL     1      -6.531  49.271 -24.401  1.00  0.00    -0.381 OA
HETATM   22  H27 UNL     1      -7.441  49.097 -24.080  1.00  0.00     0.211 HD
ENDBRANCH  20  21
BRANCH  20  23
HETATM   23  C20 UNL     1      -5.893  47.517 -22.799  1.00  0.00     0.185 C 
HETATM   24  O4  UNL     1      -5.019  46.899 -22.180  1.00  0.00    -0.292 OA
BRANCH  23  25
HETATM   25  C21 UNL     1      -7.202  46.806 -23.167  1.00  0.00     0.260 C 
BRANCH  25  26
HETATM   26  O5  UNL     1      -7.367  46.187 -24.434  1.00  0.00    -0.314 OA
BRANCH  26  27
HETATM   27  C22 UNL     1      -8.423  46.635 -25.161  1.00  0.00     0.259 C 
HETATM   28  O6  UNL     1      -9.414  47.172 -24.678  1.00  0.00    -0.265 OA
BRANCH  27  29
HETATM   29  C23 UNL     1      -8.185  46.523 -26.648  1.00  0.00     0.120 C 
BRANCH  29  30
HETATM   30  C24 UNL     1      -8.702  47.693 -27.477  1.00  0.00     0.112 C 
BRANCH  30  31
HETATM   31  C25 UNL     1      -9.810  47.280 -28.424  1.00  0.00     0.218 C 
HETATM   32  O7  UNL     1      -9.733  46.306 -29.164  1.00  0.00    -0.274 OA
HETATM   33  N1  UNL     1     -10.894  48.130 -28.390  1.00  0.00    -0.357 N 
HETATM   34  H34 UNL     1     -10.964  48.797 -27.634  1.00  0.00     0.162 HD
BRANCH  33  35
HETATM   35  C26 UNL     1     -12.092  47.859 -29.150  1.00  0.00     0.161 C 
BRANCH  35  36
HETATM   36  C27 UNL     1     -13.109  47.129 -28.315  1.00  0.00    -0.038 A 
HETATM   37  C28 UNL     1     -13.243  47.391 -26.949  1.00  0.00     0.025 A 
HETATM   38  C29 UNL     1     -14.182  46.671 -26.224  1.00  0.00     0.088 A 
HETATM   39  N2  UNL     1     -14.978  45.721 -26.759  1.00  0.00    -0.375 N 
HETATM   40  C30 UNL     1     -14.828  45.477 -28.078  1.00  0.00     0.088 A 
ATOM     41  H2  UNL     1     -15.659  45.213 -26.195  1.00  0.00     0.164 HD
HETATM   42  C31 UNL     1     -13.920  46.142 -28.886  1.00  0.00     0.025 A 
ENDBRANCH  35  36
ENDBRANCH  33  35
ENDBRANCH  30  31
ENDBRANCH  29  30
ENDBRANCH  27  29
ENDBRANCH  26  27
ENDBRANCH  25  26
ENDBRANCH  23  25
ENDBRANCH  20  23
BRANCH  13  43
HETATM   43  O2  UNL     1      -3.826  50.525 -26.822  1.00  0.00    -0.395 OA
HETATM   44  H16 UNL     1      -4.722  50.518 -26.440  1.00  0.00     0.210 HD
ENDBRANCH  13  43
TORSDOF 11
ENDMDL
MODEL 8
REMARK minimizedAffinity -7.85843658
REMARK CNNscore 0.331838042
REMARK CNNaffinity 6.1013751
REMARK  11 active torsions:
REMARK  status: ('A' for Active; 'I' for Inactive)
REMARK    1  A    between atoms: C12_13  and  O2_14 
REMARK    2  A    between atoms: C19_21  and  O3_22 
REMARK    3  A    between atoms: C19_21  and  C20_23 
REMARK    4  A    between atoms: C20_23  and  C21_25 
REMARK    5  A    between atoms: C21_25  and  O5_26 
REMARK    6  A    between atoms: O5_26  and  C22_27 
REMARK    7  A    between atoms: C22_27  and  C23_29 
REMARK    8  A    between atoms: C23_29  and  C24_30 
REMARK    9  A    between atoms: C24_30  and  C25_31 
REMARK       I    between atoms: C25_31  and  N1_33 
REMARK   10  A    between atoms: N1_33  and  C26_34 
REMARK   11  A    between atoms: C26_34  and  C27_35 
ROOT
HETATM    1  C1  UNL     1      -7.474  47.016 -33.778  1.00  0.00     0.020 C 
HETATM    2  C2  UNL     1      -6.650  47.257 -32.489  1.00  0.00    -0.014 C 
HETATM    3  C3  UNL     1      -5.827  48.559 -32.645  1.00  0.00     0.022 C 
HETATM    4  C4  UNL     1      -4.732  48.463 -33.704  1.00  0.00     0.084 C 
HETATM    5  C5  UNL     1      -3.868  47.241 -33.519  1.00  0.00     0.149 C 
HETATM    6  O1  UNL     1      -2.740  47.162 -34.001  1.00  0.00    -0.293 OA
HETATM    7  C6  UNL     1      -4.416  46.085 -32.773  1.00  0.00     0.053 C 
HETATM    8  C7  UNL     1      -5.677  46.079 -32.307  1.00  0.00    -0.068 C 
HETATM    9  C8  UNL     1      -6.184  44.926 -31.475  1.00  0.00     0.035 C 
HETATM   10  C9  UNL     1      -6.531  45.374 -30.045  1.00  0.00     0.010 C 
HETATM   11  C10 UNL     1      -6.914  46.865 -29.961  1.00  0.00    -0.002 C 
HETATM   12  C11 UNL     1      -7.644  47.294 -31.263  1.00  0.00     0.031 C 
HETATM   13  C12 UNL     1      -8.487  48.573 -31.063  1.00  0.00     0.124 C 
HETATM   14  C13 UNL     1      -9.584  48.388 -29.983  1.00  0.00     0.045 C 
HETATM   15  C14 UNL     1      -9.217  47.397 -28.840  1.00  0.00     0.001 C 
HETATM   16  C15 UNL     1      -9.875  46.019 -29.121  1.00  0.00     0.019 C 
HETATM   17  C16 UNL     1      -7.677  47.303 -28.703  1.00  0.00     0.002 C 
HETATM   18  C17 UNL     1      -7.450  46.576 -27.384  1.00  0.00     0.009 C 
HETATM   19  C18 UNL     1      -8.621  47.036 -26.493  1.00  0.00     0.047 C 
HETATM   20  C19 UNL     1      -9.578  47.876 -27.393  1.00  0.00     0.128 C 
ENDROOT
BRANCH  20  21
HETATM   21  O3  UNL     1      -9.181  49.243 -27.229  1.00  0.00    -0.381 OA
HETATM   22  H27 UNL     1      -9.399  49.487 -26.305  1.00  0.00     0.211 HD
ENDBRANCH  20  21
BRANCH  20  23
HETATM   23  C20 UNL     1     -11.066  47.680 -27.001  1.00  0.00     0.185 C 
HETATM   24  O4  UNL     1     -11.636  48.458 -26.228  1.00  0.00    -0.292 OA
BRANCH  23  25
HETATM   25  C21 UNL     1     -11.807  46.429 -27.495  1.00  0.00     0.260 C 
BRANCH  25  26
HETATM   26  O5  UNL     1     -12.363  45.499 -26.578  1.00  0.00    -0.314 OA
BRANCH  26  27
HETATM   27  C22 UNL     1     -13.606  45.050 -26.894  1.00  0.00     0.259 C 
HETATM   28  O6  UNL     1     -13.872  43.881 -27.149  1.00  0.00    -0.265 OA
BRANCH  27  29
HETATM   29  C23 UNL     1     -14.655  46.128 -26.763  1.00  0.00     0.120 C 
BRANCH  29  30
HETATM   30  C24 UNL     1     -15.237  46.300 -25.365  1.00  0.00     0.112 C 
BRANCH  30  31
HETATM   31  C25 UNL     1     -16.714  45.969 -25.313  1.00  0.00     0.218 C 
HETATM   32  O7  UNL     1     -17.193  44.950 -25.797  1.00  0.00    -0.274 OA
HETATM   33  N1  UNL     1     -17.464  46.948 -24.696  1.00  0.00    -0.357 N 
HETATM   34  H34 UNL     1     -16.986  47.663 -24.165  1.00  0.00     0.162 HD
BRANCH  33  35
HETATM   35  C26 UNL     1     -18.880  46.780 -24.462  1.00  0.00     0.161 C 
BRANCH  35  36
HETATM   36  C27 UNL     1     -19.131  45.946 -23.235  1.00  0.00    -0.038 A 
HETATM   37  C28 UNL     1     -18.531  46.261 -22.013  1.00  0.00     0.025 A 
HETATM   38  C29 UNL     1     -18.781  45.442 -20.920  1.00  0.00     0.088 A 
HETATM   39  N2  UNL     1     -19.568  44.347 -20.965  1.00  0.00    -0.375 N 
HETATM   40  C30 UNL     1     -20.132  44.055 -22.157  1.00  0.00     0.088 A 
ATOM     41  H2  UNL     1     -19.730  43.770 -20.141  1.00  0.00     0.164 HD
HETATM   42  C31 UNL     1     -19.945  44.810 -23.304  1.00  0.00     0.025 A 
ENDBRANCH  35  36
ENDBRANCH  33  35
ENDBRANCH  30  31
ENDBRANCH  29  30
ENDBRANCH  27  29
ENDBRANCH  26  27
ENDBRANCH  25  26
ENDBRANCH  23  25
ENDBRANCH  20  23
BRANCH  13  43
HETATM   43  O2  UNL     1      -7.668  49.691 -30.730  1.00  0.00    -0.395 OA
HETATM   44  H16 UNL     1      -7.724  49.864 -29.774  1.00  0.00     0.210 HD
ENDBRANCH  13  43
TORSDOF 11
ENDMDL
MODEL 9
REMARK minimizedAffinity -7.66094112
REMARK CNNscore 0.316831619
REMARK CNNaffinity 6.1376133
REMARK  11 active torsions:
REMARK  status: ('A' for Active; 'I' for Inactive)
REMARK    1  A    between atoms: C12_13  and  O2_14 
REMARK    2  A    between atoms: C19_21  and  O3_22 
REMARK    3  A    between atoms: C19_21  and  C20_23 
REMARK    4  A    between atoms: C20_23  and  C21_25 
REMARK    5  A    between atoms: C21_25  and  O5_26 
REMARK    6  A    between atoms: O5_26  and  C22_27 
REMARK    7  A    between atoms: C22_27  and  C23_29 
REMARK    8  A    between atoms: C23_29  and  C24_30 
REMARK    9  A    between atoms: C24_30  and  C25_31 
REMARK       I    between atoms: C25_31  and  N1_33 
REMARK   10  A    between atoms: N1_33  and  C26_34 
REMARK   11  A    between atoms: C26_34  and  C27_35 
ROOT
HETATM    1  C1  UNL     1      -1.044  51.120 -22.760  1.00  0.00     0.020 C 
HETATM    2  C2  UNL     1      -2.018  50.472 -21.746  1.00  0.00    -0.014 C 
HETATM    3  C3  UNL     1      -2.349  51.494 -20.631  1.00  0.00     0.022 C 
HETATM    4  C4  UNL     1      -1.154  51.833 -19.744  1.00  0.00     0.084 C 
HETATM    5  C5  UNL     1      -0.463  50.598 -19.223  1.00  0.00     0.149 C 
HETATM    6  O1  UNL     1       0.257  50.626 -18.227  1.00  0.00    -0.293 OA
HETATM    7  C6  UNL     1      -0.623  49.325 -19.962  1.00  0.00     0.053 C 
HETATM    8  C7  UNL     1      -1.321  49.257 -21.109  1.00  0.00    -0.068 C 
HETATM    9  C8  UNL     1      -1.543  47.932 -21.797  1.00  0.00     0.035 C 
HETATM   10  C9  UNL     1      -3.034  47.558 -21.829  1.00  0.00     0.010 C 
HETATM   11  C10 UNL     1      -3.961  48.788 -21.784  1.00  0.00    -0.002 C 
HETATM   12  C11 UNL     1      -3.295  49.976 -22.531  1.00  0.00     0.031 C 
HETATM   13  C12 UNL     1      -4.325  51.040 -22.969  1.00  0.00     0.124 C 
HETATM   14  C13 UNL     1      -5.395  50.460 -23.930  1.00  0.00     0.045 C 
HETATM   15  C14 UNL     1      -5.735  48.959 -23.700  1.00  0.00     0.001 C 
HETATM   16  C15 UNL     1      -4.966  48.092 -24.733  1.00  0.00     0.019 C 
HETATM   17  C16 UNL     1      -5.412  48.566 -22.238  1.00  0.00     0.002 C 
HETATM   18  C17 UNL     1      -6.067  47.204 -22.049  1.00  0.00     0.009 C 
HETATM   19  C18 UNL     1      -7.330  47.267 -22.932  1.00  0.00     0.047 C 
HETATM   20  C19 UNL     1      -7.260  48.601 -23.734  1.00  0.00     0.128 C 
ENDROOT
BRANCH  20  21
HETATM   21  O3  UNL     1      -7.993  49.565 -22.969  1.00  0.00    -0.381 OA
HETATM   22  H27 UNL     1      -8.933  49.284 -22.994  1.00  0.00     0.211 HD
ENDBRANCH  20  21
BRANCH  20  23
HETATM   23  C20 UNL     1      -7.857  48.455 -25.159  1.00  0.00     0.185 C 
HETATM   24  O4  UNL     1      -8.786  49.173 -25.544  1.00  0.00    -0.292 OA
BRANCH  23  25
HETATM   25  C21 UNL     1      -7.357  47.320 -26.063  1.00  0.00     0.260 C 
BRANCH  25  26
HETATM   26  O5  UNL     1      -8.017  47.009 -27.280  1.00  0.00    -0.314 OA
BRANCH  26  27
HETATM   27  C22 UNL     1      -7.353  47.377 -28.406  1.00  0.00     0.259 C 
HETATM   28  O6  UNL     1      -6.377  48.118 -28.419  1.00  0.00    -0.265 OA
BRANCH  27  29
HETATM   29  C23 UNL     1      -7.866  46.663 -29.634  1.00  0.00     0.120 C 
BRANCH  29  30
HETATM   30  C24 UNL     1      -9.230  46.001 -29.476  1.00  0.00     0.112 C 
BRANCH  30  31
HETATM   31  C25 UNL     1     -10.342  47.014 -29.292  1.00  0.00     0.218 C 
HETATM   32  O7  UNL     1     -10.660  47.826 -30.154  1.00  0.00    -0.274 OA
HETATM   33  N1  UNL     1     -10.930  46.948 -28.048  1.00  0.00    -0.357 N 
HETATM   34  H34 UNL     1     -10.744  46.145 -27.464  1.00  0.00     0.162 HD
BRANCH  33  35
HETATM   35  C26 UNL     1     -12.072  47.767 -27.708  1.00  0.00     0.161 C 
BRANCH  35  36
HETATM   36  C27 UNL     1     -13.307  46.926 -27.531  1.00  0.00    -0.038 A 
HETATM   37  C28 UNL     1     -13.827  46.177 -28.589  1.00  0.00     0.025 A 
HETATM   38  C29 UNL     1     -14.982  45.438 -28.375  1.00  0.00     0.088 A 
HETATM   39  N2  UNL     1     -15.644  45.401 -27.200  1.00  0.00    -0.375 N 
HETATM   40  C30 UNL     1     -15.130  46.139 -26.192  1.00  0.00     0.088 A 
ATOM     41  H2  UNL     1     -16.490  44.845 -27.078  1.00  0.00     0.164 HD
HETATM   42  C31 UNL     1     -13.983  46.908 -26.307  1.00  0.00     0.025 A 
ENDBRANCH  35  36
ENDBRANCH  33  35
ENDBRANCH  30  31
ENDBRANCH  29  30
ENDBRANCH  27  29
ENDBRANCH  26  27
ENDBRANCH  25  26
ENDBRANCH  23  25
ENDBRANCH  20  23
BRANCH  13  43
HETATM   43  O2  UNL     1      -4.964  51.641 -21.844  1.00  0.00    -0.395 OA
HETATM   44  H16 UNL     1      -5.853  51.260 -21.731  1.00  0.00     0.210 HD
ENDBRANCH  13  43
TORSDOF 11
ENDMDL
