MODEL 1
REMARK minimizedAffinity -10.1822519
REMARK  8 active torsions:
REMARK  status: ('A' for Active; 'I' for Inactive)
REMARK    1  A    between atoms: C2_2  and  C3_3 
REMARK    2  A    between atoms: C2_2  and  C9_11 
REMARK    3  A    between atoms: C3_3  and  C4_4 
REMARK    4  A    between atoms: C4_4  and  O1_5 
REMARK    5  A    between atoms: C4_4  and  C5_6 
REMARK    6  A    between atoms: C20_22  and  O3_23 
REMARK    7  A    between atoms: C23_27  and  C25_29 
REMARK    8  A    between atoms: C25_29  and  O5_30 
ROOT
HETATM    1  C9  UNL     1       0.653   7.345  12.549  1.00  0.00    -0.002 C 
HETATM    2  C10 UNL     1       0.683   6.056  11.676  1.00  0.00     0.007 C 
HETATM    3  C11 UNL     1      -0.710   5.405  11.789  1.00  0.00     0.015 C 
HETATM    4  C12 UNL     1      -1.372   6.096  13.000  1.00  0.00    -0.013 C 
HETATM    5  C13 UNL     1      -0.824   5.365  14.269  1.00  0.00     0.021 C 
HETATM    6  C14 UNL     1      -2.892   6.050  13.122  1.00  0.00    -0.070 C 
HETATM    7  C15 UNL     1      -3.617   5.016  12.663  1.00  0.00    -0.022 C 
HETATM    8  C16 UNL     1      -5.089   4.851  12.871  1.00  0.00     0.034 C 
HETATM    9  C17 UNL     1      -5.815   6.086  13.458  1.00  0.00     0.018 C 
HETATM   10  C18 UNL     1      -4.941   6.836  14.537  1.00  0.00    -0.005 C 
HETATM   11  C19 UNL     1      -4.689   5.933  15.771  1.00  0.00     0.019 C 
HETATM   12  C20 UNL     1      -5.656   8.172  14.960  1.00  0.00     0.134 C 
HETATM   13  C21 UNL     1      -7.165   8.209  14.764  1.00  0.00     0.111 C 
HETATM   14  C22 UNL     1      -7.776   6.842  14.886  1.00  0.00     0.140 C 
HETATM   15  O4  UNL     1      -8.696   6.643  15.679  1.00  0.00    -0.297 OA
HETATM   16  C23 UNL     1      -7.300   5.777  13.895  1.00  0.00     0.043 C 
HETATM   17  C24 UNL     1      -8.222   5.903  12.658  1.00  0.00     0.026 C 
HETATM   18  C26 UNL     1      -3.564   7.222  13.838  1.00  0.00     0.026 C 
HETATM   19  C27 UNL     1      -2.580   8.031  14.722  1.00  0.00     0.011 C 
HETATM   20  C28 UNL     1      -1.223   8.389  14.070  1.00  0.00     0.011 C 
HETATM   21  C29 UNL     1      -0.872   7.574  12.808  1.00  0.00    -0.029 C 
HETATM   22  C30 UNL     1      -1.500   8.276  11.568  1.00  0.00     0.016 C 
ENDROOT
BRANCH   1  23
HETATM   23  C2  UNL     1       1.611   8.471  12.051  1.00  0.00    -0.011 C 
HETATM   24  C1  UNL     1       2.962   8.595  12.766  1.00  0.00     0.010 C 
BRANCH  23  25
HETATM   25  C3  UNL     1       1.783   8.420  10.512  1.00  0.00     0.039 C 
BRANCH  25  26
HETATM   26  C4  UNL     1       3.187   8.008  10.036  1.00  0.00     0.150 C 
BRANCH  26  27
HETATM   27  O1  UNL     1       3.598   6.821  10.714  1.00  0.00    -0.393 OA
HETATM   28  H8  UNL     1       3.203   6.058  10.263  1.00  0.00     0.210 HD
ENDBRANCH  26  27
BRANCH  26  29
HETATM   29  C5  UNL     1       3.179   7.749   8.555  1.00  0.00     0.185 A 
HETATM   30  O2  UNL     1       2.890   8.893   7.738  1.00  0.00    -0.367 OA
HETATM   31  C6  UNL     1       1.928   7.827   7.692  1.00  0.00     0.083 A 
HETATM   32  C7  UNL     1       1.911   7.085   6.391  1.00  0.00     0.048 C 
HETATM   33  C8  UNL     1       0.595   8.189   8.268  1.00  0.00     0.048 C 
ENDBRANCH  26  29
ENDBRANCH  25  26
ENDBRANCH  23  25
ENDBRANCH   1  23
BRANCH  12  34
HETATM   34  O3  UNL     1      -5.341   8.498  16.314  1.00  0.00    -0.394 OA
HETATM   35  H32 UNL     1      -5.740   9.360  16.527  1.00  0.00     0.210 HD
ENDBRANCH  12  34
BRANCH  16  36
HETATM   36  C25 UNL     1      -7.531   4.388  14.546  1.00  0.00     0.181 C 
BRANCH  36  37
HETATM   37  O5  UNL     1      -8.333   3.536  13.729  1.00  0.00    -0.400 OA
HETATM   38  H40 UNL     1      -9.259   3.662  13.999  1.00  0.00     0.209 HD
ENDBRANCH  36  37
ENDBRANCH  16  36
TORSDOF 8
ENDMDL
MODEL 2
REMARK minimizedAffinity -9.36494064
REMARK  8 active torsions:
REMARK  status: ('A' for Active; 'I' for Inactive)
REMARK    1  A    between atoms: C2_2  and  C3_3 
REMARK    2  A    between atoms: C2_2  and  C9_11 
REMARK    3  A    between atoms: C3_3  and  C4_4 
REMARK    4  A    between atoms: C4_4  and  O1_5 
REMARK    5  A    between atoms: C4_4  and  C5_6 
REMARK    6  A    between atoms: C20_22  and  O3_23 
REMARK    7  A    between atoms: C23_27  and  C25_29 
REMARK    8  A    between atoms: C25_29  and  O5_30 
ROOT
HETATM    1  C9  UNL     1       1.283   6.989  11.865  1.00  0.00    -0.002 C 
HETATM    2  C10 UNL     1       1.088   5.711  10.997  1.00  0.00     0.007 C 
HETATM    3  C11 UNL     1      -0.340   5.197  11.269  1.00  0.00     0.015 C 
HETATM    4  C12 UNL     1      -0.789   5.937  12.547  1.00  0.00    -0.013 C 
HETATM    5  C13 UNL     1      -0.174   5.145  13.746  1.00  0.00     0.021 C 
HETATM    6  C14 UNL     1      -2.283   6.038  12.842  1.00  0.00    -0.070 C 
HETATM    7  C15 UNL     1      -3.152   5.084  12.470  1.00  0.00    -0.022 C 
HETATM    8  C16 UNL     1      -4.601   5.060  12.846  1.00  0.00     0.034 C 
HETATM    9  C17 UNL     1      -5.131   6.354  13.509  1.00  0.00     0.018 C 
HETATM   10  C18 UNL     1      -4.071   7.006  14.480  1.00  0.00    -0.005 C 
HETATM   11  C19 UNL     1      -3.770   6.071  15.679  1.00  0.00     0.019 C 
HETATM   12  C20 UNL     1      -4.599   8.400  14.979  1.00  0.00     0.134 C 
HETATM   13  C21 UNL     1      -6.110   8.586  14.958  1.00  0.00     0.111 C 
HETATM   14  C22 UNL     1      -6.834   7.283  15.151  1.00  0.00     0.140 C 
HETATM   15  O4  UNL     1      -7.672   7.166  16.044  1.00  0.00    -0.297 OA
HETATM   16  C23 UNL     1      -6.580   6.186  14.114  1.00  0.00     0.043 C 
HETATM   17  C24 UNL     1      -7.619   6.412  12.990  1.00  0.00     0.026 C 
HETATM   18  C26 UNL     1      -2.752   7.263  13.628  1.00  0.00     0.026 C 
HETATM   19  C27 UNL     1      -1.599   7.964  14.392  1.00  0.00     0.011 C 
HETATM   20  C28 UNL     1      -0.297   8.196  13.589  1.00  0.00     0.011 C 
HETATM   21  C29 UNL     1      -0.173   7.362  12.296  1.00  0.00    -0.029 C 
HETATM   22  C30 UNL     1      -0.867   8.133  11.135  1.00  0.00     0.016 C 
ENDROOT
BRANCH   1  23
HETATM   23  C2  UNL     1       2.284   8.021  11.259  1.00  0.00    -0.011 C 
HETATM   24  C1  UNL     1       2.958   8.988  12.240  1.00  0.00     0.010 C 
BRANCH  23  25
HETATM   25  C3  UNL     1       3.319   7.324  10.341  1.00  0.00     0.039 C 
BRANCH  25  26
HETATM   26  C4  UNL     1       4.613   6.885  11.052  1.00  0.00     0.150 C 
BRANCH  26  27
HETATM   27  O1  UNL     1       5.046   5.629  10.534  1.00  0.00    -0.393 OA
HETATM   28  H8  UNL     1       5.533   5.788   9.709  1.00  0.00     0.210 HD
ENDBRANCH  26  27
BRANCH  26  29
HETATM   29  C5  UNL     1       5.695   7.905  10.835  1.00  0.00     0.185 A 
HETATM   30  O2  UNL     1       7.035   7.418  11.004  1.00  0.00    -0.367 OA
HETATM   31  C6  UNL     1       6.605   8.418  11.942  1.00  0.00     0.083 A 
HETATM   32  C7  UNL     1       7.275   9.746  11.758  1.00  0.00     0.048 C 
HETATM   33  C8  UNL     1       6.491   7.921  13.349  1.00  0.00     0.048 C 
ENDBRANCH  26  29
ENDBRANCH  25  26
ENDBRANCH  23  25
ENDBRANCH   1  23
BRANCH  12  34
HETATM   34  O3  UNL     1      -4.102   8.682  16.289  1.00  0.00    -0.394 OA
HETATM   35  H32 UNL     1      -4.388   9.576  16.544  1.00  0.00     0.210 HD
ENDBRANCH  12  34
BRANCH  16  36
HETATM   36  C25 UNL     1      -6.869   4.820  14.789  1.00  0.00     0.181 C 
BRANCH  36  37
HETATM   37  O5  UNL     1      -8.004   4.167  14.221  1.00  0.00    -0.400 OA
HETATM   38  H40 UNL     1      -8.782   4.432  14.742  1.00  0.00     0.209 HD
ENDBRANCH  36  37
ENDBRANCH  16  36
TORSDOF 8
ENDMDL
MODEL 3
REMARK minimizedAffinity -9.06963062
REMARK  8 active torsions:
REMARK  status: ('A' for Active; 'I' for Inactive)
REMARK    1  A    between atoms: C2_2  and  C3_3 
REMARK    2  A    between atoms: C2_2  and  C9_11 
REMARK    3  A    between atoms: C3_3  and  C4_4 
REMARK    4  A    between atoms: C4_4  and  O1_5 
REMARK    5  A    between atoms: C4_4  and  C5_6 
REMARK    6  A    between atoms: C20_22  and  O3_23 
REMARK    7  A    between atoms: C23_27  and  C25_29 
REMARK    8  A    between atoms: C25_29  and  O5_30 
ROOT
HETATM    1  C9  UNL     1      -5.299   7.921  15.634  1.00  0.00    -0.002 C 
HETATM    2  C10 UNL     1      -5.122   9.467  15.583  1.00  0.00     0.007 C 
HETATM    3  C11 UNL     1      -3.807   9.744  14.828  1.00  0.00     0.015 C 
HETATM    4  C12 UNL     1      -3.073   8.387  14.804  1.00  0.00    -0.013 C 
HETATM    5  C13 UNL     1      -2.360   8.255  16.189  1.00  0.00     0.021 C 
HETATM    6  C14 UNL     1      -1.984   8.168  13.757  1.00  0.00    -0.070 C 
HETATM    7  C15 UNL     1      -1.220   9.173  13.298  1.00  0.00    -0.022 C 
HETATM    8  C16 UNL     1      -0.053   9.001  12.376  1.00  0.00     0.034 C 
HETATM    9  C17 UNL     1       0.100   7.589  11.762  1.00  0.00     0.018 C 
HETATM   10  C18 UNL     1      -0.278   6.447  12.785  1.00  0.00    -0.005 C 
HETATM   11  C19 UNL     1       0.701   6.437  13.987  1.00  0.00     0.019 C 
HETATM   12  C20 UNL     1      -0.274   5.057  12.050  1.00  0.00     0.134 C 
HETATM   13  C21 UNL     1       0.591   4.967  10.801  1.00  0.00     0.111 C 
HETATM   14  C22 UNL     1       1.771   5.894  10.873  1.00  0.00     0.140 C 
HETATM   15  O4  UNL     1       2.911   5.459  10.713  1.00  0.00    -0.297 OA
HETATM   16  C23 UNL     1       1.474   7.389  11.011  1.00  0.00     0.043 C 
HETATM   17  C24 UNL     1       1.339   7.932   9.569  1.00  0.00     0.026 C 
HETATM   18  C26 UNL     1      -1.763   6.732  13.279  1.00  0.00     0.026 C 
HETATM   19  C27 UNL     1      -2.349   5.678  14.252  1.00  0.00     0.011 C 
HETATM   20  C28 UNL     1      -3.783   5.954  14.766  1.00  0.00     0.011 C 
HETATM   21  C29 UNL     1      -4.276   7.403  14.571  1.00  0.00    -0.029 C 
HETATM   22  C30 UNL     1      -4.905   7.531  13.153  1.00  0.00     0.016 C 
ENDROOT
BRANCH   1  23
HETATM   23  C2  UNL     1      -6.787   7.453  15.684  1.00  0.00    -0.011 C 
HETATM   24  C1  UNL     1      -7.693   7.908  14.533  1.00  0.00     0.010 C 
BRANCH  23  25
HETATM   25  C3  UNL     1      -6.885   5.925  15.919  1.00  0.00     0.039 C 
BRANCH  25  26
HETATM   26  C4  UNL     1      -7.692   5.163  14.853  1.00  0.00     0.150 C 
BRANCH  26  27
HETATM   27  O1  UNL     1      -8.912   5.853  14.585  1.00  0.00    -0.393 OA
HETATM   28  H8  UNL     1      -8.728   6.570  13.958  1.00  0.00     0.210 HD
ENDBRANCH  26  27
BRANCH  26  29
HETATM   29  C5  UNL     1      -6.901   5.055  13.580  1.00  0.00     0.185 A 
HETATM   30  O2  UNL     1      -7.683   4.915  12.385  1.00  0.00    -0.367 OA
HETATM   31  C6  UNL     1      -6.846   3.798  12.724  1.00  0.00     0.083 A 
HETATM   32  C7  UNL     1      -5.681   3.613  11.800  1.00  0.00     0.048 C 
HETATM   33  C8  UNL     1      -7.605   2.561  13.091  1.00  0.00     0.048 C 
ENDBRANCH  26  29
ENDBRANCH  25  26
ENDBRANCH  23  25
ENDBRANCH   1  23
BRANCH  12  34
HETATM   34  O3  UNL     1       0.088   4.014  12.958  1.00  0.00    -0.394 OA
HETATM   35  H32 UNL     1       0.016   3.161  12.496  1.00  0.00     0.210 HD
ENDBRANCH  12  34
BRANCH  16  36
HETATM   36  C25 UNL     1       2.704   8.056  11.679  1.00  0.00     0.181 C 
BRANCH  36  37
HETATM   37  O5  UNL     1       3.277   7.235  12.696  1.00  0.00    -0.400 OA
HETATM   38  H40 UNL     1       2.860   7.482  13.539  1.00  0.00     0.209 HD
ENDBRANCH  36  37
ENDBRANCH  16  36
TORSDOF 8
ENDMDL
MODEL 4
REMARK minimizedAffinity -8.79615498
REMARK  8 active torsions:
REMARK  status: ('A' for Active; 'I' for Inactive)
REMARK    1  A    between atoms: C2_2  and  C3_3 
REMARK    2  A    between atoms: C2_2  and  C9_11 
REMARK    3  A    between atoms: C3_3  and  C4_4 
REMARK    4  A    between atoms: C4_4  and  O1_5 
REMARK    5  A    between atoms: C4_4  and  C5_6 
REMARK    6  A    between atoms: C20_22  and  O3_23 
REMARK    7  A    between atoms: C23_27  and  C25_29 
REMARK    8  A    between atoms: C25_29  and  O5_30 
ROOT
HETATM    1  C9  UNL     1      -3.325   5.428  12.530  1.00  0.00    -0.002 C 
HETATM    2  C10 UNL     1      -1.899   4.832  12.720  1.00  0.00     0.007 C 
HETATM    3  C11 UNL     1      -1.120   5.811  13.620  1.00  0.00     0.015 C 
HETATM    4  C12 UNL     1      -1.956   7.108  13.609  1.00  0.00    -0.013 C 
HETATM    5  C13 UNL     1      -1.571   7.862  12.294  1.00  0.00     0.021 C 
HETATM    6  C14 UNL     1      -1.750   8.116  14.737  1.00  0.00    -0.070 C 
HETATM    7  C15 UNL     1      -0.564   8.275  15.346  1.00  0.00    -0.022 C 
HETATM    8  C16 UNL     1      -0.266   9.334  16.361  1.00  0.00     0.034 C 
HETATM    9  C17 UNL     1      -1.495  10.121  16.875  1.00  0.00     0.018 C 
HETATM   10  C18 UNL     1      -2.551  10.392  15.733  1.00  0.00    -0.005 C 
HETATM   11  C19 UNL     1      -1.954  11.311  14.636  1.00  0.00     0.019 C 
HETATM   12  C20 UNL     1      -3.846  11.033  16.353  1.00  0.00     0.134 C 
HETATM   13  C21 UNL     1      -3.658  11.773  17.670  1.00  0.00     0.111 C 
HETATM   14  C22 UNL     1      -2.280  12.359  17.787  1.00  0.00     0.140 C 
HETATM   15  O4  UNL     1      -2.135  13.558  18.024  1.00  0.00    -0.297 OA
HETATM   16  C23 UNL     1      -1.102  11.382  17.739  1.00  0.00     0.043 C 
HETATM   17  C24 UNL     1      -0.860  10.932  19.199  1.00  0.00     0.026 C 
HETATM   18  C26 UNL     1      -2.952   8.980  15.120  1.00  0.00     0.026 C 
HETATM   19  C27 UNL     1      -4.037   9.025  14.014  1.00  0.00     0.011 C 
HETATM   20  C28 UNL     1      -4.420   7.663  13.385  1.00  0.00     0.011 C 
HETATM   21  C29 UNL     1      -3.414   6.522  13.645  1.00  0.00    -0.029 C 
HETATM   22  C30 UNL     1      -3.767   5.842  15.000  1.00  0.00     0.016 C 
ENDROOT
BRANCH   1  23
HETATM   23  C2  UNL     1      -4.436   4.356  12.298  1.00  0.00    -0.011 C 
HETATM   24  C1  UNL     1      -3.987   2.890  12.280  1.00  0.00     0.010 C 
BRANCH  23  25
HETATM   25  C3  UNL     1      -5.634   4.576  13.255  1.00  0.00     0.039 C 
BRANCH  25  26
HETATM   26  C4  UNL     1      -6.959   3.955  12.778  1.00  0.00     0.150 C 
BRANCH  26  27
HETATM   27  O1  UNL     1      -7.415   2.997  13.731  1.00  0.00    -0.393 OA
HETATM   28  H8  UNL     1      -7.874   3.468  14.445  1.00  0.00     0.210 HD
ENDBRANCH  26  27
BRANCH  26  29
HETATM   29  C5  UNL     1      -8.004   5.023  12.617  1.00  0.00     0.185 A 
HETATM   30  O2  UNL     1      -7.528   6.370  12.762  1.00  0.00    -0.367 OA
HETATM   31  C6  UNL     1      -8.471   5.925  13.751  1.00  0.00     0.083 A 
HETATM   32  C7  UNL     1      -9.816   6.575  13.638  1.00  0.00     0.048 C 
HETATM   33  C8  UNL     1      -7.899   5.817  15.129  1.00  0.00     0.048 C 
ENDBRANCH  26  29
ENDBRANCH  25  26
ENDBRANCH  23  25
ENDBRANCH   1  23
BRANCH  12  34
HETATM   34  O3  UNL     1      -4.477  11.897  15.405  1.00  0.00    -0.394 OA
HETATM   35  H32 UNL     1      -5.309  12.225  15.789  1.00  0.00     0.210 HD
ENDBRANCH  12  34
BRANCH  16  36
HETATM   36  C25 UNL     1       0.143  12.167  17.249  1.00  0.00     0.181 C 
BRANCH  36  37
HETATM   37  O5  UNL     1       1.260  12.005  18.122  1.00  0.00    -0.400 OA
HETATM   38  H40 UNL     1       1.230  12.731  18.770  1.00  0.00     0.209 HD
ENDBRANCH  36  37
ENDBRANCH  16  36
TORSDOF 8
ENDMDL
MODEL 5
REMARK minimizedAffinity -8.67436886
REMARK  8 active torsions:
REMARK  status: ('A' for Active; 'I' for Inactive)
REMARK    1  A    between atoms: C2_2  and  C3_3 
REMARK    2  A    between atoms: C2_2  and  C9_11 
REMARK    3  A    between atoms: C3_3  and  C4_4 
REMARK    4  A    between atoms: C4_4  and  O1_5 
REMARK    5  A    between atoms: C4_4  and  C5_6 
REMARK    6  A    between atoms: C20_22  and  O3_23 
REMARK    7  A    between atoms: C23_27  and  C25_29 
REMARK    8  A    between atoms: C25_29  and  O5_30 
ROOT
HETATM    1  C9  UNL     1      -5.960   6.974  14.770  1.00  0.00    -0.002 C 
HETATM    2  C10 UNL     1      -5.624   8.034  15.861  1.00  0.00     0.007 C 
HETATM    3  C11 UNL     1      -4.114   8.327  15.751  1.00  0.00     0.015 C 
HETATM    4  C12 UNL     1      -3.550   7.177  14.890  1.00  0.00    -0.013 C 
HETATM    5  C13 UNL     1      -3.341   5.970  15.862  1.00  0.00     0.021 C 
HETATM    6  C14 UNL     1      -2.209   7.382  14.193  1.00  0.00    -0.070 C 
HETATM    7  C15 UNL     1      -1.241   8.155  14.713  1.00  0.00    -0.022 C 
HETATM    8  C16 UNL     1       0.138   8.287  14.147  1.00  0.00     0.034 C 
HETATM    9  C17 UNL     1       0.340   7.657  12.748  1.00  0.00     0.018 C 
HETATM   10  C18 UNL     1      -0.460   6.306  12.580  1.00  0.00    -0.005 C 
HETATM   11  C19 UNL     1       0.071   5.224  13.555  1.00  0.00     0.019 C 
HETATM   12  C20 UNL     1      -0.356   5.814  11.090  1.00  0.00     0.134 C 
HETATM   13  C21 UNL     1       0.853   6.307  10.309  1.00  0.00     0.111 C 
HETATM   14  C22 UNL     1       2.033   6.555  11.206  1.00  0.00     0.140 C 
HETATM   15  O4  UNL     1       3.114   6.017  10.971  1.00  0.00    -0.297 OA
HETATM   16  C23 UNL     1       1.856   7.597  12.313  1.00  0.00     0.043 C 
HETATM   17  C24 UNL     1       2.250   8.956  11.687  1.00  0.00     0.026 C 
HETATM   18  C26 UNL     1      -1.989   6.626  12.881  1.00  0.00     0.026 C 
HETATM   19  C27 UNL     1      -2.960   5.431  12.706  1.00  0.00     0.011 C 
HETATM   20  C28 UNL     1      -4.448   5.715  13.024  1.00  0.00     0.011 C 
HETATM   21  C29 UNL     1      -4.705   7.001  13.838  1.00  0.00    -0.029 C 
HETATM   22  C30 UNL     1      -4.825   8.201  12.855  1.00  0.00     0.016 C 
ENDROOT
BRANCH   1  23
HETATM   23  C2  UNL     1      -7.423   7.059  14.233  1.00  0.00    -0.011 C 
HETATM   24  C1  UNL     1      -8.201   5.741  14.138  1.00  0.00     0.010 C 
BRANCH  23  25
HETATM   25  C3  UNL     1      -8.232   8.147  14.983  1.00  0.00     0.039 C 
BRANCH  25  26
HETATM   26  C4  UNL     1      -9.658   7.725  15.381  1.00  0.00     0.150 C 
BRANCH  26  27
HETATM   27  O1  UNL     1      -9.858   7.955  16.775  1.00  0.00    -0.393 OA
HETATM   28  H8  UNL     1     -10.081   8.891  16.903  1.00  0.00     0.210 HD
ENDBRANCH  26  27
BRANCH  26  29
HETATM   29  C5  UNL     1     -10.670   8.518  14.603  1.00  0.00     0.185 A 
HETATM   30  O2  UNL     1     -11.924   8.728  15.269  1.00  0.00    -0.367 OA
HETATM   31  C6  UNL     1     -11.972   7.935  14.072  1.00  0.00     0.083 A 
HETATM   32  C7  UNL     1     -12.644   8.619  12.922  1.00  0.00     0.048 C 
HETATM   33  C8  UNL     1     -12.348   6.505  14.306  1.00  0.00     0.048 C 
ENDBRANCH  26  29
ENDBRANCH  25  26
ENDBRANCH  23  25
ENDBRANCH   1  23
BRANCH  12  34
HETATM   34  O3  UNL     1      -0.413   4.387  11.032  1.00  0.00    -0.394 OA
HETATM   35  H32 UNL     1      -0.416   4.114  10.098  1.00  0.00     0.210 HD
ENDBRANCH  12  34
BRANCH  16  36
HETATM   36  C25 UNL     1       2.864   7.261  13.444  1.00  0.00     0.181 C 
BRANCH  36  37
HETATM   37  O5  UNL     1       4.217   7.457  13.036  1.00  0.00    -0.400 OA
HETATM   38  H40 UNL     1       4.541   6.609  12.685  1.00  0.00     0.209 HD
ENDBRANCH  36  37
ENDBRANCH  16  36
TORSDOF 8
ENDMDL
MODEL 6
REMARK minimizedAffinity -8.52970982
REMARK  8 active torsions:
REMARK  status: ('A' for Active; 'I' for Inactive)
REMARK    1  A    between atoms: C2_2  and  C3_3 
REMARK    2  A    between atoms: C2_2  and  C9_11 
REMARK    3  A    between atoms: C3_3  and  C4_4 
REMARK    4  A    between atoms: C4_4  and  O1_5 
REMARK    5  A    between atoms: C4_4  and  C5_6 
REMARK    6  A    between atoms: C20_22  and  O3_23 
REMARK    7  A    between atoms: C23_27  and  C25_29 
REMARK    8  A    between atoms: C25_29  and  O5_30 
ROOT
HETATM    1  C9  UNL     1       0.662   6.817  12.967  1.00  0.00    -0.002 C 
HETATM    2  C10 UNL     1       0.695   5.491  12.152  1.00  0.00     0.007 C 
HETATM    3  C11 UNL     1      -0.732   4.908  12.184  1.00  0.00     0.015 C 
HETATM    4  C12 UNL     1      -1.448   5.680  13.312  1.00  0.00    -0.013 C 
HETATM    5  C13 UNL     1      -1.031   4.982  14.648  1.00  0.00     0.021 C 
HETATM    6  C14 UNL     1      -2.974   5.707  13.320  1.00  0.00    -0.070 C 
HETATM    7  C15 UNL     1      -3.710   4.687  12.849  1.00  0.00    -0.022 C 
HETATM    8  C16 UNL     1      -5.201   4.597  12.951  1.00  0.00     0.034 C 
HETATM    9  C17 UNL     1      -5.909   5.887  13.430  1.00  0.00     0.018 C 
HETATM   10  C18 UNL     1      -5.082   6.644  14.542  1.00  0.00    -0.005 C 
HETATM   11  C19 UNL     1      -4.966   5.785  15.827  1.00  0.00     0.019 C 
HETATM   12  C20 UNL     1      -5.763   8.027  14.855  1.00  0.00     0.134 C 
HETATM   13  C21 UNL     1      -7.250   8.123  14.544  1.00  0.00     0.111 C 
HETATM   14  C22 UNL     1      -7.932   6.791  14.673  1.00  0.00     0.140 C 
HETATM   15  O4  UNL     1      -8.917   6.667  15.401  1.00  0.00    -0.297 OA
HETATM   16  C23 UNL     1      -7.435   5.664  13.765  1.00  0.00     0.043 C 
HETATM   17  C24 UNL     1      -8.255   5.776  12.457  1.00  0.00     0.026 C 
HETATM   18  C26 UNL     1      -3.641   6.938  13.935  1.00  0.00     0.026 C 
HETATM   19  C27 UNL     1      -2.688   7.740  14.858  1.00  0.00     0.011 C 
HETATM   20  C28 UNL     1      -1.270   8.009  14.298  1.00  0.00     0.011 C 
HETATM   21  C29 UNL     1      -0.866   7.125  13.099  1.00  0.00    -0.029 C 
HETATM   22  C30 UNL     1      -1.366   7.799  11.788  1.00  0.00     0.016 C 
ENDROOT
BRANCH   1  23
HETATM   23  C2  UNL     1       1.707   7.877  12.499  1.00  0.00    -0.011 C 
HETATM   24  C1  UNL     1       1.458   8.538  11.138  1.00  0.00     0.010 C 
BRANCH  23  25
HETATM   25  C3  UNL     1       1.970   8.930  13.605  1.00  0.00     0.039 C 
BRANCH  25  26
HETATM   26  C4  UNL     1       2.265   8.339  14.995  1.00  0.00     0.150 C 
BRANCH  26  27
HETATM   27  O1  UNL     1       3.311   7.373  14.898  1.00  0.00    -0.393 OA
HETATM   28  H8  UNL     1       4.162   7.840  14.897  1.00  0.00     0.210 HD
ENDBRANCH  26  27
BRANCH  26  29
HETATM   29  C5  UNL     1       2.688   9.426  15.943  1.00  0.00     0.185 A 
HETATM   30  O2  UNL     1       2.578   9.099  17.336  1.00  0.00    -0.367 OA
HETATM   31  C6  UNL     1       1.728  10.159  16.869  1.00  0.00     0.083 A 
HETATM   32  C7  UNL     1       2.120  11.513  17.376  1.00  0.00     0.048 C 
HETATM   33  C8  UNL     1       0.269   9.831  16.910  1.00  0.00     0.048 C 
ENDBRANCH  26  29
ENDBRANCH  25  26
ENDBRANCH  23  25
ENDBRANCH   1  23
BRANCH  12  34
HETATM   34  O3  UNL     1      -5.534   8.398  16.215  1.00  0.00    -0.394 OA
HETATM   35  H32 UNL     1      -5.906   9.286  16.363  1.00  0.00     0.210 HD
ENDBRANCH  12  34
BRANCH  16  36
HETATM   36  C25 UNL     1      -7.779   4.316  14.451  1.00  0.00     0.181 C 
BRANCH  36  37
HETATM   37  O5  UNL     1      -7.802   4.426  15.874  1.00  0.00    -0.400 OA
HETATM   38  H40 UNL     1      -6.911   4.203  16.197  1.00  0.00     0.209 HD
ENDBRANCH  36  37
ENDBRANCH  16  36
TORSDOF 8
ENDMDL
MODEL 7
REMARK minimizedAffinity -8.33353329
REMARK  8 active torsions:
REMARK  status: ('A' for Active; 'I' for Inactive)
REMARK    1  A    between atoms: C2_2  and  C3_3 
REMARK    2  A    between atoms: C2_2  and  C9_11 
REMARK    3  A    between atoms: C3_3  and  C4_4 
REMARK    4  A    between atoms: C4_4  and  O1_5 
REMARK    5  A    between atoms: C4_4  and  C5_6 
REMARK    6  A    between atoms: C20_22  and  O3_23 
REMARK    7  A    between atoms: C23_27  and  C25_29 
REMARK    8  A    between atoms: C25_29  and  O5_30 
ROOT
HETATM    1  C9  UNL     1      -1.672   6.918  13.903  1.00  0.00    -0.002 C 
HETATM    2  C10 UNL     1      -2.040   7.157  12.409  1.00  0.00     0.007 C 
HETATM    3  C11 UNL     1      -0.742   7.570  11.688  1.00  0.00     0.015 C 
HETATM    4  C12 UNL     1       0.241   7.934  12.821  1.00  0.00    -0.013 C 
HETATM    5  C13 UNL     1      -0.105   9.400  13.240  1.00  0.00     0.021 C 
HETATM    6  C14 UNL     1       1.736   7.934  12.515  1.00  0.00    -0.070 C 
HETATM    7  C15 UNL     1       2.218   8.242  11.300  1.00  0.00    -0.022 C 
HETATM    8  C16 UNL     1       3.672   8.390  10.975  1.00  0.00     0.034 C 
HETATM    9  C17 UNL     1       4.646   7.924  12.083  1.00  0.00     0.018 C 
HETATM   10  C18 UNL     1       4.118   8.272  13.529  1.00  0.00    -0.005 C 
HETATM   11  C19 UNL     1       4.033   9.807  13.731  1.00  0.00     0.019 C 
HETATM   12  C20 UNL     1       5.059   7.619  14.606  1.00  0.00     0.134 C 
HETATM   13  C21 UNL     1       6.485   7.332  14.158  1.00  0.00     0.111 C 
HETATM   14  C22 UNL     1       6.943   8.299  13.103  1.00  0.00     0.140 C 
HETATM   15  O4  UNL     1       7.981   8.941  13.260  1.00  0.00    -0.297 OA
HETATM   16  C23 UNL     1       6.144   8.335  11.798  1.00  0.00     0.043 C 
HETATM   17  C24 UNL     1       6.787   7.273  10.875  1.00  0.00     0.026 C 
HETATM   18  C26 UNL     1       2.679   7.610  13.675  1.00  0.00     0.026 C 
HETATM   19  C27 UNL     1       2.009   7.785  15.062  1.00  0.00     0.011 C 
HETATM   20  C28 UNL     1       0.596   7.173  15.213  1.00  0.00     0.011 C 
HETATM   21  C29 UNL     1      -0.111   6.831  13.885  1.00  0.00    -0.029 C 
HETATM   22  C30 UNL     1       0.315   5.400  13.445  1.00  0.00     0.016 C 
ENDROOT
BRANCH   1  23
HETATM   23  C2  UNL     1      -2.576   5.867  14.619  1.00  0.00    -0.011 C 
HETATM   24  C1  UNL     1      -3.387   6.359  15.824  1.00  0.00     0.010 C 
BRANCH  23  25
HETATM   25  C3  UNL     1      -3.466   5.109  13.602  1.00  0.00     0.039 C 
BRANCH  25  26
HETATM   26  C4  UNL     1      -4.974   5.381  13.743  1.00  0.00     0.150 C 
BRANCH  26  27
HETATM   27  O1  UNL     1      -5.280   6.681  13.242  1.00  0.00    -0.393 OA
HETATM   28  H8  UNL     1      -5.363   6.627  12.276  1.00  0.00     0.210 HD
ENDBRANCH  26  27
BRANCH  26  29
HETATM   29  C5  UNL     1      -5.760   4.360  12.970  1.00  0.00     0.185 A 
HETATM   30  O2  UNL     1      -7.041   4.804  12.498  1.00  0.00    -0.367 OA
HETATM   31  C6  UNL     1      -7.060   3.742  13.466  1.00  0.00     0.083 A 
HETATM   32  C7  UNL     1      -7.483   2.420  12.902  1.00  0.00     0.048 C 
HETATM   33  C8  UNL     1      -7.665   4.129  14.779  1.00  0.00     0.048 C 
ENDBRANCH  26  29
ENDBRANCH  25  26
ENDBRANCH  23  25
ENDBRANCH   1  23
BRANCH  12  34
HETATM   34  O3  UNL     1       5.083   8.413  15.794  1.00  0.00    -0.394 OA
HETATM   35  H32 UNL     1       5.616   7.952  16.465  1.00  0.00     0.210 HD
ENDBRANCH  12  34
BRANCH  16  36
HETATM   36  C25 UNL     1       6.344   9.734  11.159  1.00  0.00     0.181 C 
BRANCH  36  37
HETATM   37  O5  UNL     1       7.501   9.786  10.326  1.00  0.00    -0.400 OA
HETATM   38  H40 UNL     1       8.244  10.086  10.879  1.00  0.00     0.209 HD
ENDBRANCH  36  37
ENDBRANCH  16  36
TORSDOF 8
ENDMDL
MODEL 8
REMARK minimizedAffinity -8.30194759
REMARK  8 active torsions:
REMARK  status: ('A' for Active; 'I' for Inactive)
REMARK    1  A    between atoms: C2_2  and  C3_3 
REMARK    2  A    between atoms: C2_2  and  C9_11 
REMARK    3  A    between atoms: C3_3  and  C4_4 
REMARK    4  A    between atoms: C4_4  and  O1_5 
REMARK    5  A    between atoms: C4_4  and  C5_6 
REMARK    6  A    between atoms: C20_22  and  O3_23 
REMARK    7  A    between atoms: C23_27  and  C25_29 
REMARK    8  A    between atoms: C25_29  and  O5_30 
ROOT
HETATM    1  C9  UNL     1      -2.045   5.303  13.123  1.00  0.00    -0.002 C 
HETATM    2  C10 UNL     1      -3.509   5.468  12.617  1.00  0.00     0.007 C 
HETATM    3  C11 UNL     1      -4.056   6.767  13.241  1.00  0.00     0.015 C 
HETATM    4  C12 UNL     1      -3.064   7.109  14.373  1.00  0.00    -0.013 C 
HETATM    5  C13 UNL     1      -3.484   6.232  15.598  1.00  0.00     0.021 C 
HETATM    6  C14 UNL     1      -3.018   8.544  14.890  1.00  0.00    -0.070 C 
HETATM    7  C15 UNL     1      -4.102   9.336  14.902  1.00  0.00    -0.022 C 
HETATM    8  C16 UNL     1      -4.152  10.700  15.517  1.00  0.00     0.034 C 
HETATM    9  C17 UNL     1      -2.784  11.280  15.948  1.00  0.00     0.018 C 
HETATM   10  C18 UNL     1      -1.828  10.175  16.546  1.00  0.00    -0.005 C 
HETATM   11  C19 UNL     1      -2.412   9.589  17.857  1.00  0.00     0.019 C 
HETATM   12  C20 UNL     1      -0.402  10.789  16.796  1.00  0.00     0.134 C 
HETATM   13  C21 UNL     1      -0.353  12.298  16.994  1.00  0.00     0.111 C 
HETATM   14  C22 UNL     1      -1.623  12.822  17.602  1.00  0.00     0.140 C 
HETATM   15  O4  UNL     1      -1.585  13.499  18.629  1.00  0.00    -0.297 OA
HETATM   16  C23 UNL     1      -2.916  12.593  16.815  1.00  0.00     0.043 C 
HETATM   17  C24 UNL     1      -3.060  13.806  15.866  1.00  0.00     0.026 C 
HETATM   18  C26 UNL     1      -1.680   9.037  15.444  1.00  0.00     0.026 C 
HETATM   19  C27 UNL     1      -0.720   7.878  15.817  1.00  0.00     0.011 C 
HETATM   20  C28 UNL     1      -0.586   6.746  14.770  1.00  0.00     0.011 C 
HETATM   21  C29 UNL     1      -1.699   6.714  13.701  1.00  0.00    -0.029 C 
HETATM   22  C30 UNL     1      -1.297   7.660  12.531  1.00  0.00     0.016 C 
ENDROOT
BRANCH   1  23
HETATM   23  C2  UNL     1      -1.114   4.536  12.133  1.00  0.00    -0.011 C 
HETATM   24  C1  UNL     1      -1.713   3.311  11.431  1.00  0.00     0.010 C 
BRANCH  23  25
HETATM   25  C3  UNL     1      -0.452   5.506  11.123  1.00  0.00     0.039 C 
BRANCH  25  26
HETATM   26  C4  UNL     1       1.084   5.415  11.059  1.00  0.00     0.150 C 
BRANCH  26  27
HETATM   27  O1  UNL     1       1.482   4.055  10.900  1.00  0.00    -0.393 OA
HETATM   28  H8  UNL     1       1.412   3.822   9.960  1.00  0.00     0.210 HD
ENDBRANCH  26  27
BRANCH  26  29
HETATM   29  C5  UNL     1       1.604   6.218   9.900  1.00  0.00     0.185 A 
HETATM   30  O2  UNL     1       2.582   5.552   9.087  1.00  0.00    -0.367 OA
HETATM   31  C6  UNL     1       3.038   6.717   9.794  1.00  0.00     0.083 A 
HETATM   32  C7  UNL     1       3.322   7.889   8.906  1.00  0.00     0.048 C 
HETATM   33  C8  UNL     1       4.054   6.424  10.854  1.00  0.00     0.048 C 
ENDBRANCH  26  29
ENDBRANCH  25  26
ENDBRANCH  23  25
ENDBRANCH   1  23
BRANCH  12  34
HETATM   34  O3  UNL     1       0.233  10.142  17.901  1.00  0.00    -0.394 OA
HETATM   35  H32 UNL     1       1.136  10.494  17.990  1.00  0.00     0.210 HD
ENDBRANCH  12  34
BRANCH  16  36
HETATM   36  C25 UNL     1      -4.094  12.611  17.825  1.00  0.00     0.181 C 
BRANCH  36  37
HETATM   37  O5  UNL     1      -5.111  13.538  17.449  1.00  0.00    -0.400 OA
HETATM   38  H40 UNL     1      -4.908  14.385  17.884  1.00  0.00     0.209 HD
ENDBRANCH  36  37
ENDBRANCH  16  36
TORSDOF 8
ENDMDL
MODEL 9
REMARK minimizedAffinity -8.24116802
REMARK  8 active torsions:
REMARK  status: ('A' for Active; 'I' for Inactive)
REMARK    1  A    between atoms: C2_2  and  C3_3 
REMARK    2  A    between atoms: C2_2  and  C9_11 
REMARK    3  A    between atoms: C3_3  and  C4_4 
REMARK    4  A    between atoms: C4_4  and  O1_5 
REMARK    5  A    between atoms: C4_4  and  C5_6 
REMARK    6  A    between atoms: C20_22  and  O3_23 
REMARK    7  A    between atoms: C23_27  and  C25_29 
REMARK    8  A    between atoms: C25_29  and  O5_30 
ROOT
HETATM    1  C9  UNL     1      -1.982   5.953  12.554  1.00  0.00    -0.002 C 
HETATM    2  C10 UNL     1      -1.563   4.957  11.433  1.00  0.00     0.007 C 
HETATM    3  C11 UNL     1      -0.064   5.195  11.159  1.00  0.00     0.015 C 
HETATM    4  C12 UNL     1       0.249   6.551  11.827  1.00  0.00    -0.013 C 
HETATM    5  C13 UNL     1      -0.208   7.649  10.813  1.00  0.00     0.021 C 
HETATM    6  C14 UNL     1       1.701   6.878  12.162  1.00  0.00    -0.070 C 
HETATM    7  C15 UNL     1       2.727   6.420  11.426  1.00  0.00    -0.022 C 
HETATM    8  C16 UNL     1       4.157   6.814  11.624  1.00  0.00     0.034 C 
HETATM    9  C17 UNL     1       4.448   7.619  12.913  1.00  0.00     0.018 C 
HETATM   10  C18 UNL     1       3.291   8.637  13.255  1.00  0.00    -0.005 C 
HETATM   11  C19 UNL     1       3.169   9.725  12.158  1.00  0.00     0.019 C 
HETATM   12  C20 UNL     1       3.561   9.290  14.660  1.00  0.00     0.134 C 
HETATM   13  C21 UNL     1       5.013   9.312  15.116  1.00  0.00     0.111 C 
HETATM   14  C22 UNL     1       5.961   9.376  13.952  1.00  0.00     0.140 C 
HETATM   15  O4  UNL     1       6.810  10.265  13.893  1.00  0.00    -0.297 OA
HETATM   16  C23 UNL     1       5.905   8.224  12.946  1.00  0.00     0.043 C 
HETATM   17  C24 UNL     1       6.882   7.147  13.474  1.00  0.00     0.026 C 
HETATM   18  C26 UNL     1       1.943   7.797  13.360  1.00  0.00     0.026 C 
HETATM   19  C27 UNL     1       0.687   8.614  13.756  1.00  0.00     0.011 C 
HETATM   20  C28 UNL     1      -0.640   7.819  13.834  1.00  0.00     0.011 C 
HETATM   21  C29 UNL     1      -0.616   6.444  13.136  1.00  0.00    -0.029 C 
HETATM   22  C30 UNL     1      -0.078   5.382  14.139  1.00  0.00     0.016 C 
ENDROOT
BRANCH   1  23
HETATM   23  C2  UNL     1      -3.156   5.444  13.449  1.00  0.00    -0.011 C 
HETATM   24  C1  UNL     1      -2.862   5.279  14.944  1.00  0.00     0.010 C 
BRANCH  23  25
HETATM   25  C3  UNL     1      -4.442   6.273  13.208  1.00  0.00     0.039 C 
BRANCH  25  26
HETATM   26  C4  UNL     1      -5.642   5.864  14.080  1.00  0.00     0.150 C 
BRANCH  26  27
HETATM   27  O1  UNL     1      -5.564   6.515  15.347  1.00  0.00    -0.393 OA
HETATM   28  H8  UNL     1      -5.918   7.414  15.252  1.00  0.00     0.210 HD
ENDBRANCH  26  27
BRANCH  26  29
HETATM   29  C5  UNL     1      -6.929   6.251  13.407  1.00  0.00     0.185 A 
HETATM   30  O2  UNL     1      -8.122   5.800  14.066  1.00  0.00    -0.367 OA
HETATM   31  C6  UNL     1      -7.878   5.252  12.760  1.00  0.00     0.083 A 
HETATM   32  C7  UNL     1      -8.828   5.745  11.712  1.00  0.00     0.048 C 
HETATM   33  C8  UNL     1      -7.595   3.782  12.762  1.00  0.00     0.048 C 
ENDBRANCH  26  29
ENDBRANCH  25  26
ENDBRANCH  23  25
ENDBRANCH   1  23
BRANCH  12  34
HETATM   34  O3  UNL     1       3.026  10.614  14.706  1.00  0.00    -0.394 OA
HETATM   35  H32 UNL     1       3.146  10.968  15.604  1.00  0.00     0.210 HD
ENDBRANCH  12  34
BRANCH  16  36
HETATM   36  C25 UNL     1       6.440   8.755  11.590  1.00  0.00     0.181 C 
BRANCH  36  37
HETATM   37  O5  UNL     1       7.300   7.817  10.945  1.00  0.00    -0.400 OA
HETATM   38  H40 UNL     1       8.211   8.019  11.223  1.00  0.00     0.209 HD
ENDBRANCH  36  37
ENDBRANCH  16  36
TORSDOF 8
ENDMDL
