MODEL 1
REMARK minimizedAffinity -8.6777792
REMARK CNNscore 0.711115897
REMARK CNNaffinity 7.0171566
REMARK  13 active torsions:
REMARK  status: ('A' for Active; 'I' for Inactive)
REMARK    1  A    between atoms: C3_3  and  C4_4 
REMARK    2  A    between atoms: C4_4  and  N1_5 
REMARK    3  A    between atoms: N1_5  and  C5_6 
REMARK    4  A    between atoms: C5_6  and  C6_7 
REMARK    5  A    between atoms: C6_7  and  O1_9 
REMARK    6  A    between atoms: C8_10  and  C9_11 
REMARK    7  A    between atoms: C9_11  and  O2_12 
REMARK    8  A    between atoms: C9_11  and  C10_13 
REMARK    9  A    between atoms: C10_13  and  O3_15 
REMARK   10  A    between atoms: C10_13  and  C12_16 
REMARK   11  A    between atoms: C19_24  and  C20_25 
REMARK   12  A    between atoms: C42_50  and  C43_51 
REMARK   13  A    between atoms: C43_51  and  O8_52 
ROOT
HETATM    1  C12 UNL     1     -12.707  45.382 -27.251  1.00  0.00     0.034 C 
HETATM    2  C13 UNL     1     -12.974  46.777 -26.612  1.00  0.00     0.012 C 
HETATM    3  C14 UNL     1     -14.420  46.754 -26.086  1.00  0.00     0.044 C 
HETATM    4  C15 UNL     1     -14.766  45.261 -25.980  1.00  0.00     0.093 C 
HETATM    5  O4  UNL     1     -14.050  44.578 -24.921  1.00  0.00    -0.363 OA
HETATM    6  C16 UNL     1     -13.755  45.219 -23.688  1.00  0.00     0.263 C 
HETATM    7  C17 UNL     1     -14.727  44.882 -22.644  1.00  0.00    -0.080 C 
HETATM    8  C18 UNL     1     -15.454  44.603 -21.727  1.00  0.00    -0.093 C 
HETATM    9  C19 UNL     1     -16.310  44.238 -20.574  1.00  0.00     0.121 C 
HETATM   10  C26 UNL     1     -17.150  42.959 -20.821  1.00  0.00     0.190 C 
HETATM   11  O5  UNL     1     -18.282  43.099 -21.689  1.00  0.00    -0.384 OA
HETATM   12  C27 UNL     1     -17.992  43.078 -23.085  1.00  0.00     0.122 C 
HETATM   13  C28 UNL     1     -17.686  41.664 -23.590  1.00  0.00     0.033 C 
HETATM   14  C29 UNL     1     -17.988  41.466 -25.085  1.00  0.00     0.013 C 
HETATM   15  C30 UNL     1     -17.921  42.775 -25.929  1.00  0.00    -0.026 C 
HETATM   16  C31 UNL     1     -18.442  42.429 -27.351  1.00  0.00     0.016 C 
HETATM   17  C32 UNL     1     -18.942  43.790 -25.324  1.00  0.00     0.071 C 
HETATM   18  C33 UNL     1     -19.196  43.649 -23.816  1.00  0.00     0.045 C 
HETATM   19  C34 UNL     1     -18.633  45.235 -25.652  1.00  0.00     0.154 C 
HETATM   20  O6  UNL     1     -19.520  46.079 -25.763  1.00  0.00    -0.293 OA
HETATM   21  C35 UNL     1     -17.232  45.670 -25.773  1.00  0.00     0.057 C 
HETATM   22  C36 UNL     1     -16.219  44.805 -25.899  1.00  0.00    -0.036 C 
HETATM   23  C37 UNL     1     -16.411  43.290 -25.967  1.00  0.00     0.026 C 
HETATM   24  C38 UNL     1     -15.589  42.660 -27.134  1.00  0.00     0.011 C 
HETATM   25  C39 UNL     1     -14.158  43.196 -27.309  1.00  0.00     0.014 C 
HETATM   26  C40 UNL     1     -14.138  44.742 -27.339  1.00  0.00    -0.002 C 
HETATM   27  C41 UNL     1     -14.912  45.241 -28.589  1.00  0.00     0.019 C 
ENDROOT
BRANCH   1  28
HETATM   28  C10 UNL     1     -11.694  45.360 -28.452  1.00  0.00     0.087 C 
HETATM   29  C11 UNL     1     -12.285  45.810 -29.801  1.00  0.00     0.049 C 
BRANCH  28  30
HETATM   30  C9  UNL     1     -10.454  46.258 -28.088  1.00  0.00     0.181 C 
BRANCH  30  31
HETATM   31  C8  UNL     1      -9.212  46.107 -28.992  1.00  0.00     0.160 C 
HETATM   32  C3  UNL     1      -7.799  46.139 -28.396  1.00  0.00     0.051 C 
HETATM   33  C2  UNL     1      -6.965  46.394 -29.669  1.00  0.00     0.021 C 
HETATM   34  C1  UNL     1      -6.534  45.084 -30.337  1.00  0.00     0.013 C 
HETATM   35  C42 UNL     1      -7.905  47.195 -30.584  1.00  0.00     0.149 C 
HETATM   36  O7  UNL     1      -9.213  47.187 -29.962  1.00  0.00    -0.375 OA
BRANCH  32  37
HETATM   37  C4  UNL     1      -7.582  47.253 -27.344  1.00  0.00     0.277 C 
BRANCH  37  38
HETATM   38  N1  UNL     1      -6.473  48.173 -27.629  1.00  0.00     0.086 N 
HETATM   39  H8  UNL     1      -6.823  49.131 -27.641  1.00  0.00     0.315 HD
BRANCH  38  40
HETATM   40  C5  UNL     1      -5.314  48.056 -26.750  1.00  0.00     0.300 C 
BRANCH  40  41
HETATM   41  C6  UNL     1      -3.984  48.293 -27.493  1.00  0.00     0.142 C 
HETATM   42  C7  UNL     1      -2.865  48.728 -26.557  1.00  0.00     0.041 C 
BRANCH  41  43
HETATM   43  O1  UNL     1      -4.159  49.319 -28.472  1.00  0.00    -0.394 OA
HETATM   44  H15 UNL     1      -4.737  48.961 -29.166  1.00  0.00     0.210 HD
ENDBRANCH  41  43
ENDBRANCH  40  41
ENDBRANCH  38  40
ENDBRANCH  37  38
ENDBRANCH  32  37
BRANCH  35  45
HETATM   45  C43 UNL     1      -7.478  48.650 -30.789  1.00  0.00     0.196 C 
BRANCH  45  46
HETATM   46  O8  UNL     1      -6.086  48.783 -30.498  1.00  0.00    -0.398 OA
HETATM   47  H61 UNL     1      -5.651  48.035 -30.952  1.00  0.00     0.209 HD
ENDBRANCH  45  46
ENDBRANCH  35  45
ENDBRANCH  30  31
BRANCH  30  48
HETATM   48  O2  UNL     1     -10.827  47.650 -28.121  1.00  0.00    -0.390 OA
HETATM   49  H18 UNL     1      -9.984  48.141 -28.035  1.00  0.00     0.210 HD
ENDBRANCH  30  48
ENDBRANCH  28  30
BRANCH  28  50
HETATM   50  O3  UNL     1     -11.225  44.018 -28.625  1.00  0.00    -0.387 OA
HETATM   51  H22 UNL     1     -11.917  43.513 -29.084  1.00  0.00     0.210 HD
ENDBRANCH  28  50
ENDBRANCH   1  28
BRANCH   9  52
HETATM   52  C20 UNL     1     -17.122  45.413 -20.048  1.00  0.00    -0.040 A 
HETATM   53  C21 UNL     1     -18.523  45.367 -19.977  1.00  0.00     0.008 A 
HETATM   54  C22 UNL     1     -19.252  46.458 -19.499  1.00  0.00     0.001 A 
HETATM   55  C23 UNL     1     -18.592  47.612 -19.085  1.00  0.00     0.000 A 
HETATM   56  C24 UNL     1     -17.200  47.673 -19.142  1.00  0.00     0.001 A 
HETATM   57  C25 UNL     1     -16.470  46.582 -19.619  1.00  0.00     0.008 A 
ENDBRANCH   9  52
TORSDOF 13
ENDMDL
MODEL 2
REMARK minimizedAffinity -8.93212509
REMARK CNNscore 0.561735868
REMARK CNNaffinity 7.67087936
REMARK  13 active torsions:
REMARK  status: ('A' for Active; 'I' for Inactive)
REMARK    1  A    between atoms: C3_3  and  C4_4 
REMARK    2  A    between atoms: C4_4  and  N1_5 
REMARK    3  A    between atoms: N1_5  and  C5_6 
REMARK    4  A    between atoms: C5_6  and  C6_7 
REMARK    5  A    between atoms: C6_7  and  O1_9 
REMARK    6  A    between atoms: C8_10  and  C9_11 
REMARK    7  A    between atoms: C9_11  and  O2_12 
REMARK    8  A    between atoms: C9_11  and  C10_13 
REMARK    9  A    between atoms: C10_13  and  O3_15 
REMARK   10  A    between atoms: C10_13  and  C12_16 
REMARK   11  A    between atoms: C19_24  and  C20_25 
REMARK   12  A    between atoms: C42_50  and  C43_51 
REMARK   13  A    between atoms: C43_51  and  O8_52 
ROOT
HETATM    1  C12 UNL     1      -1.738  52.896 -10.736  1.00  0.00     0.034 C 
HETATM    2  C13 UNL     1      -1.688  54.212  -9.905  1.00  0.00     0.012 C 
HETATM    3  C14 UNL     1      -0.639  53.997  -8.798  1.00  0.00     0.044 C 
HETATM    4  C15 UNL     1       0.211  52.820  -9.300  1.00  0.00     0.093 C 
HETATM    5  O4  UNL     1       1.041  53.154 -10.439  1.00  0.00    -0.363 OA
HETATM    6  C16 UNL     1       1.642  54.434 -10.574  1.00  0.00     0.263 C 
HETATM    7  C17 UNL     1       3.035  54.441 -10.119  1.00  0.00    -0.080 C 
HETATM    8  C18 UNL     1       4.198  54.503  -9.817  1.00  0.00    -0.093 C 
HETATM    9  C19 UNL     1       5.641  54.590  -9.494  1.00  0.00     0.121 C 
HETATM   10  C26 UNL     1       6.330  53.204  -9.407  1.00  0.00     0.190 C 
HETATM   11  O5  UNL     1       6.056  52.429  -8.233  1.00  0.00    -0.384 OA
HETATM   12  C27 UNL     1       4.818  51.721  -8.240  1.00  0.00     0.122 C 
HETATM   13  C28 UNL     1       4.866  50.480  -9.138  1.00  0.00     0.033 C 
HETATM   14  C29 UNL     1       3.875  49.381  -8.722  1.00  0.00     0.013 C 
HETATM   15  C30 UNL     1       2.626  49.906  -7.952  1.00  0.00    -0.026 C 
HETATM   16  C31 UNL     1       1.847  48.662  -7.442  1.00  0.00     0.016 C 
HETATM   17  C32 UNL     1       3.127  50.660  -6.679  1.00  0.00     0.071 C 
HETATM   18  C33 UNL     1       4.506  51.322  -6.807  1.00  0.00     0.045 C 
HETATM   19  C34 UNL     1       2.133  51.662  -6.133  1.00  0.00     0.154 C 
HETATM   20  O6  UNL     1       2.072  51.928  -4.934  1.00  0.00    -0.293 OA
HETATM   21  C35 UNL     1       1.259  52.399  -7.059  1.00  0.00     0.057 C 
HETATM   22  C36 UNL     1       1.084  52.027  -8.333  1.00  0.00    -0.036 C 
HETATM   23  C37 UNL     1       1.739  50.788  -8.943  1.00  0.00     0.026 C 
HETATM   24  C38 UNL     1       0.710  49.935  -9.751  1.00  0.00     0.011 C 
HETATM   25  C39 UNL     1      -0.262  50.728 -10.640  1.00  0.00     0.014 C 
HETATM   26  C40 UNL     1      -0.935  51.875  -9.853  1.00  0.00    -0.002 C 
HETATM   27  C41 UNL     1      -1.817  51.276  -8.725  1.00  0.00     0.019 C 
ENDROOT
BRANCH   1  28
HETATM   28  C10 UNL     1      -3.127  52.545 -11.382  1.00  0.00     0.087 C 
HETATM   29  C11 UNL     1      -4.310  53.380 -10.860  1.00  0.00     0.049 C 
BRANCH  28  30
HETATM   30  C9  UNL     1      -3.013  52.700 -12.944  1.00  0.00     0.181 C 
BRANCH  30  31
HETATM   31  C8  UNL     1      -2.956  51.390 -13.759  1.00  0.00     0.160 C 
HETATM   32  C3  UNL     1      -1.633  50.636 -13.943  1.00  0.00     0.051 C 
HETATM   33  C2  UNL     1      -1.996  49.718 -15.128  1.00  0.00     0.021 C 
HETATM   34  C1  UNL     1      -2.566  48.377 -14.652  1.00  0.00     0.013 C 
HETATM   35  C42 UNL     1      -3.050  50.514 -15.915  1.00  0.00     0.149 C 
HETATM   36  O7  UNL     1      -3.398  51.669 -15.113  1.00  0.00    -0.375 OA
BRANCH  32  37
HETATM   37  C4  UNL     1      -0.429  51.548 -14.281  1.00  0.00     0.277 C 
BRANCH  37  38
HETATM   38  N1  UNL     1       0.470  51.033 -15.323  1.00  0.00     0.086 N 
HETATM   39  H8  UNL     1       0.140  51.342 -16.237  1.00  0.00     0.315 HD
BRANCH  38  40
HETATM   40  C5  UNL     1       1.884  51.349 -15.148  1.00  0.00     0.300 C 
BRANCH  40  41
HETATM   41  C6  UNL     1       2.435  52.236 -16.282  1.00  0.00     0.142 C 
HETATM   42  C7  UNL     1       3.857  52.707 -16.013  1.00  0.00     0.041 C 
BRANCH  41  43
HETATM   43  O1  UNL     1       1.611  53.394 -16.427  1.00  0.00    -0.394 OA
HETATM   44  H15 UNL     1       0.754  53.099 -16.777  1.00  0.00     0.210 HD
ENDBRANCH  41  43
ENDBRANCH  40  41
ENDBRANCH  38  40
ENDBRANCH  37  38
ENDBRANCH  32  37
BRANCH  35  45
HETATM   45  C43 UNL     1      -2.561  51.005 -17.280  1.00  0.00     0.196 C 
BRANCH  45  46
HETATM   46  O8  UNL     1      -1.258  50.478 -17.537  1.00  0.00    -0.398 OA
HETATM   47  H61 UNL     1      -1.308  49.532 -17.302  1.00  0.00     0.209 HD
ENDBRANCH  45  46
ENDBRANCH  35  45
ENDBRANCH  30  31
BRANCH  30  48
HETATM   48  O2  UNL     1      -4.134  53.455 -13.447  1.00  0.00    -0.390 OA
HETATM   49  H18 UNL     1      -4.073  53.380 -14.421  1.00  0.00     0.210 HD
ENDBRANCH  30  48
ENDBRANCH  28  30
BRANCH  28  50
HETATM   50  O3  UNL     1      -3.424  51.173 -11.101  1.00  0.00    -0.387 OA
HETATM   51  H22 UNL     1      -3.738  51.114 -10.182  1.00  0.00     0.210 HD
ENDBRANCH  28  50
ENDBRANCH   1  28
BRANCH   9  52
HETATM   52  C20 UNL     1       5.924  55.490  -8.300  1.00  0.00    -0.040 A 
HETATM   53  C21 UNL     1       4.998  56.453  -7.868  1.00  0.00     0.008 A 
HETATM   54  C22 UNL     1       5.279  57.276  -6.775  1.00  0.00     0.001 A 
HETATM   55  C23 UNL     1       6.488  57.151  -6.098  1.00  0.00     0.000 A 
HETATM   56  C24 UNL     1       7.417  56.196  -6.509  1.00  0.00     0.001 A 
HETATM   57  C25 UNL     1       7.138  55.371  -7.601  1.00  0.00     0.008 A 
ENDBRANCH   9  52
TORSDOF 13
ENDMDL
MODEL 3
REMARK minimizedAffinity -8.19614887
REMARK CNNscore 0.475211561
REMARK CNNaffinity 6.66218948
REMARK  13 active torsions:
REMARK  status: ('A' for Active; 'I' for Inactive)
REMARK    1  A    between atoms: C3_3  and  C4_4 
REMARK    2  A    between atoms: C4_4  and  N1_5 
REMARK    3  A    between atoms: N1_5  and  C5_6 
REMARK    4  A    between atoms: C5_6  and  C6_7 
REMARK    5  A    between atoms: C6_7  and  O1_9 
REMARK    6  A    between atoms: C8_10  and  C9_11 
REMARK    7  A    between atoms: C9_11  and  O2_12 
REMARK    8  A    between atoms: C9_11  and  C10_13 
REMARK    9  A    between atoms: C10_13  and  O3_15 
REMARK   10  A    between atoms: C10_13  and  C12_16 
REMARK   11  A    between atoms: C19_24  and  C20_25 
REMARK   12  A    between atoms: C42_50  and  C43_51 
REMARK   13  A    between atoms: C43_51  and  O8_52 
ROOT
HETATM    1  C12 UNL     1     -12.701  45.420 -27.090  1.00  0.00     0.034 C 
HETATM    2  C13 UNL     1     -13.063  46.746 -26.358  1.00  0.00     0.012 C 
HETATM    3  C14 UNL     1     -14.546  46.642 -25.961  1.00  0.00     0.044 C 
HETATM    4  C15 UNL     1     -14.852  45.137 -26.014  1.00  0.00     0.093 C 
HETATM    5  O4  UNL     1     -14.206  44.381 -24.962  1.00  0.00    -0.363 OA
HETATM    6  C16 UNL     1     -14.034  44.915 -23.657  1.00  0.00     0.263 C 
HETATM    7  C17 UNL     1     -15.077  44.465 -22.732  1.00  0.00    -0.080 C 
HETATM    8  C18 UNL     1     -15.868  44.088 -21.908  1.00  0.00    -0.093 C 
HETATM    9  C19 UNL     1     -16.805  43.601 -20.868  1.00  0.00     0.121 C 
HETATM   10  C26 UNL     1     -17.582  42.330 -21.295  1.00  0.00     0.190 C 
HETATM   11  O5  UNL     1     -18.642  42.520 -22.241  1.00  0.00    -0.384 OA
HETATM   12  C27 UNL     1     -18.237  42.630 -23.603  1.00  0.00     0.122 C 
HETATM   13  C28 UNL     1     -17.846  41.274 -24.202  1.00  0.00     0.033 C 
HETATM   14  C29 UNL     1     -18.018  41.203 -25.728  1.00  0.00     0.013 C 
HETATM   15  C30 UNL     1     -17.922  42.582 -26.447  1.00  0.00    -0.026 C 
HETATM   16  C31 UNL     1     -18.314  42.352 -27.933  1.00  0.00     0.016 C 
HETATM   17  C32 UNL     1     -19.021  43.516 -25.845  1.00  0.00     0.071 C 
HETATM   18  C33 UNL     1     -19.394  43.235 -24.382  1.00  0.00     0.045 C 
HETATM   19  C34 UNL     1     -18.731  44.991 -26.019  1.00  0.00     0.154 C 
HETATM   20  O6  UNL     1     -19.631  45.820 -26.132  1.00  0.00    -0.293 OA
HETATM   21  C35 UNL     1     -17.339  45.468 -25.983  1.00  0.00     0.057 C 
HETATM   22  C36 UNL     1     -16.292  44.642 -26.097  1.00  0.00    -0.036 C 
HETATM   23  C37 UNL     1     -16.431  43.135 -26.311  1.00  0.00     0.026 C 
HETATM   24  C38 UNL     1     -15.496  42.630 -27.455  1.00  0.00     0.011 C 
HETATM   25  C39 UNL     1     -14.074  43.214 -27.461  1.00  0.00     0.014 C 
HETATM   26  C40 UNL     1     -14.099  44.756 -27.356  1.00  0.00    -0.002 C 
HETATM   27  C41 UNL     1     -14.782  45.346 -28.619  1.00  0.00     0.019 C 
ENDROOT
BRANCH   1  28
HETATM   28  C10 UNL     1     -11.592  45.529 -28.199  1.00  0.00     0.087 C 
HETATM   29  C11 UNL     1     -11.426  44.270 -29.070  1.00  0.00     0.049 C 
BRANCH  28  30
HETATM   30  C9  UNL     1     -11.908  46.771 -29.113  1.00  0.00     0.181 C 
BRANCH  30  31
HETATM   31  C8  UNL     1     -10.718  47.699 -29.438  1.00  0.00     0.160 C 
HETATM   32  C3  UNL     1      -9.796  47.407 -30.629  1.00  0.00     0.051 C 
HETATM   33  C2  UNL     1      -8.587  48.297 -30.272  1.00  0.00     0.021 C 
HETATM   34  C1  UNL     1      -8.724  49.703 -30.865  1.00  0.00     0.013 C 
HETATM   35  C42 UNL     1      -8.593  48.346 -28.735  1.00  0.00     0.149 C 
HETATM   36  O7  UNL     1      -9.825  47.723 -28.295  1.00  0.00    -0.375 OA
BRANCH  32  37
HETATM   37  C4  UNL     1      -9.386  45.920 -30.759  1.00  0.00     0.277 C 
BRANCH  37  38
HETATM   38  N1  UNL     1      -8.652  45.580 -31.986  1.00  0.00     0.086 N 
HETATM   39  H8  UNL     1      -8.637  44.567 -32.100  1.00  0.00     0.315 HD
BRANCH  38  40
HETATM   40  C5  UNL     1      -9.123  46.233 -33.203  1.00  0.00     0.300 C 
BRANCH  40  41
HETATM   41  C6  UNL     1      -7.967  46.787 -34.060  1.00  0.00     0.142 C 
HETATM   42  C7  UNL     1      -6.726  47.092 -33.233  1.00  0.00     0.041 C 
BRANCH  41  43
HETATM   43  O1  UNL     1      -8.380  48.000 -34.693  1.00  0.00    -0.394 OA
HETATM   44  H15 UNL     1      -9.052  47.766 -35.355  1.00  0.00     0.210 HD
ENDBRANCH  41  43
ENDBRANCH  40  41
ENDBRANCH  38  40
ENDBRANCH  37  38
ENDBRANCH  32  37
BRANCH  35  45
HETATM   45  C43 UNL     1      -7.421  47.605 -28.088  1.00  0.00     0.196 C 
BRANCH  45  46
HETATM   46  O8  UNL     1      -6.280  48.464 -28.046  1.00  0.00    -0.398 OA
HETATM   47  H61 UNL     1      -6.611  49.322 -27.717  1.00  0.00     0.209 HD
ENDBRANCH  45  46
ENDBRANCH  35  45
ENDBRANCH  30  31
BRANCH  30  48
HETATM   48  O2  UNL     1     -12.450  46.330 -30.374  1.00  0.00    -0.390 OA
HETATM   49  H18 UNL     1     -12.477  47.133 -30.933  1.00  0.00     0.210 HD
ENDBRANCH  30  48
ENDBRANCH  28  30
BRANCH  28  50
HETATM   50  O3  UNL     1     -10.333  45.766 -27.559  1.00  0.00    -0.387 OA
HETATM   51  H22 UNL     1     -10.014  44.922 -27.198  1.00  0.00     0.210 HD
ENDBRANCH  28  50
ENDBRANCH   1  28
BRANCH   9  52
HETATM   52  C20 UNL     1     -17.693  44.705 -20.313  1.00  0.00    -0.040 A 
HETATM   53  C21 UNL     1     -18.591  44.469 -19.259  1.00  0.00     0.008 A 
HETATM   54  C22 UNL     1     -19.404  45.492 -18.768  1.00  0.00     0.001 A 
HETATM   55  C23 UNL     1     -19.334  46.767 -19.322  1.00  0.00     0.000 A 
HETATM   56  C24 UNL     1     -18.444  47.022 -20.365  1.00  0.00     0.001 A 
HETATM   57  C25 UNL     1     -17.629  46.000 -20.856  1.00  0.00     0.008 A 
ENDBRANCH   9  52
TORSDOF 13
ENDMDL
MODEL 4
REMARK minimizedAffinity -8.72532558
REMARK CNNscore 0.400644511
REMARK CNNaffinity 6.86066818
REMARK  13 active torsions:
REMARK  status: ('A' for Active; 'I' for Inactive)
REMARK    1  A    between atoms: C3_3  and  C4_4 
REMARK    2  A    between atoms: C4_4  and  N1_5 
REMARK    3  A    between atoms: N1_5  and  C5_6 
REMARK    4  A    between atoms: C5_6  and  C6_7 
REMARK    5  A    between atoms: C6_7  and  O1_9 
REMARK    6  A    between atoms: C8_10  and  C9_11 
REMARK    7  A    between atoms: C9_11  and  O2_12 
REMARK    8  A    between atoms: C9_11  and  C10_13 
REMARK    9  A    between atoms: C10_13  and  O3_15 
REMARK   10  A    between atoms: C10_13  and  C12_16 
REMARK   11  A    between atoms: C19_24  and  C20_25 
REMARK   12  A    between atoms: C42_50  and  C43_51 
REMARK   13  A    between atoms: C43_51  and  O8_52 
ROOT
HETATM    1  C12 UNL     1     -10.421  47.316 -27.423  1.00  0.00     0.034 C 
HETATM    2  C13 UNL     1     -11.144  47.376 -28.800  1.00  0.00     0.012 C 
HETATM    3  C14 UNL     1     -11.847  46.020 -28.991  1.00  0.00     0.044 C 
HETATM    4  C15 UNL     1     -11.935  45.432 -27.574  1.00  0.00     0.093 C 
HETATM    5  O4  UNL     1     -12.867  46.135 -26.716  1.00  0.00    -0.363 OA
HETATM    6  C16 UNL     1     -14.078  46.680 -27.220  1.00  0.00     0.263 C 
HETATM    7  C17 UNL     1     -15.222  45.794 -26.989  1.00  0.00    -0.080 C 
HETATM    8  C18 UNL     1     -16.211  45.142 -26.782  1.00  0.00    -0.093 C 
HETATM    9  C19 UNL     1     -17.447  44.376 -26.497  1.00  0.00     0.121 C 
HETATM   10  C26 UNL     1     -17.256  43.300 -25.397  1.00  0.00     0.190 C 
HETATM   11  O5  UNL     1     -16.544  42.118 -25.780  1.00  0.00    -0.384 OA
HETATM   12  C27 UNL     1     -15.124  42.233 -25.797  1.00  0.00     0.122 C 
HETATM   13  C28 UNL     1     -14.527  42.225 -24.385  1.00  0.00     0.033 C 
HETATM   14  C29 UNL     1     -13.075  41.719 -24.334  1.00  0.00     0.013 C 
HETATM   15  C30 UNL     1     -12.284  41.916 -25.661  1.00  0.00    -0.026 C 
HETATM   16  C31 UNL     1     -10.926  41.179 -25.498  1.00  0.00     0.016 C 
HETATM   17  C32 UNL     1     -13.053  41.168 -26.797  1.00  0.00     0.071 C 
HETATM   18  C33 UNL     1     -14.574  41.072 -26.608  1.00  0.00     0.045 C 
HETATM   19  C34 UNL     1     -12.748  41.685 -28.185  1.00  0.00     0.154 C 
HETATM   20  O6  UNL     1     -12.783  40.955 -29.173  1.00  0.00    -0.293 OA
HETATM   21  C35 UNL     1     -12.468  43.117 -28.383  1.00  0.00     0.057 C 
HETATM   22  C36 UNL     1     -12.180  43.941 -27.368  1.00  0.00    -0.036 C 
HETATM   23  C37 UNL     1     -12.076  43.478 -25.915  1.00  0.00     0.026 C 
HETATM   24  C38 UNL     1     -10.790  44.034 -25.227  1.00  0.00     0.011 C 
HETATM   25  C39 UNL     1     -10.458  45.506 -25.523  1.00  0.00     0.014 C 
HETATM   26  C40 UNL     1     -10.488  45.794 -27.041  1.00  0.00    -0.002 C 
HETATM   27  C41 UNL     1      -9.367  44.979 -27.741  1.00  0.00     0.019 C 
ENDROOT
BRANCH   1  28
HETATM   28  C10 UNL     1      -9.102  48.161 -27.303  1.00  0.00     0.087 C 
HETATM   29  C11 UNL     1      -8.028  47.553 -26.383  1.00  0.00     0.049 C 
BRANCH  28  30
HETATM   30  C9  UNL     1      -8.506  48.381 -28.743  1.00  0.00     0.181 C 
BRANCH  30  31
HETATM   31  C8  UNL     1      -8.096  47.108 -29.515  1.00  0.00     0.160 C 
HETATM   32  C3  UNL     1      -6.624  46.690 -29.616  1.00  0.00     0.051 C 
HETATM   33  C2  UNL     1      -6.696  45.690 -30.788  1.00  0.00     0.021 C 
HETATM   34  C1  UNL     1      -6.953  44.261 -30.298  1.00  0.00     0.013 C 
HETATM   35  C42 UNL     1      -7.867  46.195 -31.646  1.00  0.00     0.149 C 
HETATM   36  O7  UNL     1      -8.521  47.248 -30.895  1.00  0.00    -0.375 OA
BRANCH  32  37
HETATM   37  C4  UNL     1      -5.657  47.858 -29.926  1.00  0.00     0.277 C 
BRANCH  37  38
HETATM   38  N1  UNL     1      -5.366  48.746 -28.792  1.00  0.00     0.086 N 
HETATM   39  H8  UNL     1      -6.207  49.270 -28.550  1.00  0.00     0.315 HD
BRANCH  38  40
HETATM   40  C5  UNL     1      -4.801  48.099 -27.613  1.00  0.00     0.300 C 
BRANCH  40  41
HETATM   41  C6  UNL     1      -3.353  48.547 -27.331  1.00  0.00     0.142 C 
HETATM   42  C7  UNL     1      -3.075  48.713 -25.844  1.00  0.00     0.041 C 
BRANCH  41  43
HETATM   43  O1  UNL     1      -3.110  49.805 -27.964  1.00  0.00    -0.394 OA
HETATM   44  H15 UNL     1      -3.108  49.650 -28.924  1.00  0.00     0.210 HD
ENDBRANCH  41  43
ENDBRANCH  40  41
ENDBRANCH  38  40
ENDBRANCH  37  38
ENDBRANCH  32  37
BRANCH  35  45
HETATM   45  C43 UNL     1      -7.440  46.764 -33.001  1.00  0.00     0.196 C 
BRANCH  45  46
HETATM   46  O8  UNL     1      -7.589  45.761 -34.007  1.00  0.00    -0.398 OA
HETATM   47  H61 UNL     1      -8.468  45.364 -33.852  1.00  0.00     0.209 HD
ENDBRANCH  45  46
ENDBRANCH  35  45
ENDBRANCH  30  31
BRANCH  30  48
HETATM   48  O2  UNL     1      -9.458  49.080 -29.569  1.00  0.00    -0.390 OA
HETATM   49  H18 UNL     1      -9.084  49.045 -30.473  1.00  0.00     0.210 HD
ENDBRANCH  30  48
ENDBRANCH  28  30
BRANCH  28  50
HETATM   50  O3  UNL     1      -9.434  49.448 -26.768  1.00  0.00    -0.387 OA
HETATM   51  H22 UNL     1      -9.564  49.351 -25.810  1.00  0.00     0.210 HD
ENDBRANCH  28  50
ENDBRANCH   1  28
BRANCH   9  52
HETATM   52  C20 UNL     1     -18.119  43.851 -27.757  1.00  0.00    -0.040 A 
HETATM   53  C21 UNL     1     -17.394  43.621 -28.937  1.00  0.00     0.008 A 
HETATM   54  C22 UNL     1     -18.028  43.147 -30.087  1.00  0.00     0.001 A 
HETATM   55  C23 UNL     1     -19.398  42.896 -30.076  1.00  0.00     0.000 A 
HETATM   56  C24 UNL     1     -20.132  43.113 -28.912  1.00  0.00     0.001 A 
HETATM   57  C25 UNL     1     -19.499  43.586 -27.760  1.00  0.00     0.008 A 
ENDBRANCH   9  52
TORSDOF 13
ENDMDL
MODEL 5
REMARK minimizedAffinity -8.35551453
REMARK CNNscore 0.390011817
REMARK CNNaffinity 6.59495974
REMARK  13 active torsions:
REMARK  status: ('A' for Active; 'I' for Inactive)
REMARK    1  A    between atoms: C3_3  and  C4_4 
REMARK    2  A    between atoms: C4_4  and  N1_5 
REMARK    3  A    between atoms: N1_5  and  C5_6 
REMARK    4  A    between atoms: C5_6  and  C6_7 
REMARK    5  A    between atoms: C6_7  and  O1_9 
REMARK    6  A    between atoms: C8_10  and  C9_11 
REMARK    7  A    between atoms: C9_11  and  O2_12 
REMARK    8  A    between atoms: C9_11  and  C10_13 
REMARK    9  A    between atoms: C10_13  and  O3_15 
REMARK   10  A    between atoms: C10_13  and  C12_16 
REMARK   11  A    between atoms: C19_24  and  C20_25 
REMARK   12  A    between atoms: C42_50  and  C43_51 
REMARK   13  A    between atoms: C43_51  and  O8_52 
ROOT
HETATM    1  C12 UNL     1     -12.324  45.626 -27.156  1.00  0.00     0.034 C 
HETATM    2  C13 UNL     1     -12.272  47.057 -26.544  1.00  0.00     0.012 C 
HETATM    3  C14 UNL     1     -13.613  47.279 -25.822  1.00  0.00     0.044 C 
HETATM    4  C15 UNL     1     -14.171  45.863 -25.608  1.00  0.00     0.093 C 
HETATM    5  O4  UNL     1     -13.428  45.093 -24.632  1.00  0.00    -0.363 OA
HETATM    6  C16 UNL     1     -12.861  45.700 -23.479  1.00  0.00     0.263 C 
HETATM    7  C17 UNL     1     -13.713  45.545 -22.296  1.00  0.00    -0.080 C 
HETATM    8  C18 UNL     1     -14.336  45.405 -21.277  1.00  0.00    -0.093 C 
HETATM    9  C19 UNL     1     -15.064  45.204 -20.002  1.00  0.00     0.121 C 
HETATM   10  C26 UNL     1     -16.123  44.075 -20.077  1.00  0.00     0.190 C 
HETATM   11  O5  UNL     1     -17.331  44.381 -20.784  1.00  0.00    -0.384 OA
HETATM   12  C27 UNL     1     -17.252  44.288 -22.204  1.00  0.00     0.122 C 
HETATM   13  C28 UNL     1     -17.249  42.834 -22.689  1.00  0.00     0.033 C 
HETATM   14  C29 UNL     1     -17.791  42.660 -24.118  1.00  0.00     0.013 C 
HETATM   15  C30 UNL     1     -17.640  43.925 -25.016  1.00  0.00    -0.026 C 
HETATM   16  C31 UNL     1     -18.408  43.642 -26.336  1.00  0.00     0.016 C 
HETATM   17  C32 UNL     1     -18.389  45.104 -24.317  1.00  0.00     0.071 C 
HETATM   18  C33 UNL     1     -18.443  45.033 -22.784  1.00  0.00     0.045 C 
HETATM   19  C34 UNL     1     -17.906  46.473 -24.744  1.00  0.00     0.154 C 
HETATM   20  O6  UNL     1     -18.655  47.448 -24.766  1.00  0.00    -0.293 OA
HETATM   21  C35 UNL     1     -16.486  46.672 -25.077  1.00  0.00     0.057 C 
HETATM   22  C36 UNL     1     -15.651  45.652 -25.307  1.00  0.00    -0.036 C 
HETATM   23  C37 UNL     1     -16.089  44.187 -25.284  1.00  0.00     0.026 C 
HETATM   24  C38 UNL     1     -15.553  43.410 -26.528  1.00  0.00     0.011 C 
HETATM   25  C39 UNL     1     -14.096  43.704 -26.922  1.00  0.00     0.014 C 
HETATM   26  C40 UNL     1     -13.836  45.225 -27.019  1.00  0.00    -0.002 C 
HETATM   27  C41 UNL     1     -14.693  45.820 -28.168  1.00  0.00     0.019 C 
ENDROOT
BRANCH   1  28
HETATM   28  C10 UNL     1     -11.511  45.417 -28.485  1.00  0.00     0.087 C 
HETATM   29  C11 UNL     1     -11.787  44.085 -29.207  1.00  0.00     0.049 C 
BRANCH  28  30
HETATM   30  C9  UNL     1     -11.807  46.620 -29.455  1.00  0.00     0.181 C 
BRANCH  30  31
HETATM   31  C8  UNL     1     -10.652  47.621 -29.675  1.00  0.00     0.160 C 
HETATM   32  C3  UNL     1      -9.675  47.448 -30.845  1.00  0.00     0.051 C 
HETATM   33  C2  UNL     1      -8.523  48.367 -30.385  1.00  0.00     0.021 C 
HETATM   34  C1  UNL     1      -8.706  49.801 -30.894  1.00  0.00     0.013 C 
HETATM   35  C42 UNL     1      -8.587  48.316 -28.851  1.00  0.00     0.149 C 
HETATM   36  O7  UNL     1      -9.803  47.611 -28.498  1.00  0.00    -0.375 OA
BRANCH  32  37
HETATM   37  C4  UNL     1      -9.190  45.994 -31.053  1.00  0.00     0.277 C 
BRANCH  37  38
HETATM   38  N1  UNL     1      -7.818  45.860 -31.563  1.00  0.00     0.086 N 
HETATM   39  H8  UNL     1      -7.161  45.934 -30.786  1.00  0.00     0.315 HD
BRANCH  38  40
HETATM   40  C5  UNL     1      -7.554  44.663 -32.354  1.00  0.00     0.300 C 
BRANCH  40  41
HETATM   41  C6  UNL     1      -6.099  44.173 -32.213  1.00  0.00     0.142 C 
HETATM   42  C7  UNL     1      -5.108  45.322 -32.091  1.00  0.00     0.041 C 
BRANCH  41  43
HETATM   43  O1  UNL     1      -5.739  43.406 -33.364  1.00  0.00    -0.394 OA
HETATM   44  H15 UNL     1      -6.252  42.581 -33.334  1.00  0.00     0.210 HD
ENDBRANCH  41  43
ENDBRANCH  40  41
ENDBRANCH  38  40
ENDBRANCH  37  38
ENDBRANCH  32  37
BRANCH  35  45
HETATM   45  C43 UNL     1      -7.404  47.589 -28.207  1.00  0.00     0.196 C 
BRANCH  45  46
HETATM   46  O8  UNL     1      -6.508  47.142 -29.226  1.00  0.00    -0.398 OA
HETATM   47  H61 UNL     1      -6.397  47.903 -29.828  1.00  0.00     0.209 HD
ENDBRANCH  45  46
ENDBRANCH  35  45
ENDBRANCH  30  31
BRANCH  30  48
HETATM   48  O2  UNL     1     -12.181  46.124 -30.756  1.00  0.00    -0.390 OA
HETATM   49  H18 UNL     1     -12.201  46.914 -31.333  1.00  0.00     0.210 HD
ENDBRANCH  30  48
ENDBRANCH  28  30
BRANCH  28  50
HETATM   50  O3  UNL     1     -10.114  45.444 -28.171  1.00  0.00    -0.387 OA
HETATM   51  H22 UNL     1      -9.875  44.584 -27.785  1.00  0.00     0.210 HD
ENDBRANCH  28  50
ENDBRANCH   1  28
BRANCH   9  52
HETATM   52  C20 UNL     1     -15.595  46.505 -19.417  1.00  0.00    -0.040 A 
HETATM   53  C21 UNL     1     -16.954  46.848 -19.498  1.00  0.00     0.008 A 
HETATM   54  C22 UNL     1     -17.422  48.050 -18.962  1.00  0.00     0.001 A 
HETATM   55  C23 UNL     1     -16.539  48.927 -18.338  1.00  0.00     0.000 A 
HETATM   56  C24 UNL     1     -15.188  48.600 -18.243  1.00  0.00     0.001 A 
HETATM   57  C25 UNL     1     -14.718  47.397 -18.777  1.00  0.00     0.008 A 
ENDBRANCH   9  52
TORSDOF 13
ENDMDL
MODEL 6
REMARK minimizedAffinity -8.06772804
REMARK CNNscore 0.364865661
REMARK CNNaffinity 7.2798171
REMARK  13 active torsions:
REMARK  status: ('A' for Active; 'I' for Inactive)
REMARK    1  A    between atoms: C3_3  and  C4_4 
REMARK    2  A    between atoms: C4_4  and  N1_5 
REMARK    3  A    between atoms: N1_5  and  C5_6 
REMARK    4  A    between atoms: C5_6  and  C6_7 
REMARK    5  A    between atoms: C6_7  and  O1_9 
REMARK    6  A    between atoms: C8_10  and  C9_11 
REMARK    7  A    between atoms: C9_11  and  O2_12 
REMARK    8  A    between atoms: C9_11  and  C10_13 
REMARK    9  A    between atoms: C10_13  and  O3_15 
REMARK   10  A    between atoms: C10_13  and  C12_16 
REMARK   11  A    between atoms: C19_24  and  C20_25 
REMARK   12  A    between atoms: C42_50  and  C43_51 
REMARK   13  A    between atoms: C43_51  and  O8_52 
ROOT
HETATM    1  C12 UNL     1      -1.769  52.662 -10.282  1.00  0.00     0.034 C 
HETATM    2  C13 UNL     1      -2.236  52.752  -8.799  1.00  0.00     0.012 C 
HETATM    3  C14 UNL     1      -0.963  52.803  -7.935  1.00  0.00     0.044 C 
HETATM    4  C15 UNL     1       0.144  53.235  -8.910  1.00  0.00     0.093 C 
HETATM    5  O4  UNL     1       0.022  54.611  -9.347  1.00  0.00    -0.363 OA
HETATM    6  C16 UNL     1      -0.447  55.630  -8.476  1.00  0.00     0.263 C 
HETATM    7  C17 UNL     1       0.651  56.386  -7.867  1.00  0.00    -0.080 C 
HETATM    8  C18 UNL     1       1.501  57.083  -7.378  1.00  0.00    -0.093 C 
HETATM    9  C19 UNL     1       2.529  57.981  -6.802  1.00  0.00     0.121 C 
HETATM   10  C26 UNL     1       3.898  57.880  -7.522  1.00  0.00     0.190 C 
HETATM   11  O5  UNL     1       4.680  56.713  -7.243  1.00  0.00    -0.384 OA
HETATM   12  C27 UNL     1       4.309  55.539  -7.962  1.00  0.00     0.122 C 
HETATM   13  C28 UNL     1       4.767  55.587  -9.424  1.00  0.00     0.033 C 
HETATM   14  C29 UNL     1       4.977  54.198 -10.050  1.00  0.00     0.013 C 
HETATM   15  C30 UNL     1       4.129  53.068  -9.393  1.00  0.00    -0.026 C 
HETATM   16  C31 UNL     1       4.608  51.722 -10.004  1.00  0.00     0.016 C 
HETATM   17  C32 UNL     1       4.493  53.013  -7.875  1.00  0.00     0.071 C 
HETATM   18  C33 UNL     1       4.932  54.347  -7.255  1.00  0.00     0.045 C 
HETATM   19  C34 UNL     1       3.421  52.383  -7.012  1.00  0.00     0.154 C 
HETATM   20  O6  UNL     1       3.694  51.768  -5.983  1.00  0.00    -0.293 OA
HETATM   21  C35 UNL     1       2.003  52.564  -7.365  1.00  0.00     0.057 C 
HETATM   22  C36 UNL     1       1.612  53.007  -8.565  1.00  0.00    -0.036 C 
HETATM   23  C37 UNL     1       2.585  53.334  -9.698  1.00  0.00     0.026 C 
HETATM   24  C38 UNL     1       2.122  52.705 -11.050  1.00  0.00     0.011 C 
HETATM   25  C39 UNL     1       0.620  52.817 -11.359  1.00  0.00     0.014 C 
HETATM   26  C40 UNL     1      -0.236  52.341 -10.162  1.00  0.00    -0.002 C 
HETATM   27  C41 UNL     1       0.015  50.829  -9.921  1.00  0.00     0.019 C 
ENDROOT
BRANCH   1  28
HETATM   28  C10 UNL     1      -2.723  51.881 -11.256  1.00  0.00     0.087 C 
HETATM   29  C11 UNL     1      -4.184  52.368 -11.254  1.00  0.00     0.049 C 
BRANCH  28  30
HETATM   30  C9  UNL     1      -2.137  51.962 -12.714  1.00  0.00     0.181 C 
BRANCH  30  31
HETATM   31  C8  UNL     1      -1.925  50.616 -13.441  1.00  0.00     0.160 C 
HETATM   32  C3  UNL     1      -0.581  50.283 -14.101  1.00  0.00     0.051 C 
HETATM   33  C2  UNL     1      -1.001  49.116 -15.018  1.00  0.00     0.021 C 
HETATM   34  C1  UNL     1      -0.864  47.763 -14.312  1.00  0.00     0.013 C 
HETATM   35  C42 UNL     1      -2.471  49.411 -15.358  1.00  0.00     0.149 C 
HETATM   36  O7  UNL     1      -2.886  50.521 -14.524  1.00  0.00    -0.375 OA
BRANCH  32  37
HETATM   37  C4  UNL     1       0.030  51.451 -14.914  1.00  0.00     0.277 C 
BRANCH  37  38
HETATM   38  N1  UNL     1       0.601  51.074 -16.214  1.00  0.00     0.086 N 
HETATM   39  H8  UNL     1      -0.128  50.662 -16.796  1.00  0.00     0.315 HD
BRANCH  38  40
HETATM   40  C5  UNL     1       1.297  52.138 -16.929  1.00  0.00     0.300 C 
BRANCH  40  41
HETATM   41  C6  UNL     1       0.537  52.596 -18.190  1.00  0.00     0.142 C 
HETATM   42  C7  UNL     1      -0.052  51.428 -18.969  1.00  0.00     0.041 C 
BRANCH  41  43
HETATM   43  O1  UNL     1       1.430  53.295 -19.059  1.00  0.00    -0.394 OA
HETATM   44  H15 UNL     1       1.659  54.134 -18.625  1.00  0.00     0.210 HD
ENDBRANCH  41  43
ENDBRANCH  40  41
ENDBRANCH  38  40
ENDBRANCH  37  38
ENDBRANCH  32  37
BRANCH  35  45
HETATM   45  C43 UNL     1      -2.702  49.797 -16.821  1.00  0.00     0.196 C 
BRANCH  45  46
HETATM   46  O8  UNL     1      -2.910  51.207 -16.915  1.00  0.00    -0.398 OA
HETATM   47  H61 UNL     1      -2.212  51.611 -16.364  1.00  0.00     0.209 HD
ENDBRANCH  45  46
ENDBRANCH  35  45
ENDBRANCH  30  31
BRANCH  30  48
HETATM   48  O2  UNL     1      -3.002  52.756 -13.550  1.00  0.00    -0.390 OA
HETATM   49  H18 UNL     1      -2.657  52.635 -14.458  1.00  0.00     0.210 HD
ENDBRANCH  30  48
ENDBRANCH  28  30
BRANCH  28  50
HETATM   50  O3  UNL     1      -2.738  50.503 -10.867  1.00  0.00    -0.387 OA
HETATM   51  H22 UNL     1      -3.315  50.415 -10.090  1.00  0.00     0.210 HD
ENDBRANCH  28  50
ENDBRANCH   1  28
BRANCH   9  52
HETATM   52  C20 UNL     1       2.625  57.870  -5.287  1.00  0.00    -0.040 A 
HETATM   53  C21 UNL     1       1.968  56.851  -4.580  1.00  0.00     0.008 A 
HETATM   54  C22 UNL     1       2.061  56.770  -3.189  1.00  0.00     0.001 A 
HETATM   55  C23 UNL     1       2.810  57.707  -2.482  1.00  0.00     0.000 A 
HETATM   56  C24 UNL     1       3.473  58.723  -3.169  1.00  0.00     0.001 A 
HETATM   57  C25 UNL     1       3.383  58.804  -4.560  1.00  0.00     0.008 A 
ENDBRANCH   9  52
TORSDOF 13
ENDMDL
MODEL 7
REMARK minimizedAffinity -7.92794561
REMARK CNNscore 0.296871632
REMARK CNNaffinity 7.28331614
REMARK  13 active torsions:
REMARK  status: ('A' for Active; 'I' for Inactive)
REMARK    1  A    between atoms: C3_3  and  C4_4 
REMARK    2  A    between atoms: C4_4  and  N1_5 
REMARK    3  A    between atoms: N1_5  and  C5_6 
REMARK    4  A    between atoms: C5_6  and  C6_7 
REMARK    5  A    between atoms: C6_7  and  O1_9 
REMARK    6  A    between atoms: C8_10  and  C9_11 
REMARK    7  A    between atoms: C9_11  and  O2_12 
REMARK    8  A    between atoms: C9_11  and  C10_13 
REMARK    9  A    between atoms: C10_13  and  O3_15 
REMARK   10  A    between atoms: C10_13  and  C12_16 
REMARK   11  A    between atoms: C19_24  and  C20_25 
REMARK   12  A    between atoms: C42_50  and  C43_51 
REMARK   13  A    between atoms: C43_51  and  O8_52 
ROOT
HETATM    1  C12 UNL     1      -1.626  52.228 -11.666  1.00  0.00     0.034 C 
HETATM    2  C13 UNL     1      -2.171  53.286 -10.662  1.00  0.00     0.012 C 
HETATM    3  C14 UNL     1      -1.219  53.280  -9.452  1.00  0.00     0.044 C 
HETATM    4  C15 UNL     1       0.067  52.626  -9.981  1.00  0.00     0.093 C 
HETATM    5  O4  UNL     1       0.787  53.453 -10.926  1.00  0.00    -0.363 OA
HETATM    6  C16 UNL     1       0.841  54.867 -10.790  1.00  0.00     0.263 C 
HETATM    7  C17 UNL     1       2.074  55.313 -10.137  1.00  0.00    -0.080 C 
HETATM    8  C18 UNL     1       3.088  55.751  -9.659  1.00  0.00    -0.093 C 
HETATM    9  C19 UNL     1       4.347  56.313  -9.115  1.00  0.00     0.121 C 
HETATM   10  C26 UNL     1       5.518  55.299  -9.121  1.00  0.00     0.190 C 
HETATM   11  O5  UNL     1       5.478  54.274  -8.121  1.00  0.00    -0.384 OA
HETATM   12  C27 UNL     1       4.628  53.167  -8.409  1.00  0.00     0.122 C 
HETATM   13  C28 UNL     1       5.238  52.226  -9.454  1.00  0.00     0.033 C 
HETATM   14  C29 UNL     1       4.733  50.777  -9.348  1.00  0.00     0.013 C 
HETATM   15  C30 UNL     1       3.319  50.640  -8.707  1.00  0.00    -0.026 C 
HETATM   16  C31 UNL     1       3.058  49.123  -8.497  1.00  0.00     0.016 C 
HETATM   17  C32 UNL     1       3.373  51.276  -7.281  1.00  0.00     0.071 C 
HETATM   18  C33 UNL     1       4.382  52.420  -7.108  1.00  0.00     0.045 C 
HETATM   19  C34 UNL     1       2.022  51.709  -6.755  1.00  0.00     0.154 C 
HETATM   20  O6  UNL     1       1.761  51.704  -5.553  1.00  0.00    -0.293 OA
HETATM   21  C35 UNL     1       1.007  52.221  -7.689  1.00  0.00     0.057 C 
HETATM   22  C36 UNL     1       1.099  52.055  -9.014  1.00  0.00    -0.036 C 
HETATM   23  C37 UNL     1       2.240  51.291  -9.686  1.00  0.00     0.026 C 
HETATM   24  C38 UNL     1       1.705  50.280 -10.749  1.00  0.00     0.011 C 
HETATM   25  C39 UNL     1       0.575  50.799 -11.654  1.00  0.00     0.014 C 
HETATM   26  C40 UNL     1      -0.560  51.440 -10.824  1.00  0.00    -0.002 C 
HETATM   27  C41 UNL     1      -1.223  50.353  -9.935  1.00  0.00     0.019 C 
ENDROOT
BRANCH   1  28
HETATM   28  C10 UNL     1      -2.703  51.507 -12.554  1.00  0.00     0.087 C 
HETATM   29  C11 UNL     1      -4.116  52.115 -12.476  1.00  0.00     0.049 C 
BRANCH  28  30
HETATM   30  C9  UNL     1      -2.208  51.501 -14.048  1.00  0.00     0.181 C 
BRANCH  30  31
HETATM   31  C8  UNL     1      -1.456  50.236 -14.514  1.00  0.00     0.160 C 
HETATM   32  C3  UNL     1      -0.388  50.316 -15.612  1.00  0.00     0.051 C 
HETATM   33  C2  UNL     1      -0.278  48.828 -16.005  1.00  0.00     0.021 C 
HETATM   34  C1  UNL     1       0.786  48.101 -15.178  1.00  0.00     0.013 C 
HETATM   35  C42 UNL     1      -1.677  48.258 -15.724  1.00  0.00     0.149 C 
HETATM   36  O7  UNL     1      -2.425  49.286 -15.029  1.00  0.00    -0.375 OA
BRANCH  32  37
HETATM   37  C4  UNL     1      -0.792  51.193 -16.822  1.00  0.00     0.277 C 
BRANCH  37  38
HETATM   38  N1  UNL     1       0.095  51.094 -17.988  1.00  0.00     0.086 N 
HETATM   39  H8  UNL     1       0.220  50.112 -18.235  1.00  0.00     0.315 HD
BRANCH  38  40
HETATM   40  C5  UNL     1      -0.306  51.873 -19.154  1.00  0.00     0.300 C 
BRANCH  40  41
HETATM   41  C6  UNL     1       0.450  53.214 -19.256  1.00  0.00     0.142 C 
HETATM   42  C7  UNL     1       1.010  53.460 -20.650  1.00  0.00     0.041 C 
BRANCH  41  43
HETATM   43  O1  UNL     1       1.544  53.217 -18.338  1.00  0.00    -0.394 OA
HETATM   44  H15 UNL     1       1.169  53.245 -17.441  1.00  0.00     0.210 HD
ENDBRANCH  41  43
ENDBRANCH  40  41
ENDBRANCH  38  40
ENDBRANCH  37  38
ENDBRANCH  32  37
BRANCH  35  45
HETATM   45  C43 UNL     1      -2.452  47.869 -16.986  1.00  0.00     0.196 C 
BRANCH  45  46
HETATM   46  O8  UNL     1      -2.452  46.448 -17.126  1.00  0.00    -0.398 OA
HETATM   47  H61 UNL     1      -2.672  46.098 -16.241  1.00  0.00     0.209 HD
ENDBRANCH  45  46
ENDBRANCH  35  45
ENDBRANCH  30  31
BRANCH  30  48
HETATM   48  O2  UNL     1      -3.328  51.672 -14.940  1.00  0.00    -0.390 OA
HETATM   49  H18 UNL     1      -2.967  51.508 -15.835  1.00  0.00     0.210 HD
ENDBRANCH  30  48
ENDBRANCH  28  30
BRANCH  28  50
HETATM   50  O3  UNL     1      -2.808  50.145 -12.124  1.00  0.00    -0.387 OA
HETATM   51  H22 UNL     1      -3.339  50.126 -11.310  1.00  0.00     0.210 HD
ENDBRANCH  28  50
ENDBRANCH   1  28
BRANCH   9  52
HETATM   52  C20 UNL     1       4.149  57.014  -7.779  1.00  0.00    -0.040 A 
HETATM   53  C21 UNL     1       2.888  57.471  -7.366  1.00  0.00     0.008 A 
HETATM   54  C22 UNL     1       2.727  58.120  -6.140  1.00  0.00     0.001 A 
HETATM   55  C23 UNL     1       3.825  58.323  -5.308  1.00  0.00     0.000 A 
HETATM   56  C24 UNL     1       5.084  57.871  -5.699  1.00  0.00     0.001 A 
HETATM   57  C25 UNL     1       5.246  57.220  -6.925  1.00  0.00     0.008 A 
ENDBRANCH   9  52
TORSDOF 13
ENDMDL
MODEL 8
REMARK minimizedAffinity -9.56749344
REMARK CNNscore 0.289436907
REMARK CNNaffinity 7.50350428
REMARK  13 active torsions:
REMARK  status: ('A' for Active; 'I' for Inactive)
REMARK    1  A    between atoms: C3_3  and  C4_4 
REMARK    2  A    between atoms: C4_4  and  N1_5 
REMARK    3  A    between atoms: N1_5  and  C5_6 
REMARK    4  A    between atoms: C5_6  and  C6_7 
REMARK    5  A    between atoms: C6_7  and  O1_9 
REMARK    6  A    between atoms: C8_10  and  C9_11 
REMARK    7  A    between atoms: C9_11  and  O2_12 
REMARK    8  A    between atoms: C9_11  and  C10_13 
REMARK    9  A    between atoms: C10_13  and  O3_15 
REMARK   10  A    between atoms: C10_13  and  C12_16 
REMARK   11  A    between atoms: C19_24  and  C20_25 
REMARK   12  A    between atoms: C42_50  and  C43_51 
REMARK   13  A    between atoms: C43_51  and  O8_52 
ROOT
HETATM    1  C12 UNL     1      -2.175  49.487 -18.551  1.00  0.00     0.034 C 
HETATM    2  C13 UNL     1      -0.910  48.794 -19.138  1.00  0.00     0.012 C 
HETATM    3  C14 UNL     1      -1.121  48.703 -20.660  1.00  0.00     0.044 C 
HETATM    4  C15 UNL     1      -2.208  49.747 -20.959  1.00  0.00     0.093 C 
HETATM    5  O4  UNL     1      -1.754  51.113 -20.799  1.00  0.00    -0.363 OA
HETATM    6  C16 UNL     1      -0.431  51.504 -21.142  1.00  0.00     0.263 C 
HETATM    7  C17 UNL     1      -0.360  52.105 -22.476  1.00  0.00    -0.080 C 
HETATM    8  C18 UNL     1      -0.240  52.658 -23.537  1.00  0.00    -0.093 C 
HETATM    9  C19 UNL     1      -0.078  53.382 -24.820  1.00  0.00     0.121 C 
HETATM   10  C26 UNL     1      -1.419  53.902 -25.398  1.00  0.00     0.190 C 
HETATM   11  O5  UNL     1      -2.278  52.923 -25.995  1.00  0.00    -0.384 OA
HETATM   12  C27 UNL     1      -3.064  52.158 -25.083  1.00  0.00     0.122 C 
HETATM   13  C28 UNL     1      -4.244  52.960 -24.523  1.00  0.00     0.033 C 
HETATM   14  C29 UNL     1      -5.428  52.085 -24.081  1.00  0.00     0.013 C 
HETATM   15  C30 UNL     1      -5.033  50.634 -23.675  1.00  0.00    -0.026 C 
HETATM   16  C31 UNL     1      -6.353  49.845 -23.454  1.00  0.00     0.016 C 
HETATM   17  C32 UNL     1      -4.324  49.967 -24.897  1.00  0.00     0.071 C 
HETATM   18  C33 UNL     1      -3.567  50.930 -25.823  1.00  0.00     0.045 C 
HETATM   19  C34 UNL     1      -3.423  48.810 -24.524  1.00  0.00     0.154 C 
HETATM   20  O6  UNL     1      -3.234  47.863 -25.285  1.00  0.00    -0.293 OA
HETATM   21  C35 UNL     1      -2.691  48.839 -23.247  1.00  0.00     0.057 C 
HETATM   22  C36 UNL     1      -2.998  49.692 -22.262  1.00  0.00    -0.036 C 
HETATM   23  C37 UNL     1      -4.154  50.689 -22.344  1.00  0.00     0.026 C 
HETATM   24  C38 UNL     1      -5.023  50.667 -21.047  1.00  0.00     0.011 C 
HETATM   25  C39 UNL     1      -4.244  50.599 -19.723  1.00  0.00     0.014 C 
HETATM   26  C40 UNL     1      -3.191  49.467 -19.748  1.00  0.00    -0.002 C 
HETATM   27  C41 UNL     1      -3.913  48.097 -19.863  1.00  0.00     0.019 C 
ENDROOT
BRANCH   1  28
HETATM   28  C10 UNL     1      -2.577  49.061 -17.093  1.00  0.00     0.087 C 
HETATM   29  C11 UNL     1      -2.019  47.698 -16.643  1.00  0.00     0.049 C 
BRANCH  28  30
HETATM   30  C9  UNL     1      -2.116  50.183 -16.090  1.00  0.00     0.181 C 
BRANCH  30  31
HETATM   31  C8  UNL     1      -0.786  49.932 -15.348  1.00  0.00     0.160 C 
HETATM   32  C3  UNL     1      -0.592  50.404 -13.902  1.00  0.00     0.051 C 
HETATM   33  C2  UNL     1       0.945  50.330 -13.787  1.00  0.00     0.021 C 
HETATM   34  C1  UNL     1       1.410  48.959 -13.285  1.00  0.00     0.013 C 
HETATM   35  C42 UNL     1       1.445  50.590 -15.217  1.00  0.00     0.149 C 
HETATM   36  O7  UNL     1       0.282  50.585 -16.082  1.00  0.00    -0.375 OA
BRANCH  32  37
HETATM   37  C4  UNL     1      -1.111  51.836 -13.630  1.00  0.00     0.277 C 
BRANCH  37  38
HETATM   38  N1  UNL     1      -2.487  51.915 -13.120  1.00  0.00     0.086 N 
HETATM   39  H8  UNL     1      -2.980  51.051 -13.347  1.00  0.00     0.315 HD
BRANCH  38  40
HETATM   40  C5  UNL     1      -2.616  52.229 -11.702  1.00  0.00     0.300 C 
BRANCH  40  41
HETATM   41  C6  UNL     1      -4.002  52.808 -11.350  1.00  0.00     0.142 C 
HETATM   42  C7  UNL     1      -3.917  53.951 -10.349  1.00  0.00     0.041 C 
BRANCH  41  43
HETATM   43  O1  UNL     1      -4.816  51.784 -10.776  1.00  0.00    -0.394 OA
HETATM   44  H15 UNL     1      -5.018  51.145 -11.481  1.00  0.00     0.210 HD
ENDBRANCH  41  43
ENDBRANCH  40  41
ENDBRANCH  38  40
ENDBRANCH  37  38
ENDBRANCH  32  37
BRANCH  35  45
HETATM   45  C43 UNL     1       2.166  51.930 -15.386  1.00  0.00     0.196 C 
BRANCH  45  46
HETATM   46  O8  UNL     1       1.218  52.938 -15.741  1.00  0.00    -0.398 OA
HETATM   47  H61 UNL     1       0.465  52.815 -15.131  1.00  0.00     0.209 HD
ENDBRANCH  45  46
ENDBRANCH  35  45
ENDBRANCH  30  31
BRANCH  30  48
HETATM   48  O2  UNL     1      -1.975  51.438 -16.785  1.00  0.00    -0.390 OA
HETATM   49  H18 UNL     1      -1.548  52.038 -16.140  1.00  0.00     0.210 HD
ENDBRANCH  30  48
ENDBRANCH  28  30
BRANCH  28  50
HETATM   50  O3  UNL     1      -4.005  48.974 -17.023  1.00  0.00    -0.387 OA
HETATM   51  H22 UNL     1      -4.277  48.138 -17.437  1.00  0.00     0.210 HD
ENDBRANCH  28  50
ENDBRANCH   1  28
BRANCH   9  52
HETATM   52  C20 UNL     1       0.766  52.614 -25.827  1.00  0.00    -0.040 A 
HETATM   53  C21 UNL     1       1.821  51.782 -25.421  1.00  0.00     0.008 A 
HETATM   54  C22 UNL     1       2.591  51.092 -26.360  1.00  0.00     0.001 A 
HETATM   55  C23 UNL     1       2.319  51.223 -27.719  1.00  0.00     0.000 A 
HETATM   56  C24 UNL     1       1.271  52.041 -28.140  1.00  0.00     0.001 A 
HETATM   57  C25 UNL     1       0.500  52.731 -27.202  1.00  0.00     0.008 A 
ENDBRANCH   9  52
TORSDOF 13
ENDMDL
MODEL 9
REMARK minimizedAffinity -9.49670601
REMARK CNNscore 0.282998502
REMARK CNNaffinity 6.70025826
REMARK  13 active torsions:
REMARK  status: ('A' for Active; 'I' for Inactive)
REMARK    1  A    between atoms: C3_3  and  C4_4 
REMARK    2  A    between atoms: C4_4  and  N1_5 
REMARK    3  A    between atoms: N1_5  and  C5_6 
REMARK    4  A    between atoms: C5_6  and  C6_7 
REMARK    5  A    between atoms: C6_7  and  O1_9 
REMARK    6  A    between atoms: C8_10  and  C9_11 
REMARK    7  A    between atoms: C9_11  and  O2_12 
REMARK    8  A    between atoms: C9_11  and  C10_13 
REMARK    9  A    between atoms: C10_13  and  O3_15 
REMARK   10  A    between atoms: C10_13  and  C12_16 
REMARK   11  A    between atoms: C19_24  and  C20_25 
REMARK   12  A    between atoms: C42_50  and  C43_51 
REMARK   13  A    between atoms: C43_51  and  O8_52 
ROOT
HETATM    1  C12 UNL     1      -4.699  49.721 -22.031  1.00  0.00     0.034 C 
HETATM    2  C13 UNL     1      -5.921  50.617 -22.392  1.00  0.00     0.012 C 
HETATM    3  C14 UNL     1      -7.134  49.679 -22.528  1.00  0.00     0.044 C 
HETATM    4  C15 UNL     1      -6.716  48.403 -21.781  1.00  0.00     0.093 C 
HETATM    5  O4  UNL     1      -6.630  48.577 -20.346  1.00  0.00    -0.363 OA
HETATM    6  C16 UNL     1      -7.532  49.420 -19.642  1.00  0.00     0.263 C 
HETATM    7  C17 UNL     1      -8.636  48.668 -19.039  1.00  0.00    -0.080 C 
HETATM    8  C18 UNL     1      -9.535  48.107 -18.471  1.00  0.00    -0.093 C 
HETATM    9  C19 UNL     1     -10.624  47.432 -17.726  1.00  0.00     0.121 C 
HETATM   10  C26 UNL     1     -10.386  45.910 -17.549  1.00  0.00     0.190 C 
HETATM   11  O5  UNL     1     -10.596  45.094 -18.708  1.00  0.00    -0.384 OA
HETATM   12  C27 UNL     1      -9.521  45.068 -19.644  1.00  0.00     0.122 C 
HETATM   13  C28 UNL     1      -8.351  44.206 -19.157  1.00  0.00     0.033 C 
HETATM   14  C29 UNL     1      -7.495  43.630 -20.297  1.00  0.00     0.013 C 
HETATM   15  C30 UNL     1      -7.528  44.472 -21.608  1.00  0.00    -0.026 C 
HETATM   16  C31 UNL     1      -6.784  43.651 -22.697  1.00  0.00     0.016 C 
HETATM   17  C32 UNL     1      -9.015  44.574 -22.077  1.00  0.00     0.071 C 
HETATM   18  C33 UNL     1     -10.063  44.527 -20.957  1.00  0.00     0.045 C 
HETATM   19  C34 UNL     1      -9.291  45.756 -22.979  1.00  0.00     0.154 C 
HETATM   20  O6  UNL     1     -10.159  45.722 -23.849  1.00  0.00    -0.293 OA
HETATM   21  C35 UNL     1      -8.556  47.015 -22.774  1.00  0.00     0.057 C 
HETATM   22  C36 UNL     1      -7.449  47.088 -22.026  1.00  0.00    -0.036 C 
HETATM   23  C37 UNL     1      -6.816  45.875 -21.342  1.00  0.00     0.026 C 
HETATM   24  C38 UNL     1      -5.274  45.823 -21.579  1.00  0.00     0.011 C 
HETATM   25  C39 UNL     1      -4.534  47.165 -21.457  1.00  0.00     0.014 C 
HETATM   26  C40 UNL     1      -5.224  48.265 -22.297  1.00  0.00    -0.002 C 
HETATM   27  C41 UNL     1      -5.139  47.892 -23.802  1.00  0.00     0.019 C 
ENDROOT
BRANCH   1  28
HETATM   28  C10 UNL     1      -3.303  50.224 -22.546  1.00  0.00     0.087 C 
HETATM   29  C11 UNL     1      -2.277  49.109 -22.820  1.00  0.00     0.049 C 
BRANCH  28  30
HETATM   30  C9  UNL     1      -3.520  51.079 -23.850  1.00  0.00     0.181 C 
BRANCH  30  31
HETATM   31  C8  UNL     1      -2.371  51.058 -24.880  1.00  0.00     0.160 C 
HETATM   32  C3  UNL     1      -0.948  51.467 -24.479  1.00  0.00     0.051 C 
HETATM   33  C2  UNL     1      -0.322  51.702 -25.869  1.00  0.00     0.021 C 
HETATM   34  C1  UNL     1       0.320  50.426 -26.424  1.00  0.00     0.013 C 
HETATM   35  C42 UNL     1      -1.502  52.149 -26.746  1.00  0.00     0.149 C 
HETATM   36  O7  UNL     1      -2.708  51.962 -25.965  1.00  0.00    -0.375 OA
BRANCH  32  37
HETATM   37  C4  UNL     1      -0.881  52.743 -23.605  1.00  0.00     0.277 C 
BRANCH  37  38
HETATM   38  N1  UNL     1       0.462  53.103 -23.129  1.00  0.00     0.086 N 
HETATM   39  H8  UNL     1       0.525  54.116 -23.030  1.00  0.00     0.315 HD
BRANCH  38  40
HETATM   40  C5  UNL     1       0.898  52.435 -21.907  1.00  0.00     0.300 C 
BRANCH  40  41
HETATM   41  C6  UNL     1       1.424  53.425 -20.849  1.00  0.00     0.142 C 
HETATM   42  C7  UNL     1       0.378  53.757 -19.793  1.00  0.00     0.041 C 
BRANCH  41  43
HETATM   43  O1  UNL     1       1.806  54.646 -21.484  1.00  0.00    -0.394 OA
HETATM   44  H15 UNL     1       2.595  54.459 -22.020  1.00  0.00     0.210 HD
ENDBRANCH  41  43
ENDBRANCH  40  41
ENDBRANCH  38  40
ENDBRANCH  37  38
ENDBRANCH  32  37
BRANCH  35  45
HETATM   45  C43 UNL     1      -1.431  53.616 -27.178  1.00  0.00     0.196 C 
BRANCH  45  46
HETATM   46  O8  UNL     1      -2.107  53.778 -28.426  1.00  0.00    -0.398 OA
HETATM   47  H61 UNL     1      -2.950  53.294 -28.332  1.00  0.00     0.209 HD
ENDBRANCH  45  46
ENDBRANCH  35  45
ENDBRANCH  30  31
BRANCH  30  48
HETATM   48  O2  UNL     1      -4.706  50.635 -24.538  1.00  0.00    -0.390 OA
HETATM   49  H18 UNL     1      -4.689  51.103 -25.398  1.00  0.00     0.210 HD
ENDBRANCH  30  48
ENDBRANCH  28  30
BRANCH  28  50
HETATM   50  O3  UNL     1      -2.734  51.083 -21.551  1.00  0.00    -0.387 OA
HETATM   51  H22 UNL     1      -2.371  50.525 -20.843  1.00  0.00     0.210 HD
ENDBRANCH  28  50
ENDBRANCH   1  28
BRANCH   9  52
HETATM   52  C20 UNL     1     -12.006  47.779 -18.261  1.00  0.00    -0.040 A 
HETATM   53  C21 UNL     1     -12.195  48.229 -19.577  1.00  0.00     0.008 A 
HETATM   54  C22 UNL     1     -13.470  48.550 -20.047  1.00  0.00     0.001 A 
HETATM   55  C23 UNL     1     -14.576  48.427 -19.210  1.00  0.00     0.000 A 
HETATM   56  C24 UNL     1     -14.407  47.975 -17.902  1.00  0.00     0.001 A 
HETATM   57  C25 UNL     1     -13.133  47.653 -17.431  1.00  0.00     0.008 A 
ENDBRANCH   9  52
TORSDOF 13
ENDMDL
