MODEL 1
REMARK minimizedAffinity -9.19344044
REMARK  7 active torsions:
REMARK  status: ('A' for Active; 'I' for Inactive)
REMARK    1  A    between atoms: C3_3  and  C5_5 
REMARK    2  A    between atoms: C6_6  and  C7_7 
REMARK    3  A    between atoms: C8_8  and  C9_9 
REMARK    4  A    between atoms: C10_10  and  C12_12 
REMARK    5  A    between atoms: C12_12  and  C13_14 
REMARK    6  A    between atoms: C13_14  and  C15_16 
REMARK    7  A    between atoms: C15_16  and  O2_17 
ROOT
HETATM    1  C5  UNL     1      -4.577  48.759 -23.566  1.00  0.00     0.058 C 
HETATM    2  C6  UNL     1      -3.007  48.790 -23.493  1.00  0.00     0.024 C 
HETATM    3  C16 UNL     1      -2.467  49.003 -22.027  1.00  0.00     0.003 C 
HETATM    4  C17 UNL     1      -1.621  47.798 -21.573  1.00  0.00     0.041 C 
HETATM    5  C18 UNL     1      -1.121  47.961 -20.169  1.00  0.00     0.157 A 
HETATM    6  O3  UNL     1      -2.053  47.518 -19.169  1.00  0.00    -0.370 OA
HETATM    7  C19 UNL     1      -1.778  48.923 -19.199  1.00  0.00     0.084 A 
HETATM    8  C20 UNL     1      -1.008  49.403 -18.010  1.00  0.00     0.049 C 
HETATM    9  C21 UNL     1      -2.924  49.780 -19.663  1.00  0.00     0.048 C 
HETATM   10  C22 UNL     1      -3.564  49.279 -20.969  1.00  0.00     0.025 C 
HETATM   11  C23 UNL     1      -4.580  50.257 -21.497  1.00  0.00     0.162 A 
HETATM   12  O4  UNL     1      -5.887  49.700 -21.663  1.00  0.00    -0.368 OA
HETATM   13  C24 UNL     1      -5.153  49.988 -22.871  1.00  0.00     0.092 A 
HETATM   14  C25 UNL     1      -5.759  51.107 -23.654  1.00  0.00     0.049 C 
ENDROOT
BRANCH   2  15
HETATM   15  C7  UNL     1      -2.314  49.737 -24.465  1.00  0.00    -0.021 C 
HETATM   16  C8  UNL     1      -2.133  51.059 -24.301  1.00  0.00    -0.003 C 
BRANCH  16  17
HETATM   17  C9  UNL     1      -1.384  51.871 -25.236  1.00  0.00     0.010 C 
HETATM   18  C10 UNL     1      -0.294  52.606 -24.949  1.00  0.00    -0.016 C 
HETATM   19  C11 UNL     1       0.408  52.734 -23.634  1.00  0.00     0.052 C 
BRANCH  18  20
HETATM   20  C12 UNL     1       0.331  53.287 -26.128  1.00  0.00     0.161 C 
HETATM   21  O1  UNL     1       0.184  54.505 -26.257  1.00  0.00    -0.292 OA
BRANCH  20  22
HETATM   22  C13 UNL     1       1.131  52.484 -27.153  1.00  0.00     0.080 C 
HETATM   23  C14 UNL     1       0.198  51.801 -28.147  1.00  0.00     0.020 C 
BRANCH  22  24
HETATM   24  C15 UNL     1       2.107  51.496 -26.513  1.00  0.00     0.176 C 
BRANCH  24  25
HETATM   25  O2  UNL     1       3.321  51.421 -27.258  1.00  0.00    -0.400 OA
HETATM   26  H22 UNL     1       3.736  52.301 -27.276  1.00  0.00     0.209 HD
ENDBRANCH  24  25
ENDBRANCH  22  24
ENDBRANCH  20  22
ENDBRANCH  18  20
ENDBRANCH  16  17
ENDBRANCH   2  15
BRANCH   1  27
HETATM   27  C3  UNL     1      -5.225  48.344 -24.899  1.00  0.00    -0.080 C 
HETATM   28  C2  UNL     1      -4.510  48.463 -26.039  1.00  0.00    -0.028 C 
HETATM   29  C1  UNL     1      -4.944  48.151 -27.437  1.00  0.00     0.036 C 
HETATM   30  C4  UNL     1      -6.624  47.790 -24.889  1.00  0.00     0.043 C 
ENDBRANCH   1  27
TORSDOF 7
ENDMDL
MODEL 2
REMARK minimizedAffinity -8.81269741
REMARK  7 active torsions:
REMARK  status: ('A' for Active; 'I' for Inactive)
REMARK    1  A    between atoms: C3_3  and  C5_5 
REMARK    2  A    between atoms: C6_6  and  C7_7 
REMARK    3  A    between atoms: C8_8  and  C9_9 
REMARK    4  A    between atoms: C10_10  and  C12_12 
REMARK    5  A    between atoms: C12_12  and  C13_14 
REMARK    6  A    between atoms: C13_14  and  C15_16 
REMARK    7  A    between atoms: C15_16  and  O2_17 
ROOT
HETATM    1  C5  UNL     1      -1.630  49.910 -22.704  1.00  0.00     0.058 C 
HETATM    2  C6  UNL     1      -1.935  49.751 -24.238  1.00  0.00     0.024 C 
HETATM    3  C16 UNL     1      -1.458  50.990 -25.087  1.00  0.00     0.003 C 
HETATM    4  C17 UNL     1      -0.393  50.571 -26.119  1.00  0.00     0.041 C 
HETATM    5  C18 UNL     1       0.102  51.736 -26.921  1.00  0.00     0.157 A 
HETATM    6  O3  UNL     1       1.179  52.452 -26.294  1.00  0.00    -0.370 OA
HETATM    7  C19 UNL     1      -0.056  53.162 -26.430  1.00  0.00     0.084 A 
HETATM    8  C20 UNL     1       0.009  54.286 -27.414  1.00  0.00     0.049 C 
HETATM    9  C21 UNL     1      -0.777  53.427 -25.135  1.00  0.00     0.048 C 
HETATM   10  C22 UNL     1      -0.912  52.175 -24.252  1.00  0.00     0.025 C 
HETATM   11  C23 UNL     1      -1.792  52.435 -23.058  1.00  0.00     0.162 A 
HETATM   12  O4  UNL     1      -1.152  52.187 -21.803  1.00  0.00    -0.368 OA
HETATM   13  C24 UNL     1      -2.169  51.245 -22.202  1.00  0.00     0.092 A 
HETATM   14  C25 UNL     1      -3.382  51.313 -21.332  1.00  0.00     0.049 C 
ENDROOT
BRANCH   2  15
HETATM   15  C7  UNL     1      -3.368  49.373 -24.595  1.00  0.00    -0.021 C 
HETATM   16  C8  UNL     1      -3.752  48.501 -25.542  1.00  0.00    -0.003 C 
BRANCH  16  17
HETATM   17  C9  UNL     1      -5.135  48.133 -25.757  1.00  0.00     0.010 C 
HETATM   18  C10 UNL     1      -5.729  47.951 -26.951  1.00  0.00    -0.016 C 
HETATM   19  C11 UNL     1      -5.111  48.050 -28.310  1.00  0.00     0.052 C 
BRANCH  18  20
HETATM   20  C12 UNL     1      -7.154  47.493 -26.879  1.00  0.00     0.161 C 
HETATM   21  O1  UNL     1      -7.552  46.661 -27.698  1.00  0.00    -0.292 OA
BRANCH  20  22
HETATM   22  C13 UNL     1      -8.094  48.053 -25.812  1.00  0.00     0.080 C 
HETATM   23  C14 UNL     1      -8.431  46.983 -24.778  1.00  0.00     0.020 C 
BRANCH  22  24
HETATM   24  C15 UNL     1      -9.351  48.698 -26.397  1.00  0.00     0.176 C 
BRANCH  24  25
HETATM   25  O2  UNL     1      -9.525  50.022 -25.899  1.00  0.00    -0.400 OA
HETATM   26  H22 UNL     1      -8.754  50.560 -26.150  1.00  0.00     0.209 HD
ENDBRANCH  24  25
ENDBRANCH  22  24
ENDBRANCH  20  22
ENDBRANCH  18  20
ENDBRANCH  16  17
ENDBRANCH   2  15
BRANCH   1  27
HETATM   27  C3  UNL     1      -1.849  48.685 -21.798  1.00  0.00    -0.080 C 
HETATM   28  C2  UNL     1      -2.924  47.896 -22.013  1.00  0.00    -0.028 C 
HETATM   29  C1  UNL     1      -3.347  46.683 -21.246  1.00  0.00     0.036 C 
HETATM   30  C4  UNL     1      -0.844  48.386 -20.719  1.00  0.00     0.043 C 
ENDBRANCH   1  27
TORSDOF 7
ENDMDL
MODEL 3
REMARK minimizedAffinity -8.68164635
REMARK  7 active torsions:
REMARK  status: ('A' for Active; 'I' for Inactive)
REMARK    1  A    between atoms: C3_3  and  C5_5 
REMARK    2  A    between atoms: C6_6  and  C7_7 
REMARK    3  A    between atoms: C8_8  and  C9_9 
REMARK    4  A    between atoms: C10_10  and  C12_12 
REMARK    5  A    between atoms: C12_12  and  C13_14 
REMARK    6  A    between atoms: C13_14  and  C15_16 
REMARK    7  A    between atoms: C15_16  and  O2_17 
ROOT
HETATM    1  C5  UNL     1      -1.686  49.878 -22.831  1.00  0.00     0.058 C 
HETATM    2  C6  UNL     1      -1.921  49.737 -24.379  1.00  0.00     0.024 C 
HETATM    3  C16 UNL     1      -1.421  50.993 -25.190  1.00  0.00     0.003 C 
HETATM    4  C17 UNL     1      -0.306  50.600 -26.178  1.00  0.00     0.041 C 
HETATM    5  C18 UNL     1       0.211  51.782 -26.941  1.00  0.00     0.157 A 
HETATM    6  O3  UNL     1       1.250  52.502 -26.257  1.00  0.00    -0.370 OA
HETATM    7  C19 UNL     1       0.013  53.199 -26.439  1.00  0.00     0.084 A 
HETATM    8  C20 UNL     1       0.108  54.337 -27.404  1.00  0.00     0.049 C 
HETATM    9  C21 UNL     1      -0.768  53.437 -25.174  1.00  0.00     0.048 C 
HETATM   10  C22 UNL     1      -0.928  52.172 -24.315  1.00  0.00     0.025 C 
HETATM   11  C23 UNL     1      -1.863  52.405 -23.158  1.00  0.00     0.162 A 
HETATM   12  O4  UNL     1      -1.278  52.147 -21.879  1.00  0.00    -0.368 OA
HETATM   13  C24 UNL     1      -2.264  51.200 -22.336  1.00  0.00     0.092 A 
HETATM   14  C25 UNL     1      -3.516  51.241 -21.521  1.00  0.00     0.049 C 
ENDROOT
BRANCH   2  15
HETATM   15  C7  UNL     1      -3.331  49.347 -24.805  1.00  0.00    -0.021 C 
HETATM   16  C8  UNL     1      -3.661  48.461 -25.761  1.00  0.00    -0.003 C 
BRANCH  16  17
HETATM   17  C9  UNL     1      -5.030  48.083 -26.043  1.00  0.00     0.010 C 
HETATM   18  C10 UNL     1      -5.597  48.018 -27.261  1.00  0.00    -0.016 C 
HETATM   19  C11 UNL     1      -4.959  48.281 -28.588  1.00  0.00     0.052 C 
BRANCH  18  20
HETATM   20  C12 UNL     1      -7.011  47.518 -27.268  1.00  0.00     0.161 C 
HETATM   21  O1  UNL     1      -7.630  47.480 -26.203  1.00  0.00    -0.292 OA
BRANCH  20  22
HETATM   22  C13 UNL     1      -7.665  47.061 -28.571  1.00  0.00     0.080 C 
HETATM   23  C14 UNL     1      -6.940  45.845 -29.138  1.00  0.00     0.020 C 
BRANCH  22  24
HETATM   24  C15 UNL     1      -7.796  48.181 -29.604  1.00  0.00     0.176 C 
BRANCH  24  25
HETATM   25  O2  UNL     1      -8.504  49.295 -29.064  1.00  0.00    -0.400 OA
HETATM   26  H22 UNL     1      -8.017  49.637 -28.294  1.00  0.00     0.209 HD
ENDBRANCH  24  25
ENDBRANCH  22  24
ENDBRANCH  20  22
ENDBRANCH  18  20
ENDBRANCH  16  17
ENDBRANCH   2  15
BRANCH   1  27
HETATM   27  C3  UNL     1      -1.931  48.638 -21.953  1.00  0.00    -0.080 C 
HETATM   28  C2  UNL     1      -3.092  47.961 -22.085  1.00  0.00    -0.028 C 
HETATM   29  C1  UNL     1      -3.552  46.758 -21.323  1.00  0.00     0.036 C 
HETATM   30  C4  UNL     1      -0.858  48.199 -20.993  1.00  0.00     0.043 C 
ENDBRANCH   1  27
TORSDOF 7
ENDMDL
MODEL 4
REMARK minimizedAffinity -8.56144047
REMARK  7 active torsions:
REMARK  status: ('A' for Active; 'I' for Inactive)
REMARK    1  A    between atoms: C3_3  and  C5_5 
REMARK    2  A    between atoms: C6_6  and  C7_7 
REMARK    3  A    between atoms: C8_8  and  C9_9 
REMARK    4  A    between atoms: C10_10  and  C12_12 
REMARK    5  A    between atoms: C12_12  and  C13_14 
REMARK    6  A    between atoms: C13_14  and  C15_16 
REMARK    7  A    between atoms: C15_16  and  O2_17 
ROOT
HETATM    1  C5  UNL     1      -4.800  48.757 -23.422  1.00  0.00     0.058 C 
HETATM    2  C6  UNL     1      -3.247  48.552 -23.289  1.00  0.00     0.024 C 
HETATM    3  C16 UNL     1      -2.719  48.817 -21.827  1.00  0.00     0.003 C 
HETATM    4  C17 UNL     1      -2.086  47.545 -21.233  1.00  0.00     0.041 C 
HETATM    5  C18 UNL     1      -1.603  47.759 -19.831  1.00  0.00     0.157 A 
HETATM    6  O3  UNL     1      -2.619  47.562 -18.833  1.00  0.00    -0.370 OA
HETATM    7  C19 UNL     1      -2.126  48.898 -18.977  1.00  0.00     0.084 A 
HETATM    8  C20 UNL     1      -1.321  49.364 -17.806  1.00  0.00     0.049 C 
HETATM    9  C21 UNL     1      -3.111  49.874 -19.562  1.00  0.00     0.048 C 
HETATM   10  C22 UNL     1      -3.787  49.357 -20.843  1.00  0.00     0.025 C 
HETATM   11  C23 UNL     1      -4.622  50.425 -21.496  1.00  0.00     0.162 A 
HETATM   12  O4  UNL     1      -5.995  50.064 -21.665  1.00  0.00    -0.368 OA
HETATM   13  C24 UNL     1      -5.194  50.120 -22.863  1.00  0.00     0.092 A 
HETATM   14  C25 UNL     1      -5.596  51.240 -23.766  1.00  0.00     0.049 C 
ENDROOT
BRANCH   2  15
HETATM   15  C7  UNL     1      -2.389  49.286 -24.312  1.00  0.00    -0.021 C 
HETATM   16  C8  UNL     1      -2.070  50.592 -24.299  1.00  0.00    -0.003 C 
BRANCH  16  17
HETATM   17  C9  UNL     1      -1.174  51.191 -25.265  1.00  0.00     0.010 C 
HETATM   18  C10 UNL     1      -0.077  51.917 -24.981  1.00  0.00    -0.016 C 
HETATM   19  C11 UNL     1       0.486  52.245 -23.635  1.00  0.00     0.052 C 
BRANCH  18  20
HETATM   20  C12 UNL     1       0.715  52.350 -26.178  1.00  0.00     0.161 C 
HETATM   21  O1  UNL     1       1.897  52.663 -26.025  1.00  0.00    -0.292 OA
BRANCH  20  22
HETATM   22  C13 UNL     1       0.063  52.406 -27.559  1.00  0.00     0.080 C 
HETATM   23  C14 UNL     1       0.983  51.796 -28.613  1.00  0.00     0.020 C 
BRANCH  22  24
HETATM   24  C15 UNL     1      -0.402  53.809 -27.949  1.00  0.00     0.176 C 
BRANCH  24  25
HETATM   25  O2  UNL     1      -1.813  53.843 -28.149  1.00  0.00    -0.400 OA
HETATM   26  H22 UNL     1      -2.257  53.587 -27.321  1.00  0.00     0.209 HD
ENDBRANCH  24  25
ENDBRANCH  22  24
ENDBRANCH  20  22
ENDBRANCH  18  20
ENDBRANCH  16  17
ENDBRANCH   2  15
BRANCH   1  27
HETATM   27  C3  UNL     1      -5.470  48.323 -24.738  1.00  0.00    -0.080 C 
HETATM   28  C2  UNL     1      -4.765  48.398 -25.888  1.00  0.00    -0.028 C 
HETATM   29  C1  UNL     1      -5.219  48.061 -27.273  1.00  0.00     0.036 C 
HETATM   30  C4  UNL     1      -6.881  47.801 -24.702  1.00  0.00     0.043 C 
ENDBRANCH   1  27
TORSDOF 7
ENDMDL
MODEL 5
REMARK minimizedAffinity -8.55571842
REMARK  7 active torsions:
REMARK  status: ('A' for Active; 'I' for Inactive)
REMARK    1  A    between atoms: C3_3  and  C5_5 
REMARK    2  A    between atoms: C6_6  and  C7_7 
REMARK    3  A    between atoms: C8_8  and  C9_9 
REMARK    4  A    between atoms: C10_10  and  C12_12 
REMARK    5  A    between atoms: C12_12  and  C13_14 
REMARK    6  A    between atoms: C13_14  and  C15_16 
REMARK    7  A    between atoms: C15_16  and  O2_17 
ROOT
HETATM    1  C5  UNL     1      -3.292  51.074 -24.168  1.00  0.00     0.058 C 
HETATM    2  C6  UNL     1      -1.997  51.802 -23.654  1.00  0.00     0.024 C 
HETATM    3  C16 UNL     1      -0.825  51.779 -24.707  1.00  0.00     0.003 C 
HETATM    4  C17 UNL     1      -0.438  53.209 -25.130  1.00  0.00     0.041 C 
HETATM    5  C18 UNL     1       0.654  53.216 -26.155  1.00  0.00     0.157 A 
HETATM    6  O3  UNL     1       0.180  53.085 -27.506  1.00  0.00    -0.370 OA
HETATM    7  C19 UNL     1       0.958  51.994 -27.001  1.00  0.00     0.084 A 
HETATM    8  C20 UNL     1       2.299  51.868 -27.651  1.00  0.00     0.049 C 
HETATM    9  C21 UNL     1       0.186  50.723 -26.772  1.00  0.00     0.048 C 
HETATM   10  C22 UNL     1      -1.111  50.937 -25.976  1.00  0.00     0.025 C 
HETATM   11  C23 UNL     1      -1.759  49.628 -25.611  1.00  0.00     0.162 A 
HETATM   12  O4  UNL     1      -3.100  49.492 -26.088  1.00  0.00    -0.368 OA
HETATM   13  C24 UNL     1      -2.940  49.676 -24.666  1.00  0.00     0.092 A 
HETATM   14  C25 UNL     1      -3.317  48.459 -23.887  1.00  0.00     0.049 C 
ENDROOT
BRANCH   2  15
HETATM   15  C7  UNL     1      -1.495  51.375 -22.280  1.00  0.00    -0.021 C 
HETATM   16  C8  UNL     1      -0.410  51.848 -21.642  1.00  0.00    -0.003 C 
BRANCH  16  17
HETATM   17  C9  UNL     1      -0.054  51.450 -20.297  1.00  0.00     0.010 C 
HETATM   18  C10 UNL     1       0.175  52.279 -19.262  1.00  0.00    -0.016 C 
HETATM   19  C11 UNL     1       0.087  53.772 -19.242  1.00  0.00     0.052 C 
BRANCH  18  20
HETATM   20  C12 UNL     1       0.448  51.592 -17.958  1.00  0.00     0.161 C 
HETATM   21  O1  UNL     1       0.154  50.400 -17.844  1.00  0.00    -0.292 OA
BRANCH  20  22
HETATM   22  C13 UNL     1       1.074  52.359 -16.794  1.00  0.00     0.080 C 
HETATM   23  C14 UNL     1       2.585  52.467 -16.972  1.00  0.00     0.020 C 
BRANCH  22  24
HETATM   24  C15 UNL     1       0.699  51.788 -15.426  1.00  0.00     0.176 C 
BRANCH  24  25
HETATM   25  O2  UNL     1       0.764  52.793 -14.417  1.00  0.00    -0.400 OA
HETATM   26  H22 UNL     1       0.139  53.506 -14.639  1.00  0.00     0.209 HD
ENDBRANCH  24  25
ENDBRANCH  22  24
ENDBRANCH  20  22
ENDBRANCH  18  20
ENDBRANCH  16  17
ENDBRANCH   2  15
BRANCH   1  27
HETATM   27  C3  UNL     1      -4.574  51.211 -23.327  1.00  0.00    -0.080 C 
HETATM   28  C2  UNL     1      -5.574  50.322 -23.509  1.00  0.00    -0.028 C 
HETATM   29  C1  UNL     1      -6.907  50.281 -22.830  1.00  0.00     0.036 C 
HETATM   30  C4  UNL     1      -4.664  52.315 -22.308  1.00  0.00     0.043 C 
ENDBRANCH   1  27
TORSDOF 7
ENDMDL
MODEL 6
REMARK minimizedAffinity -8.43487167
REMARK  7 active torsions:
REMARK  status: ('A' for Active; 'I' for Inactive)
REMARK    1  A    between atoms: C3_3  and  C5_5 
REMARK    2  A    between atoms: C6_6  and  C7_7 
REMARK    3  A    between atoms: C8_8  and  C9_9 
REMARK    4  A    between atoms: C10_10  and  C12_12 
REMARK    5  A    between atoms: C12_12  and  C13_14 
REMARK    6  A    between atoms: C13_14  and  C15_16 
REMARK    7  A    between atoms: C15_16  and  O2_17 
ROOT
HETATM    1  C5  UNL     1      -3.030  49.601 -23.988  1.00  0.00     0.058 C 
HETATM    2  C6  UNL     1      -2.530  49.227 -25.431  1.00  0.00     0.024 C 
HETATM    3  C16 UNL     1      -1.936  50.462 -26.211  1.00  0.00     0.003 C 
HETATM    4  C17 UNL     1      -0.452  50.231 -26.554  1.00  0.00     0.041 C 
HETATM    5  C18 UNL     1       0.148  51.403 -27.269  1.00  0.00     0.157 A 
HETATM    6  O3  UNL     1       0.646  52.425 -26.388  1.00  0.00    -0.370 OA
HETATM    7  C19 UNL     1      -0.479  52.782 -27.198  1.00  0.00     0.084 A 
HETATM    8  C20 UNL     1      -0.154  53.789 -28.255  1.00  0.00     0.049 C 
HETATM    9  C21 UNL     1      -1.765  52.975 -26.441  1.00  0.00     0.048 C 
HETATM   10  C22 UNL     1      -2.080  51.819 -25.478  1.00  0.00     0.025 C 
HETATM   11  C23 UNL     1      -3.454  51.957 -24.878  1.00  0.00     0.162 A 
HETATM   12  O4  UNL     1      -3.460  51.998 -23.449  1.00  0.00    -0.368 OA
HETATM   13  C24 UNL     1      -3.974  50.797 -24.059  1.00  0.00     0.092 A 
HETATM   14  C25 UNL     1      -5.445  50.635 -23.852  1.00  0.00     0.049 C 
ENDROOT
BRANCH   2  15
HETATM   15  C7  UNL     1      -3.522  48.467 -26.303  1.00  0.00    -0.021 C 
HETATM   16  C8  UNL     1      -4.160  48.940 -27.388  1.00  0.00    -0.003 C 
BRANCH  16  17
HETATM   17  C9  UNL     1      -5.021  48.120 -28.213  1.00  0.00     0.010 C 
HETATM   18  C10 UNL     1      -6.164  47.528 -27.818  1.00  0.00    -0.016 C 
HETATM   19  C11 UNL     1      -6.820  47.598 -26.476  1.00  0.00     0.052 C 
BRANCH  18  20
HETATM   20  C12 UNL     1      -6.900  46.802 -28.903  1.00  0.00     0.161 C 
HETATM   21  O1  UNL     1      -6.810  45.574 -28.961  1.00  0.00    -0.292 OA
BRANCH  20  22
HETATM   22  C13 UNL     1      -7.740  47.574 -29.920  1.00  0.00     0.080 C 
HETATM   23  C14 UNL     1      -6.854  48.159 -31.015  1.00  0.00     0.020 C 
BRANCH  22  24
HETATM   24  C15 UNL     1      -8.634  48.636 -29.280  1.00  0.00     0.176 C 
BRANCH  24  25
HETATM   25  O2  UNL     1      -8.637  49.835 -30.052  1.00  0.00    -0.400 OA
HETATM   26  H22 UNL     1      -8.977  49.637 -30.942  1.00  0.00     0.209 HD
ENDBRANCH  24  25
ENDBRANCH  22  24
ENDBRANCH  20  22
ENDBRANCH  18  20
ENDBRANCH  16  17
ENDBRANCH   2  15
BRANCH   1  27
HETATM   27  C3  UNL     1      -3.432  48.450 -23.048  1.00  0.00    -0.080 C 
HETATM   28  C2  UNL     1      -2.508  47.944 -22.202  1.00  0.00    -0.028 C 
HETATM   29  C1  UNL     1      -2.666  46.817 -21.230  1.00  0.00     0.036 C 
HETATM   30  C4  UNL     1      -4.848  47.943 -23.077  1.00  0.00     0.043 C 
ENDBRANCH   1  27
TORSDOF 7
ENDMDL
MODEL 7
REMARK minimizedAffinity -8.40450478
REMARK  7 active torsions:
REMARK  status: ('A' for Active; 'I' for Inactive)
REMARK    1  A    between atoms: C3_3  and  C5_5 
REMARK    2  A    between atoms: C6_6  and  C7_7 
REMARK    3  A    between atoms: C8_8  and  C9_9 
REMARK    4  A    between atoms: C10_10  and  C12_12 
REMARK    5  A    between atoms: C12_12  and  C13_14 
REMARK    6  A    between atoms: C13_14  and  C15_16 
REMARK    7  A    between atoms: C15_16  and  O2_17 
ROOT
HETATM    1  C5  UNL     1      -2.833  50.364 -20.466  1.00  0.00     0.058 C 
HETATM    2  C6  UNL     1      -3.611  51.005 -21.672  1.00  0.00     0.024 C 
HETATM    3  C16 UNL     1      -4.609  49.998 -22.361  1.00  0.00     0.003 C 
HETATM    4  C17 UNL     1      -6.060  50.503 -22.254  1.00  0.00     0.041 C 
HETATM    5  C18 UNL     1      -7.035  49.548 -22.874  1.00  0.00     0.157 A 
HETATM    6  O3  UNL     1      -7.469  48.507 -21.983  1.00  0.00    -0.370 OA
HETATM    7  C19 UNL     1      -6.682  48.092 -23.104  1.00  0.00     0.084 A 
HETATM    8  C20 UNL     1      -7.453  47.303 -24.114  1.00  0.00     0.049 C 
HETATM    9  C21 UNL     1      -5.303  47.597 -22.758  1.00  0.00     0.048 C 
HETATM   10  C22 UNL     1      -4.538  48.547 -21.822  1.00  0.00     0.025 C 
HETATM   11  C23 UNL     1      -3.106  48.114 -21.645  1.00  0.00     0.162 A 
HETATM   12  O4  UNL     1      -2.737  47.878 -20.284  1.00  0.00    -0.368 OA
HETATM   13  C24 UNL     1      -2.182  49.056 -20.904  1.00  0.00     0.092 A 
HETATM   14  C25 UNL     1      -0.705  48.955 -21.103  1.00  0.00     0.049 C 
ENDROOT
BRANCH   2  15
HETATM   15  C7  UNL     1      -2.754  51.713 -22.715  1.00  0.00    -0.021 C 
HETATM   16  C8  UNL     1      -2.122  51.139 -23.753  1.00  0.00    -0.003 C 
BRANCH  16  17
HETATM   17  C9  UNL     1      -1.400  51.899 -24.751  1.00  0.00     0.010 C 
HETATM   18  C10 UNL     1      -0.195  52.476 -24.586  1.00  0.00    -0.016 C 
HETATM   19  C11 UNL     1       0.681  52.444 -23.374  1.00  0.00     0.052 C 
BRANCH  18  20
HETATM   20  C12 UNL     1       0.357  53.135 -25.814  1.00  0.00     0.161 C 
HETATM   21  O1  UNL     1       0.252  54.358 -25.928  1.00  0.00    -0.292 OA
BRANCH  20  22
HETATM   22  C13 UNL     1       1.031  52.302 -26.903  1.00  0.00     0.080 C 
HETATM   23  C14 UNL     1      -0.003  51.489 -27.675  1.00  0.00     0.020 C 
BRANCH  22  24
HETATM   24  C15 UNL     1       2.168  51.427 -26.375  1.00  0.00     0.176 C 
BRANCH  24  25
HETATM   25  O2  UNL     1       3.295  51.470 -27.249  1.00  0.00    -0.400 OA
HETATM   26  H22 UNL     1       3.612  52.388 -27.312  1.00  0.00     0.209 HD
ENDBRANCH  24  25
ENDBRANCH  22  24
ENDBRANCH  20  22
ENDBRANCH  18  20
ENDBRANCH  16  17
ENDBRANCH   2  15
BRANCH   1  27
HETATM   27  C3  UNL     1      -1.992  51.297 -19.577  1.00  0.00    -0.080 C 
HETATM   28  C2  UNL     1      -1.021  52.044 -20.147  1.00  0.00    -0.028 C 
HETATM   29  C1  UNL     1      -0.072  52.988 -19.479  1.00  0.00     0.036 C 
HETATM   30  C4  UNL     1      -2.295  51.372 -18.105  1.00  0.00     0.043 C 
ENDBRANCH   1  27
TORSDOF 7
ENDMDL
MODEL 8
REMARK minimizedAffinity -7.90699625
REMARK  7 active torsions:
REMARK  status: ('A' for Active; 'I' for Inactive)
REMARK    1  A    between atoms: C3_3  and  C5_5 
REMARK    2  A    between atoms: C6_6  and  C7_7 
REMARK    3  A    between atoms: C8_8  and  C9_9 
REMARK    4  A    between atoms: C10_10  and  C12_12 
REMARK    5  A    between atoms: C12_12  and  C13_14 
REMARK    6  A    between atoms: C13_14  and  C15_16 
REMARK    7  A    between atoms: C15_16  and  O2_17 
ROOT
HETATM    1  C5  UNL     1      -3.061  49.588 -24.036  1.00  0.00     0.058 C 
HETATM    2  C6  UNL     1      -2.501  49.193 -25.450  1.00  0.00     0.024 C 
HETATM    3  C16 UNL     1      -1.907  50.424 -26.237  1.00  0.00     0.003 C 
HETATM    4  C17 UNL     1      -0.407  50.221 -26.523  1.00  0.00     0.041 C 
HETATM    5  C18 UNL     1       0.191  51.391 -27.243  1.00  0.00     0.157 A 
HETATM    6  O3  UNL     1       0.632  52.444 -26.369  1.00  0.00    -0.370 OA
HETATM    7  C19 UNL     1      -0.471  52.756 -27.227  1.00  0.00     0.084 A 
HETATM    8  C20 UNL     1      -0.132  53.746 -28.296  1.00  0.00     0.049 C 
HETATM    9  C21 UNL     1      -1.788  52.935 -26.522  1.00  0.00     0.048 C 
HETATM   10  C22 UNL     1      -2.110  51.793 -25.543  1.00  0.00     0.025 C 
HETATM   11  C23 UNL     1      -3.507  51.912 -24.996  1.00  0.00     0.162 A 
HETATM   12  O4  UNL     1      -3.566  51.986 -23.569  1.00  0.00    -0.368 OA
HETATM   13  C24 UNL     1      -4.030  50.758 -24.169  1.00  0.00     0.092 A 
HETATM   14  C25 UNL     1      -5.503  50.566 -24.010  1.00  0.00     0.049 C 
ENDROOT
BRANCH   2  15
HETATM   15  C7  UNL     1      -3.443  48.389 -26.339  1.00  0.00    -0.021 C 
HETATM   16  C8  UNL     1      -4.279  48.882 -27.269  1.00  0.00    -0.003 C 
BRANCH  16  17
HETATM   17  C9  UNL     1      -5.077  48.038 -28.133  1.00  0.00     0.010 C 
HETATM   18  C10 UNL     1      -6.258  47.476 -27.817  1.00  0.00    -0.016 C 
HETATM   19  C11 UNL     1      -7.029  47.609 -26.541  1.00  0.00     0.052 C 
BRANCH  18  20
HETATM   20  C12 UNL     1      -6.908  46.714 -28.933  1.00  0.00     0.161 C 
HETATM   21  O1  UNL     1      -7.018  47.256 -30.034  1.00  0.00    -0.292 OA
BRANCH  20  22
HETATM   22  C13 UNL     1      -7.426  45.295 -28.703  1.00  0.00     0.080 C 
HETATM   23  C14 UNL     1      -7.025  44.383 -29.858  1.00  0.00     0.020 C 
BRANCH  22  24
HETATM   24  C15 UNL     1      -8.928  45.240 -28.426  1.00  0.00     0.176 C 
BRANCH  24  25
HETATM   25  O2  UNL     1      -9.644  44.793 -29.576  1.00  0.00    -0.400 OA
HETATM   26  H22 UNL     1      -9.338  43.899 -29.811  1.00  0.00     0.209 HD
ENDBRANCH  24  25
ENDBRANCH  22  24
ENDBRANCH  20  22
ENDBRANCH  18  20
ENDBRANCH  16  17
ENDBRANCH   2  15
BRANCH   1  27
HETATM   27  C3  UNL     1      -3.469  48.450 -23.083  1.00  0.00    -0.080 C 
HETATM   28  C2  UNL     1      -2.559  47.972 -22.206  1.00  0.00    -0.028 C 
HETATM   29  C1  UNL     1      -2.725  46.862 -21.217  1.00  0.00     0.036 C 
HETATM   30  C4  UNL     1      -4.878  47.923 -23.136  1.00  0.00     0.043 C 
ENDBRANCH   1  27
TORSDOF 7
ENDMDL
MODEL 9
REMARK minimizedAffinity -7.84027338
REMARK  7 active torsions:
REMARK  status: ('A' for Active; 'I' for Inactive)
REMARK    1  A    between atoms: C3_3  and  C5_5 
REMARK    2  A    between atoms: C6_6  and  C7_7 
REMARK    3  A    between atoms: C8_8  and  C9_9 
REMARK    4  A    between atoms: C10_10  and  C12_12 
REMARK    5  A    between atoms: C12_12  and  C13_14 
REMARK    6  A    between atoms: C13_14  and  C15_16 
REMARK    7  A    between atoms: C15_16  and  O2_17 
ROOT
HETATM    1  C5  UNL     1      -4.473  49.099 -22.366  1.00  0.00     0.058 C 
HETATM    2  C6  UNL     1      -2.902  49.059 -22.378  1.00  0.00     0.024 C 
HETATM    3  C16 UNL     1      -2.267  49.601 -21.040  1.00  0.00     0.003 C 
HETATM    4  C17 UNL     1      -1.447  48.503 -20.337  1.00  0.00     0.041 C 
HETATM    5  C18 UNL     1      -0.858  48.982 -19.046  1.00  0.00     0.157 A 
HETATM    6  O3  UNL     1      -1.746  48.856 -17.923  1.00  0.00    -0.370 OA
HETATM    7  C19 UNL     1      -1.414  50.191 -18.319  1.00  0.00     0.084 A 
HETATM    8  C20 UNL     1      -0.555  50.909 -17.328  1.00  0.00     0.049 C 
HETATM    9  C21 UNL     1      -2.549  50.968 -18.929  1.00  0.00     0.048 C 
HETATM   10  C22 UNL     1      -3.286  50.193 -20.035  1.00  0.00     0.025 C 
HETATM   11  C23 UNL     1      -4.290  51.063 -20.743  1.00  0.00     0.162 A 
HETATM   12  O4  UNL     1      -5.627  50.556 -20.702  1.00  0.00    -0.368 OA
HETATM   13  C24 UNL     1      -4.955  50.493 -21.977  1.00  0.00     0.092 A 
HETATM   14  C25 UNL     1      -5.559  51.413 -22.987  1.00  0.00     0.049 C 
ENDROOT
BRANCH   2  15
HETATM   15  C7  UNL     1      -2.229  49.694 -23.589  1.00  0.00    -0.021 C 
HETATM   16  C8  UNL     1      -1.312  50.677 -23.570  1.00  0.00    -0.003 C 
BRANCH  16  17
HETATM   17  C9  UNL     1      -0.657  51.162 -24.766  1.00  0.00     0.010 C 
HETATM   18  C10 UNL     1       0.089  52.279 -24.862  1.00  0.00    -0.016 C 
HETATM   19  C11 UNL     1       0.439  53.246 -23.776  1.00  0.00     0.052 C 
BRANCH  18  20
HETATM   20  C12 UNL     1       0.716  52.500 -26.205  1.00  0.00     0.161 C 
HETATM   21  O1  UNL     1       1.917  52.255 -26.345  1.00  0.00    -0.292 OA
BRANCH  20  22
HETATM   22  C13 UNL     1      -0.117  53.025 -27.373  1.00  0.00     0.080 C 
HETATM   23  C14 UNL     1      -0.025  54.545 -27.458  1.00  0.00     0.020 C 
BRANCH  22  24
HETATM   24  C15 UNL     1      -1.567  52.541 -27.342  1.00  0.00     0.176 C 
BRANCH  24  25
HETATM   25  O2  UNL     1      -1.757  51.439 -28.227  1.00  0.00    -0.400 OA
HETATM   26  H22 UNL     1      -1.179  50.707 -27.950  1.00  0.00     0.209 HD
ENDBRANCH  24  25
ENDBRANCH  22  24
ENDBRANCH  20  22
ENDBRANCH  18  20
ENDBRANCH  16  17
ENDBRANCH   2  15
BRANCH   1  27
HETATM   27  C3  UNL     1      -5.217  48.401 -23.519  1.00  0.00    -0.080 C 
HETATM   28  C2  UNL     1      -6.357  47.729 -23.250  1.00  0.00    -0.028 C 
HETATM   29  C1  UNL     1      -7.221  46.959 -24.199  1.00  0.00     0.036 C 
HETATM   30  C4  UNL     1      -4.668  48.512 -24.916  1.00  0.00     0.043 C 
ENDBRANCH   1  27
TORSDOF 7
ENDMDL
