MODEL 1
REMARK minimizedAffinity -8.31113911
REMARK CNNscore 0.422646224
REMARK CNNaffinity 7.14546013
REMARK  6 active torsions:
REMARK  status: ('A' for Active; 'I' for Inactive)
REMARK    1  A    between atoms: C2_2  and  C30_31 
REMARK    2  A    between atoms: C3_3  and  C4_4 
REMARK    3  A    between atoms: C4_4  and  C5_5 
REMARK    4  A    between atoms: C5_5  and  C6_6 
REMARK    5  A    between atoms: C6_6  and  C8_8 
REMARK    6  A    between atoms: C30_31  and  O3_33 
ROOT
HETATM    1  C8  UNL     1      -0.402  50.701 -17.380  1.00  0.00    -0.002 C 
HETATM    2  C9  UNL     1      -1.910  50.425 -17.465  1.00  0.00     0.007 C 
HETATM    3  C10 UNL     1      -2.428  50.872 -16.115  1.00  0.00     0.015 C 
HETATM    4  C11 UNL     1      -1.420  50.297 -15.080  1.00  0.00    -0.013 C 
HETATM    5  C12 UNL     1      -1.972  48.929 -14.581  1.00  0.00     0.021 C 
HETATM    6  C13 UNL     1      -1.379  51.222 -13.837  1.00  0.00    -0.070 C 
HETATM    7  C14 UNL     1      -2.514  51.561 -13.185  1.00  0.00    -0.022 C 
HETATM    8  C15 UNL     1      -2.584  52.360 -11.921  1.00  0.00     0.034 C 
HETATM    9  C16 UNL     1      -1.260  53.043 -11.530  1.00  0.00     0.013 C 
HETATM   10  C17 UNL     1      -1.281  53.781 -10.137  1.00  0.00     0.018 C 
HETATM   11  C18 UNL     1      -1.373  55.304 -10.373  1.00  0.00     0.023 C 
HETATM   12  C19 UNL     1      -2.481  53.379  -9.250  1.00  0.00     0.023 C 
HETATM   13  C20 UNL     1      -0.006  53.558  -9.309  1.00  0.00     0.135 C 
HETATM   14  O1  UNL     1      -0.022  53.614  -8.075  1.00  0.00    -0.297 OA
HETATM   15  C21 UNL     1       1.319  53.367 -10.002  1.00  0.00     0.080 C 
HETATM   16  C22 UNL     1       1.226  52.909 -11.444  1.00  0.00     0.017 C 
HETATM   17  C23 UNL     1      -0.045  52.089 -11.776  1.00  0.00    -0.031 C 
HETATM   18  C24 UNL     1      -0.107  50.812 -10.908  1.00  0.00     0.016 C 
HETATM   19  C25 UNL     1      -0.040  51.714 -13.311  1.00  0.00     0.024 C 
HETATM   20  C26 UNL     1       1.071  50.741 -13.719  1.00  0.00     0.010 C 
HETATM   21  C27 UNL     1       1.177  50.759 -15.239  1.00  0.00     0.011 C 
HETATM   22  C28 UNL     1      -0.057  50.131 -15.930  1.00  0.00    -0.029 C 
HETATM   23  C29 UNL     1       0.335  48.634 -16.152  1.00  0.00     0.016 C 
ENDROOT
BRANCH   1  24
HETATM   24  C6  UNL     1       0.006  52.189 -17.663  1.00  0.00    -0.014 C 
HETATM   25  C7  UNL     1       1.525  52.349 -17.446  1.00  0.00     0.010 C 
BRANCH  24  26
HETATM   26  C5  UNL     1      -0.362  52.689 -19.084  1.00  0.00     0.008 C 
BRANCH  26  27
HETATM   27  C4  UNL     1       0.807  52.679 -20.077  1.00  0.00     0.028 C 
BRANCH  27  28
HETATM   28  C3  UNL     1       0.317  52.453 -21.483  1.00  0.00    -0.013 C 
HETATM   29  C2  UNL     1       0.595  53.167 -22.592  1.00  0.00     0.008 C 
HETATM   30  C1  UNL     1       0.028  52.779 -23.929  1.00  0.00     0.055 C 
BRANCH  29  31
HETATM   31  C30 UNL     1       1.424  54.397 -22.551  1.00  0.00     0.171 C 
HETATM   32  O2  UNL     1       1.978  54.889 -21.586  1.00  0.00    -0.646 OA
BRANCH  31  33
HETATM   33  O3  UNL     1       1.508  54.977 -23.760  1.00  0.00    -0.773 OA
HETATM   34  H46 UNL     1       2.071  55.762 -23.597  1.00  0.00     0.167 HD
ENDBRANCH  31  33
ENDBRANCH  29  31
ENDBRANCH  27  28
ENDBRANCH  26  27
ENDBRANCH  24  26
ENDBRANCH   1  24
TORSDOF 6
ENDMDL
MODEL 2
REMARK minimizedAffinity -7.14583015
REMARK CNNscore 0.358327448
REMARK CNNaffinity 6.35790443
REMARK  6 active torsions:
REMARK  status: ('A' for Active; 'I' for Inactive)
REMARK    1  A    between atoms: C2_2  and  C30_31 
REMARK    2  A    between atoms: C3_3  and  C4_4 
REMARK    3  A    between atoms: C4_4  and  C5_5 
REMARK    4  A    between atoms: C5_5  and  C6_6 
REMARK    5  A    between atoms: C6_6  and  C8_8 
REMARK    6  A    between atoms: C30_31  and  O3_33 
ROOT
HETATM    1  C8  UNL     1       2.589  54.105 -10.550  1.00  0.00    -0.002 C 
HETATM    2  C9  UNL     1       3.461  52.846 -10.451  1.00  0.00     0.007 C 
HETATM    3  C10 UNL     1       4.156  53.001  -9.115  1.00  0.00     0.015 C 
HETATM    4  C11 UNL     1       4.627  54.481  -9.070  1.00  0.00    -0.013 C 
HETATM    5  C12 UNL     1       6.098  54.532  -9.580  1.00  0.00     0.021 C 
HETATM    6  C13 UNL     1       4.668  54.961  -7.597  1.00  0.00    -0.070 C 
HETATM    7  C14 UNL     1       5.350  54.267  -6.658  1.00  0.00    -0.022 C 
HETATM    8  C15 UNL     1       5.541  54.687  -5.234  1.00  0.00     0.034 C 
HETATM    9  C16 UNL     1       4.652  55.867  -4.798  1.00  0.00     0.013 C 
HETATM   10  C17 UNL     1       4.931  56.406  -3.344  1.00  0.00     0.018 C 
HETATM   11  C18 UNL     1       3.814  55.914  -2.398  1.00  0.00     0.023 C 
HETATM   12  C19 UNL     1       6.276  55.919  -2.759  1.00  0.00     0.023 C 
HETATM   13  C20 UNL     1       4.921  57.939  -3.248  1.00  0.00     0.135 C 
HETATM   14  O1  UNL     1       5.573  58.535  -2.384  1.00  0.00    -0.297 OA
HETATM   15  C21 UNL     1       4.024  58.744  -4.153  1.00  0.00     0.080 C 
HETATM   16  C22 UNL     1       3.583  58.030  -5.416  1.00  0.00     0.017 C 
HETATM   17  C23 UNL     1       4.572  56.952  -5.922  1.00  0.00    -0.031 C 
HETATM   18  C24 UNL     1       5.947  57.583  -6.237  1.00  0.00     0.016 C 
HETATM   19  C25 UNL     1       3.975  56.257  -7.210  1.00  0.00     0.024 C 
HETATM   20  C26 UNL     1       3.869  57.178  -8.431  1.00  0.00     0.010 C 
HETATM   21  C27 UNL     1       2.965  56.500  -9.453  1.00  0.00     0.011 C 
HETATM   22  C28 UNL     1       3.608  55.235 -10.071  1.00  0.00    -0.029 C 
HETATM   23  C29 UNL     1       4.309  55.744 -11.372  1.00  0.00     0.016 C 
ENDROOT
BRANCH   1  24
HETATM   24  C6  UNL     1       1.225  54.018  -9.778  1.00  0.00    -0.014 C 
HETATM   25  C7  UNL     1       0.756  55.441  -9.416  1.00  0.00     0.010 C 
BRANCH  24  26
HETATM   26  C5  UNL     1       0.100  53.291 -10.557  1.00  0.00     0.008 C 
BRANCH  26  27
HETATM   27  C4  UNL     1      -1.244  54.029 -10.556  1.00  0.00     0.028 C 
BRANCH  27  28
HETATM   28  C3  UNL     1      -2.368  53.102 -10.172  1.00  0.00    -0.013 C 
HETATM   29  C2  UNL     1      -3.245  52.470 -10.977  1.00  0.00     0.008 C 
HETATM   30  C1  UNL     1      -4.297  51.556 -10.415  1.00  0.00     0.055 C 
BRANCH  29  31
HETATM   31  C30 UNL     1      -3.258  52.677 -12.446  1.00  0.00     0.171 C 
HETATM   32  O2  UNL     1      -2.589  52.104 -13.285  1.00  0.00    -0.646 OA
BRANCH  31  33
HETATM   33  O3  UNL     1      -4.128  53.637 -12.802  1.00  0.00    -0.773 OA
HETATM   34  H46 UNL     1      -4.040  53.674 -13.777  1.00  0.00     0.167 HD
ENDBRANCH  31  33
ENDBRANCH  29  31
ENDBRANCH  27  28
ENDBRANCH  26  27
ENDBRANCH  24  26
ENDBRANCH   1  24
TORSDOF 6
ENDMDL
MODEL 3
REMARK minimizedAffinity -6.93749046
REMARK CNNscore 0.35609445
REMARK CNNaffinity 6.26183891
REMARK  6 active torsions:
REMARK  status: ('A' for Active; 'I' for Inactive)
REMARK    1  A    between atoms: C2_2  and  C30_31 
REMARK    2  A    between atoms: C3_3  and  C4_4 
REMARK    3  A    between atoms: C4_4  and  C5_5 
REMARK    4  A    between atoms: C5_5  and  C6_6 
REMARK    5  A    between atoms: C6_6  and  C8_8 
REMARK    6  A    between atoms: C30_31  and  O3_33 
ROOT
HETATM    1  C8  UNL     1      -8.368  46.405 -19.268  1.00  0.00    -0.002 C 
HETATM    2  C9  UNL     1      -7.555  45.286 -18.603  1.00  0.00     0.007 C 
HETATM    3  C10 UNL     1      -6.122  45.750 -18.757  1.00  0.00     0.015 C 
HETATM    4  C11 UNL     1      -6.011  46.253 -20.223  1.00  0.00    -0.013 C 
HETATM    5  C12 UNL     1      -5.481  45.077 -21.095  1.00  0.00     0.021 C 
HETATM    6  C13 UNL     1      -4.935  47.366 -20.304  1.00  0.00    -0.070 C 
HETATM    7  C14 UNL     1      -3.687  47.161 -19.827  1.00  0.00    -0.022 C 
HETATM    8  C15 UNL     1      -2.545  48.122 -19.942  1.00  0.00     0.034 C 
HETATM    9  C16 UNL     1      -2.950  49.533 -20.407  1.00  0.00     0.013 C 
HETATM   10  C17 UNL     1      -1.746  50.520 -20.657  1.00  0.00     0.018 C 
HETATM   11  C18 UNL     1      -1.657  51.517 -19.482  1.00  0.00     0.023 C 
HETATM   12  C19 UNL     1      -0.380  49.805 -20.758  1.00  0.00     0.023 C 
HETATM   13  C20 UNL     1      -1.909  51.373 -21.924  1.00  0.00     0.135 C 
HETATM   14  O1  UNL     1      -0.929  51.805 -22.540  1.00  0.00    -0.297 OA
HETATM   15  C21 UNL     1      -3.284  51.786 -22.383  1.00  0.00     0.080 C 
HETATM   16  C22 UNL     1      -4.418  50.923 -21.862  1.00  0.00     0.017 C 
HETATM   17  C23 UNL     1      -4.018  49.462 -21.547  1.00  0.00    -0.031 C 
HETATM   18  C24 UNL     1      -3.485  48.760 -22.817  1.00  0.00     0.016 C 
HETATM   19  C25 UNL     1      -5.272  48.688 -20.974  1.00  0.00     0.024 C 
HETATM   20  C26 UNL     1      -6.406  48.488 -21.985  1.00  0.00     0.010 C 
HETATM   21  C27 UNL     1      -7.653  48.071 -21.215  1.00  0.00     0.011 C 
HETATM   22  C28 UNL     1      -7.529  46.656 -20.602  1.00  0.00    -0.029 C 
HETATM   23  C29 UNL     1      -8.154  45.705 -21.674  1.00  0.00     0.016 C 
ENDROOT
BRANCH   1  24
HETATM   24  C6  UNL     1      -8.626  47.655 -18.357  1.00  0.00    -0.014 C 
HETATM   25  C7  UNL     1      -7.323  48.471 -18.233  1.00  0.00     0.010 C 
BRANCH  24  26
HETATM   26  C5  UNL     1      -9.764  48.582 -18.858  1.00  0.00     0.008 C 
BRANCH  26  27
HETATM   27  C4  UNL     1     -10.889  47.851 -19.601  1.00  0.00     0.028 C 
BRANCH  27  28
HETATM   28  C3  UNL     1     -12.064  47.606 -18.692  1.00  0.00    -0.013 C 
HETATM   29  C2  UNL     1     -13.365  47.885 -18.910  1.00  0.00     0.008 C 
HETATM   30  C1  UNL     1     -14.415  47.548 -17.889  1.00  0.00     0.055 C 
BRANCH  29  31
HETATM   31  C30 UNL     1     -13.827  48.582 -20.135  1.00  0.00     0.171 C 
HETATM   32  O2  UNL     1     -14.226  48.083 -21.171  1.00  0.00    -0.646 OA
BRANCH  31  33
HETATM   33  O3  UNL     1     -13.750  49.917 -20.003  1.00  0.00    -0.773 OA
HETATM   34  H46 UNL     1     -14.077  50.251 -20.864  1.00  0.00     0.167 HD
ENDBRANCH  31  33
ENDBRANCH  29  31
ENDBRANCH  27  28
ENDBRANCH  26  27
ENDBRANCH  24  26
ENDBRANCH   1  24
TORSDOF 6
ENDMDL
MODEL 4
REMARK minimizedAffinity -6.92449856
REMARK CNNscore 0.346349537
REMARK CNNaffinity 6.79369545
REMARK  6 active torsions:
REMARK  status: ('A' for Active; 'I' for Inactive)
REMARK    1  A    between atoms: C2_2  and  C30_31 
REMARK    2  A    between atoms: C3_3  and  C4_4 
REMARK    3  A    between atoms: C4_4  and  C5_5 
REMARK    4  A    between atoms: C5_5  and  C6_6 
REMARK    5  A    between atoms: C6_6  and  C8_8 
REMARK    6  A    between atoms: C30_31  and  O3_33 
ROOT
HETATM    1  C8  UNL     1       1.356  49.726 -14.970  1.00  0.00    -0.002 C 
HETATM    2  C9  UNL     1       0.218  48.791 -14.538  1.00  0.00     0.007 C 
HETATM    3  C10 UNL     1      -0.272  49.403 -13.243  1.00  0.00     0.015 C 
HETATM    4  C11 UNL     1       1.015  49.754 -12.445  1.00  0.00    -0.013 C 
HETATM    5  C12 UNL     1       1.330  48.562 -11.493  1.00  0.00     0.021 C 
HETATM    6  C13 UNL     1       0.733  50.972 -11.529  1.00  0.00    -0.070 C 
HETATM    7  C14 UNL     1      -0.313  50.970 -10.672  1.00  0.00    -0.022 C 
HETATM    8  C15 UNL     1      -0.621  52.043  -9.674  1.00  0.00     0.034 C 
HETATM    9  C16 UNL     1       0.192  53.337  -9.866  1.00  0.00     0.013 C 
HETATM   10  C17 UNL     1      -0.025  54.427  -8.748  1.00  0.00     0.018 C 
HETATM   11  C18 UNL     1      -0.928  55.549  -9.303  1.00  0.00     0.023 C 
HETATM   12  C19 UNL     1      -0.709  53.873  -7.477  1.00  0.00     0.023 C 
HETATM   13  C20 UNL     1       1.276  55.113  -8.303  1.00  0.00     0.135 C 
HETATM   14  O1  UNL     1       1.398  55.590  -7.170  1.00  0.00    -0.297 OA
HETATM   15  C21 UNL     1       2.400  55.307  -9.289  1.00  0.00     0.080 C 
HETATM   16  C22 UNL     1       2.368  54.377 -10.486  1.00  0.00     0.017 C 
HETATM   17  C23 UNL     1       1.680  53.016 -10.222  1.00  0.00    -0.031 C 
HETATM   18  C24 UNL     1       2.409  52.250  -9.095  1.00  0.00     0.016 C 
HETATM   19  C25 UNL     1       1.675  52.165 -11.555  1.00  0.00     0.024 C 
HETATM   20  C26 UNL     1       3.065  51.724 -12.026  1.00  0.00     0.010 C 
HETATM   21  C27 UNL     1       2.942  51.246 -13.468  1.00  0.00     0.011 C 
HETATM   22  C28 UNL     1       2.137  49.931 -13.594  1.00  0.00    -0.029 C 
HETATM   23  C29 UNL     1       3.219  48.802 -13.555  1.00  0.00     0.016 C 
ENDROOT
BRANCH   1  24
HETATM   24  C6  UNL     1       0.887  51.029 -15.708  1.00  0.00    -0.014 C 
HETATM   25  C7  UNL     1      -0.138  51.771 -14.827  1.00  0.00     0.010 C 
BRANCH  24  26
HETATM   26  C5  UNL     1       2.038  51.997 -16.080  1.00  0.00     0.008 C 
BRANCH  26  27
HETATM   27  C4  UNL     1       1.889  52.652 -17.459  1.00  0.00     0.028 C 
BRANCH  27  28
HETATM   28  C3  UNL     1       0.572  52.283 -18.091  1.00  0.00    -0.013 C 
HETATM   29  C2  UNL     1       0.205  52.386 -19.384  1.00  0.00     0.008 C 
HETATM   30  C1  UNL     1      -1.157  51.945 -19.842  1.00  0.00     0.055 C 
BRANCH  29  31
HETATM   31  C30 UNL     1       1.093  52.984 -20.411  1.00  0.00     0.171 C 
HETATM   32  O2  UNL     1       1.509  52.465 -21.429  1.00  0.00    -0.646 OA
BRANCH  31  33
HETATM   33  O3  UNL     1       1.440  54.243 -20.092  1.00  0.00    -0.773 OA
HETATM   34  H46 UNL     1       2.015  54.516 -20.836  1.00  0.00     0.167 HD
ENDBRANCH  31  33
ENDBRANCH  29  31
ENDBRANCH  27  28
ENDBRANCH  26  27
ENDBRANCH  24  26
ENDBRANCH   1  24
TORSDOF 6
ENDMDL
MODEL 5
REMARK minimizedAffinity -7.02027845
REMARK CNNscore 0.330647826
REMARK CNNaffinity 6.63454676
REMARK  6 active torsions:
REMARK  status: ('A' for Active; 'I' for Inactive)
REMARK    1  A    between atoms: C2_2  and  C30_31 
REMARK    2  A    between atoms: C3_3  and  C4_4 
REMARK    3  A    between atoms: C4_4  and  C5_5 
REMARK    4  A    between atoms: C5_5  and  C6_6 
REMARK    5  A    between atoms: C6_6  and  C8_8 
REMARK    6  A    between atoms: C30_31  and  O3_33 
ROOT
HETATM    1  C8  UNL     1      -2.527  50.937 -10.431  1.00  0.00    -0.002 C 
HETATM    2  C9  UNL     1      -3.449  52.115 -10.088  1.00  0.00     0.007 C 
HETATM    3  C10 UNL     1      -2.486  53.253  -9.823  1.00  0.00     0.015 C 
HETATM    4  C11 UNL     1      -1.366  52.642  -8.935  1.00  0.00    -0.013 C 
HETATM    5  C12 UNL     1      -1.733  52.911  -7.446  1.00  0.00     0.021 C 
HETATM    6  C13 UNL     1      -0.038  53.397  -9.194  1.00  0.00    -0.070 C 
HETATM    7  C14 UNL     1       0.026  54.744  -9.094  1.00  0.00    -0.022 C 
HETATM    8  C15 UNL     1       1.271  55.567  -9.222  1.00  0.00     0.034 C 
HETATM    9  C16 UNL     1       2.486  54.795  -9.769  1.00  0.00     0.013 C 
HETATM   10  C17 UNL     1       3.834  55.610  -9.788  1.00  0.00     0.018 C 
HETATM   11  C18 UNL     1       4.140  56.049 -11.236  1.00  0.00     0.023 C 
HETATM   12  C19 UNL     1       3.790  56.887  -8.920  1.00  0.00     0.023 C 
HETATM   13  C20 UNL     1       5.050  54.789  -9.330  1.00  0.00     0.135 C 
HETATM   14  O1  UNL     1       6.036  55.330  -8.817  1.00  0.00    -0.297 OA
HETATM   15  C21 UNL     1       5.102  53.307  -9.597  1.00  0.00     0.080 C 
HETATM   16  C22 UNL     1       3.755  52.653  -9.838  1.00  0.00     0.017 C 
HETATM   17  C23 UNL     1       2.565  53.362  -9.147  1.00  0.00    -0.031 C 
HETATM   18  C24 UNL     1       2.768  53.391  -7.614  1.00  0.00     0.016 C 
HETATM   19  C25 UNL     1       1.224  52.611  -9.513  1.00  0.00     0.024 C 
HETATM   20  C26 UNL     1       1.117  51.195  -8.937  1.00  0.00     0.010 C 
HETATM   21  C27 UNL     1      -0.023  50.481  -9.654  1.00  0.00     0.011 C 
HETATM   22  C28 UNL     1      -1.410  51.068  -9.299  1.00  0.00    -0.029 C 
HETATM   23  C29 UNL     1      -1.917  50.190  -8.109  1.00  0.00     0.016 C 
ENDROOT
BRANCH   1  24
HETATM   24  C6  UNL     1      -2.020  50.916 -11.916  1.00  0.00    -0.014 C 
HETATM   25  C7  UNL     1      -3.146  50.390 -12.829  1.00  0.00     0.010 C 
BRANCH  24  26
HETATM   26  C5  UNL     1      -1.536  52.291 -12.441  1.00  0.00     0.008 C 
BRANCH  26  27
HETATM   27  C4  UNL     1      -0.079  52.305 -12.919  1.00  0.00     0.028 C 
BRANCH  27  28
HETATM   28  C3  UNL     1       0.014  51.924 -14.374  1.00  0.00    -0.013 C 
HETATM   29  C2  UNL     1       1.079  51.445 -15.048  1.00  0.00     0.008 C 
HETATM   30  C1  UNL     1       0.981  51.096 -16.507  1.00  0.00     0.055 C 
BRANCH  29  31
HETATM   31  C30 UNL     1       2.409  51.286 -14.412  1.00  0.00     0.171 C 
HETATM   32  O2  UNL     1       2.886  50.277 -13.927  1.00  0.00    -0.646 OA
BRANCH  31  33
HETATM   33  O3  UNL     1       3.093  52.442 -14.401  1.00  0.00    -0.773 OA
HETATM   34  H46 UNL     1       3.936  52.204 -13.962  1.00  0.00     0.167 HD
ENDBRANCH  31  33
ENDBRANCH  29  31
ENDBRANCH  27  28
ENDBRANCH  26  27
ENDBRANCH  24  26
ENDBRANCH   1  24
TORSDOF 6
ENDMDL
MODEL 6
REMARK minimizedAffinity -8.02821541
REMARK CNNscore 0.308076322
REMARK CNNaffinity 5.84528494
REMARK  6 active torsions:
REMARK  status: ('A' for Active; 'I' for Inactive)
REMARK    1  A    between atoms: C2_2  and  C30_31 
REMARK    2  A    between atoms: C3_3  and  C4_4 
REMARK    3  A    between atoms: C4_4  and  C5_5 
REMARK    4  A    between atoms: C5_5  and  C6_6 
REMARK    5  A    between atoms: C6_6  and  C8_8 
REMARK    6  A    between atoms: C30_31  and  O3_33 
ROOT
HETATM    1  C8  UNL     1       6.506  63.407 -34.011  1.00  0.00    -0.002 C 
HETATM    2  C9  UNL     1       5.601  62.697 -35.028  1.00  0.00     0.007 C 
HETATM    3  C10 UNL     1       5.613  63.628 -36.222  1.00  0.00     0.015 C 
HETATM    4  C11 UNL     1       5.431  65.054 -35.631  1.00  0.00    -0.013 C 
HETATM    5  C12 UNL     1       3.913  65.399 -35.669  1.00  0.00     0.021 C 
HETATM    6  C13 UNL     1       6.128  66.085 -36.554  1.00  0.00    -0.070 C 
HETATM    7  C14 UNL     1       5.851  66.133 -37.876  1.00  0.00    -0.022 C 
HETATM    8  C15 UNL     1       6.386  67.146 -38.840  1.00  0.00     0.034 C 
HETATM    9  C16 UNL     1       7.535  68.006 -38.281  1.00  0.00     0.013 C 
HETATM   10  C17 UNL     1       8.021  69.162 -39.235  1.00  0.00     0.018 C 
HETATM   11  C18 UNL     1       9.361  68.753 -39.884  1.00  0.00     0.023 C 
HETATM   12  C19 UNL     1       7.030  69.469 -40.381  1.00  0.00     0.023 C 
HETATM   13  C20 UNL     1       8.293  70.485 -38.502  1.00  0.00     0.135 C 
HETATM   14  O1  UNL     1       8.194  71.573 -39.078  1.00  0.00    -0.297 OA
HETATM   15  C21 UNL     1       8.791  70.469 -37.079  1.00  0.00     0.080 C 
HETATM   16  C22 UNL     1       8.508  69.188 -36.317  1.00  0.00     0.017 C 
HETATM   17  C23 UNL     1       7.254  68.419 -36.799  1.00  0.00    -0.031 C 
HETATM   18  C24 UNL     1       5.991  69.299 -36.657  1.00  0.00     0.016 C 
HETATM   19  C25 UNL     1       7.099  67.091 -35.958  1.00  0.00     0.024 C 
HETATM   20  C26 UNL     1       6.774  67.317 -34.477  1.00  0.00     0.010 C 
HETATM   21  C27 UNL     1       7.012  66.005 -33.739  1.00  0.00     0.011 C 
HETATM   22  C28 UNL     1       5.986  64.911 -34.120  1.00  0.00    -0.029 C 
HETATM   23  C29 UNL     1       4.854  65.042 -33.049  1.00  0.00     0.016 C 
ENDROOT
BRANCH   1  24
HETATM   24  C6  UNL     1       8.042  63.179 -34.233  1.00  0.00    -0.014 C 
HETATM   25  C7  UNL     1       8.405  61.736 -33.826  1.00  0.00     0.010 C 
BRANCH  24  26
HETATM   26  C5  UNL     1       8.519  63.436 -35.685  1.00  0.00     0.008 C 
BRANCH  26  27
HETATM   27  C4  UNL     1       9.831  62.730 -36.050  1.00  0.00     0.028 C 
BRANCH  27  28
HETATM   28  C3  UNL     1      10.825  63.704 -36.625  1.00  0.00    -0.013 C 
HETATM   29  C2  UNL     1      12.045  64.032 -36.155  1.00  0.00     0.008 C 
HETATM   30  C1  UNL     1      12.917  65.020 -36.879  1.00  0.00     0.055 C 
BRANCH  29  31
HETATM   31  C30 UNL     1      12.572  63.485 -34.881  1.00  0.00     0.171 C 
HETATM   32  O2  UNL     1      11.938  63.108 -33.914  1.00  0.00    -0.646 OA
BRANCH  31  33
HETATM   33  O3  UNL     1      13.915  63.451 -34.876  1.00  0.00    -0.773 OA
HETATM   34  H46 UNL     1      14.130  63.077 -33.996  1.00  0.00     0.167 HD
ENDBRANCH  31  33
ENDBRANCH  29  31
ENDBRANCH  27  28
ENDBRANCH  26  27
ENDBRANCH  24  26
ENDBRANCH   1  24
TORSDOF 6
ENDMDL
MODEL 7
REMARK minimizedAffinity -6.99636221
REMARK CNNscore 0.302681565
REMARK CNNaffinity 6.20628881
REMARK  6 active torsions:
REMARK  status: ('A' for Active; 'I' for Inactive)
REMARK    1  A    between atoms: C2_2  and  C30_31 
REMARK    2  A    between atoms: C3_3  and  C4_4 
REMARK    3  A    between atoms: C4_4  and  C5_5 
REMARK    4  A    between atoms: C5_5  and  C6_6 
REMARK    5  A    between atoms: C6_6  and  C8_8 
REMARK    6  A    between atoms: C30_31  and  O3_33 
ROOT
HETATM    1  C8  UNL     1      -2.199  50.015 -13.051  1.00  0.00    -0.002 C 
HETATM    2  C9  UNL     1      -3.096  51.082 -13.694  1.00  0.00     0.007 C 
HETATM    3  C10 UNL     1      -2.803  52.326 -12.881  1.00  0.00     0.015 C 
HETATM    4  C11 UNL     1      -2.810  51.856 -11.399  1.00  0.00    -0.013 C 
HETATM    5  C12 UNL     1      -4.238  52.096 -10.826  1.00  0.00     0.021 C 
HETATM    6  C13 UNL     1      -1.858  52.756 -10.572  1.00  0.00    -0.070 C 
HETATM    7  C14 UNL     1      -1.982  54.102 -10.593  1.00  0.00    -0.022 C 
HETATM    8  C15 UNL     1      -1.188  55.061  -9.761  1.00  0.00     0.034 C 
HETATM    9  C16 UNL     1       0.021  54.428  -9.047  1.00  0.00     0.013 C 
HETATM   10  C17 UNL     1       0.790  55.393  -8.066  1.00  0.00     0.018 C 
HETATM   11  C18 UNL     1       2.105  55.850  -8.733  1.00  0.00     0.023 C 
HETATM   12  C19 UNL     1      -0.010  56.665  -7.706  1.00  0.00     0.023 C 
HETATM   13  C20 UNL     1       1.198  54.722  -6.745  1.00  0.00     0.135 C 
HETATM   14  O1  UNL     1       1.341  55.376  -5.707  1.00  0.00    -0.297 OA
HETATM   15  C21 UNL     1       1.532  53.252  -6.719  1.00  0.00     0.080 C 
HETATM   16  C22 UNL     1       0.963  52.446  -7.870  1.00  0.00     0.017 C 
HETATM   17  C23 UNL     1      -0.343  53.021  -8.471  1.00  0.00    -0.031 C 
HETATM   18  C24 UNL     1      -1.451  53.087  -7.396  1.00  0.00     0.016 C 
HETATM   19  C25 UNL     1      -0.803  52.117  -9.683  1.00  0.00     0.024 C 
HETATM   20  C26 UNL     1      -1.242  50.703  -9.285  1.00  0.00     0.010 C 
HETATM   21  C27 UNL     1      -1.303  49.857 -10.551  1.00  0.00     0.011 C 
HETATM   22  C28 UNL     1      -2.449  50.284 -11.499  1.00  0.00    -0.029 C 
HETATM   23  C29 UNL     1      -3.651  49.365 -11.103  1.00  0.00     0.016 C 
ENDROOT
BRANCH   1  24
HETATM   24  C6  UNL     1      -0.707  50.037 -13.535  1.00  0.00    -0.014 C 
HETATM   25  C7  UNL     1      -0.185  48.590 -13.637  1.00  0.00     0.010 C 
BRANCH  24  26
HETATM   26  C5  UNL     1      -0.490  50.756 -14.891  1.00  0.00     0.008 C 
BRANCH  26  27
HETATM   27  C4  UNL     1       0.686  50.211 -15.711  1.00  0.00     0.028 C 
BRANCH  27  28
HETATM   28  C3  UNL     1       1.530  51.333 -16.254  1.00  0.00    -0.013 C 
HETATM   29  C2  UNL     1       2.621  51.903 -15.703  1.00  0.00     0.008 C 
HETATM   30  C1  UNL     1       3.358  53.010 -16.405  1.00  0.00     0.055 C 
BRANCH  29  31
HETATM   31  C30 UNL     1       3.123  51.514 -14.363  1.00  0.00     0.171 C 
HETATM   32  O2  UNL     1       3.881  50.603 -14.087  1.00  0.00    -0.646 OA
BRANCH  31  33
HETATM   33  O3  UNL     1       2.620  52.303 -13.398  1.00  0.00    -0.773 OA
HETATM   34  H46 UNL     1       3.022  51.945 -12.579  1.00  0.00     0.167 HD
ENDBRANCH  31  33
ENDBRANCH  29  31
ENDBRANCH  27  28
ENDBRANCH  26  27
ENDBRANCH  24  26
ENDBRANCH   1  24
TORSDOF 6
ENDMDL
MODEL 8
REMARK minimizedAffinity -9.93180466
REMARK CNNscore 0.274058968
REMARK CNNaffinity 7.04763746
REMARK  6 active torsions:
REMARK  status: ('A' for Active; 'I' for Inactive)
REMARK    1  A    between atoms: C2_2  and  C30_31 
REMARK    2  A    between atoms: C3_3  and  C4_4 
REMARK    3  A    between atoms: C4_4  and  C5_5 
REMARK    4  A    between atoms: C5_5  and  C6_6 
REMARK    5  A    between atoms: C6_6  and  C8_8 
REMARK    6  A    between atoms: C30_31  and  O3_33 
ROOT
HETATM    1  C8  UNL     1      -3.951  48.646 -20.709  1.00  0.00    -0.002 C 
HETATM    2  C9  UNL     1      -4.298  47.427 -21.575  1.00  0.00     0.007 C 
HETATM    3  C10 UNL     1      -3.657  47.747 -22.909  1.00  0.00     0.015 C 
HETATM    4  C11 UNL     1      -4.014  49.234 -23.187  1.00  0.00    -0.013 C 
HETATM    5  C12 UNL     1      -5.304  49.264 -24.060  1.00  0.00     0.021 C 
HETATM    6  C13 UNL     1      -2.898  49.877 -24.049  1.00  0.00    -0.070 C 
HETATM    7  C14 UNL     1      -2.503  49.309 -25.211  1.00  0.00    -0.022 C 
HETATM    8  C15 UNL     1      -1.511  49.890 -26.170  1.00  0.00     0.034 C 
HETATM    9  C16 UNL     1      -0.721  51.089 -25.613  1.00  0.00     0.013 C 
HETATM   10  C17 UNL     1       0.233  51.793 -26.651  1.00  0.00     0.018 C 
HETATM   11  C18 UNL     1       1.692  51.384 -26.357  1.00  0.00     0.023 C 
HETATM   12  C19 UNL     1      -0.067  51.407 -28.117  1.00  0.00     0.023 C 
HETATM   13  C20 UNL     1       0.200  53.327 -26.568  1.00  0.00     0.135 C 
HETATM   14  O1  UNL     1       0.456  54.031 -27.550  1.00  0.00    -0.297 OA
HETATM   15  C21 UNL     1      -0.048  54.004 -25.244  1.00  0.00     0.080 C 
HETATM   16  C22 UNL     1      -0.739  53.143 -24.205  1.00  0.00     0.017 C 
HETATM   17  C23 UNL     1      -1.652  52.039 -24.791  1.00  0.00    -0.031 C 
HETATM   18  C24 UNL     1      -2.773  52.665 -25.654  1.00  0.00     0.016 C 
HETATM   19  C25 UNL     1      -2.273  51.191 -23.611  1.00  0.00     0.024 C 
HETATM   20  C26 UNL     1      -3.254  51.967 -22.725  1.00  0.00     0.010 C 
HETATM   21  C27 UNL     1      -3.480  51.157 -21.454  1.00  0.00     0.011 C 
HETATM   22  C28 UNL     1      -4.261  49.847 -21.712  1.00  0.00    -0.029 C 
HETATM   23  C29 UNL     1      -5.758  50.225 -21.462  1.00  0.00     0.016 C 
ENDROOT
BRANCH   1  24
HETATM   24  C6  UNL     1      -2.513  48.613 -20.080  1.00  0.00    -0.014 C 
HETATM   25  C7  UNL     1      -1.576  47.802 -20.999  1.00  0.00     0.010 C 
BRANCH  24  26
HETATM   26  C5  UNL     1      -1.898  50.013 -19.830  1.00  0.00     0.008 C 
BRANCH  26  27
HETATM   27  C4  UNL     1      -0.365  50.045 -19.881  1.00  0.00     0.028 C 
BRANCH  27  28
HETATM   28  C3  UNL     1       0.121  51.151 -20.780  1.00  0.00    -0.013 C 
HETATM   29  C2  UNL     1       0.524  52.392 -20.440  1.00  0.00     0.008 C 
HETATM   30  C1  UNL     1       1.002  53.367 -21.480  1.00  0.00     0.055 C 
BRANCH  29  31
HETATM   31  C30 UNL     1       0.469  52.882 -19.041  1.00  0.00     0.171 C 
HETATM   32  O2  UNL     1       0.752  52.272 -18.027  1.00  0.00    -0.646 OA
BRANCH  31  33
HETATM   33  O3  UNL     1       0.035  54.153 -18.979  1.00  0.00    -0.773 OA
HETATM   34  H46 UNL     1       0.045  54.350 -18.019  1.00  0.00     0.167 HD
ENDBRANCH  31  33
ENDBRANCH  29  31
ENDBRANCH  27  28
ENDBRANCH  26  27
ENDBRANCH  24  26
ENDBRANCH   1  24
TORSDOF 6
ENDMDL
MODEL 9
REMARK minimizedAffinity -6.87471247
REMARK CNNscore 0.269820988
REMARK CNNaffinity 5.51939774
REMARK  6 active torsions:
REMARK  status: ('A' for Active; 'I' for Inactive)
REMARK    1  A    between atoms: C2_2  and  C30_31 
REMARK    2  A    between atoms: C3_3  and  C4_4 
REMARK    3  A    between atoms: C4_4  and  C5_5 
REMARK    4  A    between atoms: C5_5  and  C6_6 
REMARK    5  A    between atoms: C6_6  and  C8_8 
REMARK    6  A    between atoms: C30_31  and  O3_33 
ROOT
HETATM    1  C8  UNL     1      -7.520  47.065 -30.930  1.00  0.00    -0.002 C 
HETATM    2  C9  UNL     1      -8.192  48.344 -31.449  1.00  0.00     0.007 C 
HETATM    3  C10 UNL     1      -9.480  48.413 -30.657  1.00  0.00     0.015 C 
HETATM    4  C11 UNL     1     -10.054  46.968 -30.685  1.00  0.00    -0.013 C 
HETATM    5  C12 UNL     1     -11.058  46.873 -31.871  1.00  0.00     0.021 C 
HETATM    6  C13 UNL     1     -10.884  46.722 -29.399  1.00  0.00    -0.070 C 
HETATM    7  C14 UNL     1     -11.875  47.567 -29.039  1.00  0.00    -0.022 C 
HETATM    8  C15 UNL     1     -12.804  47.375 -27.881  1.00  0.00     0.034 C 
HETATM    9  C16 UNL     1     -12.381  46.256 -26.910  1.00  0.00     0.013 C 
HETATM   10  C17 UNL     1     -13.412  45.955 -25.757  1.00  0.00     0.018 C 
HETATM   11  C18 UNL     1     -12.888  46.560 -24.438  1.00  0.00     0.023 C 
HETATM   12  C19 UNL     1     -14.812  46.557 -26.015  1.00  0.00     0.023 C 
HETATM   13  C20 UNL     1     -13.604  44.454 -25.487  1.00  0.00     0.135 C 
HETATM   14  O1  UNL     1     -14.659  44.013 -25.021  1.00  0.00    -0.297 OA
HETATM   15  C21 UNL     1     -12.456  43.499 -25.694  1.00  0.00     0.080 C 
HETATM   16  C22 UNL     1     -11.366  44.000 -26.622  1.00  0.00     0.017 C 
HETATM   17  C23 UNL     1     -11.849  45.010 -27.691  1.00  0.00    -0.031 C 
HETATM   18  C24 UNL     1     -12.929  44.370 -28.593  1.00  0.00     0.016 C 
HETATM   19  C25 UNL     1     -10.615  45.484 -28.558  1.00  0.00     0.024 C 
HETATM   20  C26 UNL     1      -9.996  44.385 -29.428  1.00  0.00     0.010 C 
HETATM   21  C27 UNL     1      -8.636  44.877 -29.908  1.00  0.00     0.011 C 
HETATM   22  C28 UNL     1      -8.747  46.046 -30.916  1.00  0.00    -0.029 C 
HETATM   23  C29 UNL     1      -8.737  45.359 -32.320  1.00  0.00     0.016 C 
ENDROOT
BRANCH   1  24
HETATM   24  C6  UNL     1      -6.737  47.239 -29.582  1.00  0.00    -0.014 C 
HETATM   25  C7  UNL     1      -5.379  47.911 -29.866  1.00  0.00     0.010 C 
BRANCH  24  26
HETATM   26  C5  UNL     1      -7.497  48.057 -28.507  1.00  0.00     0.008 C 
BRANCH  26  27
HETATM   27  C4  UNL     1      -7.759  47.293 -27.203  1.00  0.00     0.028 C 
BRANCH  27  28
HETATM   28  C3  UNL     1      -6.670  47.558 -26.197  1.00  0.00    -0.013 C 
HETATM   29  C2  UNL     1      -6.784  48.065 -24.953  1.00  0.00     0.008 C 
HETATM   30  C1  UNL     1      -5.578  48.241 -24.072  1.00  0.00     0.055 C 
BRANCH  29  31
HETATM   31  C30 UNL     1      -8.083  48.525 -24.405  1.00  0.00     0.171 C 
HETATM   32  O2  UNL     1      -8.852  47.906 -23.694  1.00  0.00    -0.646 OA
BRANCH  31  33
HETATM   33  O3  UNL     1      -8.371  49.777 -24.800  1.00  0.00    -0.773 OA
HETATM   34  H46 UNL     1      -9.237  49.955 -24.378  1.00  0.00     0.167 HD
ENDBRANCH  31  33
ENDBRANCH  29  31
ENDBRANCH  27  28
ENDBRANCH  26  27
ENDBRANCH  24  26
ENDBRANCH   1  24
TORSDOF 6
ENDMDL
