MODEL 1
REMARK minimizedAffinity -9.95525742
REMARK  11 active torsions:
REMARK  status: ('A' for Active; 'I' for Inactive)
REMARK    1  A    between atoms: C4_4  and  C5_5 
REMARK    2  A    between atoms: C5_5  and  C6_6 
REMARK    3  A    between atoms: C7_7  and  O1_8 
REMARK    4  A    between atoms: C12_13  and  C14_15 
REMARK    5  A    between atoms: C14_15  and  C15_16 
REMARK    6  A    between atoms: C15_16  and  C16_17 
REMARK    7  A    between atoms: C16_17  and  C17_18 
REMARK    8  A    between atoms: C17_18  and  O2_21 
REMARK    9  A    between atoms: C23_26  and  C24_27 
REMARK   10  A    between atoms: C26_29  and  O4_30 
REMARK   11  A    between atoms: C28_32  and  O5_33 
ROOT
HETATM    1  C6  UNL     1      -2.847  49.648 -25.248  1.00  0.00    -0.006 A 
HETATM    2  C7  UNL     1      -3.993  48.846 -25.057  1.00  0.00     0.107 A 
HETATM    3  C8  UNL     1      -4.578  48.647 -23.800  1.00  0.00     0.117 A 
HETATM    4  C9  UNL     1      -4.036  49.243 -22.667  1.00  0.00     0.035 A 
HETATM    5  C10 UNL     1      -4.605  49.032 -21.355  1.00  0.00     0.016 C 
HETATM    6  C11 UNL     1      -5.731  48.315 -21.296  1.00  0.00     0.012 C 
HETATM    7  C12 UNL     1      -6.426  47.734 -22.514  1.00  0.00     0.082 C 
HETATM    8  C13 UNL     1      -6.634  46.228 -22.290  1.00  0.00     0.051 C 
HETATM    9  O3  UNL     1      -5.674  47.825 -23.756  1.00  0.00    -0.333 OA
HETATM   10  C20 UNL     1      -2.905  50.037 -22.850  1.00  0.00     0.100 A 
HETATM   11  C21 UNL     1      -2.303  50.253 -24.086  1.00  0.00     0.011 A 
HETATM   12  C22 UNL     1      -1.194  51.108 -23.821  1.00  0.00     0.053 A 
HETATM   13  C23 UNL     1      -1.183  51.361 -22.463  1.00  0.00     0.087 A 
HETATM   14  O6  UNL     1      -2.228  50.708 -21.873  1.00  0.00    -0.308 OA
ENDROOT
BRANCH  13  15
HETATM   15  C24 UNL     1      -0.323  52.141 -21.578  1.00  0.00     0.003 A 
HETATM   16  C25 UNL     1      -0.283  51.898 -20.197  1.00  0.00     0.051 A 
HETATM   17  C26 UNL     1       0.542  52.655 -19.366  1.00  0.00     0.069 A 
HETATM   18  C27 UNL     1       1.346  53.665 -19.881  1.00  0.00     0.073 A 
HETATM   19  C28 UNL     1       1.310  53.908 -21.250  1.00  0.00     0.069 A 
HETATM   20  C29 UNL     1       0.490  53.162 -22.094  1.00  0.00     0.051 A 
BRANCH  17  21
HETATM   21  O4  UNL     1       0.527  52.369 -18.032  1.00  0.00    -0.361 OA
HETATM   22  H31 UNL     1       1.146  52.962 -17.573  1.00  0.00     0.217 HD
ENDBRANCH  17  21
BRANCH  19  23
HETATM   23  O5  UNL     1       2.076  54.884 -21.820  1.00  0.00    -0.361 OA
HETATM   24  H33 UNL     1       2.585  55.335 -21.125  1.00  0.00     0.217 HD
ENDBRANCH  19  23
ENDBRANCH  13  15
BRANCH   1  25
HETATM   25  C5  UNL     1      -2.265  49.859 -26.627  1.00  0.00     0.070 C 
BRANCH  25  26
HETATM   26  C4  UNL     1      -0.791  50.166 -26.579  1.00  0.00    -0.020 C 
HETATM   27  C2  UNL     1      -0.155  51.278 -27.000  1.00  0.00    -0.091 C 
HETATM   28  C1  UNL     1      -0.821  52.483 -27.603  1.00  0.00     0.042 C 
HETATM   29  C3  UNL     1       1.342  51.398 -26.872  1.00  0.00     0.042 C 
ENDBRANCH  25  26
ENDBRANCH   1  25
BRANCH   2  30
HETATM   30  O1  UNL     1      -4.562  48.225 -26.143  1.00  0.00    -0.357 OA
HETATM   31  H10 UNL     1      -5.338  47.747 -25.791  1.00  0.00     0.217 HD
ENDBRANCH   2  30
BRANCH   7  32
HETATM   32  C14 UNL     1      -7.774  48.447 -22.794  1.00  0.00     0.042 C 
BRANCH  32  33
HETATM   33  C15 UNL     1      -7.991  48.936 -24.231  1.00  0.00     0.006 C 
BRANCH  33  34
HETATM   34  C16 UNL     1      -8.922  48.045 -25.072  1.00  0.00     0.037 C 
BRANCH  34  35
HETATM   35  C17 UNL     1      -9.603  48.687 -26.300  1.00  0.00     0.051 C 
HETATM   36  C18 UNL     1     -11.041  48.165 -26.423  1.00  0.00     0.045 C 
HETATM   37  C19 UNL     1      -8.848  48.418 -27.602  1.00  0.00     0.045 C 
BRANCH  35  38
HETATM   38  O2  UNL     1      -9.676  50.103 -26.131  1.00  0.00    -0.391 OA
HETATM   39  H28 UNL     1     -10.186  50.285 -25.321  1.00  0.00     0.210 HD
ENDBRANCH  35  38
ENDBRANCH  34  35
ENDBRANCH  33  34
ENDBRANCH  32  33
ENDBRANCH   7  32
TORSDOF 11
ENDMDL
MODEL 2
REMARK minimizedAffinity -9.92473698
REMARK  11 active torsions:
REMARK  status: ('A' for Active; 'I' for Inactive)
REMARK    1  A    between atoms: C4_4  and  C5_5 
REMARK    2  A    between atoms: C5_5  and  C6_6 
REMARK    3  A    between atoms: C7_7  and  O1_8 
REMARK    4  A    between atoms: C12_13  and  C14_15 
REMARK    5  A    between atoms: C14_15  and  C15_16 
REMARK    6  A    between atoms: C15_16  and  C16_17 
REMARK    7  A    between atoms: C16_17  and  C17_18 
REMARK    8  A    between atoms: C17_18  and  O2_21 
REMARK    9  A    between atoms: C23_26  and  C24_27 
REMARK   10  A    between atoms: C26_29  and  O4_30 
REMARK   11  A    between atoms: C28_32  and  O5_33 
ROOT
HETATM    1  C6  UNL     1      -0.433  51.639 -23.202  1.00  0.00    -0.006 A 
HETATM    2  C7  UNL     1      -0.280  51.714 -21.801  1.00  0.00     0.107 A 
HETATM    3  C8  UNL     1      -1.127  51.045 -20.909  1.00  0.00     0.117 A 
HETATM    4  C9  UNL     1      -2.178  50.267 -21.381  1.00  0.00     0.035 A 
HETATM    5  C10 UNL     1      -3.082  49.587 -20.482  1.00  0.00     0.016 C 
HETATM    6  C11 UNL     1      -2.804  49.665 -19.177  1.00  0.00     0.012 C 
HETATM    7  C12 UNL     1      -1.607  50.409 -18.614  1.00  0.00     0.082 C 
HETATM    8  C13 UNL     1      -2.101  51.402 -17.550  1.00  0.00     0.051 C 
HETATM    9  O3  UNL     1      -0.878  51.224 -19.573  1.00  0.00    -0.333 OA
HETATM   10  C20 UNL     1      -2.334  50.188 -22.765  1.00  0.00     0.100 A 
HETATM   11  C21 UNL     1      -1.507  50.841 -23.675  1.00  0.00     0.011 A 
HETATM   12  C22 UNL     1      -2.015  50.496 -24.960  1.00  0.00     0.053 A 
HETATM   13  C23 UNL     1      -3.103  49.666 -24.766  1.00  0.00     0.087 A 
HETATM   14  O6  UNL     1      -3.294  49.479 -23.427  1.00  0.00    -0.308 OA
ENDROOT
BRANCH  13  15
HETATM   15  C24 UNL     1      -4.041  48.989 -25.657  1.00  0.00     0.003 A 
HETATM   16  C25 UNL     1      -3.773  48.844 -27.026  1.00  0.00     0.051 A 
HETATM   17  C26 UNL     1      -4.682  48.197 -27.862  1.00  0.00     0.069 A 
HETATM   18  C27 UNL     1      -5.872  47.680 -27.364  1.00  0.00     0.073 A 
HETATM   19  C28 UNL     1      -6.141  47.821 -26.008  1.00  0.00     0.069 A 
HETATM   20  C29 UNL     1      -5.243  48.466 -25.157  1.00  0.00     0.051 A 
BRANCH  17  21
HETATM   21  O4  UNL     1      -4.362  48.096 -29.185  1.00  0.00    -0.361 OA
HETATM   22  H31 UNL     1      -5.073  47.624 -29.649  1.00  0.00     0.217 HD
ENDBRANCH  17  21
BRANCH  19  23
HETATM   23  O5  UNL     1      -7.290  47.334 -25.454  1.00  0.00    -0.361 OA
HETATM   24  H33 UNL     1      -7.830  46.925 -26.152  1.00  0.00     0.217 HD
ENDBRANCH  19  23
ENDBRANCH  13  15
BRANCH   1  25
HETATM   25  C5  UNL     1       0.521  52.355 -24.130  1.00  0.00     0.070 C 
BRANCH  25  26
HETATM   26  C4  UNL     1       0.178  52.132 -25.579  1.00  0.00    -0.020 C 
HETATM   27  C2  UNL     1       0.985  51.710 -26.574  1.00  0.00    -0.091 C 
HETATM   28  C1  UNL     1       2.436  51.345 -26.419  1.00  0.00     0.042 C 
HETATM   29  C3  UNL     1       0.454  51.551 -27.975  1.00  0.00     0.042 C 
ENDBRANCH  25  26
ENDBRANCH   1  25
BRANCH   2  30
HETATM   30  O1  UNL     1       0.736  52.479 -21.281  1.00  0.00    -0.357 OA
HETATM   31  H10 UNL     1       0.669  52.374 -20.312  1.00  0.00     0.217 HD
ENDBRANCH   2  30
BRANCH   7  32
HETATM   32  C14 UNL     1      -0.558  49.433 -18.020  1.00  0.00     0.042 C 
BRANCH  32  33
HETATM   33  C15 UNL     1       0.158  49.906 -16.750  1.00  0.00     0.006 C 
BRANCH  33  34
HETATM   34  C16 UNL     1       0.969  51.202 -16.922  1.00  0.00     0.037 C 
BRANCH  34  35
HETATM   35  C17 UNL     1       1.760  51.714 -15.699  1.00  0.00     0.051 C 
HETATM   36  C18 UNL     1       3.116  52.267 -16.157  1.00  0.00     0.045 C 
HETATM   37  C19 UNL     1       1.980  50.632 -14.642  1.00  0.00     0.045 C 
BRANCH  35  38
HETATM   38  O2  UNL     1       1.051  52.786 -15.075  1.00  0.00    -0.391 OA
HETATM   39  H28 UNL     1       0.937  53.496 -15.732  1.00  0.00     0.210 HD
ENDBRANCH  35  38
ENDBRANCH  34  35
ENDBRANCH  33  34
ENDBRANCH  32  33
ENDBRANCH   7  32
TORSDOF 11
ENDMDL
MODEL 3
REMARK minimizedAffinity -9.78996086
REMARK  11 active torsions:
REMARK  status: ('A' for Active; 'I' for Inactive)
REMARK    1  A    between atoms: C4_4  and  C5_5 
REMARK    2  A    between atoms: C5_5  and  C6_6 
REMARK    3  A    between atoms: C7_7  and  O1_8 
REMARK    4  A    between atoms: C12_13  and  C14_15 
REMARK    5  A    between atoms: C14_15  and  C15_16 
REMARK    6  A    between atoms: C15_16  and  C16_17 
REMARK    7  A    between atoms: C16_17  and  C17_18 
REMARK    8  A    between atoms: C17_18  and  O2_21 
REMARK    9  A    between atoms: C23_26  and  C24_27 
REMARK   10  A    between atoms: C26_29  and  O4_30 
REMARK   11  A    between atoms: C28_32  and  O5_33 
ROOT
HETATM    1  C6  UNL     1      -3.487  51.884 -22.596  1.00  0.00    -0.006 A 
HETATM    2  C7  UNL     1      -3.101  52.230 -23.908  1.00  0.00     0.107 A 
HETATM    3  C8  UNL     1      -1.766  52.440 -24.276  1.00  0.00     0.117 A 
HETATM    4  C9  UNL     1      -0.748  52.317 -23.338  1.00  0.00     0.035 A 
HETATM    5  C10 UNL     1       0.635  52.555 -23.685  1.00  0.00     0.016 C 
HETATM    6  C11 UNL     1       0.898  52.805 -24.970  1.00  0.00     0.012 C 
HETATM    7  C12 UNL     1      -0.162  52.842 -26.056  1.00  0.00     0.082 C 
HETATM    8  C13 UNL     1      -0.053  54.179 -26.805  1.00  0.00     0.051 C 
HETATM    9  O3  UNL     1      -1.536  52.794 -25.580  1.00  0.00    -0.333 OA
HETATM   10  C20 UNL     1      -1.123  51.975 -22.039  1.00  0.00     0.100 A 
HETATM   11  C21 UNL     1      -2.441  51.760 -21.646  1.00  0.00     0.011 A 
HETATM   12  C22 UNL     1      -2.372  51.440 -20.259  1.00  0.00     0.053 A 
HETATM   13  C23 UNL     1      -1.041  51.478 -19.891  1.00  0.00     0.087 A 
HETATM   14  O6  UNL     1      -0.281  51.802 -20.979  1.00  0.00    -0.308 OA
ENDROOT
BRANCH  13  15
HETATM   15  C24 UNL     1      -0.322  51.256 -18.639  1.00  0.00     0.003 A 
HETATM   16  C25 UNL     1       0.416  52.282 -18.030  1.00  0.00     0.051 A 
HETATM   17  C26 UNL     1       1.099  52.051 -16.837  1.00  0.00     0.069 A 
HETATM   18  C27 UNL     1       1.066  50.806 -16.220  1.00  0.00     0.073 A 
HETATM   19  C28 UNL     1       0.335  49.787 -16.821  1.00  0.00     0.069 A 
HETATM   20  C29 UNL     1      -0.353  50.000 -18.015  1.00  0.00     0.051 A 
BRANCH  17  21
HETATM   21  O4  UNL     1       1.802  53.091 -16.301  1.00  0.00    -0.361 OA
HETATM   22  H31 UNL     1       2.222  52.798 -15.475  1.00  0.00     0.217 HD
ENDBRANCH  17  21
BRANCH  19  23
HETATM   23  O5  UNL     1       0.261  48.542 -16.267  1.00  0.00    -0.361 OA
HETATM   24  H33 UNL     1       0.792  48.524 -15.453  1.00  0.00     0.217 HD
ENDBRANCH  19  23
ENDBRANCH  13  15
BRANCH   1  25
HETATM   25  C5  UNL     1      -4.938  51.638 -22.249  1.00  0.00     0.070 C 
BRANCH  25  26
HETATM   26  C4  UNL     1      -5.338  50.203 -22.469  1.00  0.00    -0.020 C 
HETATM   27  C2  UNL     1      -5.602  49.258 -21.545  1.00  0.00    -0.091 C 
HETATM   28  C1  UNL     1      -5.568  49.466 -20.056  1.00  0.00     0.042 C 
HETATM   29  C3  UNL     1      -5.985  47.862 -21.964  1.00  0.00     0.042 C 
ENDBRANCH  25  26
ENDBRANCH   1  25
BRANCH   2  30
HETATM   30  O1  UNL     1      -4.070  52.375 -24.872  1.00  0.00    -0.357 OA
HETATM   31  H10 UNL     1      -3.587  52.593 -25.694  1.00  0.00     0.217 HD
ENDBRANCH   2  30
BRANCH   7  32
HETATM   32  C14 UNL     1      -0.021  51.643 -27.030  1.00  0.00     0.042 C 
BRANCH  32  33
HETATM   33  C15 UNL     1      -0.807  50.380 -26.662  1.00  0.00     0.006 C 
BRANCH  33  34
HETATM   34  C16 UNL     1      -2.230  50.324 -27.245  1.00  0.00     0.037 C 
BRANCH  34  35
HETATM   35  C17 UNL     1      -3.225  49.336 -26.599  1.00  0.00     0.051 C 
HETATM   36  C18 UNL     1      -2.592  48.711 -25.349  1.00  0.00     0.045 C 
HETATM   37  C19 UNL     1      -3.665  48.229 -27.557  1.00  0.00     0.045 C 
BRANCH  35  38
HETATM   38  O2  UNL     1      -4.399  50.032 -26.179  1.00  0.00    -0.391 OA
HETATM   39  H28 UNL     1      -4.133  50.718 -25.541  1.00  0.00     0.210 HD
ENDBRANCH  35  38
ENDBRANCH  34  35
ENDBRANCH  33  34
ENDBRANCH  32  33
ENDBRANCH   7  32
TORSDOF 11
ENDMDL
MODEL 4
REMARK minimizedAffinity -9.54174614
REMARK  11 active torsions:
REMARK  status: ('A' for Active; 'I' for Inactive)
REMARK    1  A    between atoms: C4_4  and  C5_5 
REMARK    2  A    between atoms: C5_5  and  C6_6 
REMARK    3  A    between atoms: C7_7  and  O1_8 
REMARK    4  A    between atoms: C12_13  and  C14_15 
REMARK    5  A    between atoms: C14_15  and  C15_16 
REMARK    6  A    between atoms: C15_16  and  C16_17 
REMARK    7  A    between atoms: C16_17  and  C17_18 
REMARK    8  A    between atoms: C17_18  and  O2_21 
REMARK    9  A    between atoms: C23_26  and  C24_27 
REMARK   10  A    between atoms: C26_29  and  O4_30 
REMARK   11  A    between atoms: C28_32  and  O5_33 
ROOT
HETATM    1  C6  UNL     1      -1.352  52.070 -23.760  1.00  0.00    -0.006 A 
HETATM    2  C7  UNL     1      -2.418  51.471 -24.463  1.00  0.00     0.107 A 
HETATM    3  C8  UNL     1      -3.285  50.540 -23.878  1.00  0.00     0.117 A 
HETATM    4  C9  UNL     1      -3.121  50.160 -22.551  1.00  0.00     0.035 A 
HETATM    5  C10 UNL     1      -3.986  49.182 -21.930  1.00  0.00     0.016 C 
HETATM    6  C11 UNL     1      -5.008  48.732 -22.663  1.00  0.00     0.012 C 
HETATM    7  C12 UNL     1      -5.299  49.196 -24.079  1.00  0.00     0.082 C 
HETATM    8  C13 UNL     1      -5.401  47.962 -24.989  1.00  0.00     0.051 C 
HETATM    9  O3  UNL     1      -4.265  50.020 -24.684  1.00  0.00    -0.333 OA
HETATM   10  C20 UNL     1      -2.070  50.749 -21.850  1.00  0.00     0.100 A 
HETATM   11  C21 UNL     1      -1.193  51.677 -22.406  1.00  0.00     0.011 A 
HETATM   12  C22 UNL     1      -0.286  52.012 -21.359  1.00  0.00     0.053 A 
HETATM   13  C23 UNL     1      -0.654  51.284 -20.244  1.00  0.00     0.087 A 
HETATM   14  O6  UNL     1      -1.743  50.516 -20.546  1.00  0.00    -0.308 OA
ENDROOT
BRANCH  13  15
HETATM   15  C24 UNL     1      -0.138  51.173 -18.883  1.00  0.00     0.003 A 
HETATM   16  C25 UNL     1       0.450  52.269 -18.234  1.00  0.00     0.051 A 
HETATM   17  C26 UNL     1       0.941  52.144 -16.935  1.00  0.00     0.069 A 
HETATM   18  C27 UNL     1       0.859  50.937 -16.250  1.00  0.00     0.073 A 
HETATM   19  C28 UNL     1       0.276  49.849 -16.890  1.00  0.00     0.069 A 
HETATM   20  C29 UNL     1      -0.219  49.957 -18.189  1.00  0.00     0.051 A 
BRANCH  17  21
HETATM   21  O4  UNL     1       1.507  53.248 -16.364  1.00  0.00    -0.361 OA
HETATM   22  H31 UNL     1       1.800  53.025 -15.465  1.00  0.00     0.217 HD
ENDBRANCH  17  21
BRANCH  19  23
HETATM   23  O5  UNL     1       0.163  48.637 -16.273  1.00  0.00    -0.361 OA
HETATM   24  H33 UNL     1       0.556  48.693 -15.386  1.00  0.00     0.217 HD
ENDBRANCH  19  23
ENDBRANCH  13  15
BRANCH   1  25
HETATM   25  C5  UNL     1      -0.457  53.092 -24.423  1.00  0.00     0.070 C 
BRANCH  25  26
HETATM   26  C4  UNL     1       0.819  52.479 -24.937  1.00  0.00    -0.020 C 
HETATM   27  C2  UNL     1       1.133  52.139 -26.204  1.00  0.00    -0.091 C 
HETATM   28  C1  UNL     1       0.243  52.334 -27.400  1.00  0.00     0.042 C 
HETATM   29  C3  UNL     1       2.471  51.526 -26.523  1.00  0.00     0.042 C 
ENDBRANCH  25  26
ENDBRANCH   1  25
BRANCH   2  30
HETATM   30  O1  UNL     1      -2.619  51.804 -25.782  1.00  0.00    -0.357 OA
HETATM   31  H10 UNL     1      -3.406  51.296 -26.060  1.00  0.00     0.217 HD
ENDBRANCH   2  30
BRANCH   7  32
HETATM   32  C14 UNL     1      -6.595  50.045 -24.144  1.00  0.00     0.042 C 
BRANCH  32  33
HETATM   33  C15 UNL     1      -7.901  49.307 -23.830  1.00  0.00     0.006 C 
BRANCH  33  34
HETATM   34  C16 UNL     1      -8.300  48.249 -24.875  1.00  0.00     0.037 C 
BRANCH  34  35
HETATM   35  C17 UNL     1      -9.287  48.680 -25.981  1.00  0.00     0.051 C 
HETATM   36  C18 UNL     1     -10.600  47.899 -25.833  1.00  0.00     0.045 C 
HETATM   37  C19 UNL     1      -8.724  48.472 -27.388  1.00  0.00     0.045 C 
BRANCH  35  38
HETATM   38  O2  UNL     1      -9.597  50.067 -25.844  1.00  0.00    -0.391 OA
HETATM   39  H28 UNL     1      -9.989  50.204 -24.962  1.00  0.00     0.210 HD
ENDBRANCH  35  38
ENDBRANCH  34  35
ENDBRANCH  33  34
ENDBRANCH  32  33
ENDBRANCH   7  32
TORSDOF 11
ENDMDL
MODEL 5
REMARK minimizedAffinity -9.39980221
REMARK  11 active torsions:
REMARK  status: ('A' for Active; 'I' for Inactive)
REMARK    1  A    between atoms: C4_4  and  C5_5 
REMARK    2  A    between atoms: C5_5  and  C6_6 
REMARK    3  A    between atoms: C7_7  and  O1_8 
REMARK    4  A    between atoms: C12_13  and  C14_15 
REMARK    5  A    between atoms: C14_15  and  C15_16 
REMARK    6  A    between atoms: C15_16  and  C16_17 
REMARK    7  A    between atoms: C16_17  and  C17_18 
REMARK    8  A    between atoms: C17_18  and  O2_21 
REMARK    9  A    between atoms: C23_26  and  C24_27 
REMARK   10  A    between atoms: C26_29  and  O4_30 
REMARK   11  A    between atoms: C28_32  and  O5_33 
ROOT
HETATM    1  C6  UNL     1      -1.206  51.738 -20.405  1.00  0.00    -0.006 A 
HETATM    2  C7  UNL     1      -2.411  51.185 -19.922  1.00  0.00     0.107 A 
HETATM    3  C8  UNL     1      -3.379  50.626 -20.764  1.00  0.00     0.117 A 
HETATM    4  C9  UNL     1      -3.187  50.598 -22.141  1.00  0.00     0.035 A 
HETATM    5  C10 UNL     1      -4.183  50.051 -23.034  1.00  0.00     0.016 C 
HETATM    6  C11 UNL     1      -5.254  49.487 -22.468  1.00  0.00     0.012 C 
HETATM    7  C12 UNL     1      -5.462  49.391 -20.968  1.00  0.00     0.082 C 
HETATM    8  C13 UNL     1      -6.834  49.990 -20.622  1.00  0.00     0.051 C 
HETATM    9  O3  UNL     1      -4.514  50.144 -20.163  1.00  0.00    -0.333 OA
HETATM   10  C20 UNL     1      -1.998  51.143 -22.624  1.00  0.00     0.100 A 
HETATM   11  C21 UNL     1      -1.018  51.704 -21.810  1.00  0.00     0.011 A 
HETATM   12  C22 UNL     1       0.009  52.134 -22.700  1.00  0.00     0.053 A 
HETATM   13  C23 UNL     1      -0.395  51.816 -23.982  1.00  0.00     0.087 A 
HETATM   14  O6  UNL     1      -1.619  51.210 -23.933  1.00  0.00    -0.308 OA
ENDROOT
BRANCH  13  15
HETATM   15  C24 UNL     1       0.189  51.991 -25.309  1.00  0.00     0.003 A 
HETATM   16  C25 UNL     1      -0.540  52.571 -26.357  1.00  0.00     0.051 A 
HETATM   17  C26 UNL     1       0.032  52.728 -27.618  1.00  0.00     0.069 A 
HETATM   18  C27 UNL     1       1.336  52.318 -27.870  1.00  0.00     0.073 A 
HETATM   19  C28 UNL     1       2.063  51.744 -26.833  1.00  0.00     0.069 A 
HETATM   20  C29 UNL     1       1.505  51.578 -25.566  1.00  0.00     0.051 A 
BRANCH  17  21
HETATM   21  O4  UNL     1      -0.735  53.294 -28.595  1.00  0.00    -0.361 OA
HETATM   22  H31 UNL     1      -0.217  53.348 -29.415  1.00  0.00     0.217 HD
ENDBRANCH  17  21
BRANCH  19  23
HETATM   23  O5  UNL     1       3.348  51.321 -27.013  1.00  0.00    -0.361 OA
HETATM   24  H33 UNL     1       3.609  51.479 -27.936  1.00  0.00     0.217 HD
ENDBRANCH  19  23
ENDBRANCH  13  15
BRANCH   1  25
HETATM   25  C5  UNL     1      -0.174  52.306 -19.457  1.00  0.00     0.070 C 
BRANCH  25  26
HETATM   26  C4  UNL     1      -0.004  51.454 -18.227  1.00  0.00    -0.020 C 
HETATM   27  C2  UNL     1       0.881  51.606 -17.221  1.00  0.00    -0.091 C 
HETATM   28  C1  UNL     1       1.894  52.712 -17.115  1.00  0.00     0.042 C 
HETATM   29  C3  UNL     1       0.902  50.637 -16.067  1.00  0.00     0.042 C 
ENDBRANCH  25  26
ENDBRANCH   1  25
BRANCH   2  30
HETATM   30  O1  UNL     1      -2.656  51.196 -18.569  1.00  0.00    -0.357 OA
HETATM   31  H10 UNL     1      -3.520  50.755 -18.459  1.00  0.00     0.217 HD
ENDBRANCH   2  30
BRANCH   7  32
HETATM   32  C14 UNL     1      -5.352  47.926 -20.471  1.00  0.00     0.042 C 
BRANCH  32  33
HETATM   33  C15 UNL     1      -5.021  46.876 -21.537  1.00  0.00     0.006 C 
BRANCH  33  34
HETATM   34  C16 UNL     1      -6.167  45.895 -21.842  1.00  0.00     0.037 C 
BRANCH  34  35
HETATM   35  C17 UNL     1      -6.118  44.510 -21.160  1.00  0.00     0.051 C 
HETATM   36  C18 UNL     1      -6.674  43.446 -22.115  1.00  0.00     0.045 C 
HETATM   37  C19 UNL     1      -6.895  44.472 -19.844  1.00  0.00     0.045 C 
BRANCH  35  38
HETATM   38  O2  UNL     1      -4.764  44.158 -20.870  1.00  0.00    -0.391 OA
HETATM   39  H28 UNL     1      -4.268  44.146 -21.708  1.00  0.00     0.210 HD
ENDBRANCH  35  38
ENDBRANCH  34  35
ENDBRANCH  33  34
ENDBRANCH  32  33
ENDBRANCH   7  32
TORSDOF 11
ENDMDL
MODEL 6
REMARK minimizedAffinity -9.33552265
REMARK  11 active torsions:
REMARK  status: ('A' for Active; 'I' for Inactive)
REMARK    1  A    between atoms: C4_4  and  C5_5 
REMARK    2  A    between atoms: C5_5  and  C6_6 
REMARK    3  A    between atoms: C7_7  and  O1_8 
REMARK    4  A    between atoms: C12_13  and  C14_15 
REMARK    5  A    between atoms: C14_15  and  C15_16 
REMARK    6  A    between atoms: C15_16  and  C16_17 
REMARK    7  A    between atoms: C16_17  and  C17_18 
REMARK    8  A    between atoms: C17_18  and  O2_21 
REMARK    9  A    between atoms: C23_26  and  C24_27 
REMARK   10  A    between atoms: C26_29  and  O4_30 
REMARK   11  A    between atoms: C28_32  and  O5_33 
ROOT
HETATM    1  C6  UNL     1      -7.382  47.305 -26.999  1.00  0.00    -0.006 A 
HETATM    2  C7  UNL     1      -6.666  47.644 -25.832  1.00  0.00     0.107 A 
HETATM    3  C8  UNL     1      -5.368  48.168 -25.863  1.00  0.00     0.117 A 
HETATM    4  C9  UNL     1      -4.719  48.375 -27.075  1.00  0.00     0.035 A 
HETATM    5  C10 UNL     1      -3.370  48.890 -27.135  1.00  0.00     0.016 C 
HETATM    6  C11 UNL     1      -2.811  49.247 -25.976  1.00  0.00     0.012 C 
HETATM    7  C12 UNL     1      -3.514  49.145 -24.634  1.00  0.00     0.082 C 
HETATM    8  C13 UNL     1      -2.624  48.342 -23.672  1.00  0.00     0.051 C 
HETATM    9  O3  UNL     1      -4.780  48.431 -24.652  1.00  0.00    -0.333 OA
HETATM   10  C20 UNL     1      -5.422  48.042 -28.233  1.00  0.00     0.100 A 
HETATM   11  C21 UNL     1      -6.713  47.521 -28.231  1.00  0.00     0.011 A 
HETATM   12  C22 UNL     1      -7.043  47.327 -29.604  1.00  0.00     0.053 A 
HETATM   13  C23 UNL     1      -5.955  47.735 -30.352  1.00  0.00     0.087 A 
HETATM   14  O6  UNL     1      -4.969  48.172 -29.514  1.00  0.00    -0.308 OA
ENDROOT
BRANCH  13  15
HETATM   15  C24 UNL     1      -5.662  47.786 -31.782  1.00  0.00     0.003 A 
HETATM   16  C25 UNL     1      -4.358  48.001 -32.252  1.00  0.00     0.051 A 
HETATM   17  C26 UNL     1      -4.097  48.050 -33.621  1.00  0.00     0.069 A 
HETATM   18  C27 UNL     1      -5.115  47.886 -34.552  1.00  0.00     0.073 A 
HETATM   19  C28 UNL     1      -6.409  47.672 -34.089  1.00  0.00     0.069 A 
HETATM   20  C29 UNL     1      -6.688  47.622 -32.724  1.00  0.00     0.051 A 
BRANCH  17  21
HETATM   21  O4  UNL     1      -2.807  48.268 -34.010  1.00  0.00    -0.361 OA
HETATM   22  H31 UNL     1      -2.765  48.274 -34.981  1.00  0.00     0.217 HD
ENDBRANCH  17  21
BRANCH  19  23
HETATM   23  O5  UNL     1      -7.455  47.502 -34.950  1.00  0.00    -0.361 OA
HETATM   24  H33 UNL     1      -7.129  47.574 -35.863  1.00  0.00     0.217 HD
ENDBRANCH  19  23
ENDBRANCH  13  15
BRANCH   1  25
HETATM   25  C5  UNL     1      -8.793  46.767 -26.920  1.00  0.00     0.070 C 
BRANCH  25  26
HETATM   26  C4  UNL     1      -9.608  47.133 -28.132  1.00  0.00    -0.020 C 
HETATM   27  C2  UNL     1     -10.850  47.656 -28.178  1.00  0.00    -0.091 C 
HETATM   28  C1  UNL     1     -11.688  48.009 -26.980  1.00  0.00     0.042 C 
HETATM   29  C3  UNL     1     -11.508  47.951 -29.501  1.00  0.00     0.042 C 
ENDBRANCH  25  26
ENDBRANCH   1  25
BRANCH   2  30
HETATM   30  O1  UNL     1      -7.256  47.448 -24.606  1.00  0.00    -0.357 OA
HETATM   31  H10 UNL     1      -6.603  47.762 -23.950  1.00  0.00     0.217 HD
ENDBRANCH   2  30
BRANCH   7  32
HETATM   32  C14 UNL     1      -3.839  50.547 -24.055  1.00  0.00     0.042 C 
BRANCH  32  33
HETATM   33  C15 UNL     1      -2.682  51.272 -23.358  1.00  0.00     0.006 C 
BRANCH  33  34
HETATM   34  C16 UNL     1      -2.218  52.556 -24.067  1.00  0.00     0.037 C 
BRANCH  34  35
HETATM   35  C17 UNL     1      -0.710  52.697 -24.370  1.00  0.00     0.051 C 
HETATM   36  C18 UNL     1      -0.247  51.518 -25.236  1.00  0.00     0.045 C 
HETATM   37  C19 UNL     1       0.142  52.768 -23.103  1.00  0.00     0.045 C 
BRANCH  35  38
HETATM   38  O2  UNL     1      -0.473  53.893 -25.114  1.00  0.00    -0.391 OA
HETATM   39  H28 UNL     1      -0.986  53.842 -25.941  1.00  0.00     0.210 HD
ENDBRANCH  35  38
ENDBRANCH  34  35
ENDBRANCH  33  34
ENDBRANCH  32  33
ENDBRANCH   7  32
TORSDOF 11
ENDMDL
MODEL 7
REMARK minimizedAffinity -9.28992939
REMARK  11 active torsions:
REMARK  status: ('A' for Active; 'I' for Inactive)
REMARK    1  A    between atoms: C4_4  and  C5_5 
REMARK    2  A    between atoms: C5_5  and  C6_6 
REMARK    3  A    between atoms: C7_7  and  O1_8 
REMARK    4  A    between atoms: C12_13  and  C14_15 
REMARK    5  A    between atoms: C14_15  and  C15_16 
REMARK    6  A    between atoms: C15_16  and  C16_17 
REMARK    7  A    between atoms: C16_17  and  C17_18 
REMARK    8  A    between atoms: C17_18  and  O2_21 
REMARK    9  A    between atoms: C23_26  and  C24_27 
REMARK   10  A    between atoms: C26_29  and  O4_30 
REMARK   11  A    between atoms: C28_32  and  O5_33 
ROOT
HETATM    1  C6  UNL     1      -4.331  48.611 -24.259  1.00  0.00    -0.006 A 
HETATM    2  C7  UNL     1      -4.408  48.273 -22.892  1.00  0.00     0.107 A 
HETATM    3  C8  UNL     1      -3.408  48.606 -21.970  1.00  0.00     0.117 A 
HETATM    4  C9  UNL     1      -2.273  49.296 -22.380  1.00  0.00     0.035 A 
HETATM    5  C10 UNL     1      -1.214  49.630 -21.454  1.00  0.00     0.016 C 
HETATM    6  C11 UNL     1      -1.421  49.328 -20.170  1.00  0.00     0.012 C 
HETATM    7  C12 UNL     1      -2.689  48.674 -19.651  1.00  0.00     0.082 C 
HETATM    8  C13 UNL     1      -2.303  47.420 -18.851  1.00  0.00     0.051 C 
HETATM    9  O3  UNL     1      -3.601  48.195 -20.677  1.00  0.00    -0.333 OA
HETATM   10  C20 UNL     1      -2.191  49.634 -23.730  1.00  0.00     0.100 A 
HETATM   11  C21 UNL     1      -3.170  49.316 -24.667  1.00  0.00     0.011 A 
HETATM   12  C22 UNL     1      -2.691  49.838 -25.904  1.00  0.00     0.053 A 
HETATM   13  C23 UNL     1      -1.470  50.435 -25.656  1.00  0.00     0.087 A 
HETATM   14  O6  UNL     1      -1.169  50.311 -24.329  1.00  0.00    -0.308 OA
ENDROOT
BRANCH  13  15
HETATM   15  C24 UNL     1      -0.488  51.131 -26.482  1.00  0.00     0.003 A 
HETATM   16  C25 UNL     1      -0.881  52.062 -27.455  1.00  0.00     0.051 A 
HETATM   17  C26 UNL     1       0.071  52.714 -28.238  1.00  0.00     0.069 A 
HETATM   18  C27 UNL     1       1.428  52.463 -28.075  1.00  0.00     0.073 A 
HETATM   19  C28 UNL     1       1.821  51.541 -27.111  1.00  0.00     0.069 A 
HETATM   20  C29 UNL     1       0.883  50.879 -26.321  1.00  0.00     0.051 A 
BRANCH  17  21
HETATM   21  O4  UNL     1      -0.381  53.604 -29.170  1.00  0.00    -0.361 OA
HETATM   22  H31 UNL     1       0.380  53.987 -29.638  1.00  0.00     0.217 HD
ENDBRANCH  17  21
BRANCH  19  23
HETATM   23  O5  UNL     1       3.138  51.249 -26.900  1.00  0.00    -0.361 OA
HETATM   24  H33 UNL     1       3.681  51.764 -27.521  1.00  0.00     0.217 HD
ENDBRANCH  19  23
ENDBRANCH  13  15
BRANCH   1  25
HETATM   25  C5  UNL     1      -5.448  48.255 -25.215  1.00  0.00     0.070 C 
BRANCH  25  26
HETATM   26  C4  UNL     1      -4.982  48.227 -26.646  1.00  0.00    -0.020 C 
HETATM   27  C2  UNL     1      -5.678  47.871 -27.745  1.00  0.00    -0.091 C 
HETATM   28  C1  UNL     1      -7.118  47.438 -27.759  1.00  0.00     0.042 C 
HETATM   29  C3  UNL     1      -5.030  47.903 -29.105  1.00  0.00     0.042 C 
ENDBRANCH  25  26
ENDBRANCH   1  25
BRANCH   2  30
HETATM   30  O1  UNL     1      -5.505  47.580 -22.436  1.00  0.00    -0.357 OA
HETATM   31  H10 UNL     1      -5.362  47.471 -21.476  1.00  0.00     0.217 HD
ENDBRANCH   2  30
BRANCH   7  32
HETATM   32  C14 UNL     1      -3.521  49.654 -18.783  1.00  0.00     0.042 C 
BRANCH  32  33
HETATM   33  C15 UNL     1      -2.763  50.861 -18.216  1.00  0.00     0.006 C 
BRANCH  33  34
HETATM   34  C16 UNL     1      -2.202  50.650 -16.799  1.00  0.00     0.037 C 
BRANCH  34  35
HETATM   35  C17 UNL     1      -0.667  50.680 -16.630  1.00  0.00     0.051 C 
HETATM   36  C18 UNL     1      -0.045  51.542 -17.736  1.00  0.00     0.045 C 
HETATM   37  C19 UNL     1      -0.043  49.285 -16.656  1.00  0.00     0.045 C 
BRANCH  35  38
HETATM   38  O2  UNL     1      -0.327  51.280 -15.379  1.00  0.00    -0.391 OA
HETATM   39  H28 UNL     1      -0.692  52.183 -15.367  1.00  0.00     0.210 HD
ENDBRANCH  35  38
ENDBRANCH  34  35
ENDBRANCH  33  34
ENDBRANCH  32  33
ENDBRANCH   7  32
TORSDOF 11
ENDMDL
MODEL 8
REMARK minimizedAffinity -9.2843008
REMARK  11 active torsions:
REMARK  status: ('A' for Active; 'I' for Inactive)
REMARK    1  A    between atoms: C4_4  and  C5_5 
REMARK    2  A    between atoms: C5_5  and  C6_6 
REMARK    3  A    between atoms: C7_7  and  O1_8 
REMARK    4  A    between atoms: C12_13  and  C14_15 
REMARK    5  A    between atoms: C14_15  and  C15_16 
REMARK    6  A    between atoms: C15_16  and  C16_17 
REMARK    7  A    between atoms: C16_17  and  C17_18 
REMARK    8  A    between atoms: C17_18  and  O2_21 
REMARK    9  A    between atoms: C23_26  and  C24_27 
REMARK   10  A    between atoms: C26_29  and  O4_30 
REMARK   11  A    between atoms: C28_32  and  O5_33 
ROOT
HETATM    1  C6  UNL     1      -4.892  48.444 -24.584  1.00  0.00    -0.006 A 
HETATM    2  C7  UNL     1      -5.949  47.803 -25.263  1.00  0.00     0.107 A 
HETATM    3  C8  UNL     1      -6.024  47.736 -26.659  1.00  0.00     0.117 A 
HETATM    4  C9  UNL     1      -5.037  48.317 -27.448  1.00  0.00     0.035 A 
HETATM    5  C10 UNL     1      -5.104  48.285 -28.891  1.00  0.00     0.016 C 
HETATM    6  C11 UNL     1      -6.109  47.590 -29.432  1.00  0.00     0.012 C 
HETATM    7  C12 UNL     1      -7.152  46.845 -28.618  1.00  0.00     0.082 C 
HETATM    8  C13 UNL     1      -8.547  47.304 -29.069  1.00  0.00     0.051 C 
HETATM    9  O3  UNL     1      -7.120  47.103 -27.187  1.00  0.00    -0.333 OA
HETATM   10  C20 UNL     1      -3.989  48.951 -26.783  1.00  0.00     0.100 A 
HETATM   11  C21 UNL     1      -3.889  49.032 -25.397  1.00  0.00     0.011 A 
HETATM   12  C22 UNL     1      -2.686  49.755 -25.148  1.00  0.00     0.053 A 
HETATM   13  C23 UNL     1      -2.130  50.067 -26.373  1.00  0.00     0.087 A 
HETATM   14  O6  UNL     1      -2.926  49.575 -27.368  1.00  0.00    -0.308 OA
ENDROOT
BRANCH  13  15
HETATM   15  C24 UNL     1      -0.930  50.784 -26.796  1.00  0.00     0.003 A 
HETATM   16  C25 UNL     1       0.335  50.451 -26.290  1.00  0.00     0.051 A 
HETATM   17  C26 UNL     1       1.470  51.148 -26.702  1.00  0.00     0.069 A 
HETATM   18  C27 UNL     1       1.380  52.185 -27.623  1.00  0.00     0.073 A 
HETATM   19  C28 UNL     1       0.127  52.517 -28.128  1.00  0.00     0.069 A 
HETATM   20  C29 UNL     1      -1.018  51.831 -27.725  1.00  0.00     0.051 A 
BRANCH  17  21
HETATM   21  O4  UNL     1       2.669  50.777 -26.166  1.00  0.00    -0.361 OA
HETATM   22  H31 UNL     1       3.371  51.336 -26.540  1.00  0.00     0.217 HD
ENDBRANCH  17  21
BRANCH  19  23
HETATM   23  O5  UNL     1      -0.031  53.524 -29.036  1.00  0.00    -0.361 OA
HETATM   24  H33 UNL     1       0.835  53.926 -29.218  1.00  0.00     0.217 HD
ENDBRANCH  19  23
ENDBRANCH  13  15
BRANCH   1  25
HETATM   25  C5  UNL     1      -4.836  48.468 -23.073  1.00  0.00     0.070 C 
BRANCH  25  26
HETATM   26  C4  UNL     1      -3.425  48.363 -22.556  1.00  0.00    -0.020 C 
HETATM   27  C2  UNL     1      -2.921  47.473 -21.678  1.00  0.00    -0.091 C 
HETATM   28  C1  UNL     1      -3.694  46.353 -21.036  1.00  0.00     0.042 C 
HETATM   29  C3  UNL     1      -1.471  47.532 -21.275  1.00  0.00     0.042 C 
ENDBRANCH  25  26
ENDBRANCH   1  25
BRANCH   2  30
HETATM   30  O1  UNL     1      -6.958  47.222 -24.531  1.00  0.00    -0.357 OA
HETATM   31  H10 UNL     1      -7.562  46.829 -25.190  1.00  0.00     0.217 HD
ENDBRANCH   2  30
BRANCH   7  32
HETATM   32  C14 UNL     1      -6.996  45.308 -28.764  1.00  0.00     0.042 C 
BRANCH  32  33
HETATM   33  C15 UNL     1      -7.539  44.696 -30.060  1.00  0.00     0.006 C 
BRANCH  33  34
HETATM   34  C16 UNL     1      -6.465  44.071 -30.967  1.00  0.00     0.037 C 
BRANCH  34  35
HETATM   35  C17 UNL     1      -6.129  44.804 -32.283  1.00  0.00     0.051 C 
HETATM   36  C18 UNL     1      -4.700  45.359 -32.214  1.00  0.00     0.045 C 
HETATM   37  C19 UNL     1      -7.105  45.940 -32.592  1.00  0.00     0.045 C 
BRANCH  35  38
HETATM   38  O2  UNL     1      -6.178  43.887 -33.377  1.00  0.00    -0.391 OA
HETATM   39  H28 UNL     1      -5.534  43.177 -33.206  1.00  0.00     0.210 HD
ENDBRANCH  35  38
ENDBRANCH  34  35
ENDBRANCH  33  34
ENDBRANCH  32  33
ENDBRANCH   7  32
TORSDOF 11
ENDMDL
MODEL 9
REMARK minimizedAffinity -9.26578236
REMARK  11 active torsions:
REMARK  status: ('A' for Active; 'I' for Inactive)
REMARK    1  A    between atoms: C4_4  and  C5_5 
REMARK    2  A    between atoms: C5_5  and  C6_6 
REMARK    3  A    between atoms: C7_7  and  O1_8 
REMARK    4  A    between atoms: C12_13  and  C14_15 
REMARK    5  A    between atoms: C14_15  and  C15_16 
REMARK    6  A    between atoms: C15_16  and  C16_17 
REMARK    7  A    between atoms: C16_17  and  C17_18 
REMARK    8  A    between atoms: C17_18  and  O2_21 
REMARK    9  A    between atoms: C23_26  and  C24_27 
REMARK   10  A    between atoms: C26_29  and  O4_30 
REMARK   11  A    between atoms: C28_32  and  O5_33 
ROOT
HETATM    1  C6  UNL     1      -2.368  50.395 -25.841  1.00  0.00    -0.006 A 
HETATM    2  C7  UNL     1      -2.302  50.404 -24.432  1.00  0.00     0.107 A 
HETATM    3  C8  UNL     1      -3.142  49.625 -23.627  1.00  0.00     0.117 A 
HETATM    4  C9  UNL     1      -4.099  48.796 -24.201  1.00  0.00     0.035 A 
HETATM    5  C10 UNL     1      -4.996  48.001 -23.393  1.00  0.00     0.016 C 
HETATM    6  C11 UNL     1      -4.799  48.028 -22.072  1.00  0.00     0.012 C 
HETATM    7  C12 UNL     1      -3.699  48.830 -21.400  1.00  0.00     0.082 C 
HETATM    8  C13 UNL     1      -4.330  49.722 -20.320  1.00  0.00     0.051 C 
HETATM    9  O3  UNL     1      -2.984  49.749 -22.271  1.00  0.00    -0.333 OA
HETATM   10  C20 UNL     1      -4.169  48.782 -25.594  1.00  0.00     0.100 A 
HETATM   11  C21 UNL     1      -3.347  49.545 -26.417  1.00  0.00     0.011 A 
HETATM   12  C22 UNL     1      -3.752  49.233 -27.748  1.00  0.00     0.053 A 
HETATM   13  C23 UNL     1      -4.779  48.313 -27.662  1.00  0.00     0.087 A 
HETATM   14  O6  UNL     1      -5.031  48.038 -26.347  1.00  0.00    -0.308 OA
ENDROOT
BRANCH  13  15
HETATM   15  C24 UNL     1      -5.609  47.616 -28.641  1.00  0.00     0.003 A 
HETATM   16  C25 UNL     1      -5.289  47.624 -30.006  1.00  0.00     0.051 A 
HETATM   17  C26 UNL     1      -6.095  46.956 -30.927  1.00  0.00     0.069 A 
HETATM   18  C27 UNL     1      -7.230  46.265 -30.520  1.00  0.00     0.073 A 
HETATM   19  C28 UNL     1      -7.549  46.254 -29.167  1.00  0.00     0.069 A 
HETATM   20  C29 UNL     1      -6.755  46.918 -28.232  1.00  0.00     0.051 A 
BRANCH  17  21
HETATM   21  O4  UNL     1      -5.729  47.010 -32.241  1.00  0.00    -0.361 OA
HETATM   22  H31 UNL     1      -6.369  46.503 -32.770  1.00  0.00     0.217 HD
ENDBRANCH  17  21
BRANCH  19  23
HETATM   23  O5  UNL     1      -8.649  45.594 -28.700  1.00  0.00    -0.361 OA
HETATM   24  H33 UNL     1      -9.119  45.190 -29.449  1.00  0.00     0.217 HD
ENDBRANCH  19  23
ENDBRANCH  13  15
BRANCH   1  25
HETATM   25  C5  UNL     1      -1.422  51.232 -26.672  1.00  0.00     0.070 C 
BRANCH  25  26
HETATM   26  C4  UNL     1       0.011  51.064 -26.241  1.00  0.00    -0.020 C 
HETATM   27  C2  UNL     1       1.131  51.353 -26.933  1.00  0.00    -0.091 C 
HETATM   28  C1  UNL     1       1.170  51.944 -28.316  1.00  0.00     0.042 C 
HETATM   29  C3  UNL     1       2.489  51.107 -26.329  1.00  0.00     0.042 C 
ENDBRANCH  25  26
ENDBRANCH   1  25
BRANCH   2  30
HETATM   30  O1  UNL     1      -1.380  51.215 -23.812  1.00  0.00    -0.357 OA
HETATM   31  H10 UNL     1      -1.494  51.053 -22.856  1.00  0.00     0.217 HD
ENDBRANCH   2  30
BRANCH   7  32
HETATM   32  C14 UNL     1      -2.611  47.906 -20.793  1.00  0.00     0.042 C 
BRANCH  32  33
HETATM   33  C15 UNL     1      -1.235  48.543 -20.568  1.00  0.00     0.006 C 
BRANCH  33  34
HETATM   34  C16 UNL     1      -1.024  49.118 -19.156  1.00  0.00     0.037 C 
BRANCH  34  35
HETATM   35  C17 UNL     1      -0.725  50.628 -19.040  1.00  0.00     0.051 C 
HETATM   36  C18 UNL     1      -0.139  51.140 -20.363  1.00  0.00     0.045 C 
HETATM   37  C19 UNL     1       0.234  50.954 -17.895  1.00  0.00     0.045 C 
BRANCH  35  38
HETATM   38  O2  UNL     1      -1.936  51.348 -18.804  1.00  0.00    -0.391 OA
HETATM   39  H28 UNL     1      -2.542  51.173 -19.547  1.00  0.00     0.210 HD
ENDBRANCH  35  38
ENDBRANCH  34  35
ENDBRANCH  33  34
ENDBRANCH  32  33
ENDBRANCH   7  32
TORSDOF 11
ENDMDL
