MODEL 1
REMARK minimizedAffinity -6.15254211
REMARK  11 active torsions:
REMARK  status: ('A' for Active; 'I' for Inactive)
REMARK    1  A    between atoms: O1_2  and  C2_3 
REMARK    2  A    between atoms: C5_6  and  N1_7 
REMARK    3  A    between atoms: N1_7  and  C6_8 
REMARK    4  A    between atoms: C6_8  and  C7_9 
REMARK    5  A    between atoms: C7_9  and  C8_10 
REMARK    6  A    between atoms: C8_10  and  C9_11 
REMARK    7  A    between atoms: C9_11  and  C10_12 
REMARK    8  A    between atoms: C10_12  and  O2_13 
REMARK    9  A    between atoms: O2_13  and  N2_14 
REMARK   10  A    between atoms: C13_23  and  O5_24 
REMARK   11  A    between atoms: C15_26  and  O6_27 
ROOT
HETATM    1  C2  UNL     1      10.720  35.201  21.616  1.00  0.00     0.105 A 
HETATM    2  C3  UNL     1      11.209  35.178  20.311  1.00  0.00     0.057 A 
HETATM    3  C4  UNL     1      10.365  35.435  19.195  1.00  0.00     0.035 A 
HETATM    4  C5  UNL     1      10.798  35.409  17.853  1.00  0.00     0.093 A 
HETATM    5  N3  UNL     1       9.980  35.703  16.829  1.00  0.00    -0.342 N 
ATOM      6  H3  UNL     1      10.308  35.701  15.863  1.00  0.00     0.167 HD
HETATM    7  C11 UNL     1       8.716  35.997  17.139  1.00  0.00     0.182 A 
HETATM    8  N4  UNL     1       8.192  36.024  18.366  1.00  0.00    -0.349 N 
ATOM      9  H4  UNL     1       7.208  36.247  18.518  1.00  0.00     0.166 HD
HETATM   10  C12 UNL     1       9.012  35.748  19.395  1.00  0.00     0.083 A 
HETATM   11  C13 UNL     1       8.538  35.771  20.713  1.00  0.00     0.132 A 
HETATM   12  C15 UNL     1       9.365  35.470  21.806  1.00  0.00     0.137 A 
ENDROOT
BRANCH   4  13
HETATM   13  N1  UNL     1      12.143  35.069  17.570  1.00  0.00    -0.278 NA
HETATM   14  H5  UNL     1      12.139  34.213  17.020  1.00  0.00     0.129 HD
BRANCH  13  15
HETATM   15  C6  UNL     1      12.915  36.122  16.912  1.00  0.00     0.094 C 
BRANCH  15  16
HETATM   16  C7  UNL     1      14.397  35.741  16.938  1.00  0.00     0.015 C 
BRANCH  16  17
HETATM   17  C8  UNL     1      15.063  35.787  15.560  1.00  0.00     0.003 C 
BRANCH  17  18
HETATM   18  C9  UNL     1      16.512  35.288  15.568  1.00  0.00     0.029 C 
BRANCH  18  19
HETATM   19  C10 UNL     1      17.217  35.537  14.234  1.00  0.00     0.208 C 
BRANCH  19  20
HETATM   20  O2  UNL     1      17.003  34.414  13.384  1.00  0.00    -0.221 OA
BRANCH  20  21
HETATM   21  N2  UNL     1      16.185  34.721  12.270  1.00  0.00     0.004 N 
HETATM   22  O3  UNL     1      15.099  34.145  12.192  1.00  0.00    -0.511 OA
HETATM   23  O4  UNL     1      16.697  35.547  11.517  1.00  0.00    -0.511 OA
ENDBRANCH  20  21
ENDBRANCH  19  20
ENDBRANCH  18  19
ENDBRANCH  17  18
ENDBRANCH  16  17
ENDBRANCH  15  16
ENDBRANCH  13  15
ENDBRANCH   4  13
BRANCH   1  24
HETATM   24  O1  UNL     1      11.462  34.959  22.740  1.00  0.00    -0.353 OA
HETATM   25  C1  UNL     1      12.201  36.047  23.282  1.00  0.00     0.210 C 
ENDBRANCH   1  24
BRANCH  11  26
HETATM   26  O5  UNL     1       7.201  36.029  20.954  1.00  0.00    -0.351 OA
HETATM   27  C14 UNL     1       6.427  34.864  20.672  1.00  0.00     0.210 C 
ENDBRANCH  11  26
BRANCH  12  28
HETATM   28  O6  UNL     1       8.852  35.532  23.082  1.00  0.00    -0.351 OA
HETATM   29  C16 UNL     1       8.511  34.220  23.529  1.00  0.00     0.210 C 
ENDBRANCH  12  28
TORSDOF 11
ENDMDL
MODEL 2
REMARK minimizedAffinity -5.92887878
REMARK  11 active torsions:
REMARK  status: ('A' for Active; 'I' for Inactive)
REMARK    1  A    between atoms: O1_2  and  C2_3 
REMARK    2  A    between atoms: C5_6  and  N1_7 
REMARK    3  A    between atoms: N1_7  and  C6_8 
REMARK    4  A    between atoms: C6_8  and  C7_9 
REMARK    5  A    between atoms: C7_9  and  C8_10 
REMARK    6  A    between atoms: C8_10  and  C9_11 
REMARK    7  A    between atoms: C9_11  and  C10_12 
REMARK    8  A    between atoms: C10_12  and  O2_13 
REMARK    9  A    between atoms: O2_13  and  N2_14 
REMARK   10  A    between atoms: C13_23  and  O5_24 
REMARK   11  A    between atoms: C15_26  and  O6_27 
ROOT
HETATM    1  C2  UNL     1      10.539  35.196  21.782  1.00  0.00     0.105 A 
HETATM    2  C3  UNL     1      11.122  35.196  20.516  1.00  0.00     0.057 A 
HETATM    3  C4  UNL     1      10.354  35.439  19.344  1.00  0.00     0.035 A 
HETATM    4  C5  UNL     1      10.883  35.435  18.036  1.00  0.00     0.093 A 
HETATM    5  N3  UNL     1      10.134  35.716  16.958  1.00  0.00    -0.342 N 
ATOM      6  H3  UNL     1      10.532  35.730  16.018  1.00  0.00     0.167 HD
HETATM    7  C11 UNL     1       8.844  35.976  17.177  1.00  0.00     0.182 A 
HETATM    8  N4  UNL     1       8.232  35.981  18.363  1.00  0.00    -0.349 N 
ATOM      9  H4  UNL     1       7.234  36.177  18.444  1.00  0.00     0.166 HD
HETATM   10  C12 UNL     1       8.982  35.717  19.446  1.00  0.00     0.083 A 
HETATM   11  C13 UNL     1       8.414  35.717  20.727  1.00  0.00     0.132 A 
HETATM   12  C15 UNL     1       9.167  35.429  21.875  1.00  0.00     0.137 A 
ENDROOT
BRANCH   4  13
HETATM   13  N1  UNL     1      12.253  35.132  17.849  1.00  0.00    -0.278 NA
HETATM   14  H5  UNL     1      12.316  34.186  17.478  1.00  0.00     0.129 HD
BRANCH  13  15
HETATM   15  C6  UNL     1      12.983  36.083  17.011  1.00  0.00     0.094 C 
BRANCH  15  16
HETATM   16  C7  UNL     1      14.309  35.452  16.582  1.00  0.00     0.015 C 
BRANCH  16  17
HETATM   17  C8  UNL     1      15.335  36.471  16.079  1.00  0.00     0.003 C 
BRANCH  17  18
HETATM   18  C9  UNL     1      14.728  37.845  15.776  1.00  0.00     0.029 C 
BRANCH  18  19
HETATM   19  C10 UNL     1      15.799  38.898  15.485  1.00  0.00     0.208 C 
BRANCH  19  20
HETATM   20  O2  UNL     1      15.306  39.796  14.496  1.00  0.00    -0.221 OA
BRANCH  20  21
HETATM   21  N2  UNL     1      16.253  40.059  13.478  1.00  0.00     0.004 N 
HETATM   22  O3  UNL     1      16.757  39.088  12.911  1.00  0.00    -0.511 OA
HETATM   23  O4  UNL     1      16.442  41.261  13.302  1.00  0.00    -0.511 OA
ENDBRANCH  20  21
ENDBRANCH  19  20
ENDBRANCH  18  19
ENDBRANCH  17  18
ENDBRANCH  16  17
ENDBRANCH  15  16
ENDBRANCH  13  15
ENDBRANCH   4  13
BRANCH   1  24
HETATM   24  O1  UNL     1      11.203  34.964  22.955  1.00  0.00    -0.353 OA
HETATM   25  C1  UNL     1      11.977  36.031  23.490  1.00  0.00     0.210 C 
ENDBRANCH   1  24
BRANCH  11  26
HETATM   26  O5  UNL     1       7.057  35.939  20.872  1.00  0.00    -0.351 OA
HETATM   27  C14 UNL     1       6.335  34.758  20.526  1.00  0.00     0.210 C 
ENDBRANCH  11  26
BRANCH  12  28
HETATM   28  O6  UNL     1       8.562  35.467  23.111  1.00  0.00    -0.351 OA
HETATM   29  C16 UNL     1       8.282  34.139  23.553  1.00  0.00     0.210 C 
ENDBRANCH  12  28
TORSDOF 11
ENDMDL
MODEL 3
REMARK minimizedAffinity -5.76634884
REMARK  11 active torsions:
REMARK  status: ('A' for Active; 'I' for Inactive)
REMARK    1  A    between atoms: O1_2  and  C2_3 
REMARK    2  A    between atoms: C5_6  and  N1_7 
REMARK    3  A    between atoms: N1_7  and  C6_8 
REMARK    4  A    between atoms: C6_8  and  C7_9 
REMARK    5  A    between atoms: C7_9  and  C8_10 
REMARK    6  A    between atoms: C8_10  and  C9_11 
REMARK    7  A    between atoms: C9_11  and  C10_12 
REMARK    8  A    between atoms: C10_12  and  O2_13 
REMARK    9  A    between atoms: O2_13  and  N2_14 
REMARK   10  A    between atoms: C13_23  and  O5_24 
REMARK   11  A    between atoms: C15_26  and  O6_27 
ROOT
HETATM    1  C2  UNL     1      15.264  38.145  15.815  1.00  0.00     0.105 A 
HETATM    2  C3  UNL     1      14.116  37.437  16.169  1.00  0.00     0.057 A 
HETATM    3  C4  UNL     1      14.191  36.189  16.846  1.00  0.00     0.035 A 
HETATM    4  C5  UNL     1      13.067  35.419  17.214  1.00  0.00     0.093 A 
HETATM    5  N3  UNL     1      13.178  34.267  17.894  1.00  0.00    -0.342 N 
ATOM      6  H3  UNL     1      12.358  33.728  18.173  1.00  0.00     0.167 HD
HETATM    7  C11 UNL     1      14.415  33.861  18.187  1.00  0.00     0.182 A 
HETATM    8  N4  UNL     1      15.547  34.492  17.867  1.00  0.00    -0.349 N 
ATOM      9  H4  UNL     1      16.458  34.107  18.117  1.00  0.00     0.166 HD
HETATM   10  C12 UNL     1      15.440  35.654  17.200  1.00  0.00     0.083 A 
HETATM   11  C13 UNL     1      16.582  36.381  16.842  1.00  0.00     0.132 A 
HETATM   12  C15 UNL     1      16.504  37.589  16.132  1.00  0.00     0.137 A 
ENDROOT
BRANCH   4  13
HETATM   13  N1  UNL     1      11.775  35.877  16.861  1.00  0.00    -0.278 NA
HETATM   14  H5  UNL     1      11.595  35.595  15.900  1.00  0.00     0.129 HD
BRANCH  13  15
HETATM   15  C6  UNL     1      10.704  35.436  17.756  1.00  0.00     0.094 C 
BRANCH  15  16
HETATM   16  C7  UNL     1       9.363  35.921  17.201  1.00  0.00     0.015 C 
BRANCH  16  17
HETATM   17  C8  UNL     1       8.496  36.637  18.241  1.00  0.00     0.003 C 
BRANCH  17  18
HETATM   18  C9  UNL     1       7.970  35.706  19.338  1.00  0.00     0.029 C 
BRANCH  18  19
HETATM   19  C10 UNL     1       6.515  35.298  19.101  1.00  0.00     0.208 C 
BRANCH  19  20
HETATM   20  O2  UNL     1       6.374  33.910  19.386  1.00  0.00    -0.221 OA
BRANCH  20  21
HETATM   21  N2  UNL     1       5.206  33.352  18.814  1.00  0.00     0.004 N 
HETATM   22  O3  UNL     1       5.216  33.145  17.599  1.00  0.00    -0.511 OA
HETATM   23  O4  UNL     1       4.320  33.149  19.642  1.00  0.00    -0.511 OA
ENDBRANCH  20  21
ENDBRANCH  19  20
ENDBRANCH  18  19
ENDBRANCH  17  18
ENDBRANCH  16  17
ENDBRANCH  15  16
ENDBRANCH  13  15
ENDBRANCH   4  13
BRANCH   1  24
HETATM   24  O1  UNL     1      15.279  39.345  15.159  1.00  0.00    -0.353 OA
HETATM   25  C1  UNL     1      15.730  39.346  13.810  1.00  0.00     0.210 C 
ENDBRANCH   1  24
BRANCH  11  26
HETATM   26  O5  UNL     1      17.834  35.870  17.129  1.00  0.00    -0.351 OA
HETATM   27  C14 UNL     1      18.111  34.761  16.275  1.00  0.00     0.210 C 
ENDBRANCH  11  26
BRANCH  12  28
HETATM   28  O6  UNL     1      17.658  38.273  15.826  1.00  0.00    -0.351 OA
HETATM   29  C16 UNL     1      18.358  37.598  14.781  1.00  0.00     0.210 C 
ENDBRANCH  12  28
TORSDOF 11
ENDMDL
MODEL 4
REMARK minimizedAffinity -5.69161415
REMARK  11 active torsions:
REMARK  status: ('A' for Active; 'I' for Inactive)
REMARK    1  A    between atoms: O1_2  and  C2_3 
REMARK    2  A    between atoms: C5_6  and  N1_7 
REMARK    3  A    between atoms: N1_7  and  C6_8 
REMARK    4  A    between atoms: C6_8  and  C7_9 
REMARK    5  A    between atoms: C7_9  and  C8_10 
REMARK    6  A    between atoms: C8_10  and  C9_11 
REMARK    7  A    between atoms: C9_11  and  C10_12 
REMARK    8  A    between atoms: C10_12  and  O2_13 
REMARK    9  A    between atoms: O2_13  and  N2_14 
REMARK   10  A    between atoms: C13_23  and  O5_24 
REMARK   11  A    between atoms: C15_26  and  O6_27 
ROOT
HETATM    1  C2  UNL     1      10.576  35.118  21.628  1.00  0.00     0.105 A 
HETATM    2  C3  UNL     1      11.023  35.046  20.310  1.00  0.00     0.057 A 
HETATM    3  C4  UNL     1      10.171  35.363  19.216  1.00  0.00     0.035 A 
HETATM    4  C5  UNL     1      10.561  35.291  17.862  1.00  0.00     0.093 A 
HETATM    5  N3  UNL     1       9.741  35.644  16.859  1.00  0.00    -0.342 N 
ATOM      6  H3  UNL     1      10.040  35.608  15.884  1.00  0.00     0.167 HD
HETATM    7  C11 UNL     1       8.515  36.043  17.201  1.00  0.00     0.182 A 
HETATM    8  N4  UNL     1       8.030  36.123  18.443  1.00  0.00    -0.349 N 
ATOM      9  H4  UNL     1       7.073  36.427  18.620  1.00  0.00     0.166 HD
HETATM   10  C12 UNL     1       8.854  35.787  19.450  1.00  0.00     0.083 A 
HETATM   11  C13 UNL     1       8.422  35.859  20.781  1.00  0.00     0.132 A 
HETATM   12  C15 UNL     1       9.253  35.499  21.853  1.00  0.00     0.137 A 
ENDROOT
BRANCH   4  13
HETATM   13  N1  UNL     1      11.865  34.840  17.544  1.00  0.00    -0.278 NA
HETATM   14  H5  UNL     1      11.776  34.065  16.890  1.00  0.00     0.129 HD
BRANCH  13  15
HETATM   15  C6  UNL     1      12.762  35.873  17.029  1.00  0.00     0.094 C 
BRANCH  15  16
HETATM   16  C7  UNL     1      14.139  35.703  17.676  1.00  0.00     0.015 C 
BRANCH  16  17
HETATM   17  C8  UNL     1      14.470  34.251  18.033  1.00  0.00     0.003 C 
BRANCH  17  18
HETATM   18  C9  UNL     1      15.158  34.102  19.394  1.00  0.00     0.029 C 
BRANCH  18  19
HETATM   19  C10 UNL     1      14.529  35.000  20.461  1.00  0.00     0.208 C 
BRANCH  19  20
HETATM   20  O2  UNL     1      15.469  36.004  20.830  1.00  0.00    -0.221 OA
BRANCH  20  21
HETATM   21  N2  UNL     1      14.870  37.275  21.000  1.00  0.00     0.004 N 
HETATM   22  O3  UNL     1      15.573  38.172  21.469  1.00  0.00    -0.511 OA
HETATM   23  O4  UNL     1      13.693  37.299  20.645  1.00  0.00    -0.511 OA
ENDBRANCH  20  21
ENDBRANCH  19  20
ENDBRANCH  18  19
ENDBRANCH  17  18
ENDBRANCH  16  17
ENDBRANCH  15  16
ENDBRANCH  13  15
ENDBRANCH   4  13
BRANCH   1  24
HETATM   24  O1  UNL     1      11.327  34.825  22.732  1.00  0.00    -0.353 OA
HETATM   25  C1  UNL     1      12.050  35.892  23.333  1.00  0.00     0.210 C 
ENDBRANCH   1  24
BRANCH  11  26
HETATM   26  O5  UNL     1       7.119  36.228  21.057  1.00  0.00    -0.351 OA
HETATM   27  C14 UNL     1       6.255  35.103  20.897  1.00  0.00     0.210 C 
ENDBRANCH  11  26
BRANCH  12  28
HETATM   28  O6  UNL     1       8.784  35.613  23.143  1.00  0.00    -0.351 OA
HETATM   29  C16 UNL     1       8.383  34.330  23.625  1.00  0.00     0.210 C 
ENDBRANCH  12  28
TORSDOF 11
ENDMDL
MODEL 5
REMARK minimizedAffinity -5.54209709
REMARK  11 active torsions:
REMARK  status: ('A' for Active; 'I' for Inactive)
REMARK    1  A    between atoms: O1_2  and  C2_3 
REMARK    2  A    between atoms: C5_6  and  N1_7 
REMARK    3  A    between atoms: N1_7  and  C6_8 
REMARK    4  A    between atoms: C6_8  and  C7_9 
REMARK    5  A    between atoms: C7_9  and  C8_10 
REMARK    6  A    between atoms: C8_10  and  C9_11 
REMARK    7  A    between atoms: C9_11  and  C10_12 
REMARK    8  A    between atoms: C10_12  and  O2_13 
REMARK    9  A    between atoms: O2_13  and  N2_14 
REMARK   10  A    between atoms: C13_23  and  O5_24 
REMARK   11  A    between atoms: C15_26  and  O6_27 
ROOT
HETATM    1  C2  UNL     1      15.104  35.522  20.124  1.00  0.00     0.105 A 
HETATM    2  C3  UNL     1      13.847  35.242  19.591  1.00  0.00     0.057 A 
HETATM    3  C4  UNL     1      13.459  35.720  18.308  1.00  0.00     0.035 A 
HETATM    4  C5  UNL     1      12.197  35.484  17.724  1.00  0.00     0.093 A 
HETATM    5  N3  UNL     1      11.886  35.913  16.490  1.00  0.00    -0.342 N 
ATOM      6  H3  UNL     1      10.977  35.719  16.069  1.00  0.00     0.167 HD
HETATM    7  C11 UNL     1      12.825  36.605  15.843  1.00  0.00     0.182 A 
HETATM    8  N4  UNL     1      14.039  36.910  16.307  1.00  0.00    -0.349 N 
ATOM      9  H4  UNL     1      14.697  37.457  15.752  1.00  0.00     0.166 HD
HETATM   10  C12 UNL     1      14.360  36.468  17.534  1.00  0.00     0.083 A 
HETATM   11  C13 UNL     1      15.621  36.736  18.084  1.00  0.00     0.132 A 
HETATM   12  C15 UNL     1      15.980  36.302  19.369  1.00  0.00     0.137 A 
ENDROOT
BRANCH   4  13
HETATM   13  N1  UNL     1      11.223  34.765  18.457  1.00  0.00    -0.278 NA
HETATM   14  H5  UNL     1      11.623  34.531  19.363  1.00  0.00     0.129 HD
BRANCH  13  15
HETATM   15  C6  UNL     1       9.937  35.448  18.601  1.00  0.00     0.094 C 
BRANCH  15  16
HETATM   16  C7  UNL     1       9.324  35.071  19.952  1.00  0.00     0.015 C 
BRANCH  16  17
HETATM   17  C8  UNL     1       8.046  35.847  20.280  1.00  0.00     0.003 C 
BRANCH  17  18
HETATM   18  C9  UNL     1       6.895  35.559  19.310  1.00  0.00     0.029 C 
BRANCH  18  19
HETATM   19  C10 UNL     1       6.195  34.234  19.621  1.00  0.00     0.208 C 
BRANCH  19  20
HETATM   20  O2  UNL     1       5.290  33.932  18.564  1.00  0.00    -0.221 OA
BRANCH  20  21
HETATM   21  N2  UNL     1       4.709  32.649  18.694  1.00  0.00     0.004 N 
HETATM   22  O3  UNL     1       5.400  31.680  18.373  1.00  0.00    -0.511 OA
HETATM   23  O4  UNL     1       3.557  32.688  19.123  1.00  0.00    -0.511 OA
ENDBRANCH  20  21
ENDBRANCH  19  20
ENDBRANCH  18  19
ENDBRANCH  17  18
ENDBRANCH  16  17
ENDBRANCH  15  16
ENDBRANCH  13  15
ENDBRANCH   4  13
BRANCH   1  24
HETATM   24  O1  UNL     1      15.550  35.108  21.349  1.00  0.00    -0.353 OA
HETATM   25  C1  UNL     1      14.947  35.693  22.496  1.00  0.00     0.210 C 
ENDBRANCH   1  24
BRANCH  11  26
HETATM   26  O5  UNL     1      16.523  37.508  17.377  1.00  0.00    -0.351 OA
HETATM   27  C14 UNL     1      16.184  38.888  17.507  1.00  0.00     0.210 C 
ENDBRANCH  11  26
BRANCH  12  28
HETATM   28  O6  UNL     1      17.241  36.573  19.849  1.00  0.00    -0.351 OA
HETATM   29  C16 UNL     1      17.221  37.787  20.600  1.00  0.00     0.210 C 
ENDBRANCH  12  28
TORSDOF 11
ENDMDL
MODEL 6
REMARK minimizedAffinity -5.53676081
REMARK  11 active torsions:
REMARK  status: ('A' for Active; 'I' for Inactive)
REMARK    1  A    between atoms: O1_2  and  C2_3 
REMARK    2  A    between atoms: C5_6  and  N1_7 
REMARK    3  A    between atoms: N1_7  and  C6_8 
REMARK    4  A    between atoms: C6_8  and  C7_9 
REMARK    5  A    between atoms: C7_9  and  C8_10 
REMARK    6  A    between atoms: C8_10  and  C9_11 
REMARK    7  A    between atoms: C9_11  and  C10_12 
REMARK    8  A    between atoms: C10_12  and  O2_13 
REMARK    9  A    between atoms: O2_13  and  N2_14 
REMARK   10  A    between atoms: C13_23  and  O5_24 
REMARK   11  A    between atoms: C15_26  and  O6_27 
ROOT
HETATM    1  C2  UNL     1       8.704  36.149  19.816  1.00  0.00     0.105 A 
HETATM    2  C3  UNL     1      10.046  36.516  19.897  1.00  0.00     0.057 A 
HETATM    3  C4  UNL     1      10.768  36.433  21.120  1.00  0.00     0.035 A 
HETATM    4  C5  UNL     1      12.120  36.806  21.268  1.00  0.00     0.093 A 
HETATM    5  N3  UNL     1      12.780  36.668  22.429  1.00  0.00    -0.342 N 
ATOM      6  H3  UNL     1      13.764  36.922  22.520  1.00  0.00     0.167 HD
HETATM    7  C11 UNL     1      12.084  36.184  23.459  1.00  0.00     0.182 A 
HETATM    8  N4  UNL     1      10.798  35.826  23.442  1.00  0.00    -0.349 N 
ATOM      9  H4  UNL     1      10.333  35.475  24.279  1.00  0.00     0.166 HD
HETATM   10  C12 UNL     1      10.139  35.946  22.276  1.00  0.00     0.083 A 
HETATM   11  C13 UNL     1       8.791  35.577  22.176  1.00  0.00     0.132 A 
HETATM   12  C15 UNL     1       8.072  35.706  20.978  1.00  0.00     0.137 A 
ENDROOT
BRANCH   4  13
HETATM   13  N1  UNL     1      12.814  37.337  20.153  1.00  0.00    -0.278 NA
HETATM   14  H5  UNL     1      12.711  38.350  20.176  1.00  0.00     0.129 HD
BRANCH  13  15
HETATM   15  C6  UNL     1      14.220  36.945  20.064  1.00  0.00     0.094 C 
BRANCH  15  16
HETATM   16  C7  UNL     1      14.390  35.975  18.892  1.00  0.00     0.015 C 
BRANCH  16  17
HETATM   17  C8  UNL     1      13.314  36.125  17.814  1.00  0.00     0.003 C 
BRANCH  17  18
HETATM   18  C9  UNL     1      12.358  34.930  17.739  1.00  0.00     0.029 C 
BRANCH  18  19
HETATM   19  C10 UNL     1      12.802  33.778  18.642  1.00  0.00     0.208 C 
BRANCH  19  20
HETATM   20  O2  UNL     1      11.727  33.432  19.509  1.00  0.00    -0.221 OA
BRANCH  20  21
HETATM   21  N2  UNL     1      12.138  33.285  20.855  1.00  0.00     0.004 N 
HETATM   22  O3  UNL     1      13.247  33.729  21.159  1.00  0.00    -0.511 OA
HETATM   23  O4  UNL     1      11.300  32.713  21.550  1.00  0.00    -0.511 OA
ENDBRANCH  20  21
ENDBRANCH  19  20
ENDBRANCH  18  19
ENDBRANCH  17  18
ENDBRANCH  16  17
ENDBRANCH  15  16
ENDBRANCH  13  15
ENDBRANCH   4  13
BRANCH   1  24
HETATM   24  O1  UNL     1       7.939  36.206  18.684  1.00  0.00    -0.353 OA
HETATM   25  C1  UNL     1       8.602  36.033  17.437  1.00  0.00     0.210 C 
ENDBRANCH   1  24
BRANCH  11  26
HETATM   26  O5  UNL     1       8.119  35.136  23.300  1.00  0.00    -0.351 OA
HETATM   27  C14 UNL     1       8.328  33.734  23.468  1.00  0.00     0.210 C 
ENDBRANCH  11  26
BRANCH  12  28
HETATM   28  O6  UNL     1       6.756  35.306  20.930  1.00  0.00    -0.351 OA
HETATM   29  C16 UNL     1       6.667  34.011  20.335  1.00  0.00     0.210 C 
ENDBRANCH  12  28
TORSDOF 11
ENDMDL
MODEL 7
REMARK minimizedAffinity -5.53612041
REMARK  11 active torsions:
REMARK  status: ('A' for Active; 'I' for Inactive)
REMARK    1  A    between atoms: O1_2  and  C2_3 
REMARK    2  A    between atoms: C5_6  and  N1_7 
REMARK    3  A    between atoms: N1_7  and  C6_8 
REMARK    4  A    between atoms: C6_8  and  C7_9 
REMARK    5  A    between atoms: C7_9  and  C8_10 
REMARK    6  A    between atoms: C8_10  and  C9_11 
REMARK    7  A    between atoms: C9_11  and  C10_12 
REMARK    8  A    between atoms: C10_12  and  O2_13 
REMARK    9  A    between atoms: O2_13  and  N2_14 
REMARK   10  A    between atoms: C13_23  and  O5_24 
REMARK   11  A    between atoms: C15_26  and  O6_27 
ROOT
HETATM    1  C2  UNL     1      10.043  34.901  22.003  1.00  0.00     0.105 A 
HETATM    2  C3  UNL     1      10.820  35.069  20.858  1.00  0.00     0.057 A 
HETATM    3  C4  UNL     1      10.232  35.352  19.594  1.00  0.00     0.035 A 
HETATM    4  C5  UNL     1      10.964  35.515  18.399  1.00  0.00     0.093 A 
HETATM    5  N3  UNL     1      10.375  35.828  17.234  1.00  0.00    -0.342 N 
ATOM      6  H3  UNL     1      10.916  35.964  16.379  1.00  0.00     0.167 HD
HETATM    7  C11 UNL     1       9.046  35.952  17.249  1.00  0.00     0.182 A 
HETATM    8  N4  UNL     1       8.253  35.794  18.310  1.00  0.00    -0.349 N 
ATOM      9  H4  UNL     1       7.241  35.894  18.236  1.00  0.00     0.166 HD
HETATM   10  C12 UNL     1       8.840  35.498  19.482  1.00  0.00     0.083 A 
HETATM   11  C13 UNL     1       8.075  35.330  20.644  1.00  0.00     0.132 A 
HETATM   12  C15 UNL     1       8.657  35.004  21.878  1.00  0.00     0.137 A 
ENDROOT
BRANCH   4  13
HETATM   13  N1  UNL     1      12.370  35.351  18.425  1.00  0.00    -0.278 NA
HETATM   14  H5  UNL     1      12.673  35.411  19.395  1.00  0.00     0.129 HD
BRANCH  13  15
HETATM   15  C6  UNL     1      12.855  34.127  17.788  1.00  0.00     0.094 C 
BRANCH  15  16
HETATM   16  C7  UNL     1      14.276  33.842  18.280  1.00  0.00     0.015 C 
BRANCH  16  17
HETATM   17  C8  UNL     1      15.038  35.099  18.709  1.00  0.00     0.003 C 
BRANCH  17  18
HETATM   18  C9  UNL     1      16.459  34.810  19.203  1.00  0.00     0.029 C 
BRANCH  18  19
HETATM   19  C10 UNL     1      17.513  35.101  18.132  1.00  0.00     0.208 C 
BRANCH  19  20
HETATM   20  O2  UNL     1      17.471  34.068  17.153  1.00  0.00    -0.221 OA
BRANCH  20  21
HETATM   21  N2  UNL     1      17.397  34.572  15.832  1.00  0.00     0.004 N 
HETATM   22  O3  UNL     1      16.586  35.475  15.617  1.00  0.00    -0.511 OA
HETATM   23  O4  UNL     1      18.179  34.015  15.065  1.00  0.00    -0.511 OA
ENDBRANCH  20  21
ENDBRANCH  19  20
ENDBRANCH  18  19
ENDBRANCH  17  18
ENDBRANCH  16  17
ENDBRANCH  15  16
ENDBRANCH  13  15
ENDBRANCH   4  13
BRANCH   1  24
HETATM   24  O1  UNL     1      10.528  34.621  23.250  1.00  0.00    -0.353 OA
HETATM   25  C1  UNL     1      11.192  35.670  23.944  1.00  0.00     0.210 C 
ENDBRANCH   1  24
BRANCH  11  26
HETATM   26  O5  UNL     1       6.697  35.418  20.572  1.00  0.00    -0.351 OA
HETATM   27  C14 UNL     1       6.160  34.189  20.087  1.00  0.00     0.210 C 
ENDBRANCH  11  26
BRANCH  12  28
HETATM   28  O6  UNL     1       7.859  34.875  22.992  1.00  0.00    -0.351 OA
HETATM   29  C16 UNL     1       7.618  36.160  23.565  1.00  0.00     0.210 C 
ENDBRANCH  12  28
TORSDOF 11
ENDMDL
MODEL 8
REMARK minimizedAffinity -5.5202446
REMARK  11 active torsions:
REMARK  status: ('A' for Active; 'I' for Inactive)
REMARK    1  A    between atoms: O1_2  and  C2_3 
REMARK    2  A    between atoms: C5_6  and  N1_7 
REMARK    3  A    between atoms: N1_7  and  C6_8 
REMARK    4  A    between atoms: C6_8  and  C7_9 
REMARK    5  A    between atoms: C7_9  and  C8_10 
REMARK    6  A    between atoms: C8_10  and  C9_11 
REMARK    7  A    between atoms: C9_11  and  C10_12 
REMARK    8  A    between atoms: C10_12  and  O2_13 
REMARK    9  A    between atoms: O2_13  and  N2_14 
REMARK   10  A    between atoms: C13_23  and  O5_24 
REMARK   11  A    between atoms: C15_26  and  O6_27 
ROOT
HETATM    1  C2  UNL     1      10.204  45.917  -1.178  1.00  0.00     0.105 A 
HETATM    2  C3  UNL     1      11.560  46.037  -0.878  1.00  0.00     0.057 A 
HETATM    3  C4  UNL     1      12.287  47.222  -1.180  1.00  0.00     0.035 A 
HETATM    4  C5  UNL     1      13.662  47.396  -0.916  1.00  0.00     0.093 A 
HETATM    5  N3  UNL     1      14.302  48.548  -1.173  1.00  0.00    -0.342 N 
ATOM      6  H3  UNL     1      15.292  48.670  -0.959  1.00  0.00     0.167 HD
HETATM    7  C11 UNL     1      13.578  49.525  -1.723  1.00  0.00     0.182 A 
HETATM    8  N4  UNL     1      12.283  49.462  -2.040  1.00  0.00    -0.349 N 
ATOM      9  H4  UNL     1      11.804  50.252  -2.471  1.00  0.00     0.166 HD
HETATM   10  C12 UNL     1      11.635  48.317  -1.768  1.00  0.00     0.083 A 
HETATM   11  C13 UNL     1      10.271  48.180  -2.059  1.00  0.00     0.132 A 
HETATM   12  C15 UNL     1       9.571  46.992  -1.802  1.00  0.00     0.137 A 
ENDROOT
BRANCH   4  13
HETATM   13  N1  UNL     1      14.396  46.324  -0.353  1.00  0.00    -0.278 NA
HETATM   14  H5  UNL     1      14.316  45.527  -0.981  1.00  0.00     0.129 HD
BRANCH  13  15
HETATM   15  C6  UNL     1      15.794  46.630  -0.054  1.00  0.00     0.094 C 
BRANCH  15  16
HETATM   16  C7  UNL     1      16.204  45.884   1.218  1.00  0.00     0.015 C 
BRANCH  16  17
HETATM   17  C8  UNL     1      15.216  46.060   2.374  1.00  0.00     0.003 C 
BRANCH  17  18
HETATM   18  C9  UNL     1      15.697  47.051   3.440  1.00  0.00     0.029 C 
BRANCH  18  19
HETATM   19  C10 UNL     1      15.499  46.514   4.858  1.00  0.00     0.208 C 
BRANCH  19  20
HETATM   20  O2  UNL     1      16.319  45.363   5.034  1.00  0.00    -0.221 OA
BRANCH  20  21
HETATM   21  N2  UNL     1      16.822  45.249   6.352  1.00  0.00     0.004 N 
HETATM   22  O3  UNL     1      17.123  44.120   6.745  1.00  0.00    -0.511 OA
HETATM   23  O4  UNL     1      16.888  46.330   6.932  1.00  0.00    -0.511 OA
ENDBRANCH  20  21
ENDBRANCH  19  20
ENDBRANCH  18  19
ENDBRANCH  17  18
ENDBRANCH  16  17
ENDBRANCH  15  16
ENDBRANCH  13  15
ENDBRANCH   4  13
BRANCH   1  24
HETATM   24  O1  UNL     1       9.437  44.813  -0.928  1.00  0.00    -0.353 OA
HETATM   25  C1  UNL     1       9.689  43.651  -1.708  1.00  0.00     0.210 C 
ENDBRANCH   1  24
BRANCH  11  26
HETATM   26  O5  UNL     1       9.599  49.216  -2.680  1.00  0.00    -0.351 OA
HETATM   27  C14 UNL     1       9.911  49.226  -4.073  1.00  0.00     0.210 C 
ENDBRANCH  11  26
BRANCH  12  28
HETATM   28  O6  UNL     1       8.226  46.922  -2.086  1.00  0.00    -0.351 OA
HETATM   29  C16 UNL     1       8.035  46.356  -3.383  1.00  0.00     0.210 C 
ENDBRANCH  12  28
TORSDOF 11
ENDMDL
MODEL 9
REMARK minimizedAffinity -5.49512863
REMARK  11 active torsions:
REMARK  status: ('A' for Active; 'I' for Inactive)
REMARK    1  A    between atoms: O1_2  and  C2_3 
REMARK    2  A    between atoms: C5_6  and  N1_7 
REMARK    3  A    between atoms: N1_7  and  C6_8 
REMARK    4  A    between atoms: C6_8  and  C7_9 
REMARK    5  A    between atoms: C7_9  and  C8_10 
REMARK    6  A    between atoms: C8_10  and  C9_11 
REMARK    7  A    between atoms: C9_11  and  C10_12 
REMARK    8  A    between atoms: C10_12  and  O2_13 
REMARK    9  A    between atoms: O2_13  and  N2_14 
REMARK   10  A    between atoms: C13_23  and  O5_24 
REMARK   11  A    between atoms: C15_26  and  O6_27 
ROOT
HETATM    1  C2  UNL     1       9.817  35.090  19.461  1.00  0.00     0.105 A 
HETATM    2  C3  UNL     1      10.947  34.812  18.694  1.00  0.00     0.057 A 
HETATM    3  C4  UNL     1      12.218  34.594  19.294  1.00  0.00     0.035 A 
HETATM    4  C5  UNL     1      13.399  34.326  18.571  1.00  0.00     0.093 A 
HETATM    5  N3  UNL     1      14.572  34.079  19.177  1.00  0.00    -0.342 N 
ATOM      6  H3  UNL     1      15.416  33.866  18.645  1.00  0.00     0.167 HD
HETATM    7  C11 UNL     1      14.577  34.125  20.511  1.00  0.00     0.182 A 
HETATM    8  N4  UNL     1      13.530  34.395  21.294  1.00  0.00    -0.349 N 
ATOM      9  H4  UNL     1      13.621  34.424  22.309  1.00  0.00     0.166 HD
HETATM   10  C12 UNL     1      12.351  34.626  20.691  1.00  0.00     0.083 A 
HETATM   11  C13 UNL     1      11.204  34.902  21.447  1.00  0.00     0.132 A 
HETATM   12  C15 UNL     1       9.963  35.164  20.847  1.00  0.00     0.137 A 
ENDROOT
BRANCH   4  13
HETATM   13  N1  UNL     1      13.351  34.309  17.156  1.00  0.00    -0.278 NA
HETATM   14  H5  UNL     1      12.385  34.463  16.875  1.00  0.00     0.129 HD
BRANCH  13  15
HETATM   15  C6  UNL     1      14.255  35.255  16.502  1.00  0.00     0.094 C 
BRANCH  15  16
HETATM   16  C7  UNL     1      13.643  36.656  16.573  1.00  0.00     0.015 C 
BRANCH  16  17
HETATM   17  C8  UNL     1      14.611  37.719  17.101  1.00  0.00     0.003 C 
BRANCH  17  18
HETATM   18  C9  UNL     1      15.147  38.649  16.007  1.00  0.00     0.029 C 
BRANCH  18  19
HETATM   19  C10 UNL     1      15.592  40.001  16.566  1.00  0.00     0.208 C 
BRANCH  19  20
HETATM   20  O2  UNL     1      15.416  40.995  15.562  1.00  0.00    -0.221 OA
BRANCH  20  21
HETATM   21  N2  UNL     1      16.412  40.938  14.558  1.00  0.00     0.004 N 
HETATM   22  O3  UNL     1      16.032  40.812  13.392  1.00  0.00    -0.511 OA
HETATM   23  O4  UNL     1      17.551  41.025  15.011  1.00  0.00    -0.511 OA
ENDBRANCH  20  21
ENDBRANCH  19  20
ENDBRANCH  18  19
ENDBRANCH  17  18
ENDBRANCH  16  17
ENDBRANCH  15  16
ENDBRANCH  13  15
ENDBRANCH   4  13
BRANCH   1  24
HETATM   24  O1  UNL     1       8.563  35.319  18.963  1.00  0.00    -0.353 OA
HETATM   25  C1  UNL     1       8.345  36.549  18.283  1.00  0.00     0.210 C 
ENDBRANCH   1  24
BRANCH  11  26
HETATM   26  O5  UNL     1      11.298  34.990  22.823  1.00  0.00    -0.351 OA
HETATM   27  C14 UNL     1      11.609  36.330  23.201  1.00  0.00     0.210 C 
ENDBRANCH  11  26
BRANCH  12  28
HETATM   28  O6  UNL     1       8.864  35.406  21.639  1.00  0.00    -0.351 OA
HETATM   29  C16 UNL     1       8.242  34.169  21.991  1.00  0.00     0.210 C 
ENDBRANCH  12  28
TORSDOF 11
ENDMDL
