MODEL 1
REMARK minimizedAffinity -9.26858807
REMARK  11 active torsions:
REMARK  status: ('A' for Active; 'I' for Inactive)
REMARK    1  A    between atoms: C2_2  and  C4_4 
REMARK    2  A    between atoms: C12_13  and  C13_14 
REMARK    3  A    between atoms: C13_14  and  C15_16 
REMARK    4  A    between atoms: C15_16  and  C16_17 
REMARK    5  A    between atoms: C16_17  and  C17_18 
REMARK    6  A    between atoms: C18_19  and  C20_21 
REMARK    7  A    between atoms: C20_21  and  O3_23 
REMARK    8  A    between atoms: C27_30  and  C28_31 
REMARK    9  A    between atoms: C28_31  and  C29_32 
REMARK   10  A    between atoms: C29_32  and  C30_33 
REMARK   11  A    between atoms: C30_33  and  O5_35 
ROOT
HETATM    1  C4  UNL     1      -4.197   3.784  12.907  1.00  0.00     0.054 C 
HETATM    2  C5  UNL     1      -4.513   5.016  13.713  1.00  0.00     0.160 A 
HETATM    3  O1  UNL     1      -4.502   6.266  13.008  1.00  0.00    -0.374 OA
HETATM    4  C6  UNL     1      -3.485   6.068  13.999  1.00  0.00     0.157 A 
HETATM    5  C7  UNL     1      -2.066   5.919  13.520  1.00  0.00     0.035 C 
HETATM    6  C8  UNL     1      -1.351   7.298  13.245  1.00  0.00    -0.029 C 
HETATM    7  C9  UNL     1      -2.243   8.253  12.418  1.00  0.00     0.016 C 
HETATM    8  C10 UNL     1      -1.064   8.010  14.612  1.00  0.00     0.011 C 
HETATM    9  C11 UNL     1       0.447   8.127  14.761  1.00  0.00     0.006 C 
HETATM   10  C12 UNL     1       0.952   8.189  13.324  1.00  0.00    -0.002 C 
HETATM   11  C21 UNL     1       0.093   7.107  12.587  1.00  0.00    -0.032 C 
HETATM   12  C22 UNL     1       0.147   7.382  11.065  1.00  0.00     0.016 C 
HETATM   13  C23 UNL     1       0.589   5.665  12.830  1.00  0.00     0.011 C 
HETATM   14  C24 UNL     1      -0.329   4.593  12.232  1.00  0.00     0.011 C 
HETATM   15  C25 UNL     1      -1.814   4.909  12.395  1.00  0.00    -0.024 A 
HETATM   16  C26 UNL     1      -2.630   4.966  11.123  1.00  0.00     0.022 A 
HETATM   17  C27 UNL     1      -2.880   3.812  12.081  1.00  0.00    -0.021 A 
ENDROOT
BRANCH  10  18
HETATM   18  C13 UNL     1       2.502   8.146  13.157  1.00  0.00    -0.014 C 
HETATM   19  C14 UNL     1       3.141   9.492  12.800  1.00  0.00     0.010 C 
BRANCH  18  20
HETATM   20  C15 UNL     1       2.859   7.061  12.103  1.00  0.00     0.008 C 
BRANCH  20  21
HETATM   21  C16 UNL     1       3.599   7.560  10.850  1.00  0.00     0.028 C 
BRANCH  21  22
HETATM   22  C17 UNL     1       3.373   6.705   9.632  1.00  0.00    -0.013 C 
HETATM   23  C18 UNL     1       2.811   7.063   8.460  1.00  0.00     0.008 C 
HETATM   24  C19 UNL     1       2.579   6.076   7.354  1.00  0.00     0.055 C 
BRANCH  23  25
HETATM   25  C20 UNL     1       2.350   8.433   8.142  1.00  0.00     0.171 C 
HETATM   26  O2  UNL     1       1.213   8.846   8.281  1.00  0.00    -0.646 OA
BRANCH  25  27
HETATM   27  O3  UNL     1       3.303   9.189   7.573  1.00  0.00    -0.773 OA
HETATM   28  H30 UNL     1       2.844  10.032   7.380  1.00  0.00     0.167 HD
ENDBRANCH  25  27
ENDBRANCH  23  25
ENDBRANCH  21  22
ENDBRANCH  20  21
ENDBRANCH  18  20
ENDBRANCH  10  18
BRANCH  17  29
HETATM   29  C28 UNL     1      -2.390   2.390  11.736  1.00  0.00     0.021 C 
BRANCH  29  30
HETATM   30  C29 UNL     1      -0.988   2.262  11.153  1.00  0.00     0.111 C 
BRANCH  30  31
HETATM   31  C30 UNL     1      -0.737   0.921  10.524  1.00  0.00     0.139 C 
HETATM   32  O4  UNL     1      -0.352  -0.082  11.100  1.00  0.00    -0.650 OA
BRANCH  31  33
HETATM   33  O5  UNL     1      -1.033   0.889   9.210  1.00  0.00    -0.776 OA
HETATM   34  H44 UNL     1      -0.776  -0.016   8.939  1.00  0.00     0.167 HD
ENDBRANCH  31  33
ENDBRANCH  30  31
ENDBRANCH  29  30
ENDBRANCH  17  29
BRANCH   1  35
HETATM   35  C2  UNL     1      -5.425   3.277  12.140  1.00  0.00    -0.086 C 
HETATM   36  C1  UNL     1      -5.349   2.669  10.944  1.00  0.00     0.014 C 
HETATM   37  C3  UNL     1      -6.758   3.526  12.793  1.00  0.00     0.043 C 
ENDBRANCH   1  35
TORSDOF 11
ENDMDL
MODEL 2
REMARK minimizedAffinity -9.11222744
REMARK  11 active torsions:
REMARK  status: ('A' for Active; 'I' for Inactive)
REMARK    1  A    between atoms: C2_2  and  C4_4 
REMARK    2  A    between atoms: C12_13  and  C13_14 
REMARK    3  A    between atoms: C13_14  and  C15_16 
REMARK    4  A    between atoms: C15_16  and  C16_17 
REMARK    5  A    between atoms: C16_17  and  C17_18 
REMARK    6  A    between atoms: C18_19  and  C20_21 
REMARK    7  A    between atoms: C20_21  and  O3_23 
REMARK    8  A    between atoms: C27_30  and  C28_31 
REMARK    9  A    between atoms: C28_31  and  C29_32 
REMARK   10  A    between atoms: C29_32  and  C30_33 
REMARK   11  A    between atoms: C30_33  and  O5_35 
ROOT
HETATM    1  C4  UNL     1      -5.690   3.652  11.757  1.00  0.00     0.054 C 
HETATM    2  C5  UNL     1      -4.645   3.173  10.784  1.00  0.00     0.160 A 
HETATM    3  O1  UNL     1      -3.487   2.538  11.344  1.00  0.00    -0.374 OA
HETATM    4  C6  UNL     1      -3.288   3.802  10.697  1.00  0.00     0.157 A 
HETATM    5  C7  UNL     1      -2.919   4.976  11.562  1.00  0.00     0.035 C 
HETATM    6  C8  UNL     1      -1.378   5.048  11.895  1.00  0.00    -0.029 C 
HETATM    7  C9  UNL     1      -0.824   3.677  12.349  1.00  0.00     0.016 C 
HETATM    8  C10 UNL     1      -0.591   5.452  10.600  1.00  0.00     0.011 C 
HETATM    9  C11 UNL     1       0.068   6.799  10.866  1.00  0.00     0.006 C 
HETATM   10  C12 UNL     1       0.289   6.807  12.374  1.00  0.00    -0.002 C 
HETATM   11  C21 UNL     1      -1.041   6.206  12.941  1.00  0.00    -0.032 C 
HETATM   12  C22 UNL     1      -0.787   5.713  14.386  1.00  0.00     0.016 C 
HETATM   13  C23 UNL     1      -2.201   7.225  12.982  1.00  0.00     0.011 C 
HETATM   14  C24 UNL     1      -3.542   6.611  13.399  1.00  0.00     0.011 C 
HETATM   15  C25 UNL     1      -3.784   5.226  12.801  1.00  0.00    -0.024 A 
HETATM   16  C26 UNL     1      -4.046   4.109  13.787  1.00  0.00     0.022 A 
HETATM   17  C27 UNL     1      -5.198   4.572  12.910  1.00  0.00    -0.021 A 
ENDROOT
BRANCH  10  18
HETATM   18  C13 UNL     1       0.810   8.151  12.967  1.00  0.00    -0.014 C 
HETATM   19  C14 UNL     1      -0.285   9.072  13.515  1.00  0.00     0.010 C 
BRANCH  18  20
HETATM   20  C15 UNL     1       1.659   8.876  11.885  1.00  0.00     0.008 C 
BRANCH  20  21
HETATM   21  C16 UNL     1       2.808   8.056  11.274  1.00  0.00     0.028 C 
BRANCH  21  22
HETATM   22  C17 UNL     1       2.578   7.670   9.836  1.00  0.00    -0.013 C 
HETATM   23  C18 UNL     1       2.954   6.536   9.212  1.00  0.00     0.008 C 
HETATM   24  C19 UNL     1       2.721   6.321   7.745  1.00  0.00     0.055 C 
BRANCH  23  25
HETATM   25  C20 UNL     1       3.640   5.407   9.878  1.00  0.00     0.171 C 
HETATM   26  O2  UNL     1       4.841   5.320  10.061  1.00  0.00    -0.646 OA
BRANCH  25  27
HETATM   27  O3  UNL     1       2.811   4.398  10.192  1.00  0.00    -0.773 OA
HETATM   28  H30 UNL     1       3.405   3.720  10.572  1.00  0.00     0.167 HD
ENDBRANCH  25  27
ENDBRANCH  23  25
ENDBRANCH  21  22
ENDBRANCH  20  21
ENDBRANCH  18  20
ENDBRANCH  10  18
BRANCH  17  29
HETATM   29  C28 UNL     1      -6.350   5.406  13.508  1.00  0.00     0.021 C 
BRANCH  29  30
HETATM   30  C29 UNL     1      -6.311   5.666  15.009  1.00  0.00     0.111 C 
BRANCH  30  31
HETATM   31  C30 UNL     1      -7.658   5.535  15.659  1.00  0.00     0.139 C 
HETATM   32  O4  UNL     1      -8.468   6.432  15.823  1.00  0.00    -0.650 OA
BRANCH  31  33
HETATM   33  O5  UNL     1      -7.948   4.272  16.026  1.00  0.00    -0.776 OA
HETATM   34  H44 UNL     1      -8.818   4.355  16.469  1.00  0.00     0.167 HD
ENDBRANCH  31  33
ENDBRANCH  30  31
ENDBRANCH  29  30
ENDBRANCH  17  29
BRANCH   1  35
HETATM   35  C2  UNL     1      -6.620   2.513  12.197  1.00  0.00    -0.086 C 
HETATM   36  C1  UNL     1      -7.587   2.664  13.118  1.00  0.00     0.014 C 
HETATM   37  C3  UNL     1      -6.371   1.174  11.555  1.00  0.00     0.043 C 
ENDBRANCH   1  35
TORSDOF 11
ENDMDL
MODEL 3
REMARK minimizedAffinity -8.88711739
REMARK  11 active torsions:
REMARK  status: ('A' for Active; 'I' for Inactive)
REMARK    1  A    between atoms: C2_2  and  C4_4 
REMARK    2  A    between atoms: C12_13  and  C13_14 
REMARK    3  A    between atoms: C13_14  and  C15_16 
REMARK    4  A    between atoms: C15_16  and  C16_17 
REMARK    5  A    between atoms: C16_17  and  C17_18 
REMARK    6  A    between atoms: C18_19  and  C20_21 
REMARK    7  A    between atoms: C20_21  and  O3_23 
REMARK    8  A    between atoms: C27_30  and  C28_31 
REMARK    9  A    between atoms: C28_31  and  C29_32 
REMARK   10  A    between atoms: C29_32  and  C30_33 
REMARK   11  A    between atoms: C30_33  and  O5_35 
ROOT
HETATM    1  C4  UNL     1       4.680   7.184  11.826  1.00  0.00     0.054 C 
HETATM    2  C5  UNL     1       4.065   6.235  10.833  1.00  0.00     0.160 A 
HETATM    3  O1  UNL     1       3.119   6.793   9.910  1.00  0.00    -0.374 OA
HETATM    4  C6  UNL     1       2.614   5.863  10.877  1.00  0.00     0.157 A 
HETATM    5  C7  UNL     1       1.707   6.399  11.951  1.00  0.00     0.035 C 
HETATM    6  C8  UNL     1       0.205   6.539  11.488  1.00  0.00    -0.029 C 
HETATM    7  C9  UNL     1       0.090   7.224  10.106  1.00  0.00     0.016 C 
HETATM    8  C10 UNL     1      -0.423   5.109  11.342  1.00  0.00     0.011 C 
HETATM    9  C11 UNL     1      -1.547   4.995  12.363  1.00  0.00     0.006 C 
HETATM   10  C12 UNL     1      -2.029   6.431  12.538  1.00  0.00    -0.002 C 
HETATM   11  C21 UNL     1      -0.701   7.259  12.590  1.00  0.00    -0.032 C 
HETATM   12  C22 UNL     1      -1.027   8.741  12.286  1.00  0.00     0.016 C 
HETATM   13  C23 UNL     1       0.003   7.197  13.964  1.00  0.00     0.011 C 
HETATM   14  C24 UNL     1       1.373   7.883  13.981  1.00  0.00     0.011 C 
HETATM   15  C25 UNL     1       2.188   7.639  12.713  1.00  0.00    -0.024 A 
HETATM   16  C26 UNL     1       2.638   8.870  11.959  1.00  0.00     0.022 A 
HETATM   17  C27 UNL     1       3.695   8.042  12.670  1.00  0.00    -0.021 A 
ENDROOT
BRANCH  10  18
HETATM   18  C13 UNL     1      -3.085   6.650  13.664  1.00  0.00    -0.014 C 
HETATM   19  C14 UNL     1      -2.831   5.842  14.941  1.00  0.00     0.010 C 
BRANCH  18  20
HETATM   20  C15 UNL     1      -4.497   6.351  13.086  1.00  0.00     0.008 C 
BRANCH  20  21
HETATM   21  C16 UNL     1      -5.149   5.037  13.552  1.00  0.00     0.028 C 
BRANCH  21  22
HETATM   22  C17 UNL     1      -5.128   3.950  12.511  1.00  0.00    -0.013 C 
HETATM   23  C18 UNL     1      -6.074   3.021  12.262  1.00  0.00     0.008 C 
HETATM   24  C19 UNL     1      -5.880   1.944  11.236  1.00  0.00     0.055 C 
BRANCH  23  25
HETATM   25  C20 UNL     1      -7.372   2.946  12.968  1.00  0.00     0.171 C 
HETATM   26  O2  UNL     1      -7.763   3.732  13.813  1.00  0.00    -0.646 OA
BRANCH  25  27
HETATM   27  O3  UNL     1      -8.073   1.842  12.663  1.00  0.00    -0.773 OA
HETATM   28  H30 UNL     1      -8.866   1.907  13.233  1.00  0.00     0.167 HD
ENDBRANCH  25  27
ENDBRANCH  23  25
ENDBRANCH  21  22
ENDBRANCH  20  21
ENDBRANCH  18  20
ENDBRANCH  10  18
BRANCH  17  29
HETATM   29  C28 UNL     1       4.354   8.561  13.966  1.00  0.00     0.021 C 
BRANCH  29  30
HETATM   30  C29 UNL     1       5.243   7.586  14.729  1.00  0.00     0.111 C 
BRANCH  30  31
HETATM   31  C30 UNL     1       6.544   8.198  15.162  1.00  0.00     0.139 C 
HETATM   32  O4  UNL     1       7.297   8.855  14.463  1.00  0.00    -0.650 OA
BRANCH  31  33
HETATM   33  O5  UNL     1       6.813   8.003  16.467  1.00  0.00    -0.776 OA
HETATM   34  H44 UNL     1       7.696   8.409  16.583  1.00  0.00     0.167 HD
ENDBRANCH  31  33
ENDBRANCH  30  31
ENDBRANCH  29  30
ENDBRANCH  17  29
BRANCH   1  35
HETATM   35  C2  UNL     1       5.851   7.965  11.215  1.00  0.00    -0.086 C 
HETATM   36  C1  UNL     1       7.102   7.480  11.137  1.00  0.00     0.014 C 
HETATM   37  C3  UNL     1       5.531   9.351  10.721  1.00  0.00     0.043 C 
ENDBRANCH   1  35
TORSDOF 11
ENDMDL
MODEL 4
REMARK minimizedAffinity -8.87029839
REMARK  11 active torsions:
REMARK  status: ('A' for Active; 'I' for Inactive)
REMARK    1  A    between atoms: C2_2  and  C4_4 
REMARK    2  A    between atoms: C12_13  and  C13_14 
REMARK    3  A    between atoms: C13_14  and  C15_16 
REMARK    4  A    between atoms: C15_16  and  C16_17 
REMARK    5  A    between atoms: C16_17  and  C17_18 
REMARK    6  A    between atoms: C18_19  and  C20_21 
REMARK    7  A    between atoms: C20_21  and  O3_23 
REMARK    8  A    between atoms: C27_30  and  C28_31 
REMARK    9  A    between atoms: C28_31  and  C29_32 
REMARK   10  A    between atoms: C29_32  and  C30_33 
REMARK   11  A    between atoms: C30_33  and  O5_35 
ROOT
HETATM    1  C4  UNL     1      -7.355   6.236  14.784  1.00  0.00     0.054 C 
HETATM    2  C5  UNL     1      -6.939   7.495  15.498  1.00  0.00     0.160 A 
HETATM    3  O1  UNL     1      -6.363   8.532  14.690  1.00  0.00    -0.374 OA
HETATM    4  C6  UNL     1      -5.501   7.893  15.641  1.00  0.00     0.157 A 
HETATM    5  C7  UNL     1      -4.397   7.022  15.105  1.00  0.00     0.035 C 
HETATM    6  C8  UNL     1      -3.113   7.834  14.677  1.00  0.00    -0.029 C 
HETATM    7  C9  UNL     1      -3.473   9.070  13.819  1.00  0.00     0.016 C 
HETATM    8  C10 UNL     1      -2.389   8.366  15.963  1.00  0.00     0.011 C 
HETATM    9  C11 UNL     1      -1.018   7.707  16.023  1.00  0.00     0.006 C 
HETATM   10  C12 UNL     1      -0.677   7.437  14.562  1.00  0.00    -0.002 C 
HETATM   11  C21 UNL     1      -2.024   6.908  13.965  1.00  0.00    -0.032 C 
HETATM   12  C22 UNL     1      -1.972   7.045  12.424  1.00  0.00     0.016 C 
HETATM   13  C23 UNL     1      -2.300   5.426  14.302  1.00  0.00     0.011 C 
HETATM   14  C24 UNL     1      -3.680   4.940  13.845  1.00  0.00     0.011 C 
HETATM   15  C25 UNL     1      -4.785   5.973  14.058  1.00  0.00    -0.024 A 
HETATM   16  C26 UNL     1      -5.569   6.375  12.829  1.00  0.00     0.022 A 
HETATM   17  C27 UNL     1      -6.280   5.554  13.892  1.00  0.00    -0.021 A 
ENDROOT
BRANCH  10  18
HETATM   18  C13 UNL     1       0.620   6.607  14.321  1.00  0.00    -0.014 C 
HETATM   19  C14 UNL     1       1.914   7.310  14.744  1.00  0.00     0.010 C 
BRANCH  18  20
HETATM   20  C15 UNL     1       0.674   6.194  12.823  1.00  0.00     0.008 C 
BRANCH  20  21
HETATM   21  C16 UNL     1       2.023   6.409  12.115  1.00  0.00     0.028 C 
BRANCH  21  22
HETATM   22  C17 UNL     1       1.942   6.308  10.615  1.00  0.00    -0.013 C 
HETATM   23  C18 UNL     1       2.960   6.247   9.732  1.00  0.00     0.008 C 
HETATM   24  C19 UNL     1       2.726   6.227   8.250  1.00  0.00     0.055 C 
BRANCH  23  25
HETATM   25  C20 UNL     1       4.390   6.216  10.111  1.00  0.00     0.171 C 
HETATM   26  O2  UNL     1       5.104   7.192  10.254  1.00  0.00    -0.646 OA
BRANCH  25  27
HETATM   27  O3  UNL     1       4.885   4.970  10.192  1.00  0.00    -0.773 OA
HETATM   28  H30 UNL     1       5.831   5.111  10.397  1.00  0.00     0.167 HD
ENDBRANCH  25  27
ENDBRANCH  23  25
ENDBRANCH  21  22
ENDBRANCH  20  21
ENDBRANCH  18  20
ENDBRANCH  10  18
BRANCH  17  29
HETATM   29  C28 UNL     1      -6.602   4.065  13.644  1.00  0.00     0.021 C 
BRANCH  29  30
HETATM   30  C29 UNL     1      -6.465   3.555  12.215  1.00  0.00     0.111 C 
BRANCH  30  31
HETATM   31  C30 UNL     1      -6.832   2.105  12.075  1.00  0.00     0.139 C 
HETATM   32  O4  UNL     1      -6.188   1.255  11.484  1.00  0.00    -0.650 OA
BRANCH  31  33
HETATM   33  O5  UNL     1      -7.963   1.780  12.729  1.00  0.00    -0.776 OA
HETATM   34  H44 UNL     1      -8.093   0.835  12.507  1.00  0.00     0.167 HD
ENDBRANCH  31  33
ENDBRANCH  30  31
ENDBRANCH  29  30
ENDBRANCH  17  29
BRANCH   1  35
HETATM   35  C2  UNL     1      -8.734   6.386  14.126  1.00  0.00    -0.086 C 
HETATM   36  C1  UNL     1      -9.002   5.980  12.874  1.00  0.00     0.014 C 
HETATM   37  C3  UNL     1      -9.792   7.056  14.962  1.00  0.00     0.043 C 
ENDBRANCH   1  35
TORSDOF 11
ENDMDL
MODEL 5
REMARK minimizedAffinity -8.83670807
REMARK  11 active torsions:
REMARK  status: ('A' for Active; 'I' for Inactive)
REMARK    1  A    between atoms: C2_2  and  C4_4 
REMARK    2  A    between atoms: C12_13  and  C13_14 
REMARK    3  A    between atoms: C13_14  and  C15_16 
REMARK    4  A    between atoms: C15_16  and  C16_17 
REMARK    5  A    between atoms: C16_17  and  C17_18 
REMARK    6  A    between atoms: C18_19  and  C20_21 
REMARK    7  A    between atoms: C20_21  and  O3_23 
REMARK    8  A    between atoms: C27_30  and  C28_31 
REMARK    9  A    between atoms: C28_31  and  C29_32 
REMARK   10  A    between atoms: C29_32  and  C30_33 
REMARK   11  A    between atoms: C30_33  and  O5_35 
ROOT
HETATM    1  C4  UNL     1      -0.510   6.764  11.148  1.00  0.00     0.054 C 
HETATM    2  C5  UNL     1      -0.576   8.181  11.651  1.00  0.00     0.160 A 
HETATM    3  O1  UNL     1      -0.312   8.381  13.047  1.00  0.00    -0.374 OA
HETATM    4  C6  UNL     1      -1.646   8.645  12.593  1.00  0.00     0.157 A 
HETATM    5  C7  UNL     1      -2.735   7.714  13.051  1.00  0.00     0.035 C 
HETATM    6  C8  UNL     1      -3.291   8.061  14.486  1.00  0.00    -0.029 C 
HETATM    7  C9  UNL     1      -2.150   8.313  15.500  1.00  0.00     0.016 C 
HETATM    8  C10 UNL     1      -4.131   9.383  14.405  1.00  0.00     0.011 C 
HETATM    9  C11 UNL     1      -5.569   9.037  14.768  1.00  0.00     0.006 C 
HETATM   10  C12 UNL     1      -5.432   7.837  15.699  1.00  0.00    -0.002 C 
HETATM   11  C21 UNL     1      -4.328   6.965  15.012  1.00  0.00    -0.032 C 
HETATM   12  C22 UNL     1      -3.749   5.982  16.057  1.00  0.00     0.016 C 
HETATM   13  C23 UNL     1      -4.858   6.137  13.821  1.00  0.00     0.011 C 
HETATM   14  C24 UNL     1      -3.759   5.393  13.054  1.00  0.00     0.011 C 
HETATM   15  C25 UNL     1      -2.481   6.212  12.884  1.00  0.00    -0.024 A 
HETATM   16  C26 UNL     1      -1.212   5.588  13.419  1.00  0.00     0.022 A 
HETATM   17  C27 UNL     1      -1.365   5.714  11.913  1.00  0.00    -0.021 A 
ENDROOT
BRANCH  10  18
HETATM   18  C13 UNL     1      -6.771   7.152  16.109  1.00  0.00    -0.014 C 
HETATM   19  C14 UNL     1      -6.724   5.621  16.126  1.00  0.00     0.010 C 
BRANCH  18  20
HETATM   20  C15 UNL     1      -7.900   7.666  15.171  1.00  0.00     0.008 C 
BRANCH  20  21
HETATM   21  C16 UNL     1      -8.954   6.625  14.757  1.00  0.00     0.028 C 
BRANCH  21  22
HETATM   22  C17 UNL     1      -9.279   6.644  13.287  1.00  0.00    -0.013 C 
HETATM   23  C18 UNL     1      -8.902   5.758  12.342  1.00  0.00     0.008 C 
HETATM   24  C19 UNL     1      -9.239   5.949  10.893  1.00  0.00     0.055 C 
BRANCH  23  25
HETATM   25  C20 UNL     1      -8.113   4.536  12.615  1.00  0.00     0.171 C 
HETATM   26  O2  UNL     1      -7.012   4.289  12.155  1.00  0.00    -0.646 OA
BRANCH  25  27
HETATM   27  O3  UNL     1      -8.775   3.639  13.364  1.00  0.00    -0.773 OA
HETATM   28  H30 UNL     1      -8.158   2.881  13.416  1.00  0.00     0.167 HD
ENDBRANCH  25  27
ENDBRANCH  23  25
ENDBRANCH  21  22
ENDBRANCH  20  21
ENDBRANCH  18  20
ENDBRANCH  10  18
BRANCH  17  29
HETATM   29  C28 UNL     1      -1.646   4.466  11.049  1.00  0.00     0.021 C 
BRANCH  29  30
HETATM   30  C29 UNL     1      -1.783   3.135  11.778  1.00  0.00     0.111 C 
BRANCH  30  31
HETATM   31  C30 UNL     1      -1.020   2.024  11.114  1.00  0.00     0.139 C 
HETATM   32  O4  UNL     1       0.185   1.990  10.931  1.00  0.00    -0.650 OA
BRANCH  31  33
HETATM   33  O5  UNL     1      -1.800   0.984  10.761  1.00  0.00    -0.776 OA
HETATM   34  H44 UNL     1      -1.180   0.376  10.308  1.00  0.00     0.167 HD
ENDBRANCH  31  33
ENDBRANCH  30  31
ENDBRANCH  29  30
ENDBRANCH  17  29
BRANCH   1  35
HETATM   35  C2  UNL     1       0.933   6.330  10.860  1.00  0.00    -0.086 C 
HETATM   36  C1  UNL     1       1.496   6.398   9.642  1.00  0.00     0.014 C 
HETATM   37  C3  UNL     1       1.701   5.779  12.032  1.00  0.00     0.043 C 
ENDBRANCH   1  35
TORSDOF 11
ENDMDL
MODEL 6
REMARK minimizedAffinity -8.7794323
REMARK  11 active torsions:
REMARK  status: ('A' for Active; 'I' for Inactive)
REMARK    1  A    between atoms: C2_2  and  C4_4 
REMARK    2  A    between atoms: C12_13  and  C13_14 
REMARK    3  A    between atoms: C13_14  and  C15_16 
REMARK    4  A    between atoms: C15_16  and  C16_17 
REMARK    5  A    between atoms: C16_17  and  C17_18 
REMARK    6  A    between atoms: C18_19  and  C20_21 
REMARK    7  A    between atoms: C20_21  and  O3_23 
REMARK    8  A    between atoms: C27_30  and  C28_31 
REMARK    9  A    between atoms: C28_31  and  C29_32 
REMARK   10  A    between atoms: C29_32  and  C30_33 
REMARK   11  A    between atoms: C30_33  and  O5_35 
ROOT
HETATM    1  C4  UNL     1      -0.092   6.876  11.062  1.00  0.00     0.054 C 
HETATM    2  C5  UNL     1      -0.417   8.282  11.492  1.00  0.00     0.160 A 
HETATM    3  O1  UNL     1      -0.287   8.573  12.890  1.00  0.00    -0.374 OA
HETATM    4  C6  UNL     1      -1.611   8.603  12.339  1.00  0.00     0.157 A 
HETATM    5  C7  UNL     1      -2.569   7.526  12.770  1.00  0.00     0.035 C 
HETATM    6  C8  UNL     1      -3.274   7.832  14.148  1.00  0.00    -0.029 C 
HETATM    7  C9  UNL     1      -2.262   8.302  15.220  1.00  0.00     0.016 C 
HETATM    8  C10 UNL     1      -4.304   8.998  13.950  1.00  0.00     0.011 C 
HETATM    9  C11 UNL     1      -5.691   8.439  14.236  1.00  0.00     0.006 C 
HETATM   10  C12 UNL     1      -5.433   7.312  15.230  1.00  0.00    -0.002 C 
HETATM   11  C21 UNL     1      -4.159   6.604  14.658  1.00  0.00    -0.032 C 
HETATM   12  C22 UNL     1      -3.508   5.767  15.785  1.00  0.00     0.016 C 
HETATM   13  C23 UNL     1      -4.466   5.658  13.477  1.00  0.00     0.011 C 
HETATM   14  C24 UNL     1      -3.212   5.072  12.819  1.00  0.00     0.011 C 
HETATM   15  C25 UNL     1      -2.070   6.079  12.692  1.00  0.00    -0.024 A 
HETATM   16  C26 UNL     1      -0.760   5.688  13.337  1.00  0.00     0.022 A 
HETATM   17  C27 UNL     1      -0.823   5.731  11.820  1.00  0.00    -0.021 A 
ENDROOT
BRANCH  10  18
HETATM   18  C13 UNL     1      -6.673   6.437  15.585  1.00  0.00    -0.014 C 
HETATM   19  C14 UNL     1      -7.542   6.046  14.385  1.00  0.00     0.010 C 
BRANCH  18  20
HETATM   20  C15 UNL     1      -7.513   7.178  16.664  1.00  0.00     0.008 C 
BRANCH  20  21
HETATM   21  C16 UNL     1      -9.039   7.136  16.472  1.00  0.00     0.028 C 
BRANCH  21  22
HETATM   22  C17 UNL     1      -9.605   8.387  15.854  1.00  0.00    -0.013 C 
HETATM   23  C18 UNL     1     -10.421   8.487  14.784  1.00  0.00     0.008 C 
HETATM   24  C19 UNL     1     -10.846   9.815  14.230  1.00  0.00     0.055 C 
BRANCH  23  25
HETATM   25  C20 UNL     1     -10.961   7.329  14.038  1.00  0.00     0.171 C 
HETATM   26  O2  UNL     1     -10.787   7.110  12.852  1.00  0.00    -0.646 OA
BRANCH  25  27
HETATM   27  O3  UNL     1     -11.771   6.557  14.780  1.00  0.00    -0.773 OA
HETATM   28  H30 UNL     1     -12.083   5.876  14.149  1.00  0.00     0.167 HD
ENDBRANCH  25  27
ENDBRANCH  23  25
ENDBRANCH  21  22
ENDBRANCH  20  21
ENDBRANCH  18  20
ENDBRANCH  10  18
BRANCH  17  29
HETATM   29  C28 UNL     1      -0.841   4.424  11.000  1.00  0.00     0.021 C 
BRANCH  29  30
HETATM   30  C29 UNL     1      -0.345   3.162  11.697  1.00  0.00     0.111 C 
BRANCH  30  31
HETATM   31  C30 UNL     1      -0.760   1.903  10.992  1.00  0.00     0.139 C 
HETATM   32  O4  UNL     1      -0.338   0.781  11.215  1.00  0.00    -0.650 OA
BRANCH  31  33
HETATM   33  O5  UNL     1      -1.727   2.104  10.075  1.00  0.00    -0.776 OA
HETATM   34  H44 UNL     1      -1.852   1.219   9.676  1.00  0.00     0.167 HD
ENDBRANCH  31  33
ENDBRANCH  30  31
ENDBRANCH  29  30
ENDBRANCH  17  29
BRANCH   1  35
HETATM   35  C2  UNL     1       1.418   6.669  10.889  1.00  0.00    -0.086 C 
HETATM   36  C1  UNL     1       2.281   6.633  11.919  1.00  0.00     0.014 C 
HETATM   37  C3  UNL     1       1.906   6.536   9.471  1.00  0.00     0.043 C 
ENDBRANCH   1  35
TORSDOF 11
ENDMDL
MODEL 7
REMARK minimizedAffinity -8.7191925
REMARK  11 active torsions:
REMARK  status: ('A' for Active; 'I' for Inactive)
REMARK    1  A    between atoms: C2_2  and  C4_4 
REMARK    2  A    between atoms: C12_13  and  C13_14 
REMARK    3  A    between atoms: C13_14  and  C15_16 
REMARK    4  A    between atoms: C15_16  and  C16_17 
REMARK    5  A    between atoms: C16_17  and  C17_18 
REMARK    6  A    between atoms: C18_19  and  C20_21 
REMARK    7  A    between atoms: C20_21  and  O3_23 
REMARK    8  A    between atoms: C27_30  and  C28_31 
REMARK    9  A    between atoms: C28_31  and  C29_32 
REMARK   10  A    between atoms: C29_32  and  C30_33 
REMARK   11  A    between atoms: C30_33  and  O5_35 
ROOT
HETATM    1  C4  UNL     1      -5.331   3.740  11.613  1.00  0.00     0.054 C 
HETATM    2  C5  UNL     1      -4.265   3.260  10.665  1.00  0.00     0.160 A 
HETATM    3  O1  UNL     1      -3.126   2.613  11.252  1.00  0.00    -0.374 OA
HETATM    4  C6  UNL     1      -2.901   3.879  10.618  1.00  0.00     0.157 A 
HETATM    5  C7  UNL     1      -2.547   5.046  11.499  1.00  0.00     0.035 C 
HETATM    6  C8  UNL     1      -1.015   5.104  11.873  1.00  0.00    -0.029 C 
HETATM    7  C9  UNL     1      -0.482   3.726  12.333  1.00  0.00     0.016 C 
HETATM    8  C10 UNL     1      -0.191   5.511  10.602  1.00  0.00     0.011 C 
HETATM    9  C11 UNL     1       0.471   6.851  10.893  1.00  0.00     0.006 C 
HETATM   10  C12 UNL     1       0.652   6.848  12.407  1.00  0.00    -0.002 C 
HETATM   11  C21 UNL     1      -0.697   6.254  12.936  1.00  0.00    -0.032 C 
HETATM   12  C22 UNL     1      -0.485   5.750  14.383  1.00  0.00     0.016 C 
HETATM   13  C23 UNL     1      -1.851   7.281  12.952  1.00  0.00     0.011 C 
HETATM   14  C24 UNL     1      -3.206   6.673  13.330  1.00  0.00     0.011 C 
HETATM   15  C25 UNL     1      -3.442   5.294  12.718  1.00  0.00    -0.024 A 
HETATM   16  C26 UNL     1      -3.738   4.173  13.688  1.00  0.00     0.022 A 
HETATM   17  C27 UNL     1      -4.862   4.649  12.784  1.00  0.00    -0.021 A 
ENDROOT
BRANCH  10  18
HETATM   18  C13 UNL     1       1.166   8.185  13.022  1.00  0.00    -0.014 C 
HETATM   19  C14 UNL     1       0.080   9.240  13.252  1.00  0.00     0.010 C 
BRANCH  18  20
HETATM   20  C15 UNL     1       2.304   8.742  12.120  1.00  0.00     0.008 C 
BRANCH  20  21
HETATM   21  C16 UNL     1       3.469   7.778  11.838  1.00  0.00     0.028 C 
BRANCH  21  22
HETATM   22  C17 UNL     1       4.542   7.801  12.895  1.00  0.00    -0.013 C 
HETATM   23  C18 UNL     1       5.808   7.346  12.802  1.00  0.00     0.008 C 
HETATM   24  C19 UNL     1       6.748   7.366  13.971  1.00  0.00     0.055 C 
BRANCH  23  25
HETATM   25  C20 UNL     1       6.397   6.770  11.572  1.00  0.00     0.171 C 
HETATM   26  O2  UNL     1       7.033   7.389  10.738  1.00  0.00    -0.646 OA
BRANCH  25  27
HETATM   27  O3  UNL     1       6.078   5.479  11.393  1.00  0.00    -0.773 OA
HETATM   28  H30 UNL     1       6.490   5.257  10.532  1.00  0.00     0.167 HD
ENDBRANCH  25  27
ENDBRANCH  23  25
ENDBRANCH  21  22
ENDBRANCH  20  21
ENDBRANCH  18  20
ENDBRANCH  10  18
BRANCH  17  29
HETATM   29  C28 UNL     1      -6.024   5.488  13.357  1.00  0.00     0.021 C 
BRANCH  29  30
HETATM   30  C29 UNL     1      -6.105   5.617  14.873  1.00  0.00     0.111 C 
BRANCH  30  31
HETATM   31  C30 UNL     1      -7.516   5.628  15.385  1.00  0.00     0.139 C 
HETATM   32  O4  UNL     1      -8.301   6.559  15.310  1.00  0.00    -0.650 OA
BRANCH  31  33
HETATM   33  O5  UNL     1      -7.895   4.450  15.918  1.00  0.00    -0.776 OA
HETATM   34  H44 UNL     1      -8.802   4.627  16.243  1.00  0.00     0.167 HD
ENDBRANCH  31  33
ENDBRANCH  30  31
ENDBRANCH  29  30
ENDBRANCH  17  29
BRANCH   1  35
HETATM   35  C2  UNL     1      -6.280   2.605  12.022  1.00  0.00    -0.086 C 
HETATM   36  C1  UNL     1      -7.242   2.745  12.950  1.00  0.00     0.014 C 
HETATM   37  C3  UNL     1      -6.057   1.282  11.339  1.00  0.00     0.043 C 
ENDBRANCH   1  35
TORSDOF 11
ENDMDL
MODEL 8
REMARK minimizedAffinity -8.66927242
REMARK  11 active torsions:
REMARK  status: ('A' for Active; 'I' for Inactive)
REMARK    1  A    between atoms: C2_2  and  C4_4 
REMARK    2  A    between atoms: C12_13  and  C13_14 
REMARK    3  A    between atoms: C13_14  and  C15_16 
REMARK    4  A    between atoms: C15_16  and  C16_17 
REMARK    5  A    between atoms: C16_17  and  C17_18 
REMARK    6  A    between atoms: C18_19  and  C20_21 
REMARK    7  A    between atoms: C20_21  and  O3_23 
REMARK    8  A    between atoms: C27_30  and  C28_31 
REMARK    9  A    between atoms: C28_31  and  C29_32 
REMARK   10  A    between atoms: C29_32  and  C30_33 
REMARK   11  A    between atoms: C30_33  and  O5_35 
ROOT
HETATM    1  C4  UNL     1      -4.147   5.884  14.462  1.00  0.00     0.054 C 
HETATM    2  C5  UNL     1      -3.552   6.592  15.650  1.00  0.00     0.160 A 
HETATM    3  O1  UNL     1      -3.211   7.974  15.472  1.00  0.00    -0.374 OA
HETATM    4  C6  UNL     1      -2.127   7.056  15.671  1.00  0.00     0.157 A 
HETATM    5  C7  UNL     1      -1.209   6.800  14.507  1.00  0.00     0.035 C 
HETATM    6  C8  UNL     1      -0.085   7.895  14.345  1.00  0.00    -0.029 C 
HETATM    7  C9  UNL     1      -0.658   9.328  14.447  1.00  0.00     0.016 C 
HETATM    8  C10 UNL     1       0.958   7.737  15.506  1.00  0.00     0.011 C 
HETATM    9  C11 UNL     1       2.294   7.368  14.876  1.00  0.00     0.006 C 
HETATM   10  C12 UNL     1       2.231   7.997  13.489  1.00  0.00    -0.002 C 
HETATM   11  C21 UNL     1       0.772   7.687  13.013  1.00  0.00    -0.032 C 
HETATM   12  C22 UNL     1       0.410   8.652  11.858  1.00  0.00     0.016 C 
HETATM   13  C23 UNL     1       0.593   6.241  12.499  1.00  0.00     0.011 C 
HETATM   14  C24 UNL     1      -0.860   5.885  12.167  1.00  0.00     0.011 C 
HETATM   15  C25 UNL     1      -1.866   6.452  13.167  1.00  0.00    -0.024 A 
HETATM   16  C26 UNL     1      -2.949   7.339  12.596  1.00  0.00     0.022 A 
HETATM   17  C27 UNL     1      -3.351   5.974  13.129  1.00  0.00    -0.021 A 
ENDROOT
BRANCH  10  18
HETATM   18  C13 UNL     1       3.414   7.642  12.538  1.00  0.00    -0.014 C 
HETATM   19  C14 UNL     1       4.793   7.654  13.206  1.00  0.00     0.010 C 
BRANCH  18  20
HETATM   20  C15 UNL     1       3.377   8.604  11.317  1.00  0.00     0.008 C 
BRANCH  20  21
HETATM   21  C16 UNL     1       4.109   8.114  10.055  1.00  0.00     0.028 C 
BRANCH  21  22
HETATM   22  C17 UNL     1       3.257   8.140   8.814  1.00  0.00    -0.013 C 
HETATM   23  C18 UNL     1       2.700   7.095   8.168  1.00  0.00     0.008 C 
HETATM   24  C19 UNL     1       1.934   7.267   6.890  1.00  0.00     0.055 C 
BRANCH  23  25
HETATM   25  C20 UNL     1       2.795   5.690   8.622  1.00  0.00     0.171 C 
HETATM   26  O2  UNL     1       3.468   4.822   8.096  1.00  0.00    -0.646 OA
BRANCH  25  27
HETATM   27  O3  UNL     1       1.971   5.411   9.645  1.00  0.00    -0.773 OA
HETATM   28  H30 UNL     1       2.108   4.454   9.798  1.00  0.00     0.167 HD
ENDBRANCH  25  27
ENDBRANCH  23  25
ENDBRANCH  21  22
ENDBRANCH  20  21
ENDBRANCH  18  20
ENDBRANCH  10  18
BRANCH  17  29
HETATM   29  C28 UNL     1      -3.732   4.836  12.158  1.00  0.00     0.021 C 
BRANCH  29  30
HETATM   30  C29 UNL     1      -3.720   3.417  12.714  1.00  0.00     0.111 C 
BRANCH  30  31
HETATM   31  C30 UNL     1      -3.704   2.369  11.639  1.00  0.00     0.139 C 
HETATM   32  O4  UNL     1      -3.413   1.193  11.786  1.00  0.00    -0.650 OA
BRANCH  31  33
HETATM   33  O5  UNL     1      -4.105   2.833  10.440  1.00  0.00    -0.776 OA
HETATM   34  H44 UNL     1      -3.996   2.062   9.847  1.00  0.00     0.167 HD
ENDBRANCH  31  33
ENDBRANCH  30  31
ENDBRANCH  29  30
ENDBRANCH  17  29
BRANCH   1  35
HETATM   35  C2  UNL     1      -5.651   6.161  14.331  1.00  0.00    -0.086 C 
HETATM   36  C1  UNL     1      -6.588   5.203  14.419  1.00  0.00     0.014 C 
HETATM   37  C3  UNL     1      -6.036   7.591  14.062  1.00  0.00     0.043 C 
ENDBRANCH   1  35
TORSDOF 11
ENDMDL
MODEL 9
REMARK minimizedAffinity -8.64840317
REMARK  11 active torsions:
REMARK  status: ('A' for Active; 'I' for Inactive)
REMARK    1  A    between atoms: C2_2  and  C4_4 
REMARK    2  A    between atoms: C12_13  and  C13_14 
REMARK    3  A    between atoms: C13_14  and  C15_16 
REMARK    4  A    between atoms: C15_16  and  C16_17 
REMARK    5  A    between atoms: C16_17  and  C17_18 
REMARK    6  A    between atoms: C18_19  and  C20_21 
REMARK    7  A    between atoms: C20_21  and  O3_23 
REMARK    8  A    between atoms: C27_30  and  C28_31 
REMARK    9  A    between atoms: C28_31  and  C29_32 
REMARK   10  A    between atoms: C29_32  and  C30_33 
REMARK   11  A    between atoms: C30_33  and  O5_35 
ROOT
HETATM    1  C4  UNL     1      -4.126   6.157  15.137  1.00  0.00     0.054 C 
HETATM    2  C5  UNL     1      -3.459   7.292  15.869  1.00  0.00     0.160 A 
HETATM    3  O1  UNL     1      -3.188   8.478  15.108  1.00  0.00    -0.374 OA
HETATM    4  C6  UNL     1      -2.057   7.723  15.564  1.00  0.00     0.157 A 
HETATM    5  C7  UNL     1      -1.232   7.010  14.528  1.00  0.00     0.035 C 
HETATM    6  C8  UNL     1      -0.168   7.940  13.827  1.00  0.00    -0.029 C 
HETATM    7  C9  UNL     1      -0.785   9.288  13.385  1.00  0.00     0.016 C 
HETATM    8  C10 UNL     1       0.975   8.274  14.848  1.00  0.00     0.011 C 
HETATM    9  C11 UNL     1       2.266   7.678  14.303  1.00  0.00     0.006 C 
HETATM   10  C12 UNL     1       2.061   7.680  12.793  1.00  0.00    -0.002 C 
HETATM   11  C21 UNL     1       0.579   7.201  12.624  1.00  0.00    -0.032 C 
HETATM   12  C22 UNL     1       0.084   7.605  11.215  1.00  0.00     0.016 C 
HETATM   13  C23 UNL     1       0.413   5.672  12.769  1.00  0.00     0.011 C 
HETATM   14  C24 UNL     1      -1.049   5.211  12.749  1.00  0.00     0.011 C 
HETATM   15  C25 UNL     1      -1.987   6.140  13.517  1.00  0.00    -0.024 A 
HETATM   16  C26 UNL     1      -3.148   6.713  12.735  1.00  0.00     0.022 A 
HETATM   17  C27 UNL     1      -3.450   5.689  13.817  1.00  0.00    -0.021 A 
ENDROOT
BRANCH  10  18
HETATM   18  C13 UNL     1       3.172   6.964  11.966  1.00  0.00    -0.014 C 
HETATM   19  C14 UNL     1       4.602   7.366  12.339  1.00  0.00     0.010 C 
BRANCH  18  20
HETATM   20  C15 UNL     1       2.900   7.206  10.454  1.00  0.00     0.008 C 
BRANCH  20  21
HETATM   21  C16 UNL     1       3.459   6.142   9.494  1.00  0.00     0.028 C 
BRANCH  21  22
HETATM   22  C17 UNL     1       2.750   6.093   8.166  1.00  0.00    -0.013 C 
HETATM   23  C18 UNL     1       2.279   7.127   7.439  1.00  0.00     0.008 C 
HETATM   24  C19 UNL     1       1.520   6.920   6.162  1.00  0.00     0.055 C 
BRANCH  23  25
HETATM   25  C20 UNL     1       2.433   8.549   7.818  1.00  0.00     0.171 C 
HETATM   26  O2  UNL     1       3.473   9.182   7.778  1.00  0.00    -0.646 OA
BRANCH  25  27
HETATM   27  O3  UNL     1       1.309   9.083   8.323  1.00  0.00    -0.773 OA
HETATM   28  H30 UNL     1       1.576   9.993   8.568  1.00  0.00     0.167 HD
ENDBRANCH  25  27
ENDBRANCH  23  25
ENDBRANCH  21  22
ENDBRANCH  20  21
ENDBRANCH  18  20
ENDBRANCH  10  18
BRANCH  17  29
HETATM   29  C28 UNL     1      -3.869   4.253  13.439  1.00  0.00     0.021 C 
BRANCH  29  30
HETATM   30  C29 UNL     1      -4.902   4.101  12.329  1.00  0.00     0.111 C 
BRANCH  30  31
HETATM   31  C30 UNL     1      -4.337   3.475  11.086  1.00  0.00     0.139 C 
HETATM   32  O4  UNL     1      -3.198   3.604  10.670  1.00  0.00    -0.650 OA
BRANCH  31  33
HETATM   33  O5  UNL     1      -5.214   2.672  10.453  1.00  0.00    -0.776 OA
HETATM   34  H44 UNL     1      -4.725   2.383   9.655  1.00  0.00     0.167 HD
ENDBRANCH  31  33
ENDBRANCH  30  31
ENDBRANCH  29  30
ENDBRANCH  17  29
BRANCH   1  35
HETATM   35  C2  UNL     1      -5.645   6.356  15.045  1.00  0.00    -0.086 C 
HETATM   36  C1  UNL     1      -6.516   5.790  15.897  1.00  0.00     0.014 C 
HETATM   37  C3  UNL     1      -6.129   7.213  13.906  1.00  0.00     0.043 C 
ENDBRANCH   1  35
TORSDOF 11
ENDMDL
