MODEL 1
REMARK minimizedAffinity -10.0696659
REMARK CNNscore 0.629096866
REMARK CNNaffinity 7.36685181
REMARK  12 active torsions:
REMARK  status: ('A' for Active; 'I' for Inactive)
REMARK    1  A    between atoms: O1_2  and  C2_3 
REMARK    2  A    between atoms: C2_3  and  C3_4 
REMARK    3  A    between atoms: C3_4  and  C4_5 
REMARK    4  A    between atoms: C4_5  and  O2_6 
REMARK    5  A    between atoms: O2_6  and  C5_7 
REMARK    6  A    between atoms: C20_23  and  C21_24 
REMARK    7  A    between atoms: C21_24  and  O4_26 
REMARK    8  A    between atoms: C21_24  and  C23_27 
REMARK    9  A    between atoms: C23_27  and  O5_28 
REMARK   10  A    between atoms: C23_27  and  C24_29 
REMARK   11  A    between atoms: C29_36  and  O7_37 
REMARK   12  A    between atoms: C36_44  and  O8_45 
ROOT
HETATM    1  C5  UNL     1      -1.594  52.518 -25.449  1.00  0.00     0.122 C 
HETATM    2  C6  UNL     1      -3.076  52.587 -25.074  1.00  0.00     0.033 C 
HETATM    3  C7  UNL     1      -3.339  52.215 -23.616  1.00  0.00     0.013 C 
HETATM    4  C8  UNL     1      -2.739  50.832 -23.198  1.00  0.00    -0.026 C 
HETATM    5  C9  UNL     1      -3.475  49.726 -23.997  1.00  0.00     0.016 C 
HETATM    6  C10 UNL     1      -1.225  50.833 -23.555  1.00  0.00     0.071 C 
HETATM    7  C11 UNL     1      -0.974  51.173 -25.037  1.00  0.00     0.045 C 
HETATM    8  C12 UNL     1      -0.425  51.798 -22.668  1.00  0.00     0.161 C 
HETATM    9  O3  UNL     1       0.505  52.482 -23.096  1.00  0.00    -0.292 OA
HETATM   10  C13 UNL     1      -0.734  51.829 -21.218  1.00  0.00    -0.006 C 
HETATM   11  C14 UNL     1      -1.833  51.184 -20.791  1.00  0.00    -0.030 C 
HETATM   12  C15 UNL     1      -2.963  50.634 -21.648  1.00  0.00     0.027 C 
HETATM   13  C16 UNL     1      -3.383  49.220 -21.158  1.00  0.00     0.011 C 
HETATM   14  C17 UNL     1      -3.650  49.162 -19.624  1.00  0.00     0.014 C 
HETATM   15  C18 UNL     1      -2.411  49.608 -18.820  1.00  0.00    -0.002 C 
HETATM   16  C19 UNL     1      -1.282  48.571 -19.093  1.00  0.00     0.019 C 
HETATM   17  C20 UNL     1      -2.567  49.945 -17.276  1.00  0.00     0.034 C 
HETATM   18  C32 UNL     1      -1.439  51.065 -17.050  1.00  0.00     0.016 C 
HETATM   19  C33 UNL     1      -0.873  51.367 -18.438  1.00  0.00     0.026 C 
HETATM   20  C34 UNL     1      -0.263  52.701 -18.820  1.00  0.00     0.013 C 
HETATM   21  C35 UNL     1       0.212  52.587 -20.296  1.00  0.00     0.043 C 
HETATM   22  C36 UNL     1      -2.062  51.039 -19.327  1.00  0.00     0.094 C 
ENDROOT
BRANCH  17  23
HETATM   23  C21 UNL     1      -2.556  48.874 -16.131  1.00  0.00     0.087 C 
HETATM   24  C22 UNL     1      -3.476  47.692 -16.520  1.00  0.00     0.049 C 
BRANCH  23  25
HETATM   25  O4  UNL     1      -3.155  49.443 -14.950  1.00  0.00    -0.387 OA
HETATM   26  H33 UNL     1      -2.415  49.870 -14.471  1.00  0.00     0.210 HD
ENDBRANCH  23  25
BRANCH  23  27
HETATM   27  C23 UNL     1      -1.172  48.289 -15.675  1.00  0.00     0.181 C 
BRANCH  27  28
HETATM   28  O5  UNL     1      -1.441  47.212 -14.766  1.00  0.00    -0.390 OA
HETATM   29  H35 UNL     1      -0.749  46.539 -14.876  1.00  0.00     0.210 HD
ENDBRANCH  27  28
BRANCH  27  30
HETATM   30  C24 UNL     1      -0.149  49.320 -15.140  1.00  0.00     0.158 C 
HETATM   31  O6  UNL     1      -0.514  49.819 -13.854  1.00  0.00    -0.373 OA
HETATM   32  C25 UNL     1       0.623  50.499 -13.293  1.00  0.00     0.185 C 
HETATM   33  C26 UNL     1       1.859  49.808 -13.872  1.00  0.00     0.027 C 
HETATM   34  C29 UNL     1       0.565  52.025 -13.581  1.00  0.00     0.383 C 
HETATM   35  C27 UNL     1       2.923  50.810 -14.319  1.00  0.00     0.038 C 
HETATM   36  C30 UNL     1       1.325  48.904 -15.001  1.00  0.00     0.020 C 
HETATM   37  C28 UNL     1       2.379  51.917 -15.224  1.00  0.00     0.273 C 
HETATM   38  N1  UNL     1       1.031  52.379 -14.910  1.00  0.00     0.114 N 
HETATM   39  H43 UNL     1       0.951  53.379 -15.069  1.00  0.00     0.319 HD
HETATM   40  C31 UNL     1       1.590  47.438 -14.665  1.00  0.00     0.013 C 
BRANCH  34  41
HETATM   41  O7  UNL     1       1.326  52.740 -12.625  1.00  0.00    -0.366 OA
HETATM   42  H45 UNL     1       1.155  53.680 -12.802  1.00  0.00     0.212 HD
ENDBRANCH  34  41
ENDBRANCH  27  30
ENDBRANCH  23  27
ENDBRANCH  17  23
BRANCH  22  43
HETATM   43  O8  UNL     1      -3.148  51.944 -19.048  1.00  0.00    -0.384 OA
HETATM   44  H57 UNL     1      -2.857  52.838 -19.288  1.00  0.00     0.211 HD
ENDBRANCH  22  43
BRANCH   1  45
HETATM   45  O2  UNL     1      -1.515  52.712 -26.868  1.00  0.00    -0.386 OA
BRANCH  45  46
HETATM   46  C4  UNL     1      -0.408  53.520 -27.272  1.00  0.00     0.170 C 
BRANCH  46  47
HETATM   47  C3  UNL     1       0.236  52.882 -28.501  1.00  0.00     0.052 C 
BRANCH  47  48
HETATM   48  C2  UNL     1       1.312  51.869 -28.115  1.00  0.00     0.169 C 
BRANCH  48  49
HETATM   49  O1  UNL     1       1.895  52.262 -26.873  1.00  0.00    -0.396 OA
HETATM   50  C1  UNL     1       2.558  51.180 -26.233  1.00  0.00     0.201 C 
ENDBRANCH  48  49
ENDBRANCH  47  48
ENDBRANCH  46  47
ENDBRANCH  45  46
ENDBRANCH   1  45
TORSDOF 12
ENDMDL
MODEL 2
REMARK minimizedAffinity -7.94933653
REMARK CNNscore 0.605956972
REMARK CNNaffinity 6.94615793
REMARK  12 active torsions:
REMARK  status: ('A' for Active; 'I' for Inactive)
REMARK    1  A    between atoms: O1_2  and  C2_3 
REMARK    2  A    between atoms: C2_3  and  C3_4 
REMARK    3  A    between atoms: C3_4  and  C4_5 
REMARK    4  A    between atoms: C4_5  and  O2_6 
REMARK    5  A    between atoms: O2_6  and  C5_7 
REMARK    6  A    between atoms: C20_23  and  C21_24 
REMARK    7  A    between atoms: C21_24  and  O4_26 
REMARK    8  A    between atoms: C21_24  and  C23_27 
REMARK    9  A    between atoms: C23_27  and  O5_28 
REMARK   10  A    between atoms: C23_27  and  C24_29 
REMARK   11  A    between atoms: C29_36  and  O7_37 
REMARK   12  A    between atoms: C36_44  and  O8_45 
ROOT
HETATM    1  C5  UNL     1      -1.462  50.627 -19.357  1.00  0.00     0.122 C 
HETATM    2  C6  UNL     1      -1.753  51.467 -20.603  1.00  0.00     0.033 C 
HETATM    3  C7  UNL     1      -3.028  51.034 -21.327  1.00  0.00     0.013 C 
HETATM    4  C8  UNL     1      -3.071  49.511 -21.679  1.00  0.00    -0.026 C 
HETATM    5  C9  UNL     1      -1.950  49.222 -22.708  1.00  0.00     0.016 C 
HETATM    6  C10 UNL     1      -2.819  48.705 -20.372  1.00  0.00     0.071 C 
HETATM    7  C11 UNL     1      -1.512  49.123 -19.670  1.00  0.00     0.045 C 
HETATM    8  C12 UNL     1      -3.989  48.829 -19.384  1.00  0.00     0.161 C 
HETATM    9  O3  UNL     1      -3.829  48.916 -18.167  1.00  0.00    -0.292 OA
HETATM   10  C13 UNL     1      -5.368  48.745 -19.926  1.00  0.00    -0.006 C 
HETATM   11  C14 UNL     1      -5.528  48.787 -21.259  1.00  0.00    -0.030 C 
HETATM   12  C15 UNL     1      -4.485  49.177 -22.296  1.00  0.00     0.027 C 
HETATM   13  C16 UNL     1      -4.528  48.206 -23.508  1.00  0.00     0.011 C 
HETATM   14  C17 UNL     1      -5.965  48.010 -24.080  1.00  0.00     0.014 C 
HETATM   15  C18 UNL     1      -6.934  47.485 -23.001  1.00  0.00    -0.002 C 
HETATM   16  C19 UNL     1      -6.445  46.066 -22.589  1.00  0.00     0.019 C 
HETATM   17  C20 UNL     1      -8.498  47.536 -23.270  1.00  0.00     0.034 C 
HETATM   18  C32 UNL     1      -9.099  47.723 -21.793  1.00  0.00     0.016 C 
HETATM   19  C33 UNL     1      -7.889  47.908 -20.876  1.00  0.00     0.026 C 
HETATM   20  C34 UNL     1      -7.938  48.685 -19.576  1.00  0.00     0.013 C 
HETATM   21  C35 UNL     1      -6.521  48.613 -18.940  1.00  0.00     0.043 C 
HETATM   22  C36 UNL     1      -6.875  48.515 -21.833  1.00  0.00     0.094 C 
ENDROOT
BRANCH  17  23
HETATM   23  C21 UNL     1      -9.290  46.455 -24.085  1.00  0.00     0.087 C 
HETATM   24  C22 UNL     1      -9.865  45.396 -23.115  1.00  0.00     0.049 C 
BRANCH  23  25
HETATM   25  O4  UNL     1      -8.368  45.732 -24.925  1.00  0.00    -0.387 OA
HETATM   26  H33 UNL     1      -8.332  46.243 -25.760  1.00  0.00     0.210 HD
ENDBRANCH  23  25
BRANCH  23  27
HETATM   27  C23 UNL     1     -10.448  46.937 -25.029  1.00  0.00     0.181 C 
BRANCH  27  28
HETATM   28  O5  UNL     1     -11.604  46.143 -24.729  1.00  0.00    -0.390 OA
HETATM   29  H35 UNL     1     -12.395  46.693 -24.856  1.00  0.00     0.210 HD
ENDBRANCH  27  28
BRANCH  27  30
HETATM   30  C24 UNL     1     -10.104  47.001 -26.536  1.00  0.00     0.158 C 
HETATM   31  O6  UNL     1     -10.142  45.714 -27.150  1.00  0.00    -0.373 OA
HETATM   32  C25 UNL     1     -10.142  45.891 -28.577  1.00  0.00     0.185 C 
HETATM   33  C26 UNL     1     -10.832  47.232 -28.838  1.00  0.00     0.027 C 
HETATM   34  C29 UNL     1      -8.702  45.804 -29.155  1.00  0.00     0.383 C 
HETATM   35  C27 UNL     1     -10.091  48.067 -29.883  1.00  0.00     0.038 C 
HETATM   36  C30 UNL     1     -10.946  47.904 -27.455  1.00  0.00     0.020 C 
HETATM   37  C28 UNL     1      -8.594  48.210 -29.602  1.00  0.00     0.273 C 
HETATM   38  N1  UNL     1      -7.950  47.038 -29.018  1.00  0.00     0.114 N 
HETATM   39  H43 UNL     1      -7.007  46.932 -29.381  1.00  0.00     0.319 HD
HETATM   40  C31 UNL     1     -12.416  48.075 -27.078  1.00  0.00     0.013 C 
BRANCH  34  41
HETATM   41  O7  UNL     1      -8.738  45.440 -30.522  1.00  0.00    -0.366 OA
HETATM   42  H45 UNL     1      -7.812  45.300 -30.782  1.00  0.00     0.212 HD
ENDBRANCH  34  41
ENDBRANCH  27  30
ENDBRANCH  23  27
ENDBRANCH  17  23
BRANCH  22  43
HETATM   43  O8  UNL     1      -7.334  49.804 -22.283  1.00  0.00    -0.384 OA
HETATM   44  H57 UNL     1      -7.375  50.390 -21.510  1.00  0.00     0.211 HD
ENDBRANCH  22  43
BRANCH   1  45
HETATM   45  O2  UNL     1      -0.164  51.016 -18.888  1.00  0.00    -0.386 OA
BRANCH  45  46
HETATM   46  C4  UNL     1      -0.058  52.412 -18.597  1.00  0.00     0.170 C 
BRANCH  46  47
HETATM   47  C3  UNL     1       1.146  52.973 -19.351  1.00  0.00     0.052 C 
BRANCH  47  48
HETATM   48  C2  UNL     1       0.740  54.081 -20.321  1.00  0.00     0.169 C 
BRANCH  48  49
HETATM   49  O1  UNL     1       1.881  54.469 -21.086  1.00  0.00    -0.396 OA
HETATM   50  C1  UNL     1       1.576  54.588 -22.469  1.00  0.00     0.201 C 
ENDBRANCH  48  49
ENDBRANCH  47  48
ENDBRANCH  46  47
ENDBRANCH  45  46
ENDBRANCH   1  45
TORSDOF 12
ENDMDL
MODEL 3
REMARK minimizedAffinity -9.44565964
REMARK CNNscore 0.510461748
REMARK CNNaffinity 6.69551325
REMARK  12 active torsions:
REMARK  status: ('A' for Active; 'I' for Inactive)
REMARK    1  A    between atoms: O1_2  and  C2_3 
REMARK    2  A    between atoms: C2_3  and  C3_4 
REMARK    3  A    between atoms: C3_4  and  C4_5 
REMARK    4  A    between atoms: C4_5  and  O2_6 
REMARK    5  A    between atoms: O2_6  and  C5_7 
REMARK    6  A    between atoms: C20_23  and  C21_24 
REMARK    7  A    between atoms: C21_24  and  O4_26 
REMARK    8  A    between atoms: C21_24  and  C23_27 
REMARK    9  A    between atoms: C23_27  and  O5_28 
REMARK   10  A    between atoms: C23_27  and  C24_29 
REMARK   11  A    between atoms: C29_36  and  O7_37 
REMARK   12  A    between atoms: C36_44  and  O8_45 
ROOT
HETATM    1  C5  UNL     1      -2.576  51.897 -25.526  1.00  0.00     0.122 C 
HETATM    2  C6  UNL     1      -3.921  52.000 -24.803  1.00  0.00     0.033 C 
HETATM    3  C7  UNL     1      -3.798  51.822 -23.291  1.00  0.00     0.013 C 
HETATM    4  C8  UNL     1      -3.055  50.513 -22.865  1.00  0.00    -0.026 C 
HETATM    5  C9  UNL     1      -3.916  49.304 -23.308  1.00  0.00     0.016 C 
HETATM    6  C10 UNL     1      -1.677  50.483 -23.588  1.00  0.00     0.071 C 
HETATM    7  C11 UNL     1      -1.815  50.626 -25.116  1.00  0.00     0.045 C 
HETATM    8  C12 UNL     1      -0.725  51.566 -23.058  1.00  0.00     0.161 C 
HETATM    9  O3  UNL     1       0.040  52.197 -23.789  1.00  0.00    -0.292 OA
HETATM   10  C13 UNL     1      -0.668  51.786 -21.593  1.00  0.00    -0.006 C 
HETATM   11  C14 UNL     1      -1.598  51.192 -20.826  1.00  0.00    -0.030 C 
HETATM   12  C15 UNL     1      -2.880  50.521 -21.296  1.00  0.00     0.027 C 
HETATM   13  C16 UNL     1      -3.104  49.180 -20.542  1.00  0.00     0.011 C 
HETATM   14  C17 UNL     1      -2.981  49.325 -18.995  1.00  0.00     0.014 C 
HETATM   15  C18 UNL     1      -1.603  49.887 -18.590  1.00  0.00    -0.002 C 
HETATM   16  C19 UNL     1      -0.532  48.834 -19.005  1.00  0.00     0.019 C 
HETATM   17  C20 UNL     1      -1.387  50.424 -17.112  1.00  0.00     0.034 C 
HETATM   18  C32 UNL     1      -0.288  51.576 -17.319  1.00  0.00     0.016 C 
HETATM   19  C33 UNL     1      -0.096  51.696 -18.832  1.00  0.00     0.026 C 
HETATM   20  C34 UNL     1       0.342  52.975 -19.519  1.00  0.00     0.013 C 
HETATM   21  C35 UNL     1       0.442  52.670 -21.041  1.00  0.00     0.043 C 
HETATM   22  C36 UNL     1      -1.452  51.241 -19.345  1.00  0.00     0.094 C 
ENDROOT
BRANCH  17  23
HETATM   23  C21 UNL     1      -1.047  49.515 -15.881  1.00  0.00     0.087 C 
HETATM   24  C22 UNL     1       0.199  50.074 -15.154  1.00  0.00     0.049 C 
BRANCH  23  25
HETATM   25  O4  UNL     1      -0.650  48.213 -16.356  1.00  0.00    -0.387 OA
HETATM   26  H33 UNL     1      -1.484  47.702 -16.422  1.00  0.00     0.210 HD
ENDBRANCH  23  25
BRANCH  23  27
HETATM   27  C23 UNL     1      -2.168  49.263 -14.811  1.00  0.00     0.181 C 
BRANCH  27  28
HETATM   28  O5  UNL     1      -3.429  49.314 -15.493  1.00  0.00    -0.390 OA
HETATM   29  H35 UNL     1      -4.036  48.690 -15.060  1.00  0.00     0.210 HD
ENDBRANCH  27  28
BRANCH  27  30
HETATM   30  C24 UNL     1      -2.102  50.150 -13.546  1.00  0.00     0.158 C 
HETATM   31  O6  UNL     1      -3.370  50.721 -13.224  1.00  0.00    -0.373 OA
HETATM   32  C25 UNL     1      -3.305  51.245 -11.887  1.00  0.00     0.185 C 
HETATM   33  C26 UNL     1      -2.292  50.376 -11.139  1.00  0.00     0.027 C 
HETATM   34  C29 UNL     1      -2.951  52.758 -11.891  1.00  0.00     0.383 C 
HETATM   35  C27 UNL     1      -1.336  51.210 -10.286  1.00  0.00     0.038 C 
HETATM   36  C30 UNL     1      -1.599  49.535 -12.229  1.00  0.00     0.020 C 
HETATM   37  C28 UNL     1      -0.684  52.365 -11.050  1.00  0.00     0.273 C 
HETATM   38  N1  UNL     1      -1.531  53.017 -12.044  1.00  0.00     0.114 N 
HETATM   39  H43 UNL     1      -1.344  54.016 -12.070  1.00  0.00     0.319 HD
HETATM   40  C31 UNL     1      -1.898  48.053 -12.013  1.00  0.00     0.013 C 
BRANCH  34  41
HETATM   41  O7  UNL     1      -3.403  53.377 -10.702  1.00  0.00    -0.366 OA
HETATM   42  H45 UNL     1      -3.247  54.329 -10.824  1.00  0.00     0.212 HD
ENDBRANCH  34  41
ENDBRANCH  27  30
ENDBRANCH  23  27
ENDBRANCH  17  23
BRANCH  22  43
HETATM   43  O8  UNL     1      -2.474  52.164 -18.920  1.00  0.00    -0.384 OA
HETATM   44  H57 UNL     1      -2.290  53.021 -19.336  1.00  0.00     0.211 HD
ENDBRANCH  22  43
BRANCH   1  45
HETATM   45  O2  UNL     1      -2.858  51.901 -26.931  1.00  0.00    -0.386 OA
BRANCH  45  46
HETATM   46  C4  UNL     1      -2.681  50.626 -27.552  1.00  0.00     0.170 C 
BRANCH  46  47
HETATM   47  C3  UNL     1      -3.811  49.704 -27.097  1.00  0.00     0.052 C 
BRANCH  47  48
HETATM   48  C2  UNL     1      -3.960  48.495 -28.018  1.00  0.00     0.169 C 
BRANCH  48  49
HETATM   49  O1  UNL     1      -4.444  48.934 -29.287  1.00  0.00    -0.396 OA
HETATM   50  C1  UNL     1      -5.463  48.080 -29.789  1.00  0.00     0.201 C 
ENDBRANCH  48  49
ENDBRANCH  47  48
ENDBRANCH  46  47
ENDBRANCH  45  46
ENDBRANCH   1  45
TORSDOF 12
ENDMDL
MODEL 4
REMARK minimizedAffinity -9.37717438
REMARK CNNscore 0.504940093
REMARK CNNaffinity 6.98402405
REMARK  12 active torsions:
REMARK  status: ('A' for Active; 'I' for Inactive)
REMARK    1  A    between atoms: O1_2  and  C2_3 
REMARK    2  A    between atoms: C2_3  and  C3_4 
REMARK    3  A    between atoms: C3_4  and  C4_5 
REMARK    4  A    between atoms: C4_5  and  O2_6 
REMARK    5  A    between atoms: O2_6  and  C5_7 
REMARK    6  A    between atoms: C20_23  and  C21_24 
REMARK    7  A    between atoms: C21_24  and  O4_26 
REMARK    8  A    between atoms: C21_24  and  C23_27 
REMARK    9  A    between atoms: C23_27  and  O5_28 
REMARK   10  A    between atoms: C23_27  and  C24_29 
REMARK   11  A    between atoms: C29_36  and  O7_37 
REMARK   12  A    between atoms: C36_44  and  O8_45 
ROOT
HETATM    1  C5  UNL     1      -4.088  49.706 -24.342  1.00  0.00     0.122 C 
HETATM    2  C6  UNL     1      -5.160  50.318 -23.438  1.00  0.00     0.033 C 
HETATM    3  C7  UNL     1      -4.622  50.719 -22.066  1.00  0.00     0.013 C 
HETATM    4  C8  UNL     1      -3.875  49.567 -21.316  1.00  0.00    -0.026 C 
HETATM    5  C9  UNL     1      -4.905  48.455 -20.995  1.00  0.00     0.016 C 
HETATM    6  C10 UNL     1      -2.767  49.015 -22.259  1.00  0.00     0.071 C 
HETATM    7  C11 UNL     1      -3.327  48.579 -23.627  1.00  0.00     0.045 C 
HETATM    8  C12 UNL     1      -1.634  50.031 -22.473  1.00  0.00     0.161 C 
HETATM    9  O3  UNL     1      -1.071  50.184 -23.557  1.00  0.00    -0.292 OA
HETATM   10  C13 UNL     1      -1.146  50.787 -21.293  1.00  0.00    -0.006 C 
HETATM   11  C14 UNL     1      -1.855  50.710 -20.154  1.00  0.00    -0.030 C 
HETATM   12  C15 UNL     1      -3.259  50.149 -19.985  1.00  0.00     0.027 C 
HETATM   13  C16 UNL     1      -3.345  49.267 -18.708  1.00  0.00     0.011 C 
HETATM   14  C17 UNL     1      -2.775  49.973 -17.441  1.00  0.00     0.014 C 
HETATM   15  C18 UNL     1      -1.305  50.393 -17.644  1.00  0.00    -0.002 C 
HETATM   16  C19 UNL     1      -0.469  49.091 -17.815  1.00  0.00     0.019 C 
HETATM   17  C20 UNL     1      -0.640  51.413 -16.624  1.00  0.00     0.034 C 
HETATM   18  C32 UNL     1       0.427  52.180 -17.547  1.00  0.00     0.016 C 
HETATM   19  C33 UNL     1       0.185  51.670 -18.968  1.00  0.00     0.026 C 
HETATM   20  C34 UNL     1       0.491  52.484 -20.210  1.00  0.00     0.013 C 
HETATM   21  C35 UNL     1       0.132  51.602 -21.440  1.00  0.00     0.043 C 
HETATM   22  C36 UNL     1      -1.288  51.301 -18.910  1.00  0.00     0.094 C 
ENDROOT
BRANCH  17  23
HETATM   23  C21 UNL     1      -0.022  51.005 -15.242  1.00  0.00     0.087 C 
HETATM   24  C22 UNL     1       1.277  50.197 -15.475  1.00  0.00     0.049 C 
BRANCH  23  25
HETATM   25  O4  UNL     1      -0.918  50.090 -14.580  1.00  0.00    -0.387 OA
HETATM   26  H33 UNL     1      -1.529  50.660 -14.067  1.00  0.00     0.210 HD
ENDBRANCH  23  25
BRANCH  23  27
HETATM   27  C23 UNL     1       0.284  52.140 -14.201  1.00  0.00     0.181 C 
BRANCH  27  28
HETATM   28  O5  UNL     1       1.654  51.994 -13.800  1.00  0.00    -0.390 OA
HETATM   29  H35 UNL     1       2.016  52.878 -13.620  1.00  0.00     0.210 HD
ENDBRANCH  27  28
BRANCH  27  30
HETATM   30  C24 UNL     1      -0.708  52.253 -13.019  1.00  0.00     0.158 C 
HETATM   31  O6  UNL     1      -2.009  51.781 -13.364  1.00  0.00    -0.373 OA
HETATM   32  C25 UNL     1      -2.765  51.610 -12.152  1.00  0.00     0.185 C 
HETATM   33  C26 UNL     1      -1.747  51.270 -11.062  1.00  0.00     0.027 C 
HETATM   34  C29 UNL     1      -3.622  52.869 -11.840  1.00  0.00     0.383 C 
HETATM   35  C27 UNL     1      -2.014  52.037  -9.766  1.00  0.00     0.038 C 
HETATM   36  C30 UNL     1      -0.369  51.551 -11.693  1.00  0.00     0.020 C 
HETATM   37  C28 UNL     1      -2.188  53.543  -9.971  1.00  0.00     0.273 C 
HETATM   38  N1  UNL     1      -2.869  53.934 -11.201  1.00  0.00     0.114 N 
HETATM   39  H43 UNL     1      -3.456  54.748 -11.040  1.00  0.00     0.319 HD
HETATM   40  C31 UNL     1       0.432  50.255 -11.794  1.00  0.00     0.013 C 
BRANCH  34  41
HETATM   41  O7  UNL     1      -4.721  52.529 -11.017  1.00  0.00    -0.366 OA
HETATM   42  H45 UNL     1      -5.264  53.334 -10.957  1.00  0.00     0.212 HD
ENDBRANCH  34  41
ENDBRANCH  27  30
ENDBRANCH  23  27
ENDBRANCH  17  23
BRANCH  22  43
HETATM   43  O8  UNL     1      -2.082  52.482 -18.687  1.00  0.00    -0.384 OA
HETATM   44  H57 UNL     1      -1.970  53.064 -19.454  1.00  0.00     0.211 HD
ENDBRANCH  22  43
BRANCH   1  45
HETATM   45  O2  UNL     1      -4.760  49.217 -25.511  1.00  0.00    -0.386 OA
BRANCH  45  46
HETATM   46  C4  UNL     1      -3.963  48.328 -26.297  1.00  0.00     0.170 C 
BRANCH  46  47
HETATM   47  C3  UNL     1      -4.021  48.784 -27.754  1.00  0.00     0.052 C 
BRANCH  47  48
HETATM   48  C2  UNL     1      -5.081  48.020 -28.543  1.00  0.00     0.169 C 
BRANCH  48  49
HETATM   49  O1  UNL     1      -4.730  48.034 -29.927  1.00  0.00    -0.396 OA
HETATM   50  C1  UNL     1      -5.661  47.306 -30.717  1.00  0.00     0.201 C 
ENDBRANCH  48  49
ENDBRANCH  47  48
ENDBRANCH  46  47
ENDBRANCH  45  46
ENDBRANCH   1  45
TORSDOF 12
ENDMDL
MODEL 5
REMARK minimizedAffinity -9.50094891
REMARK CNNscore 0.459471315
REMARK CNNaffinity 6.75798416
REMARK  12 active torsions:
REMARK  status: ('A' for Active; 'I' for Inactive)
REMARK    1  A    between atoms: O1_2  and  C2_3 
REMARK    2  A    between atoms: C2_3  and  C3_4 
REMARK    3  A    between atoms: C3_4  and  C4_5 
REMARK    4  A    between atoms: C4_5  and  O2_6 
REMARK    5  A    between atoms: O2_6  and  C5_7 
REMARK    6  A    between atoms: C20_23  and  C21_24 
REMARK    7  A    between atoms: C21_24  and  O4_26 
REMARK    8  A    between atoms: C21_24  and  C23_27 
REMARK    9  A    between atoms: C23_27  and  O5_28 
REMARK   10  A    between atoms: C23_27  and  C24_29 
REMARK   11  A    between atoms: C29_36  and  O7_37 
REMARK   12  A    between atoms: C36_44  and  O8_45 
ROOT
HETATM    1  C5  UNL     1      -2.449  51.801 -25.422  1.00  0.00     0.122 C 
HETATM    2  C6  UNL     1      -3.839  52.046 -24.830  1.00  0.00     0.033 C 
HETATM    3  C7  UNL     1      -3.875  51.881 -23.311  1.00  0.00     0.013 C 
HETATM    4  C8  UNL     1      -3.306  50.513 -22.809  1.00  0.00    -0.026 C 
HETATM    5  C9  UNL     1      -4.237  49.386 -23.322  1.00  0.00     0.016 C 
HETATM    6  C10 UNL     1      -1.877  50.337 -23.399  1.00  0.00     0.071 C 
HETATM    7  C11 UNL     1      -1.858  50.469 -24.934  1.00  0.00     0.045 C 
HETATM    8  C12 UNL     1      -0.876  51.331 -22.790  1.00  0.00     0.161 C 
HETATM    9  O3  UNL     1       0.011  51.873 -23.450  1.00  0.00    -0.292 OA
HETATM   10  C13 UNL     1      -0.934  51.568 -21.327  1.00  0.00    -0.006 C 
HETATM   11  C14 UNL     1      -1.985  51.080 -20.647  1.00  0.00    -0.030 C 
HETATM   12  C15 UNL     1      -3.278  50.529 -21.231  1.00  0.00     0.027 C 
HETATM   13  C16 UNL     1      -3.701  49.229 -20.492  1.00  0.00     0.011 C 
HETATM   14  C17 UNL     1      -3.708  49.385 -18.941  1.00  0.00     0.014 C 
HETATM   15  C18 UNL     1      -2.324  49.817 -18.413  1.00  0.00    -0.002 C 
HETATM   16  C19 UNL     1      -1.329  48.659 -18.718  1.00  0.00     0.019 C 
HETATM   17  C20 UNL     1      -2.195  50.354 -16.924  1.00  0.00     0.034 C 
HETATM   18  C32 UNL     1      -0.973  51.391 -17.035  1.00  0.00     0.016 C 
HETATM   19  C33 UNL     1      -0.631  51.467 -18.524  1.00  0.00     0.026 C 
HETATM   20  C34 UNL     1      -0.008  52.685 -19.176  1.00  0.00     0.013 C 
HETATM   21  C35 UNL     1       0.202  52.348 -20.679  1.00  0.00     0.043 C 
HETATM   22  C36 UNL     1      -1.973  51.137 -19.159  1.00  0.00     0.094 C 
ENDROOT
BRANCH  17  23
HETATM   23  C21 UNL     1      -2.061  49.436 -15.661  1.00  0.00     0.087 C 
HETATM   24  C22 UNL     1      -1.730  47.991 -16.104  1.00  0.00     0.049 C 
BRANCH  23  25
HETATM   25  O4  UNL     1      -3.344  49.343 -15.011  1.00  0.00    -0.387 OA
HETATM   26  H33 UNL     1      -3.365  50.096 -14.383  1.00  0.00     0.210 HD
ENDBRANCH  23  25
BRANCH  23  27
HETATM   27  C23 UNL     1      -1.039  49.853 -14.544  1.00  0.00     0.181 C 
BRANCH  27  28
HETATM   28  O5  UNL     1      -0.255  48.695 -14.227  1.00  0.00    -0.390 OA
HETATM   29  H35 UNL     1       0.642  48.987 -13.991  1.00  0.00     0.210 HD
ENDBRANCH  27  28
BRANCH  27  30
HETATM   30  C24 UNL     1      -1.646  50.557 -13.306  1.00  0.00     0.158 C 
HETATM   31  O6  UNL     1      -1.365  49.854 -12.098  1.00  0.00    -0.373 OA
HETATM   32  C25 UNL     1      -1.664  50.719 -10.989  1.00  0.00     0.185 C 
HETATM   33  C26 UNL     1      -1.424  52.146 -11.488  1.00  0.00     0.027 C 
HETATM   34  C29 UNL     1      -3.103  50.475 -10.455  1.00  0.00     0.383 C 
HETATM   35  C27 UNL     1      -2.536  53.102 -11.055  1.00  0.00     0.038 C 
HETATM   36  C30 UNL     1      -1.258  52.017 -13.015  1.00  0.00     0.020 C 
HETATM   37  C28 UNL     1      -3.942  52.588 -11.370  1.00  0.00     0.273 C 
HETATM   38  N1  UNL     1      -4.128  51.146 -11.235  1.00  0.00     0.114 N 
HETATM   39  H43 UNL     1      -5.054  50.939 -10.872  1.00  0.00     0.319 HD
HETATM   40  C31 UNL     1       0.152  52.441 -13.424  1.00  0.00     0.013 C 
BRANCH  34  41
HETATM   41  O7  UNL     1      -3.209  50.891  -9.107  1.00  0.00    -0.366 OA
HETATM   42  H45 UNL     1      -4.092  50.609  -8.813  1.00  0.00     0.212 HD
ENDBRANCH  34  41
ENDBRANCH  27  30
ENDBRANCH  23  27
ENDBRANCH  17  23
BRANCH  22  43
HETATM   43  O8  UNL     1      -2.933  52.162 -18.838  1.00  0.00    -0.384 OA
HETATM   44  H57 UNL     1      -2.628  52.991 -19.241  1.00  0.00     0.211 HD
ENDBRANCH  22  43
BRANCH   1  45
HETATM   45  O2  UNL     1      -2.598  51.810 -26.848  1.00  0.00    -0.386 OA
BRANCH  45  46
HETATM   46  C4  UNL     1      -1.360  51.681 -27.552  1.00  0.00     0.170 C 
BRANCH  46  47
HETATM   47  C3  UNL     1      -0.749  53.072 -27.717  1.00  0.00     0.052 C 
BRANCH  47  48
HETATM   48  C2  UNL     1       0.392  53.309 -26.731  1.00  0.00     0.169 C 
BRANCH  48  49
HETATM   49  O1  UNL     1       0.144  54.519 -26.015  1.00  0.00    -0.396 OA
HETATM   50  C1  UNL     1      -0.034  55.624 -26.890  1.00  0.00     0.201 C 
ENDBRANCH  48  49
ENDBRANCH  47  48
ENDBRANCH  46  47
ENDBRANCH  45  46
ENDBRANCH   1  45
TORSDOF 12
ENDMDL
MODEL 6
REMARK minimizedAffinity -8.96375847
REMARK CNNscore 0.448642969
REMARK CNNaffinity 6.77703238
REMARK  12 active torsions:
REMARK  status: ('A' for Active; 'I' for Inactive)
REMARK    1  A    between atoms: O1_2  and  C2_3 
REMARK    2  A    between atoms: C2_3  and  C3_4 
REMARK    3  A    between atoms: C3_4  and  C4_5 
REMARK    4  A    between atoms: C4_5  and  O2_6 
REMARK    5  A    between atoms: O2_6  and  C5_7 
REMARK    6  A    between atoms: C20_23  and  C21_24 
REMARK    7  A    between atoms: C21_24  and  O4_26 
REMARK    8  A    between atoms: C21_24  and  C23_27 
REMARK    9  A    between atoms: C23_27  and  O5_28 
REMARK   10  A    between atoms: C23_27  and  C24_29 
REMARK   11  A    between atoms: C29_36  and  O7_37 
REMARK   12  A    between atoms: C36_44  and  O8_45 
ROOT
HETATM    1  C5  UNL     1      -1.613  50.081 -19.643  1.00  0.00     0.122 C 
HETATM    2  C6  UNL     1      -2.763  51.037 -19.320  1.00  0.00     0.033 C 
HETATM    3  C7  UNL     1      -4.076  50.635 -19.990  1.00  0.00     0.013 C 
HETATM    4  C8  UNL     1      -3.961  50.429 -21.537  1.00  0.00    -0.026 C 
HETATM    5  C9  UNL     1      -3.625  51.798 -22.181  1.00  0.00     0.016 C 
HETATM    6  C10 UNL     1      -2.813  49.415 -21.806  1.00  0.00     0.071 C 
HETATM    7  C11 UNL     1      -1.485  49.849 -21.157  1.00  0.00     0.045 C 
HETATM    8  C12 UNL     1      -3.173  47.998 -21.331  1.00  0.00     0.161 C 
HETATM    9  O3  UNL     1      -2.355  47.244 -20.803  1.00  0.00    -0.292 OA
HETATM   10  C13 UNL     1      -4.540  47.497 -21.611  1.00  0.00    -0.006 C 
HETATM   11  C14 UNL     1      -5.455  48.372 -22.062  1.00  0.00    -0.030 C 
HETATM   12  C15 UNL     1      -5.342  49.890 -22.077  1.00  0.00     0.027 C 
HETATM   13  C16 UNL     1      -5.860  50.463 -23.426  1.00  0.00     0.011 C 
HETATM   14  C17 UNL     1      -7.265  49.916 -23.821  1.00  0.00     0.014 C 
HETATM   15  C18 UNL     1      -7.264  48.376 -23.915  1.00  0.00    -0.002 C 
HETATM   16  C19 UNL     1      -6.312  47.984 -25.083  1.00  0.00     0.019 C 
HETATM   17  C20 UNL     1      -8.648  47.600 -23.970  1.00  0.00     0.034 C 
HETATM   18  C32 UNL     1      -8.293  46.207 -23.255  1.00  0.00     0.016 C 
HETATM   19  C33 UNL     1      -6.860  46.359 -22.743  1.00  0.00     0.026 C 
HETATM   20  C34 UNL     1      -6.318  45.608 -21.543  1.00  0.00     0.013 C 
HETATM   21  C35 UNL     1      -4.828  46.021 -21.374  1.00  0.00     0.043 C 
HETATM   22  C36 UNL     1      -6.774  47.862 -22.528  1.00  0.00     0.094 C 
ENDROOT
BRANCH  17  23
HETATM   23  C21 UNL     1      -9.488  47.383 -25.276  1.00  0.00     0.087 C 
HETATM   24  C22 UNL     1     -10.912  46.909 -24.902  1.00  0.00     0.049 C 
BRANCH  23  25
HETATM   25  O4  UNL     1      -8.915  46.293 -26.026  1.00  0.00    -0.387 OA
HETATM   26  H33 UNL     1      -8.242  46.710 -26.604  1.00  0.00     0.210 HD
ENDBRANCH  23  25
BRANCH  23  27
HETATM   27  C23 UNL     1      -9.618  48.580 -26.283  1.00  0.00     0.181 C 
BRANCH  27  28
HETATM   28  O5  UNL     1     -10.969  49.055 -26.212  1.00  0.00    -0.390 OA
HETATM   29  H35 UNL     1     -10.966  50.015 -26.364  1.00  0.00     0.210 HD
ENDBRANCH  27  28
BRANCH  27  30
HETATM   30  C24 UNL     1      -9.125  48.303 -27.724  1.00  0.00     0.158 C 
HETATM   31  O6  UNL     1      -8.101  47.311 -27.758  1.00  0.00    -0.373 OA
HETATM   32  C25 UNL     1      -7.934  46.878 -29.120  1.00  0.00     0.185 C 
HETATM   33  C26 UNL     1      -9.301  47.041 -29.787  1.00  0.00     0.027 C 
HETATM   34  C29 UNL     1      -6.794  47.663 -29.826  1.00  0.00     0.383 C 
HETATM   35  C27 UNL     1      -9.193  47.667 -31.178  1.00  0.00     0.038 C 
HETATM   36  C30 UNL     1     -10.144  47.859 -28.788  1.00  0.00     0.020 C 
HETATM   37  C28 UNL     1      -8.356  48.948 -31.208  1.00  0.00     0.273 C 
HETATM   38  N1  UNL     1      -7.207  48.969 -30.308  1.00  0.00     0.114 N 
HETATM   39  H43 UNL     1      -6.428  49.461 -30.737  1.00  0.00     0.319 HD
HETATM   40  C31 UNL     1     -11.323  47.024 -28.293  1.00  0.00     0.013 C 
BRANCH  34  41
HETATM   41  O7  UNL     1      -6.276  46.918 -30.911  1.00  0.00    -0.366 OA
HETATM   42  H45 UNL     1      -5.505  47.417 -31.230  1.00  0.00     0.212 HD
ENDBRANCH  34  41
ENDBRANCH  27  30
ENDBRANCH  23  27
ENDBRANCH  17  23
BRANCH  22  43
HETATM   43  O8  UNL     1      -7.694  48.264 -21.495  1.00  0.00    -0.384 OA
HETATM   44  H57 UNL     1      -7.410  47.846 -20.667  1.00  0.00     0.211 HD
ENDBRANCH  22  43
BRANCH   1  45
HETATM   45  O2  UNL     1      -0.421  50.670 -19.106  1.00  0.00    -0.386 OA
BRANCH  45  46
HETATM   46  C4  UNL     1      -0.568  52.052 -18.772  1.00  0.00     0.170 C 
BRANCH  46  47
HETATM   47  C3  UNL     1       0.744  52.769 -19.085  1.00  0.00     0.052 C 
BRANCH  47  48
HETATM   48  C2  UNL     1       0.568  53.822 -20.177  1.00  0.00     0.169 C 
BRANCH  48  49
HETATM   49  O1  UNL     1       1.408  53.489 -21.283  1.00  0.00    -0.396 OA
HETATM   50  C1  UNL     1       0.720  52.714 -22.255  1.00  0.00     0.201 C 
ENDBRANCH  48  49
ENDBRANCH  47  48
ENDBRANCH  46  47
ENDBRANCH  45  46
ENDBRANCH   1  45
TORSDOF 12
ENDMDL
MODEL 7
REMARK minimizedAffinity -7.76072693
REMARK CNNscore 0.412043214
REMARK CNNaffinity 6.9776454
REMARK  12 active torsions:
REMARK  status: ('A' for Active; 'I' for Inactive)
REMARK    1  A    between atoms: O1_2  and  C2_3 
REMARK    2  A    between atoms: C2_3  and  C3_4 
REMARK    3  A    between atoms: C3_4  and  C4_5 
REMARK    4  A    between atoms: C4_5  and  O2_6 
REMARK    5  A    between atoms: O2_6  and  C5_7 
REMARK    6  A    between atoms: C20_23  and  C21_24 
REMARK    7  A    between atoms: C21_24  and  O4_26 
REMARK    8  A    between atoms: C21_24  and  C23_27 
REMARK    9  A    between atoms: C23_27  and  O5_28 
REMARK   10  A    between atoms: C23_27  and  C24_29 
REMARK   11  A    between atoms: C29_36  and  O7_37 
REMARK   12  A    between atoms: C36_44  and  O8_45 
ROOT
HETATM    1  C5  UNL     1      -2.546  50.196 -21.685  1.00  0.00     0.122 C 
HETATM    2  C6  UNL     1      -1.040  49.929 -21.733  1.00  0.00     0.033 C 
HETATM    3  C7  UNL     1      -0.441  49.655 -20.355  1.00  0.00     0.013 C 
HETATM    4  C8  UNL     1      -0.761  50.760 -19.294  1.00  0.00    -0.026 C 
HETATM    5  C9  UNL     1      -0.068  52.072 -19.740  1.00  0.00     0.016 C 
HETATM    6  C10 UNL     1      -2.303  50.956 -19.250  1.00  0.00     0.071 C 
HETATM    7  C11 UNL     1      -2.892  51.269 -20.640  1.00  0.00     0.045 C 
HETATM    8  C12 UNL     1      -3.023  49.736 -18.655  1.00  0.00     0.161 C 
HETATM    9  O3  UNL     1      -4.100  49.322 -19.083  1.00  0.00    -0.292 OA
HETATM   10  C13 UNL     1      -2.431  49.098 -17.454  1.00  0.00    -0.006 C 
HETATM   11  C14 UNL     1      -1.195  49.472 -17.082  1.00  0.00    -0.030 C 
HETATM   12  C15 UNL     1      -0.202  50.290 -17.894  1.00  0.00     0.027 C 
HETATM   13  C16 UNL     1       0.486  51.359 -17.000  1.00  0.00     0.011 C 
HETATM   14  C17 UNL     1       1.065  50.767 -15.680  1.00  0.00     0.014 C 
HETATM   15  C18 UNL     1      -0.030  50.069 -14.848  1.00  0.00    -0.002 C 
HETATM   16  C19 UNL     1      -1.049  51.162 -14.412  1.00  0.00     0.019 C 
HETATM   17  C20 UNL     1       0.392  49.117 -13.649  1.00  0.00     0.034 C 
HETATM   18  C32 UNL     1      -0.799  48.042 -13.623  1.00  0.00     0.016 C 
HETATM   19  C33 UNL     1      -1.670  48.362 -14.839  1.00  0.00     0.026 C 
HETATM   20  C34 UNL     1      -2.511  47.326 -15.560  1.00  0.00     0.013 C 
HETATM   21  C35 UNL     1      -3.258  48.057 -16.711  1.00  0.00     0.043 C 
HETATM   22  C36 UNL     1      -0.655  48.989 -15.781  1.00  0.00     0.094 C 
ENDROOT
BRANCH  17  23
HETATM   23  C21 UNL     1       0.752  49.618 -12.208  1.00  0.00     0.087 C 
HETATM   24  C22 UNL     1       1.591  48.541 -11.480  1.00  0.00     0.049 C 
BRANCH  23  25
HETATM   25  O4  UNL     1      -0.461  49.732 -11.436  1.00  0.00    -0.387 OA
HETATM   26  H33 UNL     1      -0.782  50.643 -11.603  1.00  0.00     0.210 HD
ENDBRANCH  23  25
BRANCH  23  27
HETATM   27  C23 UNL     1       1.489  50.996 -12.062  1.00  0.00     0.181 C 
BRANCH  27  28
HETATM   28  O5  UNL     1       2.846  50.719 -11.692  1.00  0.00    -0.390 OA
HETATM   29  H35 UNL     1       3.417  51.400 -12.087  1.00  0.00     0.210 HD
ENDBRANCH  27  28
BRANCH  27  30
HETATM   30  C24 UNL     1       0.792  52.039 -11.155  1.00  0.00     0.158 C 
HETATM   31  O6  UNL     1       0.673  51.584  -9.809  1.00  0.00    -0.373 OA
HETATM   32  C25 UNL     1       0.329  52.707  -8.979  1.00  0.00     0.185 C 
HETATM   33  C26 UNL     1       0.945  53.936  -9.652  1.00  0.00     0.027 C 
HETATM   34  C29 UNL     1      -1.208  52.808  -8.774  1.00  0.00     0.383 C 
HETATM   35  C27 UNL     1      -0.021  55.121  -9.680  1.00  0.00     0.038 C 
HETATM   36  C30 UNL     1       1.393  53.451 -11.045  1.00  0.00     0.020 C 
HETATM   37  C28 UNL     1      -1.405  54.770 -10.229  1.00  0.00     0.273 C 
HETATM   38  N1  UNL     1      -1.897  53.439  -9.886  1.00  0.00     0.114 N 
HETATM   39  H43 UNL     1      -2.900  53.460  -9.727  1.00  0.00     0.319 HD
HETATM   40  C31 UNL     1       2.911  53.556 -11.170  1.00  0.00     0.013 C 
BRANCH  34  41
HETATM   41  O7  UNL     1      -1.505  53.521  -7.589  1.00  0.00    -0.366 OA
HETATM   42  H45 UNL     1      -2.468  53.448  -7.472  1.00  0.00     0.212 HD
ENDBRANCH  34  41
ENDBRANCH  27  30
ENDBRANCH  23  27
ENDBRANCH  17  23
BRANCH  22  43
HETATM   43  O8  UNL     1       0.339  48.015 -16.151  1.00  0.00    -0.384 OA
HETATM   44  H57 UNL     1      -0.106  47.311 -16.648  1.00  0.00     0.211 HD
ENDBRANCH  22  43
BRANCH   1  45
HETATM   45  O2  UNL     1      -2.937  50.610 -23.001  1.00  0.00    -0.386 OA
BRANCH  45  46
HETATM   46  C4  UNL     1      -2.563  49.685 -24.024  1.00  0.00     0.170 C 
BRANCH  46  47
HETATM   47  C3  UNL     1      -3.524  49.847 -25.200  1.00  0.00     0.052 C 
BRANCH  47  48
HETATM   48  C2  UNL     1      -3.261  48.814 -26.293  1.00  0.00     0.169 C 
BRANCH  48  49
HETATM   49  O1  UNL     1      -3.864  49.259 -27.508  1.00  0.00    -0.396 OA
HETATM   50  C1  UNL     1      -4.674  48.252 -28.097  1.00  0.00     0.201 C 
ENDBRANCH  48  49
ENDBRANCH  47  48
ENDBRANCH  46  47
ENDBRANCH  45  46
ENDBRANCH   1  45
TORSDOF 12
ENDMDL
MODEL 8
REMARK minimizedAffinity -9.19513512
REMARK CNNscore 0.391997814
REMARK CNNaffinity 6.64446402
REMARK  12 active torsions:
REMARK  status: ('A' for Active; 'I' for Inactive)
REMARK    1  A    between atoms: O1_2  and  C2_3 
REMARK    2  A    between atoms: C2_3  and  C3_4 
REMARK    3  A    between atoms: C3_4  and  C4_5 
REMARK    4  A    between atoms: C4_5  and  O2_6 
REMARK    5  A    between atoms: O2_6  and  C5_7 
REMARK    6  A    between atoms: C20_23  and  C21_24 
REMARK    7  A    between atoms: C21_24  and  O4_26 
REMARK    8  A    between atoms: C21_24  and  C23_27 
REMARK    9  A    between atoms: C23_27  and  O5_28 
REMARK   10  A    between atoms: C23_27  and  C24_29 
REMARK   11  A    between atoms: C29_36  and  O7_37 
REMARK   12  A    between atoms: C36_44  and  O8_45 
ROOT
HETATM    1  C5  UNL     1      -1.898  52.527 -25.214  1.00  0.00     0.122 C 
HETATM    2  C6  UNL     1      -3.328  52.538 -24.668  1.00  0.00     0.033 C 
HETATM    3  C7  UNL     1      -3.397  52.203 -23.178  1.00  0.00     0.013 C 
HETATM    4  C8  UNL     1      -2.683  50.865 -22.796  1.00  0.00    -0.026 C 
HETATM    5  C9  UNL     1      -3.449  49.700 -23.470  1.00  0.00     0.016 C 
HETATM    6  C10 UNL     1      -1.223  50.927 -23.331  1.00  0.00     0.071 C 
HETATM    7  C11 UNL     1      -1.166  51.228 -24.841  1.00  0.00     0.045 C 
HETATM    8  C12 UNL     1      -0.375  51.959 -22.572  1.00  0.00     0.161 C 
HETATM    9  O3  UNL     1       0.462  52.672 -23.127  1.00  0.00    -0.292 OA
HETATM   10  C13 UNL     1      -0.513  52.024 -21.097  1.00  0.00    -0.006 C 
HETATM   11  C14 UNL     1      -1.519  51.342 -20.525  1.00  0.00    -0.030 C 
HETATM   12  C15 UNL     1      -2.713  50.710 -21.226  1.00  0.00     0.027 C 
HETATM   13  C16 UNL     1      -2.999  49.295 -20.649  1.00  0.00     0.011 C 
HETATM   14  C17 UNL     1      -3.081  49.277 -19.093  1.00  0.00     0.014 C 
HETATM   15  C18 UNL     1      -1.780  49.809 -18.455  1.00  0.00    -0.002 C 
HETATM   16  C19 UNL     1      -0.640  48.818 -18.832  1.00  0.00     0.019 C 
HETATM   17  C20 UNL     1      -1.771  50.190 -16.914  1.00  0.00     0.034 C 
HETATM   18  C32 UNL     1      -0.684  51.370 -16.855  1.00  0.00     0.016 C 
HETATM   19  C33 UNL     1      -0.301  51.651 -18.309  1.00  0.00     0.026 C 
HETATM   20  C34 UNL     1       0.191  52.999 -18.798  1.00  0.00     0.013 C 
HETATM   21  C35 UNL     1       0.494  52.858 -20.316  1.00  0.00     0.043 C 
HETATM   22  C36 UNL     1      -1.568  51.236 -19.040  1.00  0.00     0.094 C 
ENDROOT
BRANCH  17  23
HETATM   23  C21 UNL     1      -1.570  49.160 -15.749  1.00  0.00     0.087 C 
HETATM   24  C22 UNL     1      -2.645  48.052 -15.847  1.00  0.00     0.049 C 
BRANCH  23  25
HETATM   25  O4  UNL     1      -1.825  49.819 -14.492  1.00  0.00    -0.387 OA
HETATM   26  H33 UNL     1      -0.961  50.195 -14.223  1.00  0.00     0.210 HD
ENDBRANCH  23  25
BRANCH  23  27
HETATM   27  C23 UNL     1      -0.167  48.471 -15.600  1.00  0.00     0.181 C 
BRANCH  27  28
HETATM   28  O5  UNL     1      -0.399  47.081 -15.337  1.00  0.00    -0.390 OA
HETATM   29  H35 UNL     1       0.320  46.568 -15.743  1.00  0.00     0.210 HD
ENDBRANCH  27  28
BRANCH  27  30
HETATM   30  C24 UNL     1       0.810  49.144 -14.606  1.00  0.00     0.158 C 
HETATM   31  O6  UNL     1       0.427  50.484 -14.302  1.00  0.00    -0.373 OA
HETATM   32  C25 UNL     1       1.170  50.918 -13.149  1.00  0.00     0.185 C 
HETATM   33  C26 UNL     1       1.442  49.659 -12.322  1.00  0.00     0.027 C 
HETATM   34  C29 UNL     1       2.455  51.686 -13.562  1.00  0.00     0.383 C 
HETATM   35  C27 UNL     1       2.881  49.608 -11.807  1.00  0.00     0.038 C 
HETATM   36  C30 UNL     1       1.055  48.481 -13.239  1.00  0.00     0.020 C 
HETATM   37  C28 UNL     1       3.929  49.846 -12.896  1.00  0.00     0.273 C 
HETATM   38  N1  UNL     1       3.557  50.813 -13.924  1.00  0.00     0.114 N 
HETATM   39  H43 UNL     1       4.368  51.352 -14.215  1.00  0.00     0.319 HD
HETATM   40  C31 UNL     1      -0.119  47.714 -12.635  1.00  0.00     0.013 C 
BRANCH  34  41
HETATM   41  O7  UNL     1       2.876  52.546 -12.521  1.00  0.00    -0.366 OA
HETATM   42  H45 UNL     1       3.610  53.066 -12.889  1.00  0.00     0.212 HD
ENDBRANCH  34  41
ENDBRANCH  27  30
ENDBRANCH  23  27
ENDBRANCH  17  23
BRANCH  22  43
HETATM   43  O8  UNL     1      -2.658  52.098 -18.660  1.00  0.00    -0.384 OA
HETATM   44  H57 UNL     1      -2.443  52.996 -18.958  1.00  0.00     0.211 HD
ENDBRANCH  22  43
BRANCH   1  45
HETATM   45  O2  UNL     1      -1.996  52.676 -26.637  1.00  0.00    -0.386 OA
BRANCH  45  46
HETATM   46  C4  UNL     1      -1.259  51.691 -27.365  1.00  0.00     0.170 C 
BRANCH  46  47
HETATM   47  C3  UNL     1      -2.080  50.404 -27.406  1.00  0.00     0.052 C 
BRANCH  47  48
HETATM   48  C2  UNL     1      -3.359  50.574 -28.222  1.00  0.00     0.169 C 
BRANCH  48  49
HETATM   49  O1  UNL     1      -3.927  49.287 -28.470  1.00  0.00    -0.396 OA
HETATM   50  C1  UNL     1      -3.969  48.492 -27.293  1.00  0.00     0.201 C 
ENDBRANCH  48  49
ENDBRANCH  47  48
ENDBRANCH  46  47
ENDBRANCH  45  46
ENDBRANCH   1  45
TORSDOF 12
ENDMDL
MODEL 9
REMARK minimizedAffinity -9.92008877
REMARK CNNscore 0.365015388
REMARK CNNaffinity 6.58801413
REMARK  12 active torsions:
REMARK  status: ('A' for Active; 'I' for Inactive)
REMARK    1  A    between atoms: O1_2  and  C2_3 
REMARK    2  A    between atoms: C2_3  and  C3_4 
REMARK    3  A    between atoms: C3_4  and  C4_5 
REMARK    4  A    between atoms: C4_5  and  O2_6 
REMARK    5  A    between atoms: O2_6  and  C5_7 
REMARK    6  A    between atoms: C20_23  and  C21_24 
REMARK    7  A    between atoms: C21_24  and  O4_26 
REMARK    8  A    between atoms: C21_24  and  C23_27 
REMARK    9  A    between atoms: C23_27  and  O5_28 
REMARK   10  A    between atoms: C23_27  and  C24_29 
REMARK   11  A    between atoms: C29_36  and  O7_37 
REMARK   12  A    between atoms: C36_44  and  O8_45 
ROOT
HETATM    1  C5  UNL     1      -2.558  52.474 -25.323  1.00  0.00     0.122 C 
HETATM    2  C6  UNL     1      -3.901  52.554 -24.594  1.00  0.00     0.033 C 
HETATM    3  C7  UNL     1      -3.789  52.231 -23.105  1.00  0.00     0.013 C 
HETATM    4  C8  UNL     1      -3.090  50.865 -22.803  1.00  0.00    -0.026 C 
HETATM    5  C9  UNL     1      -3.990  49.731 -23.357  1.00  0.00     0.016 C 
HETATM    6  C10 UNL     1      -1.712  50.856 -23.526  1.00  0.00     0.071 C 
HETATM    7  C11 UNL     1      -1.841  51.146 -25.034  1.00  0.00     0.045 C 
HETATM    8  C12 UNL     1      -0.727  51.854 -22.897  1.00  0.00     0.161 C 
HETATM    9  O3  UNL     1       0.060  52.525 -23.565  1.00  0.00    -0.292 OA
HETATM   10  C13 UNL     1      -0.667  51.934 -21.418  1.00  0.00    -0.006 C 
HETATM   11  C14 UNL     1      -1.618  51.302 -20.710  1.00  0.00    -0.030 C 
HETATM   12  C15 UNL     1      -2.921  50.720 -21.241  1.00  0.00     0.027 C 
HETATM   13  C16 UNL     1      -3.191  49.323 -20.615  1.00  0.00     0.011 C 
HETATM   14  C17 UNL     1      -3.067  49.318 -19.062  1.00  0.00     0.014 C 
HETATM   15  C18 UNL     1      -1.672  49.794 -18.606  1.00  0.00    -0.002 C 
HETATM   16  C19 UNL     1      -0.636  48.750 -19.117  1.00  0.00     0.019 C 
HETATM   17  C20 UNL     1      -1.443  50.184 -17.084  1.00  0.00     0.034 C 
HETATM   18  C32 UNL     1      -0.307  51.313 -17.182  1.00  0.00     0.016 C 
HETATM   19  C33 UNL     1      -0.106  51.568 -18.677  1.00  0.00     0.026 C 
HETATM   20  C34 UNL     1       0.376  52.889 -19.242  1.00  0.00     0.013 C 
HETATM   21  C35 UNL     1       0.470  52.725 -20.785  1.00  0.00     0.043 C 
HETATM   22  C36 UNL     1      -1.476  51.207 -19.231  1.00  0.00     0.094 C 
ENDROOT
BRANCH  17  23
HETATM   23  C21 UNL     1      -1.137  49.153 -15.944  1.00  0.00     0.087 C 
HETATM   24  C22 UNL     1       0.201  49.520 -15.259  1.00  0.00     0.049 C 
BRANCH  23  25
HETATM   25  O4  UNL     1      -0.913  47.856 -16.532  1.00  0.00    -0.387 OA
HETATM   26  H33 UNL     1      -1.800  47.442 -16.580  1.00  0.00     0.210 HD
ENDBRANCH  23  25
BRANCH  23  27
HETATM   27  C23 UNL     1      -2.218  48.939 -14.825  1.00  0.00     0.181 C 
BRANCH  27  28
HETATM   28  O5  UNL     1      -3.499  48.905 -15.469  1.00  0.00    -0.390 OA
HETATM   29  H35 UNL     1      -4.073  48.294 -14.977  1.00  0.00     0.210 HD
ENDBRANCH  27  28
BRANCH  27  30
HETATM   30  C24 UNL     1      -2.145  49.911 -13.624  1.00  0.00     0.158 C 
HETATM   31  O6  UNL     1      -3.411  50.500 -13.333  1.00  0.00    -0.373 OA
HETATM   32  C25 UNL     1      -3.338  51.115 -12.035  1.00  0.00     0.185 C 
HETATM   33  C26 UNL     1      -2.317  50.301 -11.237  1.00  0.00     0.027 C 
HETATM   34  C29 UNL     1      -2.987  52.625 -12.145  1.00  0.00     0.383 C 
HETATM   35  C27 UNL     1      -1.356  51.194 -10.451  1.00  0.00     0.038 C 
HETATM   36  C30 UNL     1      -1.630  49.388 -12.272  1.00  0.00     0.020 C 
HETATM   37  C28 UNL     1      -0.713  52.295 -11.297  1.00  0.00     0.273 C 
HETATM   38  N1  UNL     1      -1.569  52.876 -12.327  1.00  0.00     0.114 N 
HETATM   39  H43 UNL     1      -1.384  53.870 -12.424  1.00  0.00     0.319 HD
HETATM   40  C31 UNL     1      -1.924  47.924 -11.952  1.00  0.00     0.013 C 
BRANCH  34  41
HETATM   41  O7  UNL     1      -3.432  53.323 -10.998  1.00  0.00    -0.366 OA
HETATM   42  H45 UNL     1      -3.278  54.265 -11.186  1.00  0.00     0.212 HD
ENDBRANCH  34  41
ENDBRANCH  27  30
ENDBRANCH  23  27
ENDBRANCH  17  23
BRANCH  22  43
HETATM   43  O8  UNL     1      -2.467  52.119 -18.722  1.00  0.00    -0.384 OA
HETATM   44  H57 UNL     1      -2.255  53.005 -19.056  1.00  0.00     0.211 HD
ENDBRANCH  22  43
BRANCH   1  45
HETATM   45  O2  UNL     1      -2.836  52.619 -26.722  1.00  0.00    -0.386 OA
BRANCH  45  46
HETATM   46  C4  UNL     1      -1.813  52.083 -27.565  1.00  0.00     0.170 C 
BRANCH  46  47
HETATM   47  C3  UNL     1      -0.668  53.091 -27.638  1.00  0.00     0.052 C 
BRANCH  47  48
HETATM   48  C2  UNL     1       0.681  52.402 -27.835  1.00  0.00     0.169 C 
BRANCH  48  49
HETATM   49  O1  UNL     1       1.465  52.568 -26.654  1.00  0.00    -0.396 OA
HETATM   50  C1  UNL     1       2.391  51.505 -26.479  1.00  0.00     0.201 C 
ENDBRANCH  48  49
ENDBRANCH  47  48
ENDBRANCH  46  47
ENDBRANCH  45  46
ENDBRANCH   1  45
TORSDOF 12
ENDMDL
