MODEL 1
REMARK minimizedAffinity -7.61735487
REMARK CNNscore 0.666491985
REMARK CNNaffinity 7.36085558
REMARK  12 active torsions:
REMARK  status: ('A' for Active; 'I' for Inactive)
REMARK    1  A    between atoms: C4_4  and  C5_5 
REMARK    2  A    between atoms: C5_5  and  O1_6 
REMARK    3  A    between atoms: C5_5  and  C6_7 
REMARK    4  A    between atoms: C6_7  and  C7_8 
REMARK    5  A    between atoms: C9_11  and  C10_12 
REMARK    6  A    between atoms: C18_20  and  O3_21 
REMARK    7  A    between atoms: O3_21  and  C19_22 
REMARK    8  A    between atoms: C20_24  and  C21_25 
REMARK    9  A    between atoms: C21_25  and  O5_26 
REMARK   10  A    between atoms: C22_27  and  O6_28 
REMARK   11  A    between atoms: C23_29  and  O7_30 
REMARK   12  A    between atoms: C24_31  and  O8_32 
ROOT
HETATM    1  C10 UNL     1       4.468  56.212  -7.397  1.00  0.00     0.029 C 
HETATM    2  C11 UNL     1       3.995  56.886  -8.707  1.00  0.00     0.009 C 
HETATM    3  C12 UNL     1       2.521  56.670  -9.061  1.00  0.00     0.007 C 
HETATM    4  C13 UNL     1       1.938  55.465  -8.317  1.00  0.00     0.003 C 
HETATM    5  C14 UNL     1       0.647  54.798  -8.958  1.00  0.00    -0.035 C 
HETATM    6  C15 UNL     1      -0.543  55.779  -8.997  1.00  0.00     0.016 C 
HETATM    7  C16 UNL     1       0.957  54.385 -10.430  1.00  0.00     0.012 C 
HETATM    8  C17 UNL     1      -0.083  53.459 -11.060  1.00  0.00     0.034 C 
HETATM    9  C18 UNL     1      -0.332  52.197 -10.236  1.00  0.00     0.133 C 
HETATM   10  C25 UNL     1      -0.707  52.508  -8.749  1.00  0.00    -0.017 C 
HETATM   11  C26 UNL     1      -0.692  51.154  -7.984  1.00  0.00     0.018 C 
HETATM   12  C27 UNL     1      -2.148  53.047  -8.629  1.00  0.00     0.018 C 
HETATM   13  C28 UNL     1       0.385  53.469  -8.152  1.00  0.00     0.004 C 
HETATM   14  C29 UNL     1       0.270  53.733  -6.640  1.00  0.00     0.007 C 
HETATM   15  C30 UNL     1       1.528  54.409  -6.073  1.00  0.00     0.011 C 
HETATM   16  C31 UNL     1       1.911  55.752  -6.759  1.00  0.00    -0.029 C 
HETATM   17  C32 UNL     1       0.814  56.770  -6.356  1.00  0.00     0.016 C 
HETATM   18  C33 UNL     1       3.359  56.318  -6.263  1.00  0.00     0.004 C 
HETATM   19  C34 UNL     1       3.860  55.696  -4.945  1.00  0.00     0.190 C 
HETATM   20  O9  UNL     1       4.862  56.582  -4.441  1.00  0.00    -0.321 OA
HETATM   21  C35 UNL     1       4.568  57.842  -4.867  1.00  0.00     0.259 C 
HETATM   22  O10 UNL     1       5.171  58.845  -4.527  1.00  0.00    -0.265 OA
HETATM   23  C36 UNL     1       3.375  57.796  -5.779  1.00  0.00     0.124 C 
ENDROOT
BRANCH   9  24
HETATM   24  O3  UNL     1      -1.398  51.448 -10.834  1.00  0.00    -0.352 OA
BRANCH  24  25
HETATM   25  C19 UNL     1      -2.446  52.244 -11.387  1.00  0.00     0.292 C 
HETATM   26  O4  UNL     1      -3.681  52.028 -10.699  1.00  0.00    -0.348 OA
HETATM   27  C20 UNL     1      -4.523  51.004 -11.254  1.00  0.00     0.179 C 
HETATM   28  C22 UNL     1      -3.716  49.930 -11.992  1.00  0.00     0.180 C 
HETATM   29  C23 UNL     1      -3.094  50.584 -13.230  1.00  0.00     0.183 C 
HETATM   30  C24 UNL     1      -2.518  51.976 -12.915  1.00  0.00     0.204 C 
BRANCH  27  31
HETATM   31  C21 UNL     1      -5.425  50.436 -10.148  1.00  0.00     0.198 C 
BRANCH  31  32
HETATM   32  O5  UNL     1      -6.671  49.966 -10.667  1.00  0.00    -0.398 OA
HETATM   33  H34 UNL     1      -7.165  49.601  -9.910  1.00  0.00     0.209 HD
ENDBRANCH  31  32
ENDBRANCH  27  31
BRANCH  28  34
HETATM   34  O6  UNL     1      -4.519  48.816 -12.406  1.00  0.00    -0.390 OA
HETATM   35  H36 UNL     1      -4.706  48.321 -11.585  1.00  0.00     0.210 HD
ENDBRANCH  28  34
BRANCH  29  36
HETATM   36  O7  UNL     1      -2.084  49.716 -13.767  1.00  0.00    -0.390 OA
HETATM   37  H38 UNL     1      -2.512  48.842 -13.852  1.00  0.00     0.210 HD
ENDBRANCH  29  36
BRANCH  30  38
HETATM   38  O8  UNL     1      -3.357  52.967 -13.546  1.00  0.00    -0.388 OA
HETATM   39  H40 UNL     1      -2.900  53.821 -13.469  1.00  0.00     0.210 HD
ENDBRANCH  30  38
ENDBRANCH  24  25
ENDBRANCH   9  24
BRANCH   1  40
HETATM   40  C9  UNL     1       4.983  54.793  -7.595  1.00  0.00     0.162 A 
HETATM   41  C7  UNL     1       6.450  54.368  -7.409  1.00  0.00     0.087 A 
HETATM   42  C8  UNL     1       6.692  52.925  -7.077  1.00  0.00     0.049 C 
HETATM   43  O2  UNL     1       5.873  54.581  -8.701  1.00  0.00    -0.369 OA
BRANCH  41  44
HETATM   44  C6  UNL     1       7.553  55.352  -7.081  1.00  0.00     0.076 C 
BRANCH  44  45
HETATM   45  C5  UNL     1       7.708  55.663  -5.580  1.00  0.00     0.144 C 
BRANCH  45  46
HETATM   46  C4  UNL     1       8.353  56.992  -5.270  1.00  0.00     0.006 C 
HETATM   47  C2  UNL     1       9.660  57.290  -5.114  1.00  0.00    -0.089 C 
HETATM   48  C1  UNL     1      10.092  58.693  -4.774  1.00  0.00     0.042 C 
HETATM   49  C3  UNL     1      10.798  56.317  -5.271  1.00  0.00     0.042 C 
ENDBRANCH  45  46
BRANCH  45  50
HETATM   50  O1  UNL     1       8.464  54.618  -4.963  1.00  0.00    -0.392 OA
HETATM   51  H9  UNL     1       8.736  54.946  -4.089  1.00  0.00     0.210 HD
ENDBRANCH  45  50
ENDBRANCH  44  45
ENDBRANCH  41  44
ENDBRANCH   1  40
TORSDOF 12
ENDMDL
MODEL 2
REMARK minimizedAffinity -8.33289242
REMARK CNNscore 0.615044892
REMARK CNNaffinity 6.89030075
REMARK  12 active torsions:
REMARK  status: ('A' for Active; 'I' for Inactive)
REMARK    1  A    between atoms: C4_4  and  C5_5 
REMARK    2  A    between atoms: C5_5  and  O1_6 
REMARK    3  A    between atoms: C5_5  and  C6_7 
REMARK    4  A    between atoms: C6_7  and  C7_8 
REMARK    5  A    between atoms: C9_11  and  C10_12 
REMARK    6  A    between atoms: C18_20  and  O3_21 
REMARK    7  A    between atoms: O3_21  and  C19_22 
REMARK    8  A    between atoms: C20_24  and  C21_25 
REMARK    9  A    between atoms: C21_25  and  O5_26 
REMARK   10  A    between atoms: C22_27  and  O6_28 
REMARK   11  A    between atoms: C23_29  and  O7_30 
REMARK   12  A    between atoms: C24_31  and  O8_32 
ROOT
HETATM    1  C10 UNL     1       6.208  53.540  -7.874  1.00  0.00     0.029 C 
HETATM    2  C11 UNL     1       6.313  53.716  -9.408  1.00  0.00     0.009 C 
HETATM    3  C12 UNL     1       5.135  54.438 -10.068  1.00  0.00     0.007 C 
HETATM    4  C13 UNL     1       3.894  54.421  -9.170  1.00  0.00     0.003 C 
HETATM    5  C14 UNL     1       2.496  54.625  -9.894  1.00  0.00    -0.035 C 
HETATM    6  C15 UNL     1       2.402  56.007 -10.574  1.00  0.00     0.016 C 
HETATM    7  C16 UNL     1       2.331  53.547 -11.010  1.00  0.00     0.012 C 
HETATM    8  C17 UNL     1       0.914  53.431 -11.572  1.00  0.00     0.034 C 
HETATM    9  C18 UNL     1      -0.136  53.186 -10.490  1.00  0.00     0.133 C 
HETATM   10  C25 UNL     1      -0.089  54.253  -9.347  1.00  0.00    -0.017 C 
HETATM   11  C26 UNL     1      -1.030  53.749  -8.217  1.00  0.00     0.018 C 
HETATM   12  C27 UNL     1      -0.669  55.606  -9.810  1.00  0.00     0.018 C 
HETATM   13  C28 UNL     1       1.387  54.341  -8.812  1.00  0.00     0.004 C 
HETATM   14  C29 UNL     1       1.578  55.215  -7.558  1.00  0.00     0.007 C 
HETATM   15  C30 UNL     1       2.957  55.006  -6.912  1.00  0.00     0.011 C 
HETATM   16  C31 UNL     1       4.165  55.266  -7.858  1.00  0.00    -0.029 C 
HETATM   17  C32 UNL     1       4.183  56.794  -8.122  1.00  0.00     0.016 C 
HETATM   18  C33 UNL     1       5.588  54.833  -7.188  1.00  0.00     0.004 C 
HETATM   19  C34 UNL     1       5.541  54.673  -5.656  1.00  0.00     0.190 C 
HETATM   20  O9  UNL     1       6.895  54.738  -5.206  1.00  0.00    -0.321 OA
HETATM   21  C35 UNL     1       7.596  55.518  -6.077  1.00  0.00     0.259 C 
HETATM   22  O10 UNL     1       8.757  55.855  -5.923  1.00  0.00    -0.265 OA
HETATM   23  C36 UNL     1       6.704  55.916  -7.219  1.00  0.00     0.124 C 
ENDROOT
BRANCH   9  24
HETATM   24  O3  UNL     1      -1.439  53.206 -11.088  1.00  0.00    -0.352 OA
BRANCH  24  25
HETATM   25  C19 UNL     1      -2.232  52.050 -10.821  1.00  0.00     0.292 C 
HETATM   26  O4  UNL     1      -1.742  50.908 -11.528  1.00  0.00    -0.348 OA
HETATM   27  C20 UNL     1      -2.327  50.687 -12.821  1.00  0.00     0.179 C 
HETATM   28  C22 UNL     1      -2.814  51.990 -13.465  1.00  0.00     0.180 C 
HETATM   29  C23 UNL     1      -3.988  52.511 -12.630  1.00  0.00     0.183 C 
HETATM   30  C24 UNL     1      -3.718  52.388 -11.120  1.00  0.00     0.204 C 
BRANCH  27  31
HETATM   31  C21 UNL     1      -1.337  49.907 -13.699  1.00  0.00     0.198 C 
BRANCH  31  32
HETATM   32  O5  UNL     1      -0.151  49.558 -12.982  1.00  0.00    -0.398 OA
HETATM   33  H34 UNL     1       0.405  49.047 -13.599  1.00  0.00     0.209 HD
ENDBRANCH  31  32
ENDBRANCH  27  31
BRANCH  28  34
HETATM   34  O6  UNL     1      -3.247  51.814 -14.820  1.00  0.00    -0.390 OA
HETATM   35  H36 UNL     1      -2.424  51.695 -15.334  1.00  0.00     0.210 HD
ENDBRANCH  28  34
BRANCH  29  36
HETATM   36  O7  UNL     1      -4.265  53.871 -12.997  1.00  0.00    -0.390 OA
HETATM   37  H38 UNL     1      -4.335  53.867 -13.971  1.00  0.00     0.210 HD
ENDBRANCH  29  36
BRANCH  30  38
HETATM   38  O8  UNL     1      -4.572  51.352 -10.589  1.00  0.00    -0.388 OA
HETATM   39  H40 UNL     1      -4.503  51.392  -9.620  1.00  0.00     0.210 HD
ENDBRANCH  30  38
ENDBRANCH  24  25
ENDBRANCH   9  24
BRANCH   1  40
HETATM   40  C9  UNL     1       5.511  52.252  -7.457  1.00  0.00     0.162 A 
HETATM   41  C7  UNL     1       6.118  50.848  -7.610  1.00  0.00     0.087 A 
HETATM   42  C8  UNL     1       5.607  49.792  -6.675  1.00  0.00     0.049 C 
HETATM   43  O2  UNL     1       5.130  51.357  -8.512  1.00  0.00    -0.369 OA
BRANCH  41  44
HETATM   44  C6  UNL     1       7.458  50.602  -8.272  1.00  0.00     0.076 C 
BRANCH  44  45
HETATM   45  C5  UNL     1       7.437  49.531  -9.380  1.00  0.00     0.144 C 
BRANCH  45  46
HETATM   46  C4  UNL     1       8.376  48.370  -9.158  1.00  0.00     0.006 C 
HETATM   47  C2  UNL     1       9.515  48.320  -8.435  1.00  0.00    -0.089 C 
HETATM   48  C1  UNL     1      10.327  47.052  -8.369  1.00  0.00     0.042 C 
HETATM   49  C3  UNL     1      10.082  49.456  -7.627  1.00  0.00     0.042 C 
ENDBRANCH  45  46
BRANCH  45  50
HETATM   50  O1  UNL     1       7.743  50.149 -10.632  1.00  0.00    -0.392 OA
HETATM   51  H9  UNL     1       7.945  49.433 -11.258  1.00  0.00     0.210 HD
ENDBRANCH  45  50
ENDBRANCH  44  45
ENDBRANCH  41  44
ENDBRANCH   1  40
TORSDOF 12
ENDMDL
MODEL 3
REMARK minimizedAffinity -7.86563206
REMARK CNNscore 0.497420162
REMARK CNNaffinity 6.56772757
REMARK  12 active torsions:
REMARK  status: ('A' for Active; 'I' for Inactive)
REMARK    1  A    between atoms: C4_4  and  C5_5 
REMARK    2  A    between atoms: C5_5  and  O1_6 
REMARK    3  A    between atoms: C5_5  and  C6_7 
REMARK    4  A    between atoms: C6_7  and  C7_8 
REMARK    5  A    between atoms: C9_11  and  C10_12 
REMARK    6  A    between atoms: C18_20  and  O3_21 
REMARK    7  A    between atoms: O3_21  and  C19_22 
REMARK    8  A    between atoms: C20_24  and  C21_25 
REMARK    9  A    between atoms: C21_25  and  O5_26 
REMARK   10  A    between atoms: C22_27  and  O6_28 
REMARK   11  A    between atoms: C23_29  and  O7_30 
REMARK   12  A    between atoms: C24_31  and  O8_32 
ROOT
HETATM    1  C10 UNL     1     -14.580  45.679 -23.746  1.00  0.00     0.029 C 
HETATM    2  C11 UNL     1     -14.994  46.950 -24.525  1.00  0.00     0.009 C 
HETATM    3  C12 UNL     1     -14.687  46.929 -26.025  1.00  0.00     0.007 C 
HETATM    4  C13 UNL     1     -13.625  45.878 -26.364  1.00  0.00     0.003 C 
HETATM    5  C14 UNL     1     -12.826  46.095 -27.719  1.00  0.00    -0.035 C 
HETATM    6  C15 UNL     1     -13.759  46.042 -28.947  1.00  0.00     0.016 C 
HETATM    7  C16 UNL     1     -12.158  47.506 -27.704  1.00  0.00     0.012 C 
HETATM    8  C17 UNL     1     -11.112  47.722 -28.797  1.00  0.00     0.034 C 
HETATM    9  C18 UNL     1     -10.016  46.657 -28.789  1.00  0.00     0.133 C 
HETATM   10  C25 UNL     1     -10.585  45.202 -28.858  1.00  0.00    -0.017 C 
HETATM   11  C26 UNL     1      -9.393  44.236 -28.600  1.00  0.00     0.018 C 
HETATM   12  C27 UNL     1     -11.106  44.863 -30.271  1.00  0.00     0.018 C 
HETATM   13  C28 UNL     1     -11.661  45.034 -27.724  1.00  0.00     0.004 C 
HETATM   14  C29 UNL     1     -12.193  43.603 -27.532  1.00  0.00     0.007 C 
HETATM   15  C30 UNL     1     -12.987  43.451 -26.224  1.00  0.00     0.011 C 
HETATM   16  C31 UNL     1     -14.191  44.427 -26.077  1.00  0.00    -0.029 C 
HETATM   17  C32 UNL     1     -15.242  43.974 -27.122  1.00  0.00     0.016 C 
HETATM   18  C33 UNL     1     -14.867  44.365 -24.593  1.00  0.00     0.004 C 
HETATM   19  C34 UNL     1     -14.506  43.102 -23.788  1.00  0.00     0.190 C 
HETATM   20  O9  UNL     1     -15.489  42.992 -22.757  1.00  0.00    -0.321 OA
HETATM   21  C35 UNL     1     -16.645  43.554 -23.209  1.00  0.00     0.259 C 
HETATM   22  O10 UNL     1     -17.705  43.534 -22.609  1.00  0.00    -0.265 OA
HETATM   23  C36 UNL     1     -16.409  44.160 -24.564  1.00  0.00     0.124 C 
ENDROOT
BRANCH   9  24
HETATM   24  O3  UNL     1      -9.148  46.868 -29.910  1.00  0.00    -0.352 OA
BRANCH  24  25
HETATM   25  C19 UNL     1      -9.409  48.063 -30.646  1.00  0.00     0.292 C 
HETATM   26  O4  UNL     1      -9.447  47.810 -32.054  1.00  0.00    -0.348 OA
HETATM   27  C20 UNL     1      -8.197  47.973 -32.742  1.00  0.00     0.179 C 
HETATM   28  C22 UNL     1      -6.995  47.718 -31.824  1.00  0.00     0.180 C 
HETATM   29  C23 UNL     1      -6.968  48.834 -30.774  1.00  0.00     0.183 C 
HETATM   30  C24 UNL     1      -8.373  49.141 -30.227  1.00  0.00     0.204 C 
BRANCH  27  31
HETATM   31  C21 UNL     1      -8.195  47.097 -34.003  1.00  0.00     0.198 C 
BRANCH  31  32
HETATM   32  O5  UNL     1      -9.418  46.371 -34.148  1.00  0.00    -0.398 OA
HETATM   33  H34 UNL     1      -9.343  45.867 -34.980  1.00  0.00     0.209 HD
ENDBRANCH  31  32
ENDBRANCH  27  31
BRANCH  28  34
HETATM   34  O6  UNL     1      -5.747  47.711 -32.530  1.00  0.00    -0.390 OA
HETATM   35  H36 UNL     1      -5.740  46.865 -33.019  1.00  0.00     0.210 HD
ENDBRANCH  28  34
BRANCH  29  36
HETATM   36  O7  UNL     1      -6.070  48.467 -29.716  1.00  0.00    -0.390 OA
HETATM   37  H38 UNL     1      -5.239  48.208 -30.161  1.00  0.00     0.210 HD
ENDBRANCH  29  36
BRANCH  30  38
HETATM   38  O8  UNL     1      -8.781  50.433 -30.724  1.00  0.00    -0.388 OA
HETATM   39  H40 UNL     1      -9.594  50.679 -30.252  1.00  0.00     0.210 HD
ENDBRANCH  30  38
ENDBRANCH  24  25
ENDBRANCH   9  24
BRANCH   1  40
HETATM   40  C9  UNL     1     -13.159  45.737 -23.200  1.00  0.00     0.162 A 
HETATM   41  C7  UNL     1     -12.698  46.684 -22.080  1.00  0.00     0.087 A 
HETATM   42  C8  UNL     1     -11.503  46.249 -21.285  1.00  0.00     0.049 C 
HETATM   43  O2  UNL     1     -12.420  46.939 -23.460  1.00  0.00    -0.369 OA
BRANCH  41  44
HETATM   44  C6  UNL     1     -13.609  47.721 -21.455  1.00  0.00     0.076 C 
BRANCH  44  45
HETATM   45  C5  UNL     1     -13.312  48.026 -19.975  1.00  0.00     0.144 C 
BRANCH  45  46
HETATM   46  C4  UNL     1     -14.313  48.932 -19.300  1.00  0.00     0.006 C 
HETATM   47  C2  UNL     1     -14.961  48.763 -18.128  1.00  0.00    -0.089 C 
HETATM   48  C1  UNL     1     -15.954  49.789 -17.645  1.00  0.00     0.042 C 
HETATM   49  C3  UNL     1     -14.772  47.601 -17.189  1.00  0.00     0.042 C 
ENDBRANCH  45  46
BRANCH  45  50
HETATM   50  O1  UNL     1     -12.009  48.605 -19.871  1.00  0.00    -0.392 OA
HETATM   51  H9  UNL     1     -11.942  48.990 -18.980  1.00  0.00     0.210 HD
ENDBRANCH  45  50
ENDBRANCH  44  45
ENDBRANCH  41  44
ENDBRANCH   1  40
TORSDOF 12
ENDMDL
MODEL 4
REMARK minimizedAffinity -8.10552502
REMARK CNNscore 0.495627761
REMARK CNNaffinity 7.0427742
REMARK  12 active torsions:
REMARK  status: ('A' for Active; 'I' for Inactive)
REMARK    1  A    between atoms: C4_4  and  C5_5 
REMARK    2  A    between atoms: C5_5  and  O1_6 
REMARK    3  A    between atoms: C5_5  and  C6_7 
REMARK    4  A    between atoms: C6_7  and  C7_8 
REMARK    5  A    between atoms: C9_11  and  C10_12 
REMARK    6  A    between atoms: C18_20  and  O3_21 
REMARK    7  A    between atoms: O3_21  and  C19_22 
REMARK    8  A    between atoms: C20_24  and  C21_25 
REMARK    9  A    between atoms: C21_25  and  O5_26 
REMARK   10  A    between atoms: C22_27  and  O6_28 
REMARK   11  A    between atoms: C23_29  and  O7_30 
REMARK   12  A    between atoms: C24_31  and  O8_32 
ROOT
HETATM    1  C10 UNL     1       6.618  53.545  -7.444  1.00  0.00     0.029 C 
HETATM    2  C11 UNL     1       6.707  53.636  -8.986  1.00  0.00     0.009 C 
HETATM    3  C12 UNL     1       5.536  54.348  -9.670  1.00  0.00     0.007 C 
HETATM    4  C13 UNL     1       4.307  54.408  -8.757  1.00  0.00     0.003 C 
HETATM    5  C14 UNL     1       2.905  54.606  -9.474  1.00  0.00    -0.035 C 
HETATM    6  C15 UNL     1       2.833  55.951 -10.227  1.00  0.00     0.016 C 
HETATM    7  C16 UNL     1       2.700  53.473 -10.528  1.00  0.00     0.012 C 
HETATM    8  C17 UNL     1       1.273  53.360 -11.065  1.00  0.00     0.034 C 
HETATM    9  C18 UNL     1       0.232  53.199  -9.959  1.00  0.00     0.133 C 
HETATM   10  C25 UNL     1       0.320  54.325  -8.876  1.00  0.00    -0.017 C 
HETATM   11  C26 UNL     1      -0.618  53.905  -7.708  1.00  0.00     0.018 C 
HETATM   12  C27 UNL     1      -0.236  55.664  -9.405  1.00  0.00     0.018 C 
HETATM   13  C28 UNL     1       1.804  54.408  -8.364  1.00  0.00     0.004 C 
HETATM   14  C29 UNL     1       2.032  55.343  -7.163  1.00  0.00     0.007 C 
HETATM   15  C30 UNL     1       3.414  55.137  -6.523  1.00  0.00     0.011 C 
HETATM   16  C31 UNL     1       4.615  55.318  -7.497  1.00  0.00    -0.029 C 
HETATM   17  C32 UNL     1       4.665  56.828  -7.844  1.00  0.00     0.016 C 
HETATM   18  C33 UNL     1       6.037  54.888  -6.822  1.00  0.00     0.004 C 
HETATM   19  C34 UNL     1       6.007  54.813  -5.283  1.00  0.00     0.190 C 
HETATM   20  O9  UNL     1       7.368  54.870  -4.854  1.00  0.00    -0.321 OA
HETATM   21  C35 UNL     1       8.075  55.585  -5.774  1.00  0.00     0.259 C 
HETATM   22  O10 UNL     1       9.245  55.903  -5.653  1.00  0.00    -0.265 OA
HETATM   23  C36 UNL     1       7.177  55.942  -6.926  1.00  0.00     0.124 C 
ENDROOT
BRANCH   9  24
HETATM   24  O3  UNL     1      -1.078  53.217 -10.540  1.00  0.00    -0.352 OA
BRANCH  24  25
HETATM   25  C19 UNL     1      -1.745  51.955 -10.539  1.00  0.00     0.292 C 
HETATM   26  O4  UNL     1      -1.711  51.348 -11.834  1.00  0.00    -0.348 OA
HETATM   27  C20 UNL     1      -2.833  51.644 -12.681  1.00  0.00     0.179 C 
HETATM   28  C22 UNL     1      -3.463  53.002 -12.352  1.00  0.00     0.180 C 
HETATM   29  C23 UNL     1      -4.092  52.897 -10.959  1.00  0.00     0.183 C 
HETATM   30  C24 UNL     1      -3.177  52.152  -9.971  1.00  0.00     0.204 C 
BRANCH  27  31
HETATM   31  C21 UNL     1      -2.406  51.511 -14.151  1.00  0.00     0.198 C 
BRANCH  31  32
HETATM   32  O5  UNL     1      -3.506  51.161 -14.994  1.00  0.00    -0.398 OA
HETATM   33  H34 UNL     1      -3.156  51.125 -15.903  1.00  0.00     0.209 HD
ENDBRANCH  31  32
ENDBRANCH  27  31
BRANCH  28  34
HETATM   34  O6  UNL     1      -4.474  53.389 -13.292  1.00  0.00    -0.390 OA
HETATM   35  H36 UNL     1      -3.984  53.646 -14.097  1.00  0.00     0.210 HD
ENDBRANCH  28  34
BRANCH  29  36
HETATM   36  O7  UNL     1      -4.405  54.214 -10.480  1.00  0.00    -0.390 OA
HETATM   37  H38 UNL     1      -4.910  54.638 -11.201  1.00  0.00     0.210 HD
ENDBRANCH  29  36
BRANCH  30  38
HETATM   38  O8  UNL     1      -3.770  50.867  -9.684  1.00  0.00    -0.388 OA
HETATM   39  H40 UNL     1      -3.267  50.477  -8.949  1.00  0.00     0.210 HD
ENDBRANCH  30  38
ENDBRANCH  24  25
ENDBRANCH   9  24
BRANCH   1  40
HETATM   40  C9  UNL     1       5.897  52.299  -6.948  1.00  0.00     0.162 A 
HETATM   41  C7  UNL     1       6.604  51.043  -6.412  1.00  0.00     0.087 A 
HETATM   42  C8  UNL     1       5.818  50.184  -5.466  1.00  0.00     0.049 C 
HETATM   43  O2  UNL     1       6.059  51.109  -7.733  1.00  0.00    -0.369 OA
BRANCH  41  44
HETATM   44  C6  UNL     1       8.112  50.894  -6.397  1.00  0.00     0.076 C 
BRANCH  44  45
HETATM   45  C5  UNL     1       8.647  49.720  -7.238  1.00  0.00     0.144 C 
BRANCH  45  46
HETATM   46  C4  UNL     1      10.044  49.270  -6.884  1.00  0.00     0.006 C 
HETATM   47  C2  UNL     1      10.915  49.805  -6.003  1.00  0.00    -0.089 C 
HETATM   48  C1  UNL     1      12.287  49.210  -5.821  1.00  0.00     0.042 C 
HETATM   49  C3  UNL     1      10.636  50.991  -5.117  1.00  0.00     0.042 C 
ENDBRANCH  45  46
BRANCH  45  50
HETATM   50  O1  UNL     1       8.606  50.079  -8.621  1.00  0.00    -0.392 OA
HETATM   51  H9  UNL     1       9.149  49.429  -9.098  1.00  0.00     0.210 HD
ENDBRANCH  45  50
ENDBRANCH  44  45
ENDBRANCH  41  44
ENDBRANCH   1  40
TORSDOF 12
ENDMDL
MODEL 5
REMARK minimizedAffinity -7.98037386
REMARK CNNscore 0.396700323
REMARK CNNaffinity 6.9153676
REMARK  12 active torsions:
REMARK  status: ('A' for Active; 'I' for Inactive)
REMARK    1  A    between atoms: C4_4  and  C5_5 
REMARK    2  A    between atoms: C5_5  and  O1_6 
REMARK    3  A    between atoms: C5_5  and  C6_7 
REMARK    4  A    between atoms: C6_7  and  C7_8 
REMARK    5  A    between atoms: C9_11  and  C10_12 
REMARK    6  A    between atoms: C18_20  and  O3_21 
REMARK    7  A    between atoms: O3_21  and  C19_22 
REMARK    8  A    between atoms: C20_24  and  C21_25 
REMARK    9  A    between atoms: C21_25  and  O5_26 
REMARK   10  A    between atoms: C22_27  and  O6_28 
REMARK   11  A    between atoms: C23_29  and  O7_30 
REMARK   12  A    between atoms: C24_31  and  O8_32 
ROOT
HETATM    1  C10 UNL     1      -0.446  50.116 -19.639  1.00  0.00     0.029 C 
HETATM    2  C11 UNL     1      -0.247  48.819 -20.459  1.00  0.00     0.009 C 
HETATM    3  C12 UNL     1      -1.446  48.392 -21.312  1.00  0.00     0.007 C 
HETATM    4  C13 UNL     1      -2.740  49.053 -20.829  1.00  0.00     0.003 C 
HETATM    5  C14 UNL     1      -4.094  48.326 -21.227  1.00  0.00    -0.035 C 
HETATM    6  C15 UNL     1      -4.289  48.280 -22.757  1.00  0.00     0.016 C 
HETATM    7  C16 UNL     1      -4.057  46.851 -20.719  1.00  0.00     0.012 C 
HETATM    8  C17 UNL     1      -5.407  46.135 -20.758  1.00  0.00     0.034 C 
HETATM    9  C18 UNL     1      -6.501  46.889 -20.005  1.00  0.00     0.133 C 
HETATM   10  C25 UNL     1      -6.656  48.370 -20.483  1.00  0.00    -0.017 C 
HETATM   11  C26 UNL     1      -7.618  49.072 -19.482  1.00  0.00     0.018 C 
HETATM   12  C27 UNL     1      -7.345  48.452 -21.861  1.00  0.00     0.018 C 
HETATM   13  C28 UNL     1      -5.243  49.058 -20.434  1.00  0.00     0.004 C 
HETATM   14  C29 UNL     1      -5.242  50.574 -20.700  1.00  0.00     0.007 C 
HETATM   15  C30 UNL     1      -3.901  51.226 -20.330  1.00  0.00     0.011 C 
HETATM   16  C31 UNL     1      -2.662  50.620 -21.051  1.00  0.00    -0.029 C 
HETATM   17  C32 UNL     1      -2.791  51.021 -22.542  1.00  0.00     0.016 C 
HETATM   18  C33 UNL     1      -1.253  51.204 -20.471  1.00  0.00     0.004 C 
HETATM   19  C34 UNL     1      -1.396  52.513 -19.670  1.00  0.00     0.190 C 
HETATM   20  O9  UNL     1      -0.094  53.100 -19.628  1.00  0.00    -0.321 OA
HETATM   21  C35 UNL     1       0.580  52.720 -20.751  1.00  0.00     0.259 C 
HETATM   22  O10 UNL     1       1.682  53.132 -21.068  1.00  0.00    -0.265 OA
HETATM   23  C36 UNL     1      -0.263  51.756 -21.537  1.00  0.00     0.124 C 
ENDROOT
BRANCH   9  24
HETATM   24  O3  UNL     1      -7.751  46.210 -20.189  1.00  0.00    -0.352 OA
BRANCH  24  25
HETATM   25  C19 UNL     1      -7.646  44.934 -20.820  1.00  0.00     0.292 C 
HETATM   26  O4  UNL     1      -8.339  44.913 -22.071  1.00  0.00    -0.348 OA
HETATM   27  C20 UNL     1      -9.706  44.477 -22.010  1.00  0.00     0.179 C 
HETATM   28  C22 UNL     1     -10.343  44.764 -20.646  1.00  0.00     0.180 C 
HETATM   29  C23 UNL     1      -9.644  43.877 -19.611  1.00  0.00     0.183 C 
HETATM   30  C24 UNL     1      -8.119  43.846 -19.818  1.00  0.00     0.204 C 
BRANCH  27  31
HETATM   31  C21 UNL     1     -10.485  45.087 -23.186  1.00  0.00     0.198 C 
BRANCH  31  32
HETATM   32  O5  UNL     1      -9.616  45.488 -24.248  1.00  0.00    -0.398 OA
HETATM   33  H34 UNL     1     -10.189  45.835 -24.956  1.00  0.00     0.209 HD
ENDBRANCH  31  32
ENDBRANCH  27  31
BRANCH  28  34
HETATM   34  O6  UNL     1     -11.750  44.491 -20.619  1.00  0.00    -0.390 OA
HETATM   35  H36 UNL     1     -12.158  45.220 -21.128  1.00  0.00     0.210 HD
ENDBRANCH  28  34
BRANCH  29  36
HETATM   36  O7  UNL     1      -9.977  44.336 -18.292  1.00  0.00    -0.390 OA
HETATM   37  H38 UNL     1     -10.951  44.406 -18.280  1.00  0.00     0.210 HD
ENDBRANCH  29  36
BRANCH  30  38
HETATM   38  O8  UNL     1      -7.755  42.538 -20.308  1.00  0.00    -0.388 OA
HETATM   39  H40 UNL     1      -6.785  42.483 -20.288  1.00  0.00     0.210 HD
ENDBRANCH  30  38
ENDBRANCH  24  25
ENDBRANCH   9  24
BRANCH   1  40
HETATM   40  C9  UNL     1      -1.027  49.875 -18.252  1.00  0.00     0.162 A 
HETATM   41  C7  UNL     1      -0.497  50.527 -16.964  1.00  0.00     0.087 A 
HETATM   42  C8  UNL     1      -1.470  50.658 -15.831  1.00  0.00     0.049 C 
HETATM   43  O2  UNL     1      -0.191  49.175 -17.319  1.00  0.00    -0.369 OA
BRANCH  41  44
HETATM   44  C6  UNL     1       0.722  51.426 -16.942  1.00  0.00     0.076 C 
BRANCH  44  45
HETATM   45  C5  UNL     1       1.115  51.937 -15.543  1.00  0.00     0.144 C 
BRANCH  45  46
HETATM   46  C4  UNL     1       2.043  51.029 -14.773  1.00  0.00     0.006 C 
HETATM   47  C2  UNL     1       3.391  51.039 -14.714  1.00  0.00    -0.089 C 
HETATM   48  C1  UNL     1       4.132  50.012 -13.897  1.00  0.00     0.042 C 
HETATM   49  C3  UNL     1       4.284  52.037 -15.402  1.00  0.00     0.042 C 
ENDBRANCH  45  46
BRANCH  45  50
HETATM   50  O1  UNL     1      -0.071  52.156 -14.776  1.00  0.00    -0.392 OA
HETATM   51  H9  UNL     1       0.207  52.254 -13.849  1.00  0.00     0.210 HD
ENDBRANCH  45  50
ENDBRANCH  44  45
ENDBRANCH  41  44
ENDBRANCH   1  40
TORSDOF 12
ENDMDL
MODEL 6
REMARK minimizedAffinity -8.53944206
REMARK CNNscore 0.385392845
REMARK CNNaffinity 7.08650637
REMARK  12 active torsions:
REMARK  status: ('A' for Active; 'I' for Inactive)
REMARK    1  A    between atoms: C4_4  and  C5_5 
REMARK    2  A    between atoms: C5_5  and  O1_6 
REMARK    3  A    between atoms: C5_5  and  C6_7 
REMARK    4  A    between atoms: C6_7  and  C7_8 
REMARK    5  A    between atoms: C9_11  and  C10_12 
REMARK    6  A    between atoms: C18_20  and  O3_21 
REMARK    7  A    between atoms: O3_21  and  C19_22 
REMARK    8  A    between atoms: C20_24  and  C21_25 
REMARK    9  A    between atoms: C21_25  and  O5_26 
REMARK   10  A    between atoms: C22_27  and  O6_28 
REMARK   11  A    between atoms: C23_29  and  O7_30 
REMARK   12  A    between atoms: C24_31  and  O8_32 
ROOT
HETATM    1  C10 UNL     1       6.651  53.661  -7.509  1.00  0.00     0.029 C 
HETATM    2  C11 UNL     1       6.706  53.823  -9.047  1.00  0.00     0.009 C 
HETATM    3  C12 UNL     1       5.507  54.540  -9.674  1.00  0.00     0.007 C 
HETATM    4  C13 UNL     1       4.297  54.533  -8.736  1.00  0.00     0.003 C 
HETATM    5  C14 UNL     1       2.876  54.733  -9.416  1.00  0.00    -0.035 C 
HETATM    6  C15 UNL     1       2.762  56.109 -10.105  1.00  0.00     0.016 C 
HETATM    7  C16 UNL     1       2.672  53.645 -10.516  1.00  0.00     0.012 C 
HETATM    8  C17 UNL     1       1.238  53.527 -11.030  1.00  0.00     0.034 C 
HETATM    9  C18 UNL     1       0.223  53.294  -9.912  1.00  0.00     0.133 C 
HETATM   10  C25 UNL     1       0.310  54.371  -8.781  1.00  0.00    -0.017 C 
HETATM   11  C26 UNL     1      -0.595  53.879  -7.615  1.00  0.00     0.018 C 
HETATM   12  C27 UNL     1      -0.283  55.721  -9.237  1.00  0.00     0.018 C 
HETATM   13  C28 UNL     1       1.803  54.462  -8.295  1.00  0.00     0.004 C 
HETATM   14  C29 UNL     1       2.036  55.346  -7.056  1.00  0.00     0.007 C 
HETATM   15  C30 UNL     1       3.435  55.141  -6.454  1.00  0.00     0.011 C 
HETATM   16  C31 UNL     1       4.612  55.391  -7.441  1.00  0.00    -0.029 C 
HETATM   17  C32 UNL     1       4.624  56.915  -7.720  1.00  0.00     0.016 C 
HETATM   18  C33 UNL     1       6.056  54.961  -6.815  1.00  0.00     0.004 C 
HETATM   19  C34 UNL     1       6.058  54.815  -5.281  1.00  0.00     0.190 C 
HETATM   20  O9  UNL     1       7.427  54.882  -4.876  1.00  0.00    -0.321 OA
HETATM   21  C35 UNL     1       8.100  55.653  -5.776  1.00  0.00     0.259 C 
HETATM   22  O10 UNL     1       9.266  55.990  -5.664  1.00  0.00    -0.265 OA
HETATM   23  C36 UNL     1       7.172  56.042  -6.893  1.00  0.00     0.124 C 
ENDROOT
BRANCH   9  24
HETATM   24  O3  UNL     1      -1.099  53.310 -10.466  1.00  0.00    -0.352 OA
BRANCH  24  25
HETATM   25  C19 UNL     1      -1.739  52.036 -10.512  1.00  0.00     0.292 C 
HETATM   26  O4  UNL     1      -1.690  51.476 -11.828  1.00  0.00    -0.348 OA
HETATM   27  C20 UNL     1      -2.817  51.778 -12.666  1.00  0.00     0.179 C 
HETATM   28  C22 UNL     1      -3.476  53.110 -12.290  1.00  0.00     0.180 C 
HETATM   29  C23 UNL     1      -4.104  52.942 -10.903  1.00  0.00     0.183 C 
HETATM   30  C24 UNL     1      -3.176  52.181  -9.941  1.00  0.00     0.204 C 
BRANCH  27  31
HETATM   31  C21 UNL     1      -2.385  51.708 -14.139  1.00  0.00     0.198 C 
BRANCH  31  32
HETATM   32  O5  UNL     1      -3.496  51.481 -15.008  1.00  0.00    -0.398 OA
HETATM   33  H34 UNL     1      -3.140  51.477 -15.916  1.00  0.00     0.209 HD
ENDBRANCH  31  32
ENDBRANCH  27  31
BRANCH  28  34
HETATM   34  O6  UNL     1      -4.494  53.510 -13.218  1.00  0.00    -0.390 OA
HETATM   35  H36 UNL     1      -4.007  53.806 -14.013  1.00  0.00     0.210 HD
ENDBRANCH  28  34
BRANCH  29  36
HETATM   36  O7  UNL     1      -4.447  54.234 -10.378  1.00  0.00    -0.390 OA
HETATM   37  H38 UNL     1      -4.959  54.673 -11.085  1.00  0.00     0.210 HD
ENDBRANCH  29  36
BRANCH  30  38
HETATM   38  O8  UNL     1      -3.742  50.875  -9.701  1.00  0.00    -0.388 OA
HETATM   39  H40 UNL     1      -3.232  50.469  -8.980  1.00  0.00     0.210 HD
ENDBRANCH  30  38
ENDBRANCH  24  25
ENDBRANCH   9  24
BRANCH   1  40
HETATM   40  C9  UNL     1       5.966  52.378  -7.057  1.00  0.00     0.162 A 
HETATM   41  C7  UNL     1       6.336  50.973  -7.559  1.00  0.00     0.087 A 
HETATM   42  C8  UNL     1       6.007  49.827  -6.648  1.00  0.00     0.049 C 
HETATM   43  O2  UNL     1       5.191  51.681  -8.044  1.00  0.00    -0.369 OA
BRANCH  41  44
HETATM   44  C6  UNL     1       7.384  50.734  -8.627  1.00  0.00     0.076 C 
BRANCH  44  45
HETATM   45  C5  UNL     1       6.815  50.387 -10.016  1.00  0.00     0.144 C 
BRANCH  45  46
HETATM   46  C4  UNL     1       5.730  49.337 -10.015  1.00  0.00     0.006 C 
HETATM   47  C2  UNL     1       4.535  49.345 -10.640  1.00  0.00    -0.089 C 
HETATM   48  C1  UNL     1       3.577  48.193 -10.480  1.00  0.00     0.042 C 
HETATM   49  C3  UNL     1       4.036  50.438 -11.548  1.00  0.00     0.042 C 
ENDBRANCH  45  46
BRANCH  45  50
HETATM   50  O1  UNL     1       7.883  49.959 -10.864  1.00  0.00    -0.392 OA
HETATM   51  H9  UNL     1       7.476  49.538 -11.640  1.00  0.00     0.210 HD
ENDBRANCH  45  50
ENDBRANCH  44  45
ENDBRANCH  41  44
ENDBRANCH   1  40
TORSDOF 12
ENDMDL
MODEL 7
REMARK minimizedAffinity -7.69490767
REMARK CNNscore 0.353844494
REMARK CNNaffinity 6.85983229
REMARK  12 active torsions:
REMARK  status: ('A' for Active; 'I' for Inactive)
REMARK    1  A    between atoms: C4_4  and  C5_5 
REMARK    2  A    between atoms: C5_5  and  O1_6 
REMARK    3  A    between atoms: C5_5  and  C6_7 
REMARK    4  A    between atoms: C6_7  and  C7_8 
REMARK    5  A    between atoms: C9_11  and  C10_12 
REMARK    6  A    between atoms: C18_20  and  O3_21 
REMARK    7  A    between atoms: O3_21  and  C19_22 
REMARK    8  A    between atoms: C20_24  and  C21_25 
REMARK    9  A    between atoms: C21_25  and  O5_26 
REMARK   10  A    between atoms: C22_27  and  O6_28 
REMARK   11  A    between atoms: C23_29  and  O7_30 
REMARK   12  A    between atoms: C24_31  and  O8_32 
ROOT
HETATM    1  C10 UNL     1       3.667  55.954  -7.012  1.00  0.00     0.029 C 
HETATM    2  C11 UNL     1       3.716  56.206  -8.538  1.00  0.00     0.009 C 
HETATM    3  C12 UNL     1       2.398  55.973  -9.283  1.00  0.00     0.007 C 
HETATM    4  C13 UNL     1       1.441  55.098  -8.468  1.00  0.00     0.003 C 
HETATM    5  C14 UNL     1       0.313  54.336  -9.285  1.00  0.00    -0.035 C 
HETATM    6  C15 UNL     1      -0.645  55.320  -9.989  1.00  0.00     0.016 C 
HETATM    7  C16 UNL     1       0.979  53.463 -10.394  1.00  0.00     0.012 C 
HETATM    8  C17 UNL     1       0.042  52.446 -11.046  1.00  0.00     0.034 C 
HETATM    9  C18 UNL     1      -0.632  51.525 -10.031  1.00  0.00     0.133 C 
HETATM   10  C25 UNL     1      -1.379  52.309  -8.903  1.00  0.00    -0.017 C 
HETATM   11  C26 UNL     1      -1.802  51.266  -7.829  1.00  0.00     0.018 C 
HETATM   12  C27 UNL     1      -2.689  52.938  -9.421  1.00  0.00     0.018 C 
HETATM   13  C28 UNL     1      -0.379  53.346  -8.273  1.00  0.00     0.004 C 
HETATM   14  C29 UNL     1      -0.897  54.080  -7.023  1.00  0.00     0.007 C 
HETATM   15  C30 UNL     1       0.225  54.828  -6.285  1.00  0.00     0.011 C 
HETATM   16  C31 UNL     1       0.998  55.863  -7.153  1.00  0.00    -0.029 C 
HETATM   17  C32 UNL     1       0.001  57.016  -7.438  1.00  0.00     0.016 C 
HETATM   18  C33 UNL     1       2.301  56.474  -6.386  1.00  0.00     0.004 C 
HETATM   19  C34 UNL     1       2.285  56.272  -4.858  1.00  0.00     0.190 C 
HETATM   20  O9  UNL     1       3.216  57.214  -4.322  1.00  0.00    -0.321 OA
HETATM   21  C35 UNL     1       3.261  58.291  -5.156  1.00  0.00     0.259 C 
HETATM   22  O10 UNL     1       3.883  59.314  -4.931  1.00  0.00    -0.265 OA
HETATM   23  C36 UNL     1       2.401  58.026  -6.360  1.00  0.00     0.124 C 
ENDROOT
BRANCH   9  24
HETATM   24  O3  UNL     1      -1.574  50.686 -10.712  1.00  0.00    -0.352 OA
BRANCH  24  25
HETATM   25  C19 UNL     1      -2.660  51.384 -11.321  1.00  0.00     0.292 C 
HETATM   26  O4  UNL     1      -3.913  50.762 -11.019  1.00  0.00    -0.348 OA
HETATM   27  C20 UNL     1      -4.356  49.781 -11.970  1.00  0.00     0.179 C 
HETATM   28  C22 UNL     1      -3.185  49.114 -12.701  1.00  0.00     0.180 C 
HETATM   29  C23 UNL     1      -2.518  50.179 -13.578  1.00  0.00     0.183 C 
HETATM   30  C24 UNL     1      -2.373  51.521 -12.841  1.00  0.00     0.204 C 
BRANCH  27  31
HETATM   31  C21 UNL     1      -5.285  48.779 -11.267  1.00  0.00     0.198 C 
BRANCH  31  32
HETATM   32  O5  UNL     1      -6.083  48.049 -12.201  1.00  0.00    -0.398 OA
HETATM   33  H34 UNL     1      -6.617  47.423 -11.678  1.00  0.00     0.209 HD
ENDBRANCH  31  32
ENDBRANCH  27  31
BRANCH  28  34
HETATM   34  O6  UNL     1      -3.597  48.018 -13.529  1.00  0.00    -0.390 OA
HETATM   35  H36 UNL     1      -3.809  47.297 -12.904  1.00  0.00     0.210 HD
ENDBRANCH  28  34
BRANCH  29  36
HETATM   36  O7  UNL     1      -1.243  49.693 -14.025  1.00  0.00    -0.390 OA
HETATM   37  H38 UNL     1      -1.420  48.808 -14.399  1.00  0.00     0.210 HD
ENDBRANCH  29  36
BRANCH  30  38
HETATM   38  O8  UNL     1      -3.293  52.465 -13.429  1.00  0.00    -0.388 OA
HETATM   39  H40 UNL     1      -3.082  53.339 -13.061  1.00  0.00     0.210 HD
ENDBRANCH  30  38
ENDBRANCH  24  25
ENDBRANCH   9  24
BRANCH   1  40
HETATM   40  C9  UNL     1       3.992  54.518  -6.622  1.00  0.00     0.162 A 
HETATM   41  C7  UNL     1       4.712  53.513  -7.537  1.00  0.00     0.087 A 
HETATM   42  C8  UNL     1       5.448  52.397  -6.856  1.00  0.00     0.049 C 
HETATM   43  O2  UNL     1       3.295  53.486  -7.336  1.00  0.00    -0.369 OA
BRANCH  41  44
HETATM   44  C6  UNL     1       5.105  53.837  -8.963  1.00  0.00     0.076 C 
BRANCH  44  45
HETATM   45  C5  UNL     1       6.571  53.517  -9.312  1.00  0.00     0.144 C 
BRANCH  45  46
HETATM   46  C4  UNL     1       7.124  52.276  -8.655  1.00  0.00     0.006 C 
HETATM   47  C2  UNL     1       7.202  51.018  -9.137  1.00  0.00    -0.089 C 
HETATM   48  C1  UNL     1       7.771  49.906  -8.293  1.00  0.00     0.042 C 
HETATM   49  C3  UNL     1       6.773  50.587 -10.514  1.00  0.00     0.042 C 
ENDBRANCH  45  46
BRANCH  45  50
HETATM   50  O1  UNL     1       7.388  54.637  -8.964  1.00  0.00    -0.392 OA
HETATM   51  H9  UNL     1       8.310  54.329  -8.980  1.00  0.00     0.210 HD
ENDBRANCH  45  50
ENDBRANCH  44  45
ENDBRANCH  41  44
ENDBRANCH   1  40
TORSDOF 12
ENDMDL
MODEL 8
REMARK minimizedAffinity -8.36584949
REMARK CNNscore 0.349924505
REMARK CNNaffinity 6.82075548
REMARK  12 active torsions:
REMARK  status: ('A' for Active; 'I' for Inactive)
REMARK    1  A    between atoms: C4_4  and  C5_5 
REMARK    2  A    between atoms: C5_5  and  O1_6 
REMARK    3  A    between atoms: C5_5  and  C6_7 
REMARK    4  A    between atoms: C6_7  and  C7_8 
REMARK    5  A    between atoms: C9_11  and  C10_12 
REMARK    6  A    between atoms: C18_20  and  O3_21 
REMARK    7  A    between atoms: O3_21  and  C19_22 
REMARK    8  A    between atoms: C20_24  and  C21_25 
REMARK    9  A    between atoms: C21_25  and  O5_26 
REMARK   10  A    between atoms: C22_27  and  O6_28 
REMARK   11  A    between atoms: C23_29  and  O7_30 
REMARK   12  A    between atoms: C24_31  and  O8_32 
ROOT
HETATM    1  C10 UNL     1      -0.792  49.884 -19.424  1.00  0.00     0.029 C 
HETATM    2  C11 UNL     1      -0.485  48.695 -20.365  1.00  0.00     0.009 C 
HETATM    3  C12 UNL     1      -1.563  48.391 -21.410  1.00  0.00     0.007 C 
HETATM    4  C13 UNL     1      -2.910  49.005 -21.020  1.00  0.00     0.003 C 
HETATM    5  C14 UNL     1      -4.200  48.351 -21.676  1.00  0.00    -0.035 C 
HETATM    6  C15 UNL     1      -4.195  48.496 -23.212  1.00  0.00     0.016 C 
HETATM    7  C16 UNL     1      -4.225  46.825 -21.353  1.00  0.00     0.012 C 
HETATM    8  C17 UNL     1      -5.557  46.137 -21.653  1.00  0.00     0.034 C 
HETATM    9  C18 UNL     1      -6.741  46.807 -20.960  1.00  0.00     0.133 C 
HETATM   10  C25 UNL     1      -6.837  48.338 -21.267  1.00  0.00    -0.017 C 
HETATM   11  C26 UNL     1      -7.922  48.924 -20.320  1.00  0.00     0.018 C 
HETATM   12  C27 UNL     1      -7.342  48.598 -22.702  1.00  0.00     0.018 C 
HETATM   13  C28 UNL     1      -5.443  48.995 -20.953  1.00  0.00     0.004 C 
HETATM   14  C29 UNL     1      -5.412  50.533 -21.028  1.00  0.00     0.007 C 
HETATM   15  C30 UNL     1      -4.132  51.116 -20.411  1.00  0.00     0.011 C 
HETATM   16  C31 UNL     1      -2.808  50.586 -21.035  1.00  0.00    -0.029 C 
HETATM   17  C32 UNL     1      -2.745  51.169 -22.470  1.00  0.00     0.016 C 
HETATM   18  C33 UNL     1      -1.488  51.077 -20.211  1.00  0.00     0.004 C 
HETATM   19  C34 UNL     1      -1.736  52.279 -19.280  1.00  0.00     0.190 C 
HETATM   20  O9  UNL     1      -0.452  52.839 -19.000  1.00  0.00    -0.321 OA
HETATM   21  C35 UNL     1       0.362  52.591 -20.065  1.00  0.00     0.259 C 
HETATM   22  O10 UNL     1       1.495  53.023 -20.185  1.00  0.00    -0.265 OA
HETATM   23  C36 UNL     1      -0.370  51.741 -21.065  1.00  0.00     0.124 C 
ENDROOT
BRANCH   9  24
HETATM   24  O3  UNL     1      -7.954  46.173 -21.385  1.00  0.00    -0.352 OA
BRANCH  24  25
HETATM   25  C19 UNL     1      -8.089  44.813 -20.974  1.00  0.00     0.292 C 
HETATM   26  O4  UNL     1      -9.147  44.158 -21.680  1.00  0.00    -0.348 OA
HETATM   27  C20 UNL     1     -10.433  44.204 -21.041  1.00  0.00     0.179 C 
HETATM   28  C22 UNL     1     -10.591  45.440 -20.148  1.00  0.00     0.180 C 
HETATM   29  C23 UNL     1      -9.618  45.291 -18.973  1.00  0.00     0.183 C 
HETATM   30  C24 UNL     1      -8.242  44.774 -19.429  1.00  0.00     0.204 C 
BRANCH  27  31
HETATM   31  C21 UNL     1     -11.533  44.078 -22.106  1.00  0.00     0.198 C 
BRANCH  31  32
HETATM   32  O5  UNL     1     -11.185  43.134 -23.121  1.00  0.00    -0.398 OA
HETATM   33  H34 UNL     1     -11.942  43.097 -23.734  1.00  0.00     0.209 HD
ENDBRANCH  31  32
ENDBRANCH  27  31
BRANCH  28  34
HETATM   34  O6  UNL     1     -11.921  45.590 -19.635  1.00  0.00    -0.390 OA
HETATM   35  H36 UNL     1     -12.453  45.892 -20.398  1.00  0.00     0.210 HD
ENDBRANCH  28  34
BRANCH  29  36
HETATM   36  O7  UNL     1      -9.498  46.551 -18.296  1.00  0.00    -0.390 OA
HETATM   37  H38 UNL     1     -10.415  46.841 -18.123  1.00  0.00     0.210 HD
ENDBRANCH  29  36
BRANCH  30  38
HETATM   38  O8  UNL     1      -8.087  43.419 -18.956  1.00  0.00    -0.388 OA
HETATM   39  H40 UNL     1      -7.163  43.163 -19.117  1.00  0.00     0.210 HD
ENDBRANCH  30  38
ENDBRANCH  24  25
ENDBRANCH   9  24
BRANCH   1  40
HETATM   40  C9  UNL     1      -1.546  49.483 -18.163  1.00  0.00     0.162 A 
HETATM   41  C7  UNL     1      -0.982  49.606 -16.738  1.00  0.00     0.087 A 
HETATM   42  C8  UNL     1      -1.985  49.726 -15.629  1.00  0.00     0.049 C 
HETATM   43  O2  UNL     1      -1.031  48.358 -17.437  1.00  0.00    -0.369 OA
BRANCH  41  44
HETATM   44  C6  UNL     1       0.430  50.073 -16.453  1.00  0.00     0.076 C 
BRANCH  44  45
HETATM   45  C5  UNL     1       0.549  51.566 -16.088  1.00  0.00     0.144 C 
BRANCH  45  46
HETATM   46  C4  UNL     1       1.885  52.192 -16.405  1.00  0.00     0.006 C 
HETATM   47  C2  UNL     1       3.055  52.089 -15.739  1.00  0.00    -0.089 C 
HETATM   48  C1  UNL     1       4.277  52.829 -16.215  1.00  0.00     0.042 C 
HETATM   49  C3  UNL     1       3.284  51.249 -14.510  1.00  0.00     0.042 C 
ENDBRANCH  45  46
BRANCH  45  50
HETATM   50  O1  UNL     1       0.271  51.729 -14.696  1.00  0.00    -0.392 OA
HETATM   51  H9  UNL     1       0.571  52.621 -14.452  1.00  0.00     0.210 HD
ENDBRANCH  45  50
ENDBRANCH  44  45
ENDBRANCH  41  44
ENDBRANCH   1  40
TORSDOF 12
ENDMDL
MODEL 9
REMARK minimizedAffinity -7.88439274
REMARK CNNscore 0.334080845
REMARK CNNaffinity 7.05745268
REMARK  12 active torsions:
REMARK  status: ('A' for Active; 'I' for Inactive)
REMARK    1  A    between atoms: C4_4  and  C5_5 
REMARK    2  A    between atoms: C5_5  and  O1_6 
REMARK    3  A    between atoms: C5_5  and  C6_7 
REMARK    4  A    between atoms: C6_7  and  C7_8 
REMARK    5  A    between atoms: C9_11  and  C10_12 
REMARK    6  A    between atoms: C18_20  and  O3_21 
REMARK    7  A    between atoms: O3_21  and  C19_22 
REMARK    8  A    between atoms: C20_24  and  C21_25 
REMARK    9  A    between atoms: C21_25  and  O5_26 
REMARK   10  A    between atoms: C22_27  and  O6_28 
REMARK   11  A    between atoms: C23_29  and  O7_30 
REMARK   12  A    between atoms: C24_31  and  O8_32 
ROOT
HETATM    1  C10 UNL     1      -3.460  50.511 -23.187  1.00  0.00     0.029 C 
HETATM    2  C11 UNL     1      -4.807  51.273 -23.191  1.00  0.00     0.009 C 
HETATM    3  C12 UNL     1      -5.960  50.572 -22.466  1.00  0.00     0.007 C 
HETATM    4  C13 UNL     1      -5.686  49.075 -22.296  1.00  0.00     0.003 C 
HETATM    5  C14 UNL     1      -6.955  48.147 -22.077  1.00  0.00    -0.035 C 
HETATM    6  C15 UNL     1      -7.704  48.503 -20.775  1.00  0.00     0.016 C 
HETATM    7  C16 UNL     1      -7.954  48.350 -23.258  1.00  0.00     0.012 C 
HETATM    8  C17 UNL     1      -9.063  47.300 -23.336  1.00  0.00     0.034 C 
HETATM    9  C18 UNL     1      -8.525  45.871 -23.385  1.00  0.00     0.133 C 
HETATM   10  C25 UNL     1      -7.552  45.549 -22.203  1.00  0.00    -0.017 C 
HETATM   11  C26 UNL     1      -6.906  44.168 -22.511  1.00  0.00     0.018 C 
HETATM   12  C27 UNL     1      -8.314  45.373 -20.873  1.00  0.00     0.018 C 
HETATM   13  C28 UNL     1      -6.440  46.660 -22.159  1.00  0.00     0.004 C 
HETATM   14  C29 UNL     1      -5.292  46.399 -21.167  1.00  0.00     0.007 C 
HETATM   15  C30 UNL     1      -4.101  47.342 -21.399  1.00  0.00     0.011 C 
HETATM   16  C31 UNL     1      -4.449  48.858 -21.331  1.00  0.00    -0.029 C 
HETATM   17  C32 UNL     1      -4.787  49.156 -19.847  1.00  0.00     0.016 C 
HETATM   18  C33 UNL     1      -3.202  49.807 -21.785  1.00  0.00     0.004 C 
HETATM   19  C34 UNL     1      -1.833  49.099 -21.770  1.00  0.00     0.190 C 
HETATM   20  O9  UNL     1      -0.849  50.134 -21.750  1.00  0.00    -0.321 OA
HETATM   21  C35 UNL     1      -1.384  51.219 -21.123  1.00  0.00     0.259 C 
HETATM   22  O10 UNL     1      -0.769  52.235 -20.853  1.00  0.00    -0.265 OA
HETATM   23  C36 UNL     1      -2.825  50.944 -20.793  1.00  0.00     0.124 C 
ENDROOT
BRANCH   9  24
HETATM   24  O3  UNL     1      -9.626  44.954 -23.340  1.00  0.00    -0.352 OA
BRANCH  24  25
HETATM   25  C19 UNL     1     -10.906  45.552 -23.550  1.00  0.00     0.292 C 
HETATM   26  O4  UNL     1     -11.826  45.187 -22.517  1.00  0.00    -0.348 OA
HETATM   27  C20 UNL     1     -12.620  44.020 -22.784  1.00  0.00     0.179 C 
HETATM   28  C22 UNL     1     -11.910  43.043 -23.730  1.00  0.00     0.180 C 
HETATM   29  C23 UNL     1     -11.803  43.719 -25.100  1.00  0.00     0.183 C 
HETATM   30  C24 UNL     1     -11.391  45.196 -24.981  1.00  0.00     0.204 C 
BRANCH  27  31
HETATM   31  C21 UNL     1     -13.044  43.380 -21.454  1.00  0.00     0.198 C 
BRANCH  31  32
HETATM   32  O5  UNL     1     -13.563  44.348 -20.540  1.00  0.00    -0.398 OA
HETATM   33  H34 UNL     1     -13.831  43.857 -19.741  1.00  0.00     0.209 HD
ENDBRANCH  31  32
ENDBRANCH  27  31
BRANCH  28  34
HETATM   34  O6  UNL     1     -12.611  41.801 -23.875  1.00  0.00    -0.390 OA
HETATM   35  H36 UNL     1     -12.461  41.327 -23.034  1.00  0.00     0.210 HD
ENDBRANCH  28  34
BRANCH  29  36
HETATM   36  O7  UNL     1     -10.876  42.988 -25.917  1.00  0.00    -0.390 OA
HETATM   37  H38 UNL     1     -11.164  42.055 -25.865  1.00  0.00     0.210 HD
ENDBRANCH  29  36
BRANCH  30  38
HETATM   38  O8  UNL     1     -12.528  46.014 -25.330  1.00  0.00    -0.388 OA
HETATM   39  H40 UNL     1     -12.212  46.931 -25.399  1.00  0.00     0.210 HD
ENDBRANCH  30  38
ENDBRANCH  24  25
ENDBRANCH   9  24
BRANCH   1  40
HETATM   40  C9  UNL     1      -3.295  49.564 -24.368  1.00  0.00     0.162 A 
HETATM   41  C7  UNL     1      -3.170  50.017 -25.832  1.00  0.00     0.087 A 
HETATM   42  C8  UNL     1      -2.461  49.079 -26.765  1.00  0.00     0.049 C 
HETATM   43  O2  UNL     1      -4.389  49.495 -25.294  1.00  0.00    -0.369 OA
BRANCH  41  44
HETATM   44  C6  UNL     1      -3.278  51.467 -26.254  1.00  0.00     0.076 C 
BRANCH  44  45
HETATM   45  C5  UNL     1      -1.932  52.142 -26.580  1.00  0.00     0.144 C 
BRANCH  45  46
HETATM   46  C4  UNL     1      -1.145  52.603 -25.377  1.00  0.00     0.006 C 
HETATM   47  C2  UNL     1       0.156  52.403 -25.081  1.00  0.00    -0.089 C 
HETATM   48  C1  UNL     1       0.742  52.931 -23.797  1.00  0.00     0.042 C 
HETATM   49  C3  UNL     1       1.146  51.683 -25.958  1.00  0.00     0.042 C 
ENDBRANCH  45  46
BRANCH  45  50
HETATM   50  O1  UNL     1      -2.166  53.256 -27.443  1.00  0.00    -0.392 OA
HETATM   51  H9  UNL     1      -1.351  53.787 -27.446  1.00  0.00     0.210 HD
ENDBRANCH  45  50
ENDBRANCH  44  45
ENDBRANCH  41  44
ENDBRANCH   1  40
TORSDOF 12
ENDMDL
