MODEL 1
REMARK minimizedAffinity -9.68436909
REMARK CNNscore 0.580464363
REMARK CNNaffinity 7.28955221
REMARK  6 active torsions:
REMARK  status: ('A' for Active; 'I' for Inactive)
REMARK    1  A    between atoms: C3_3  and  O1_4 
REMARK    2  A    between atoms: N1_14  and  O2_16 
REMARK    3  A    between atoms: O2_16  and  C13_17 
REMARK    4  A    between atoms: C13_17  and  C14_18 
REMARK       I    between atoms: C14_18  and  N2_20 
REMARK    5  A    between atoms: N2_20  and  C15_21 
REMARK    6  A    between atoms: C15_21  and  C17_23 
ROOT
HETATM    1  C1  UNL     1      -4.197  52.501 -10.964  1.00  0.00     0.015 C 
HETATM    2  C2  UNL     1      -3.516  51.511 -10.987  1.00  0.00    -0.078 C 
HETATM    3  C3  UNL     1      -2.684  50.289 -10.997  1.00  0.00     0.128 C 
HETATM    4  C4  UNL     1      -1.408  50.519 -10.141  1.00  0.00     0.052 C 
HETATM    5  C5  UNL     1      -0.269  50.856 -11.126  1.00  0.00     0.010 C 
HETATM    6  C6  UNL     1      -0.947  50.961 -12.490  1.00  0.00     0.002 C 
HETATM    7  C7  UNL     1      -0.089  50.794 -13.751  1.00  0.00    -0.004 C 
HETATM    8  C8  UNL     1       1.047  51.824 -13.791  1.00  0.00     0.010 C 
HETATM    9  C9  UNL     1       1.883  51.675 -15.055  1.00  0.00     0.035 C 
HETATM   10  C10 UNL     1       1.043  51.744 -16.308  1.00  0.00    -0.069 C 
HETATM   11  C11 UNL     1       1.411  52.563 -17.308  1.00  0.00     0.030 C 
HETATM   12  C12 UNL     1       0.709  52.574 -18.617  1.00  0.00     0.032 C 
HETATM   13  N1  UNL     1       1.120  53.419 -19.520  1.00  0.00    -0.271 N 
ATOM     14  H1  UNL     1       1.858  54.105 -19.369  1.00  0.00     0.194 HD
HETATM   15  C23 UNL     1      -0.388  51.553 -18.833  1.00  0.00     0.060 C 
HETATM   16  C24 UNL     1      -1.120  51.270 -17.529  1.00  0.00     0.020 C 
HETATM   17  C25 UNL     1      -0.188  50.830 -16.363  1.00  0.00    -0.016 C 
HETATM   18  C26 UNL     1       0.293  49.386 -16.623  1.00  0.00     0.020 C 
HETATM   19  C27 UNL     1      -0.995  50.951 -15.012  1.00  0.00     0.002 C 
HETATM   20  C28 UNL     1      -2.249  50.036 -14.946  1.00  0.00     0.007 C 
HETATM   21  C29 UNL     1      -3.019  50.149 -13.618  1.00  0.00     0.014 C 
HETATM   22  C30 UNL     1      -2.100  49.937 -12.402  1.00  0.00     0.003 C 
HETATM   23  C31 UNL     1      -1.614  48.456 -12.410  1.00  0.00     0.020 C 
ENDROOT
BRANCH   3  24
HETATM   24  O1  UNL     1      -3.482  49.240 -10.467  1.00  0.00    -0.377 OA
HETATM   25  H2  UNL     1      -2.896  48.540 -10.142  1.00  0.00     0.211 HD
ENDBRANCH   3  24
BRANCH  13  26
HETATM   26  O2  UNL     1       0.422  53.266 -20.725  1.00  0.00    -0.271 OA
BRANCH  26  27
HETATM   27  C13 UNL     1       1.355  53.238 -21.802  1.00  0.00     0.303 C 
BRANCH  27  28
HETATM   28  C14 UNL     1       0.625  53.135 -23.137  1.00  0.00     0.244 C 
HETATM   29  O3  UNL     1       0.538  54.082 -23.913  1.00  0.00    -0.271 OA
HETATM   30  N2  UNL     1       0.118  51.884 -23.412  1.00  0.00    -0.351 N 
HETATM   31  H16 UNL     1       0.114  51.213 -22.651  1.00  0.00     0.163 HD
BRANCH  30  32
HETATM   32  C15 UNL     1      -0.665  51.594 -24.599  1.00  0.00     0.113 C 
HETATM   33  C16 UNL     1      -1.867  52.536 -24.725  1.00  0.00     0.037 C 
BRANCH  32  34
HETATM   34  C17 UNL     1       0.235  51.645 -25.823  1.00  0.00    -0.036 A 
HETATM   35  C18 UNL     1       1.606  51.376 -25.693  1.00  0.00     0.009 A 
HETATM   36  C19 UNL     1       2.453  51.443 -26.800  1.00  0.00     0.001 A 
HETATM   37  C20 UNL     1       1.944  51.787 -28.050  1.00  0.00     0.000 A 
HETATM   38  C21 UNL     1       0.587  52.068 -28.194  1.00  0.00     0.001 A 
HETATM   39  C22 UNL     1      -0.262  52.001 -27.087  1.00  0.00     0.009 A 
ENDBRANCH  32  34
ENDBRANCH  30  32
ENDBRANCH  27  28
ENDBRANCH  26  27
ENDBRANCH  13  26
TORSDOF 6
ENDMDL
MODEL 2
REMARK minimizedAffinity -8.56589794
REMARK CNNscore 0.335530311
REMARK CNNaffinity 6.58149099
REMARK  6 active torsions:
REMARK  status: ('A' for Active; 'I' for Inactive)
REMARK    1  A    between atoms: C3_3  and  O1_4 
REMARK    2  A    between atoms: N1_14  and  O2_16 
REMARK    3  A    between atoms: O2_16  and  C13_17 
REMARK    4  A    between atoms: C13_17  and  C14_18 
REMARK       I    between atoms: C14_18  and  N2_20 
REMARK    5  A    between atoms: N2_20  and  C15_21 
REMARK    6  A    between atoms: C15_21  and  C17_23 
ROOT
HETATM    1  C1  UNL     1      -6.144  51.500 -23.826  1.00  0.00     0.015 C 
HETATM    2  C2  UNL     1      -5.115  51.118 -24.314  1.00  0.00    -0.078 C 
HETATM    3  C3  UNL     1      -3.858  50.643 -24.931  1.00  0.00     0.128 C 
HETATM    4  C4  UNL     1      -3.876  49.092 -25.025  1.00  0.00     0.052 C 
HETATM    5  C5  UNL     1      -3.052  48.568 -23.830  1.00  0.00     0.010 C 
HETATM    6  C6  UNL     1      -2.719  49.810 -23.007  1.00  0.00     0.002 C 
HETATM    7  C7  UNL     1      -1.526  49.754 -22.043  1.00  0.00    -0.004 C 
HETATM    8  C8  UNL     1      -1.696  48.628 -21.014  1.00  0.00     0.010 C 
HETATM    9  C9  UNL     1      -0.525  48.588 -20.041  1.00  0.00     0.035 C 
HETATM   10  C10 UNL     1      -0.302  49.918 -19.360  1.00  0.00    -0.069 C 
HETATM   11  C11 UNL     1      -0.172  49.965 -18.023  1.00  0.00     0.030 C 
HETATM   12  C12 UNL     1       0.186  51.216 -17.309  1.00  0.00     0.032 C 
HETATM   13  N1  UNL     1       0.266  51.172 -16.009  1.00  0.00    -0.271 N 
ATOM     14  H1  UNL     1       0.050  50.347 -15.449  1.00  0.00     0.194 HD
HETATM   15  C23 UNL     1       0.503  52.436 -18.147  1.00  0.00     0.060 C 
HETATM   16  C24 UNL     1      -0.336  52.446 -19.416  1.00  0.00     0.020 C 
HETATM   17  C25 UNL     1      -0.209  51.150 -20.269  1.00  0.00    -0.016 C 
HETATM   18  C26 UNL     1       1.173  51.139 -20.960  1.00  0.00     0.020 C 
HETATM   19  C27 UNL     1      -1.392  51.127 -21.313  1.00  0.00     0.002 C 
HETATM   20  C28 UNL     1      -1.374  52.317 -22.310  1.00  0.00     0.007 C 
HETATM   21  C29 UNL     1      -2.523  52.276 -23.334  1.00  0.00     0.014 C 
HETATM   22  C30 UNL     1      -2.588  50.924 -24.068  1.00  0.00     0.003 C 
HETATM   23  C31 UNL     1      -1.313  50.788 -24.954  1.00  0.00     0.020 C 
ENDROOT
BRANCH   3  24
HETATM   24  O1  UNL     1      -3.778  51.239 -26.218  1.00  0.00    -0.377 OA
HETATM   25  H2  UNL     1      -3.183  50.708 -26.769  1.00  0.00     0.211 HD
ENDBRANCH   3  24
BRANCH  13  26
HETATM   26  O2  UNL     1       0.686  52.397 -15.476  1.00  0.00    -0.271 OA
BRANCH  26  27
HETATM   27  C13 UNL     1       2.021  52.260 -14.995  1.00  0.00     0.303 C 
BRANCH  27  28
HETATM   28  C14 UNL     1       2.019  51.742 -13.560  1.00  0.00     0.244 C 
HETATM   29  O3  UNL     1       1.443  50.707 -13.236  1.00  0.00    -0.271 OA
HETATM   30  N2  UNL     1       2.753  52.505 -12.679  1.00  0.00    -0.351 N 
HETATM   31  H16 UNL     1       3.068  53.411 -13.009  1.00  0.00     0.163 HD
BRANCH  30  32
HETATM   32  C15 UNL     1       2.825  52.219 -11.258  1.00  0.00     0.113 C 
HETATM   33  C16 UNL     1       3.355  50.807 -10.993  1.00  0.00     0.037 C 
BRANCH  32  34
HETATM   34  C17 UNL     1       3.664  53.284 -10.571  1.00  0.00    -0.036 A 
HETATM   35  C18 UNL     1       3.741  54.574 -11.120  1.00  0.00     0.009 A 
HETATM   36  C19 UNL     1       4.526  55.559 -10.519  1.00  0.00     0.001 A 
HETATM   37  C20 UNL     1       5.250  55.268  -9.365  1.00  0.00     0.000 A 
HETATM   38  C21 UNL     1       5.192  53.990  -8.813  1.00  0.00     0.001 A 
HETATM   39  C22 UNL     1       4.407  53.003  -9.413  1.00  0.00     0.009 A 
ENDBRANCH  32  34
ENDBRANCH  30  32
ENDBRANCH  27  28
ENDBRANCH  26  27
ENDBRANCH  13  26
TORSDOF 6
ENDMDL
MODEL 3
REMARK minimizedAffinity -9.09874916
REMARK CNNscore 0.311235875
REMARK CNNaffinity 6.43700743
REMARK  6 active torsions:
REMARK  status: ('A' for Active; 'I' for Inactive)
REMARK    1  A    between atoms: C3_3  and  O1_4 
REMARK    2  A    between atoms: N1_14  and  O2_16 
REMARK    3  A    between atoms: O2_16  and  C13_17 
REMARK    4  A    between atoms: C13_17  and  C14_18 
REMARK       I    between atoms: C14_18  and  N2_20 
REMARK    5  A    between atoms: N2_20  and  C15_21 
REMARK    6  A    between atoms: C15_21  and  C17_23 
ROOT
HETATM    1  C1  UNL     1      -0.533  55.009 -27.072  1.00  0.00     0.015 C 
HETATM    2  C2  UNL     1      -0.061  54.245 -26.274  1.00  0.00    -0.078 C 
HETATM    3  C3  UNL     1       0.536  53.313 -25.293  1.00  0.00     0.128 C 
HETATM    4  C4  UNL     1       1.446  52.292 -26.031  1.00  0.00     0.052 C 
HETATM    5  C5  UNL     1       0.617  51.000 -26.195  1.00  0.00     0.010 C 
HETATM    6  C6  UNL     1      -0.778  51.362 -25.693  1.00  0.00     0.002 C 
HETATM    7  C7  UNL     1      -1.714  50.230 -25.249  1.00  0.00    -0.004 C 
HETATM    8  C8  UNL     1      -1.947  49.223 -26.383  1.00  0.00     0.010 C 
HETATM    9  C9  UNL     1      -2.896  48.114 -25.950  1.00  0.00     0.035 C 
HETATM   10  C10 UNL     1      -4.206  48.654 -25.424  1.00  0.00    -0.069 C 
HETATM   11  C11 UNL     1      -5.363  48.155 -25.891  1.00  0.00     0.030 C 
HETATM   12  C12 UNL     1      -6.677  48.542 -25.318  1.00  0.00     0.032 C 
HETATM   13  N1  UNL     1      -7.748  48.026 -25.850  1.00  0.00    -0.271 N 
ATOM     14  H1  UNL     1      -7.745  47.413 -26.665  1.00  0.00     0.194 HD
HETATM   15  C23 UNL     1      -6.674  49.455 -24.109  1.00  0.00     0.060 C 
HETATM   16  C24 UNL     1      -5.506  50.429 -24.178  1.00  0.00     0.020 C 
HETATM   17  C25 UNL     1      -4.119  49.743 -24.348  1.00  0.00    -0.016 C 
HETATM   18  C26 UNL     1      -3.724  49.073 -23.012  1.00  0.00     0.020 C 
HETATM   19  C27 UNL     1      -3.075  50.841 -24.791  1.00  0.00     0.002 C 
HETATM   20  C28 UNL     1      -2.882  51.980 -23.752  1.00  0.00     0.007 C 
HETATM   21  C29 UNL     1      -1.850  53.036 -24.186  1.00  0.00     0.014 C 
HETATM   22  C30 UNL     1      -0.507  52.396 -24.580  1.00  0.00     0.003 C 
HETATM   23  C31 UNL     1       0.132  51.775 -23.301  1.00  0.00     0.020 C 
ENDROOT
BRANCH   3  24
HETATM   24  O1  UNL     1       1.280  54.101 -24.375  1.00  0.00    -0.377 OA
HETATM   25  H2  UNL     1       1.943  53.536 -23.948  1.00  0.00     0.211 HD
ENDBRANCH   3  24
BRANCH  13  26
HETATM   26  O2  UNL     1      -8.905  48.417 -25.163  1.00  0.00    -0.271 OA
BRANCH  26  27
HETATM   27  C13 UNL     1      -9.929  47.452 -25.393  1.00  0.00     0.303 C 
BRANCH  27  28
HETATM   28  C14 UNL     1     -11.021  48.037 -26.283  1.00  0.00     0.244 C 
HETATM   29  O3  UNL     1     -11.272  49.239 -26.311  1.00  0.00    -0.271 OA
HETATM   30  N2  UNL     1     -11.663  47.114 -27.077  1.00  0.00    -0.351 N 
HETATM   31  H16 UNL     1     -11.487  46.135 -26.876  1.00  0.00     0.163 HD
BRANCH  30  32
HETATM   32  C15 UNL     1     -12.775  47.456 -27.946  1.00  0.00     0.113 C 
HETATM   33  C16 UNL     1     -12.362  47.443 -29.420  1.00  0.00     0.037 C 
BRANCH  32  34
HETATM   34  C17 UNL     1     -13.939  46.519 -27.667  1.00  0.00    -0.036 A 
HETATM   35  C18 UNL     1     -14.376  45.633 -28.664  1.00  0.00     0.009 A 
HETATM   36  C19 UNL     1     -15.459  44.783 -28.437  1.00  0.00     0.001 A 
HETATM   37  C20 UNL     1     -16.124  44.810 -27.214  1.00  0.00     0.000 A 
HETATM   38  C21 UNL     1     -15.710  45.691 -26.217  1.00  0.00     0.001 A 
HETATM   39  C22 UNL     1     -14.626  46.543 -26.443  1.00  0.00     0.009 A 
ENDBRANCH  32  34
ENDBRANCH  30  32
ENDBRANCH  27  28
ENDBRANCH  26  27
ENDBRANCH  13  26
TORSDOF 6
ENDMDL
MODEL 4
REMARK minimizedAffinity -8.00397205
REMARK CNNscore 0.302733839
REMARK CNNaffinity 6.31613541
REMARK  6 active torsions:
REMARK  status: ('A' for Active; 'I' for Inactive)
REMARK    1  A    between atoms: C3_3  and  O1_4 
REMARK    2  A    between atoms: N1_14  and  O2_16 
REMARK    3  A    between atoms: O2_16  and  C13_17 
REMARK    4  A    between atoms: C13_17  and  C14_18 
REMARK       I    between atoms: C14_18  and  N2_20 
REMARK    5  A    between atoms: N2_20  and  C15_21 
REMARK    6  A    between atoms: C15_21  and  C17_23 
ROOT
HETATM    1  C1  UNL     1      -0.554  54.849 -27.324  1.00  0.00     0.015 C 
HETATM    2  C2  UNL     1      -0.085  54.119 -26.494  1.00  0.00    -0.078 C 
HETATM    3  C3  UNL     1       0.510  53.228 -25.474  1.00  0.00     0.128 C 
HETATM    4  C4  UNL     1       1.372  52.139 -26.171  1.00  0.00     0.052 C 
HETATM    5  C5  UNL     1       0.503  50.865 -26.241  1.00  0.00     0.010 C 
HETATM    6  C6  UNL     1      -0.869  51.297 -25.728  1.00  0.00     0.002 C 
HETATM    7  C7  UNL     1      -1.825  50.222 -25.197  1.00  0.00    -0.004 C 
HETATM    8  C8  UNL     1      -2.115  49.159 -26.264  1.00  0.00     0.010 C 
HETATM    9  C9  UNL     1      -3.085  48.105 -25.745  1.00  0.00     0.035 C 
HETATM   10  C10 UNL     1      -4.365  48.714 -25.223  1.00  0.00    -0.069 C 
HETATM   11  C11 UNL     1      -5.548  48.224 -25.632  1.00  0.00     0.030 C 
HETATM   12  C12 UNL     1      -6.835  48.683 -25.053  1.00  0.00     0.032 C 
HETATM   13  N1  UNL     1      -7.934  48.169 -25.529  1.00  0.00    -0.271 N 
ATOM     14  H1  UNL     1      -7.968  47.510 -26.306  1.00  0.00     0.194 HD
HETATM   15  C23 UNL     1      -6.776  49.664 -23.900  1.00  0.00     0.060 C 
HETATM   16  C24 UNL     1      -5.583  50.596 -24.053  1.00  0.00     0.020 C 
HETATM   17  C25 UNL     1      -4.220  49.861 -24.214  1.00  0.00    -0.016 C 
HETATM   18  C26 UNL     1      -3.813  49.258 -22.851  1.00  0.00     0.020 C 
HETATM   19  C27 UNL     1      -3.157  50.899 -24.744  1.00  0.00     0.002 C 
HETATM   20  C28 UNL     1      -2.906  52.089 -23.778  1.00  0.00     0.007 C 
HETATM   21  C29 UNL     1      -1.855  53.087 -24.297  1.00  0.00     0.014 C 
HETATM   22  C30 UNL     1      -0.540  52.386 -24.684  1.00  0.00     0.003 C 
HETATM   23  C31 UNL     1       0.112  51.821 -23.386  1.00  0.00     0.020 C 
ENDROOT
BRANCH   3  24
HETATM   24  O1  UNL     1       1.299  54.045 -24.620  1.00  0.00    -0.377 OA
HETATM   25  H2  UNL     1       1.955  53.486 -24.177  1.00  0.00     0.211 HD
ENDBRANCH   3  24
BRANCH  13  26
HETATM   26  O2  UNL     1      -9.061  48.634 -24.840  1.00  0.00    -0.271 OA
BRANCH  26  27
HETATM   27  C13 UNL     1     -10.234  48.207 -25.528  1.00  0.00     0.303 C 
BRANCH  27  28
HETATM   28  C14 UNL     1     -10.752  46.899 -24.936  1.00  0.00     0.244 C 
HETATM   29  O3  UNL     1     -10.185  45.825 -25.119  1.00  0.00    -0.271 OA
HETATM   30  N2  UNL     1     -11.874  47.036 -24.149  1.00  0.00    -0.351 N 
HETATM   31  H16 UNL     1     -12.348  47.933 -24.178  1.00  0.00     0.163 HD
BRANCH  30  32
HETATM   32  C15 UNL     1     -12.559  45.907 -23.548  1.00  0.00     0.113 C 
HETATM   33  C16 UNL     1     -12.013  45.594 -22.152  1.00  0.00     0.037 C 
BRANCH  32  34
HETATM   34  C17 UNL     1     -14.055  46.175 -23.532  1.00  0.00    -0.036 A 
HETATM   35  C18 UNL     1     -14.788  45.974 -22.353  1.00  0.00     0.009 A 
HETATM   36  C19 UNL     1     -16.167  46.190 -22.325  1.00  0.00     0.001 A 
HETATM   37  C20 UNL     1     -16.832  46.605 -23.475  1.00  0.00     0.000 A 
HETATM   38  C21 UNL     1     -16.121  46.800 -24.657  1.00  0.00     0.001 A 
HETATM   39  C22 UNL     1     -14.742  46.583 -24.687  1.00  0.00     0.009 A 
ENDBRANCH  32  34
ENDBRANCH  30  32
ENDBRANCH  27  28
ENDBRANCH  26  27
ENDBRANCH  13  26
TORSDOF 6
ENDMDL
MODEL 5
REMARK minimizedAffinity -9.00000954
REMARK CNNscore 0.266995251
REMARK CNNaffinity 6.68382406
REMARK  6 active torsions:
REMARK  status: ('A' for Active; 'I' for Inactive)
REMARK    1  A    between atoms: C3_3  and  O1_4 
REMARK    2  A    between atoms: N1_14  and  O2_16 
REMARK    3  A    between atoms: O2_16  and  C13_17 
REMARK    4  A    between atoms: C13_17  and  C14_18 
REMARK       I    between atoms: C14_18  and  N2_20 
REMARK    5  A    between atoms: N2_20  and  C15_21 
REMARK    6  A    between atoms: C15_21  and  C17_23 
ROOT
HETATM    1  C1  UNL     1       1.933  50.817 -26.269  1.00  0.00     0.015 C 
HETATM    2  C2  UNL     1       1.000  51.527 -26.010  1.00  0.00    -0.078 C 
HETATM    3  C3  UNL     1      -0.149  52.409 -25.708  1.00  0.00     0.128 C 
HETATM    4  C4  UNL     1       0.357  53.858 -25.461  1.00  0.00     0.052 C 
HETATM    5  C5  UNL     1       0.428  54.046 -23.931  1.00  0.00     0.010 C 
HETATM    6  C6  UNL     1       0.113  52.669 -23.350  1.00  0.00     0.002 C 
HETATM    7  C7  UNL     1      -0.386  52.581 -21.902  1.00  0.00    -0.004 C 
HETATM    8  C8  UNL     1       0.622  53.203 -20.927  1.00  0.00     0.010 C 
HETATM    9  C9  UNL     1       0.139  53.092 -19.488  1.00  0.00     0.035 C 
HETATM   10  C10 UNL     1      -0.183  51.667 -19.101  1.00  0.00    -0.069 C 
HETATM   11  C11 UNL     1       0.322  51.159 -17.963  1.00  0.00     0.030 C 
HETATM   12  C12 UNL     1      -0.067  49.819 -17.458  1.00  0.00     0.032 C 
HETATM   13  N1  UNL     1       0.492  49.398 -16.358  1.00  0.00    -0.271 N 
ATOM     14  H1  UNL     1       1.214  49.908 -15.851  1.00  0.00     0.194 HD
HETATM   15  C23 UNL     1      -1.139  49.066 -18.218  1.00  0.00     0.060 C 
HETATM   16  C24 UNL     1      -1.054  49.371 -19.706  1.00  0.00     0.020 C 
HETATM   17  C25 UNL     1      -1.109  50.890 -20.045  1.00  0.00    -0.016 C 
HETATM   18  C26 UNL     1      -2.553  51.398 -19.832  1.00  0.00     0.020 C 
HETATM   19  C27 UNL     1      -0.627  51.083 -21.534  1.00  0.00     0.002 C 
HETATM   20  C28 UNL     1      -1.520  50.362 -22.582  1.00  0.00     0.007 C 
HETATM   21  C29 UNL     1      -1.050  50.571 -24.033  1.00  0.00     0.014 C 
HETATM   22  C30 UNL     1      -0.874  52.063 -24.370  1.00  0.00     0.003 C 
HETATM   23  C31 UNL     1      -2.279  52.737 -24.348  1.00  0.00     0.020 C 
ENDROOT
BRANCH   3  24
HETATM   24  O1  UNL     1      -1.022  52.349 -26.827  1.00  0.00    -0.377 OA
HETATM   25  H2  UNL     1      -1.580  53.141 -26.826  1.00  0.00     0.211 HD
ENDBRANCH   3  24
BRANCH  13  26
HETATM   26  O2  UNL     1      -0.024  48.158 -15.960  1.00  0.00    -0.271 OA
BRANCH  26  27
HETATM   27  C13 UNL     1       0.230  47.976 -14.569  1.00  0.00     0.303 C 
BRANCH  27  28
HETATM   28  C14 UNL     1       0.036  46.514 -14.179  1.00  0.00     0.244 C 
HETATM   29  O3  UNL     1      -1.050  46.070 -13.814  1.00  0.00    -0.271 OA
HETATM   30  N2  UNL     1       1.162  45.734 -14.317  1.00  0.00    -0.351 N 
HETATM   31  H16 UNL     1       2.038  46.219 -14.483  1.00  0.00     0.163 HD
BRANCH  30  32
HETATM   32  C15 UNL     1       1.204  44.334 -13.937  1.00  0.00     0.113 C 
HETATM   33  C16 UNL     1       0.290  44.047 -12.742  1.00  0.00     0.037 C 
BRANCH  32  34
HETATM   34  C17 UNL     1       0.860  43.474 -15.142  1.00  0.00    -0.036 A 
HETATM   35  C18 UNL     1       1.876  43.063 -16.020  1.00  0.00     0.009 A 
HETATM   36  C19 UNL     1       1.576  42.295 -17.146  1.00  0.00     0.001 A 
HETATM   37  C20 UNL     1       0.259  41.932 -17.415  1.00  0.00     0.000 A 
HETATM   38  C21 UNL     1      -0.762  42.340 -16.560  1.00  0.00     0.001 A 
HETATM   39  C22 UNL     1      -0.465  43.109 -15.432  1.00  0.00     0.009 A 
ENDBRANCH  32  34
ENDBRANCH  30  32
ENDBRANCH  27  28
ENDBRANCH  26  27
ENDBRANCH  13  26
TORSDOF 6
ENDMDL
MODEL 6
REMARK minimizedAffinity -10.1868286
REMARK CNNscore 0.2649239
REMARK CNNaffinity 6.94201803
REMARK  6 active torsions:
REMARK  status: ('A' for Active; 'I' for Inactive)
REMARK    1  A    between atoms: C3_3  and  O1_4 
REMARK    2  A    between atoms: N1_14  and  O2_16 
REMARK    3  A    between atoms: O2_16  and  C13_17 
REMARK    4  A    between atoms: C13_17  and  C14_18 
REMARK       I    between atoms: C14_18  and  N2_20 
REMARK    5  A    between atoms: N2_20  and  C15_21 
REMARK    6  A    between atoms: C15_21  and  C17_23 
ROOT
HETATM    1  C1  UNL     1       2.076  50.924 -26.342  1.00  0.00     0.015 C 
HETATM    2  C2  UNL     1       1.097  51.583 -26.118  1.00  0.00    -0.078 C 
HETATM    3  C3  UNL     1      -0.107  52.403 -25.860  1.00  0.00     0.128 C 
HETATM    4  C4  UNL     1       0.313  53.872 -25.580  1.00  0.00     0.052 C 
HETATM    5  C5  UNL     1       0.308  54.049 -24.046  1.00  0.00     0.010 C 
HETATM    6  C6  UNL     1       0.040  52.652 -23.491  1.00  0.00     0.002 C 
HETATM    7  C7  UNL     1      -0.516  52.524 -22.067  1.00  0.00    -0.004 C 
HETATM    8  C8  UNL     1       0.416  53.187 -21.044  1.00  0.00     0.010 C 
HETATM    9  C9  UNL     1      -0.123  53.037 -19.628  1.00  0.00     0.035 C 
HETATM   10  C10 UNL     1      -0.387  51.594 -19.266  1.00  0.00    -0.069 C 
HETATM   11  C11 UNL     1       0.093  51.101 -18.112  1.00  0.00     0.030 C 
HETATM   12  C12 UNL     1      -0.248  49.738 -17.634  1.00  0.00     0.032 C 
HETATM   13  N1  UNL     1       0.284  49.335 -16.514  1.00  0.00    -0.271 N 
ATOM     14  H1  UNL     1       0.957  49.876 -15.972  1.00  0.00     0.194 HD
HETATM   15  C23 UNL     1      -1.246  48.939 -18.446  1.00  0.00     0.060 C 
HETATM   16  C24 UNL     1      -1.113  49.263 -19.926  1.00  0.00     0.020 C 
HETATM   17  C25 UNL     1      -1.231  50.780 -20.255  1.00  0.00    -0.016 C 
HETATM   18  C26 UNL     1      -2.707  51.212 -20.102  1.00  0.00     0.020 C 
HETATM   19  C27 UNL     1      -0.696  51.012 -21.721  1.00  0.00     0.002 C 
HETATM   20  C28 UNL     1      -1.505  50.258 -22.812  1.00  0.00     0.007 C 
HETATM   21  C29 UNL     1      -0.985  50.504 -24.240  1.00  0.00     0.014 C 
HETATM   22  C30 UNL     1      -0.871  52.006 -24.557  1.00  0.00     0.003 C 
HETATM   23  C31 UNL     1      -2.308  52.608 -24.591  1.00  0.00     0.020 C 
ENDROOT
BRANCH   3  24
HETATM   24  O1  UNL     1      -0.927  52.309 -27.016  1.00  0.00    -0.377 OA
HETATM   25  H2  UNL     1      -1.525  53.072 -27.034  1.00  0.00     0.211 HD
ENDBRANCH   3  24
BRANCH  13  26
HETATM   26  O2  UNL     1      -0.184  48.067 -16.148  1.00  0.00    -0.271 OA
BRANCH  26  27
HETATM   27  C13 UNL     1      -0.433  48.052 -14.745  1.00  0.00     0.303 C 
BRANCH  27  28
HETATM   28  C14 UNL     1       0.165  49.290 -14.085  1.00  0.00     0.244 C 
HETATM   29  O3  UNL     1      -0.528  50.223 -13.688  1.00  0.00    -0.271 OA
HETATM   30  N2  UNL     1       1.533  49.249 -13.932  1.00  0.00    -0.351 N 
HETATM   31  H16 UNL     1       2.027  48.508 -14.419  1.00  0.00     0.163 HD
BRANCH  30  32
HETATM   32  C15 UNL     1       2.301  50.354 -13.387  1.00  0.00     0.113 C 
HETATM   33  C16 UNL     1       3.479  49.858 -12.543  1.00  0.00     0.037 C 
BRANCH  32  34
HETATM   34  C17 UNL     1       2.749  51.263 -14.520  1.00  0.00    -0.036 A 
HETATM   35  C18 UNL     1       1.807  52.053 -15.196  1.00  0.00     0.009 A 
HETATM   36  C19 UNL     1       2.195  52.875 -16.255  1.00  0.00     0.001 A 
HETATM   37  C20 UNL     1       3.527  52.914 -16.658  1.00  0.00     0.000 A 
HETATM   38  C21 UNL     1       4.474  52.128 -16.005  1.00  0.00     0.001 A 
HETATM   39  C22 UNL     1       4.087  51.304 -14.944  1.00  0.00     0.009 A 
ENDBRANCH  32  34
ENDBRANCH  30  32
ENDBRANCH  27  28
ENDBRANCH  26  27
ENDBRANCH  13  26
TORSDOF 6
ENDMDL
MODEL 7
REMARK minimizedAffinity -8.78447151
REMARK CNNscore 0.262337029
REMARK CNNaffinity 6.33053637
REMARK  6 active torsions:
REMARK  status: ('A' for Active; 'I' for Inactive)
REMARK    1  A    between atoms: C3_3  and  O1_4 
REMARK    2  A    between atoms: N1_14  and  O2_16 
REMARK    3  A    between atoms: O2_16  and  C13_17 
REMARK    4  A    between atoms: C13_17  and  C14_18 
REMARK       I    between atoms: C14_18  and  N2_20 
REMARK    5  A    between atoms: N2_20  and  C15_21 
REMARK    6  A    between atoms: C15_21  and  C17_23 
ROOT
HETATM    1  C1  UNL     1      -3.334  52.208 -22.462  1.00  0.00     0.015 C 
HETATM    2  C2  UNL     1      -2.982  51.086 -22.213  1.00  0.00    -0.078 C 
HETATM    3  C3  UNL     1      -2.557  49.700 -21.924  1.00  0.00     0.128 C 
HETATM    4  C4  UNL     1      -3.802  48.829 -21.602  1.00  0.00     0.052 C 
HETATM    5  C5  UNL     1      -3.886  48.729 -20.063  1.00  0.00     0.010 C 
HETATM    6  C6  UNL     1      -2.792  49.662 -19.549  1.00  0.00     0.002 C 
HETATM    7  C7  UNL     1      -2.257  49.451 -18.127  1.00  0.00    -0.004 C 
HETATM    8  C8  UNL     1      -3.383  49.549 -17.089  1.00  0.00     0.010 C 
HETATM    9  C9  UNL     1      -2.849  49.365 -15.675  1.00  0.00     0.035 C 
HETATM   10  C10 UNL     1      -1.731  50.331 -15.357  1.00  0.00    -0.069 C 
HETATM   11  C11 UNL     1      -1.779  51.047 -14.220  1.00  0.00     0.030 C 
HETATM   12  C12 UNL     1      -0.649  51.906 -13.782  1.00  0.00     0.032 C 
HETATM   13  N1  UNL     1      -0.794  52.584 -12.679  1.00  0.00    -0.271 N 
ATOM     14  H1  UNL     1      -1.649  52.600 -12.124  1.00  0.00     0.194 HD
HETATM   15  C23 UNL     1       0.617  51.879 -14.613  1.00  0.00     0.060 C 
HETATM   16  C24 UNL     1       0.287  51.670 -16.084  1.00  0.00     0.020 C 
HETATM   17  C25 UNL     1      -0.579  50.407 -16.366  1.00  0.00    -0.016 C 
HETATM   18  C26 UNL     1       0.301  49.148 -16.191  1.00  0.00     0.020 C 
HETATM   19  C27 UNL     1      -1.163  50.523 -17.827  1.00  0.00     0.002 C 
HETATM   20  C28 UNL     1      -0.076  50.572 -18.936  1.00  0.00     0.007 C 
HETATM   21  C29 UNL     1      -0.657  50.669 -20.358  1.00  0.00     0.014 C 
HETATM   22  C30 UNL     1      -1.694  49.564 -20.630  1.00  0.00     0.003 C 
HETATM   23  C31 UNL     1      -0.954  48.192 -20.638  1.00  0.00     0.020 C 
ENDROOT
BRANCH   3  24
HETATM   24  O1  UNL     1      -1.877  49.226 -23.078  1.00  0.00    -0.377 OA
HETATM   25  H2  UNL     1      -1.891  48.257 -23.069  1.00  0.00     0.211 HD
ENDBRANCH   3  24
BRANCH  13  26
HETATM   26  O2  UNL     1       0.372  53.286 -12.349  1.00  0.00    -0.271 OA
BRANCH  26  27
HETATM   27  C13 UNL     1       0.375  53.549 -10.948  1.00  0.00     0.303 C 
BRANCH  27  28
HETATM   28  C14 UNL     1       1.527  54.479 -10.582  1.00  0.00     0.244 C 
HETATM   29  O3  UNL     1       1.435  55.323  -9.695  1.00  0.00    -0.271 OA
HETATM   30  N2  UNL     1       2.684  54.260 -11.297  1.00  0.00    -0.351 N 
HETATM   31  H16 UNL     1       2.616  53.645 -12.102  1.00  0.00     0.163 HD
BRANCH  30  32
HETATM   32  C15 UNL     1       3.872  55.079 -11.147  1.00  0.00     0.113 C 
HETATM   33  C16 UNL     1       3.518  56.521 -10.771  1.00  0.00     0.037 C 
BRANCH  32  34
HETATM   34  C17 UNL     1       4.804  54.435 -10.134  1.00  0.00    -0.036 A 
HETATM   35  C18 UNL     1       5.911  55.150  -9.650  1.00  0.00     0.009 A 
HETATM   36  C19 UNL     1       6.792  54.566  -8.739  1.00  0.00     0.001 A 
HETATM   37  C20 UNL     1       6.585  53.260  -8.304  1.00  0.00     0.000 A 
HETATM   38  C21 UNL     1       5.497  52.533  -8.782  1.00  0.00     0.001 A 
HETATM   39  C22 UNL     1       4.614  53.115  -9.694  1.00  0.00     0.009 A 
ENDBRANCH  32  34
ENDBRANCH  30  32
ENDBRANCH  27  28
ENDBRANCH  26  27
ENDBRANCH  13  26
TORSDOF 6
ENDMDL
MODEL 8
REMARK minimizedAffinity -9.47988987
REMARK CNNscore 0.254917324
REMARK CNNaffinity 6.68136072
REMARK  6 active torsions:
REMARK  status: ('A' for Active; 'I' for Inactive)
REMARK    1  A    between atoms: C3_3  and  O1_4 
REMARK    2  A    between atoms: N1_14  and  O2_16 
REMARK    3  A    between atoms: O2_16  and  C13_17 
REMARK    4  A    between atoms: C13_17  and  C14_18 
REMARK       I    between atoms: C14_18  and  N2_20 
REMARK    5  A    between atoms: N2_20  and  C15_21 
REMARK    6  A    between atoms: C15_21  and  C17_23 
ROOT
HETATM    1  C1  UNL     1       1.993  50.919 -26.180  1.00  0.00     0.015 C 
HETATM    2  C2  UNL     1       1.025  51.585 -25.926  1.00  0.00    -0.078 C 
HETATM    3  C3  UNL     1      -0.165  52.411 -25.631  1.00  0.00     0.128 C 
HETATM    4  C4  UNL     1       0.263  53.892 -25.436  1.00  0.00     0.052 C 
HETATM    5  C5  UNL     1       0.346  54.130 -23.913  1.00  0.00     0.010 C 
HETATM    6  C6  UNL     1       0.118  52.757 -23.287  1.00  0.00     0.002 C 
HETATM    7  C7  UNL     1      -0.353  52.685 -21.828  1.00  0.00    -0.004 C 
HETATM    8  C8  UNL     1       0.633  53.391 -20.890  1.00  0.00     0.010 C 
HETATM    9  C9  UNL     1       0.179  53.297 -19.439  1.00  0.00     0.035 C 
HETATM   10  C10 UNL     1      -0.057  51.869 -19.005  1.00  0.00    -0.069 C 
HETATM   11  C11 UNL     1       0.493  51.425 -17.862  1.00  0.00     0.030 C 
HETATM   12  C12 UNL     1       0.187  50.081 -17.310  1.00  0.00     0.032 C 
HETATM   13  N1  UNL     1       0.785  49.725 -16.209  1.00  0.00    -0.271 N 
ATOM     14  H1  UNL     1       1.486  50.290 -15.729  1.00  0.00     0.194 HD
HETATM   15  C23 UNL     1      -0.853  49.247 -18.029  1.00  0.00     0.060 C 
HETATM   16  C24 UNL     1      -0.808  49.512 -19.527  1.00  0.00     0.020 C 
HETATM   17  C25 UNL     1      -0.953  51.014 -19.910  1.00  0.00    -0.016 C 
HETATM   18  C26 UNL     1      -2.419  51.448 -19.688  1.00  0.00     0.020 C 
HETATM   19  C27 UNL     1      -0.505  51.188 -21.412  1.00  0.00     0.002 C 
HETATM   20  C28 UNL     1      -1.373  50.388 -22.423  1.00  0.00     0.007 C 
HETATM   21  C29 UNL     1      -0.938  50.578 -23.888  1.00  0.00     0.014 C 
HETATM   22  C30 UNL     1      -0.850  52.066 -24.271  1.00  0.00     0.003 C 
HETATM   23  C31 UNL     1      -2.289  52.662 -24.245  1.00  0.00     0.020 C 
ENDROOT
BRANCH   3  24
HETATM   24  O1  UNL     1      -1.051  52.269 -26.732  1.00  0.00    -0.377 OA
HETATM   25  H2  UNL     1      -1.653  53.029 -26.746  1.00  0.00     0.211 HD
ENDBRANCH   3  24
BRANCH  13  26
HETATM   26  O2  UNL     1       0.345  48.472 -15.765  1.00  0.00    -0.271 OA
BRANCH  26  27
HETATM   27  C13 UNL     1       1.400  47.839 -15.044  1.00  0.00     0.303 C 
BRANCH  27  28
HETATM   28  C14 UNL     1       1.028  46.397 -14.712  1.00  0.00     0.244 C 
HETATM   29  O3  UNL     1      -0.092  46.081 -14.321  1.00  0.00    -0.271 OA
HETATM   30  N2  UNL     1       2.035  45.485 -14.933  1.00  0.00    -0.351 N 
HETATM   31  H16 UNL     1       2.961  45.859 -15.116  1.00  0.00     0.163 HD
BRANCH  30  32
HETATM   32  C15 UNL     1       1.905  44.074 -14.619  1.00  0.00     0.113 C 
HETATM   33  C16 UNL     1       1.532  43.254 -15.858  1.00  0.00     0.037 C 
BRANCH  32  34
HETATM   34  C17 UNL     1       3.189  43.581 -13.971  1.00  0.00    -0.036 A 
HETATM   35  C18 UNL     1       3.920  42.543 -14.569  1.00  0.00     0.009 A 
HETATM   36  C19 UNL     1       5.087  42.060 -13.975  1.00  0.00     0.001 A 
HETATM   37  C20 UNL     1       5.536  42.602 -12.774  1.00  0.00     0.000 A 
HETATM   38  C21 UNL     1       4.817  43.627 -12.162  1.00  0.00     0.001 A 
HETATM   39  C22 UNL     1       3.649  44.111 -12.754  1.00  0.00     0.009 A 
ENDBRANCH  32  34
ENDBRANCH  30  32
ENDBRANCH  27  28
ENDBRANCH  26  27
ENDBRANCH  13  26
TORSDOF 6
ENDMDL
MODEL 9
REMARK minimizedAffinity -8.47804546
REMARK CNNscore 0.248665214
REMARK CNNaffinity 6.45193338
REMARK  6 active torsions:
REMARK  status: ('A' for Active; 'I' for Inactive)
REMARK    1  A    between atoms: C3_3  and  O1_4 
REMARK    2  A    between atoms: N1_14  and  O2_16 
REMARK    3  A    between atoms: O2_16  and  C13_17 
REMARK    4  A    between atoms: C13_17  and  C14_18 
REMARK       I    between atoms: C14_18  and  N2_20 
REMARK    5  A    between atoms: N2_20  and  C15_21 
REMARK    6  A    between atoms: C15_21  and  C17_23 
ROOT
HETATM    1  C1  UNL     1      -0.518  54.795 -27.249  1.00  0.00     0.015 C 
HETATM    2  C2  UNL     1      -0.062  54.066 -26.409  1.00  0.00    -0.078 C 
HETATM    3  C3  UNL     1       0.516  53.178 -25.378  1.00  0.00     0.128 C 
HETATM    4  C4  UNL     1       1.383  52.083 -26.059  1.00  0.00     0.052 C 
HETATM    5  C5  UNL     1       0.510  50.812 -26.134  1.00  0.00     0.010 C 
HETATM    6  C6  UNL     1      -0.867  51.251 -25.642  1.00  0.00     0.002 C 
HETATM    7  C7  UNL     1      -1.834  50.181 -25.118  1.00  0.00    -0.004 C 
HETATM    8  C8  UNL     1      -2.114  49.115 -26.185  1.00  0.00     0.010 C 
HETATM    9  C9  UNL     1      -3.093  48.067 -25.674  1.00  0.00     0.035 C 
HETATM   10  C10 UNL     1      -4.378  48.682 -25.171  1.00  0.00    -0.069 C 
HETATM   11  C11 UNL     1      -5.557  48.194 -25.593  1.00  0.00     0.030 C 
HETATM   12  C12 UNL     1      -6.850  48.661 -25.032  1.00  0.00     0.032 C 
HETATM   13  N1  UNL     1      -7.944  48.148 -25.521  1.00  0.00    -0.271 N 
ATOM     14  H1  UNL     1      -7.971  47.486 -26.296  1.00  0.00     0.194 HD
HETATM   15  C23 UNL     1      -6.802  49.646 -23.884  1.00  0.00     0.060 C 
HETATM   16  C24 UNL     1      -5.604  50.574 -24.025  1.00  0.00     0.020 C 
HETATM   17  C25 UNL     1      -4.243  49.833 -24.165  1.00  0.00    -0.016 C 
HETATM   18  C26 UNL     1      -3.854  49.234 -22.794  1.00  0.00     0.020 C 
HETATM   19  C27 UNL     1      -3.169  50.865 -24.686  1.00  0.00     0.002 C 
HETATM   20  C28 UNL     1      -2.926  52.059 -23.722  1.00  0.00     0.007 C 
HETATM   21  C29 UNL     1      -1.865  53.051 -24.231  1.00  0.00     0.014 C 
HETATM   22  C30 UNL     1      -0.548  52.343 -24.598  1.00  0.00     0.003 C 
HETATM   23  C31 UNL     1       0.086  51.782 -23.290  1.00  0.00     0.020 C 
ENDROOT
BRANCH   3  24
HETATM   24  O1  UNL     1       1.296  53.996 -24.518  1.00  0.00    -0.377 OA
HETATM   25  H2  UNL     1       1.945  53.436 -24.063  1.00  0.00     0.211 HD
ENDBRANCH   3  24
BRANCH  13  26
HETATM   26  O2  UNL     1      -9.079  48.620 -24.848  1.00  0.00    -0.271 OA
BRANCH  26  27
HETATM   27  C13 UNL     1     -10.129  48.817 -25.792  1.00  0.00     0.303 C 
BRANCH  27  28
HETATM   28  C14 UNL     1     -10.204  47.640 -26.759  1.00  0.00     0.244 C 
HETATM   29  O3  UNL     1     -10.052  46.478 -26.392  1.00  0.00    -0.271 OA
HETATM   30  N2  UNL     1     -10.501  47.988 -28.058  1.00  0.00    -0.351 N 
HETATM   31  H16 UNL     1     -10.464  48.977 -28.287  1.00  0.00     0.163 HD
BRANCH  30  32
HETATM   32  C15 UNL     1     -10.554  47.025 -29.142  1.00  0.00     0.113 C 
HETATM   33  C16 UNL     1      -9.263  46.205 -29.229  1.00  0.00     0.037 C 
BRANCH  32  34
HETATM   34  C17 UNL     1     -11.782  46.145 -28.975  1.00  0.00    -0.036 A 
HETATM   35  C18 UNL     1     -13.052  46.732 -28.868  1.00  0.00     0.009 A 
HETATM   36  C19 UNL     1     -14.189  45.943 -28.689  1.00  0.00     0.001 A 
HETATM   37  C20 UNL     1     -14.073  44.558 -28.607  1.00  0.00     0.000 A 
HETATM   38  C21 UNL     1     -12.818  43.959 -28.701  1.00  0.00     0.001 A 
HETATM   39  C22 UNL     1     -11.679  44.748 -28.880  1.00  0.00     0.009 A 
ENDBRANCH  32  34
ENDBRANCH  30  32
ENDBRANCH  27  28
ENDBRANCH  26  27
ENDBRANCH  13  26
TORSDOF 6
ENDMDL
