MODEL 1
REMARK minimizedAffinity -7.6533246
REMARK CNNscore 0.424004704
REMARK CNNaffinity 6.84982538
REMARK  5 active torsions:
REMARK  status: ('A' for Active; 'I' for Inactive)
REMARK    1  A    between atoms: C2_2  and  C3_3 
REMARK    2  A    between atoms: C2_2  and  C9_10 
REMARK    3  A    between atoms: C3_3  and  C4_4 
REMARK    4  A    between atoms: C5_5  and  C6_6 
REMARK    5  A    between atoms: C6_6  and  O1_9 
ROOT
HETATM    1  C9  UNL     1      -1.184  10.539  16.248  1.00  0.00    -0.002 C 
HETATM    2  C10 UNL     1       0.067  10.208  17.114  1.00  0.00     0.006 C 
HETATM    3  C11 UNL     1       0.948   9.250  16.288  1.00  0.00     0.011 C 
HETATM    4  C12 UNL     1       0.417   9.374  14.844  1.00  0.00    -0.032 C 
HETATM    5  C13 UNL     1       1.069  10.672  14.254  1.00  0.00     0.016 C 
HETATM    6  C14 UNL     1       0.722   8.159  13.911  1.00  0.00     0.003 C 
HETATM    7  C15 UNL     1       2.236   8.008  13.612  1.00  0.00     0.007 C 
HETATM    8  C16 UNL     1       2.505   6.834  12.675  1.00  0.00     0.011 C 
HETATM    9  C17 UNL     1       1.841   6.993  11.265  1.00  0.00    -0.030 C 
HETATM   10  C18 UNL     1       1.284   5.600  10.875  1.00  0.00     0.016 C 
HETATM   11  C19 UNL     1       0.751   8.125  11.316  1.00  0.00     0.003 C 
HETATM   12  C20 UNL     1       0.016   8.317   9.971  1.00  0.00     0.013 C 
HETATM   13  C21 UNL     1       0.845   8.005   8.732  1.00  0.00     0.079 C 
HETATM   14  C22 UNL     1       2.336   8.060   8.953  1.00  0.00     0.131 C 
HETATM   15  O2  UNL     1       3.067   8.538   8.074  1.00  0.00    -0.298 OA
HETATM   16  C23 UNL     1       2.930   7.462  10.226  1.00  0.00     0.060 C 
HETATM   17  C24 UNL     1       3.956   6.399   9.817  1.00  0.00     0.018 C 
HETATM   18  C25 UNL     1      -0.185   8.131  12.596  1.00  0.00    -0.035 C 
HETATM   19  C26 UNL     1      -1.097   6.870  12.607  1.00  0.00     0.016 C 
HETATM   20  C27 UNL     1      -1.167   9.353  12.514  1.00  0.00     0.011 C 
HETATM   21  C28 UNL     1      -1.878   9.798  13.810  1.00  0.00     0.011 C 
HETATM   22  C29 UNL     1      -1.136   9.458  15.120  1.00  0.00    -0.032 C 
HETATM   23  C30 UNL     1      -1.735   8.132  15.684  1.00  0.00     0.016 C 
ENDROOT
BRANCH   1  24
HETATM   24  C2  UNL     1      -2.458  10.864  17.085  1.00  0.00    -0.010 C 
HETATM   25  C1  UNL     1      -2.876   9.853  18.163  1.00  0.00     0.010 C 
BRANCH  24  26
HETATM   26  C3  UNL     1      -3.652  11.223  16.168  1.00  0.00     0.031 C 
BRANCH  26  27
HETATM   27  C4  UNL     1      -4.283  10.028  15.505  1.00  0.00    -0.027 C 
HETATM   28  C5  UNL     1      -5.475   9.519  15.853  1.00  0.00     0.006 C 
BRANCH  28  29
HETATM   29  C6  UNL     1      -6.143   8.310  15.233  1.00  0.00     0.068 C 
HETATM   30  C7  UNL     1      -5.559   8.008  13.849  1.00  0.00     0.050 C 
HETATM   31  C8  UNL     1      -7.656   8.528  15.134  1.00  0.00     0.050 C 
BRANCH  29  32
HETATM   32  O1  UNL     1      -5.927   7.166  16.063  1.00  0.00    -0.387 OA
HETATM   33  H15 UNL     1      -4.974   6.955  16.006  1.00  0.00     0.211 HD
ENDBRANCH  29  32
ENDBRANCH  28  29
ENDBRANCH  26  27
ENDBRANCH  24  26
ENDBRANCH   1  24
TORSDOF 5
ENDMDL
MODEL 2
REMARK minimizedAffinity -8.55571938
REMARK CNNscore 0.367633224
REMARK CNNaffinity 6.83600426
REMARK  5 active torsions:
REMARK  status: ('A' for Active; 'I' for Inactive)
REMARK    1  A    between atoms: C2_2  and  C3_3 
REMARK    2  A    between atoms: C2_2  and  C9_10 
REMARK    3  A    between atoms: C3_3  and  C4_4 
REMARK    4  A    between atoms: C5_5  and  C6_6 
REMARK    5  A    between atoms: C6_6  and  O1_9 
ROOT
HETATM    1  C9  UNL     1      -2.608   7.949  14.783  1.00  0.00    -0.002 C 
HETATM    2  C10 UNL     1      -1.795   8.828  15.779  1.00  0.00     0.006 C 
HETATM    3  C11 UNL     1      -0.338   8.849  15.277  1.00  0.00     0.011 C 
HETATM    4  C12 UNL     1      -0.416   8.348  13.819  1.00  0.00    -0.032 C 
HETATM    5  C13 UNL     1      -0.854   9.584  12.961  1.00  0.00     0.016 C 
HETATM    6  C14 UNL     1       0.906   7.747  13.245  1.00  0.00     0.003 C 
HETATM    7  C15 UNL     1       2.020   8.815  13.086  1.00  0.00     0.007 C 
HETATM    8  C16 UNL     1       3.291   8.210  12.495  1.00  0.00     0.011 C 
HETATM    9  C17 UNL     1       3.096   7.629  11.053  1.00  0.00    -0.030 C 
HETATM   10  C18 UNL     1       3.895   6.302  10.996  1.00  0.00     0.016 C 
HETATM   11  C19 UNL     1       1.563   7.464  10.750  1.00  0.00     0.003 C 
HETATM   12  C20 UNL     1       1.284   6.855   9.358  1.00  0.00     0.013 C 
HETATM   13  C21 UNL     1       2.321   7.181   8.291  1.00  0.00     0.079 C 
HETATM   14  C22 UNL     1       3.142   8.413   8.580  1.00  0.00     0.131 C 
HETATM   15  O2  UNL     1       3.439   9.181   7.656  1.00  0.00    -0.298 OA
HETATM   16  C23 UNL     1       3.657   8.657   9.997  1.00  0.00     0.060 C 
HETATM   17  C24 UNL     1       5.184   8.774   9.934  1.00  0.00     0.018 C 
HETATM   18  C25 UNL     1       0.681   6.872  11.927  1.00  0.00    -0.035 C 
HETATM   19  C26 UNL     1       1.068   5.390  12.202  1.00  0.00     0.016 C 
HETATM   20  C27 UNL     1      -0.823   6.833  11.480  1.00  0.00     0.011 C 
HETATM   21  C28 UNL     1      -1.901   6.686  12.575  1.00  0.00     0.011 C 
HETATM   22  C29 UNL     1      -1.498   7.206  13.970  1.00  0.00    -0.032 C 
HETATM   23  C30 UNL     1      -1.001   5.992  14.815  1.00  0.00     0.016 C 
ENDROOT
BRANCH   1  24
HETATM   24  C2  UNL     1      -3.833   7.237  15.432  1.00  0.00    -0.010 C 
HETATM   25  C1  UNL     1      -3.690   5.746  15.770  1.00  0.00     0.010 C 
BRANCH  24  26
HETATM   26  C3  UNL     1      -5.126   7.500  14.621  1.00  0.00     0.031 C 
BRANCH  26  27
HETATM   27  C4  UNL     1      -6.052   6.315  14.562  1.00  0.00    -0.027 C 
HETATM   28  C5  UNL     1      -6.355   5.653  13.435  1.00  0.00     0.006 C 
BRANCH  28  29
HETATM   29  C6  UNL     1      -7.292   4.471  13.319  1.00  0.00     0.068 C 
HETATM   30  C7  UNL     1      -6.595   3.279  12.655  1.00  0.00     0.050 C 
HETATM   31  C8  UNL     1      -8.546   4.858  12.529  1.00  0.00     0.050 C 
BRANCH  29  32
HETATM   32  O1  UNL     1      -7.715   4.066  14.624  1.00  0.00    -0.387 OA
HETATM   33  H15 UNL     1      -6.929   3.691  15.068  1.00  0.00     0.211 HD
ENDBRANCH  29  32
ENDBRANCH  28  29
ENDBRANCH  26  27
ENDBRANCH  24  26
ENDBRANCH   1  24
TORSDOF 5
ENDMDL
MODEL 3
REMARK minimizedAffinity -8.85974598
REMARK CNNscore 0.353963077
REMARK CNNaffinity 6.90206766
REMARK  5 active torsions:
REMARK  status: ('A' for Active; 'I' for Inactive)
REMARK    1  A    between atoms: C2_2  and  C3_3 
REMARK    2  A    between atoms: C2_2  and  C9_10 
REMARK    3  A    between atoms: C3_3  and  C4_4 
REMARK    4  A    between atoms: C5_5  and  C6_6 
REMARK    5  A    between atoms: C6_6  and  O1_9 
ROOT
HETATM    1  C9  UNL     1       0.293   7.264  13.116  1.00  0.00    -0.002 C 
HETATM    2  C10 UNL     1       0.028   8.545  12.270  1.00  0.00     0.006 C 
HETATM    3  C11 UNL     1      -1.501   8.702  12.157  1.00  0.00     0.011 C 
HETATM    4  C12 UNL     1      -2.075   7.780  13.254  1.00  0.00    -0.032 C 
HETATM    5  C13 UNL     1      -1.973   8.587  14.593  1.00  0.00     0.016 C 
HETATM    6  C14 UNL     1      -3.548   7.310  13.032  1.00  0.00     0.003 C 
HETATM    7  C15 UNL     1      -4.563   8.478  13.127  1.00  0.00     0.007 C 
HETATM    8  C16 UNL     1      -5.996   7.989  12.936  1.00  0.00     0.011 C 
HETATM    9  C17 UNL     1      -6.461   6.974  14.036  1.00  0.00    -0.030 C 
HETATM   10  C18 UNL     1      -7.282   5.878  13.310  1.00  0.00     0.016 C 
HETATM   11  C19 UNL     1      -5.212   6.425  14.815  1.00  0.00     0.003 C 
HETATM   12  C20 UNL     1      -5.583   5.382  15.893  1.00  0.00     0.013 C 
HETATM   13  C21 UNL     1      -6.953   5.571  16.529  1.00  0.00     0.079 C 
HETATM   14  C22 UNL     1      -7.505   6.970  16.411  1.00  0.00     0.131 C 
HETATM   15  O2  UNL     1      -8.122   7.466  17.363  1.00  0.00    -0.298 OA
HETATM   16  C23 UNL     1      -7.358   7.726  15.092  1.00  0.00     0.060 C 
HETATM   17  C24 UNL     1      -8.759   8.119  14.611  1.00  0.00     0.018 C 
HETATM   18  C25 UNL     1      -3.950   6.052  13.931  1.00  0.00    -0.035 C 
HETATM   19  C26 UNL     1      -4.267   4.829  13.022  1.00  0.00     0.016 C 
HETATM   20  C27 UNL     1      -2.781   5.582  14.868  1.00  0.00     0.011 C 
HETATM   21  C28 UNL     1      -1.351   5.561  14.286  1.00  0.00     0.011 C 
HETATM   22  C29 UNL     1      -1.096   6.546  13.127  1.00  0.00    -0.032 C 
HETATM   23  C30 UNL     1      -1.256   5.767  11.785  1.00  0.00     0.016 C 
ENDROOT
BRANCH   1  24
HETATM   24  C2  UNL     1       1.636   6.551  12.770  1.00  0.00    -0.010 C 
HETATM   25  C1  UNL     1       2.924   7.381  12.865  1.00  0.00     0.010 C 
BRANCH  24  26
HETATM   26  C3  UNL     1       1.544   5.821  11.408  1.00  0.00     0.031 C 
BRANCH  26  27
HETATM   27  C4  UNL     1       1.314   6.746  10.243  1.00  0.00    -0.027 C 
HETATM   28  C5  UNL     1       2.232   7.010   9.300  1.00  0.00     0.006 C 
BRANCH  28  29
HETATM   29  C6  UNL     1       2.057   7.945   8.123  1.00  0.00     0.068 C 
HETATM   30  C7  UNL     1       1.831   7.161   6.827  1.00  0.00     0.050 C 
HETATM   31  C8  UNL     1       3.278   8.860   7.982  1.00  0.00     0.050 C 
BRANCH  29  32
HETATM   32  O1  UNL     1       0.918   8.780   8.340  1.00  0.00    -0.387 OA
HETATM   33  H15 UNL     1       0.132   8.200   8.289  1.00  0.00     0.211 HD
ENDBRANCH  29  32
ENDBRANCH  28  29
ENDBRANCH  26  27
ENDBRANCH  24  26
ENDBRANCH   1  24
TORSDOF 5
ENDMDL
MODEL 4
REMARK minimizedAffinity -7.5548954
REMARK CNNscore 0.345872849
REMARK CNNaffinity 6.51786041
REMARK  5 active torsions:
REMARK  status: ('A' for Active; 'I' for Inactive)
REMARK    1  A    between atoms: C2_2  and  C3_3 
REMARK    2  A    between atoms: C2_2  and  C9_10 
REMARK    3  A    between atoms: C3_3  and  C4_4 
REMARK    4  A    between atoms: C5_5  and  C6_6 
REMARK    5  A    between atoms: C6_6  and  O1_9 
ROOT
HETATM    1  C9  UNL     1      -2.043   8.521  14.486  1.00  0.00    -0.002 C 
HETATM    2  C10 UNL     1      -3.110   8.927  13.427  1.00  0.00     0.006 C 
HETATM    3  C11 UNL     1      -2.407   8.927  12.055  1.00  0.00     0.011 C 
HETATM    4  C12 UNL     1      -1.100   8.139  12.283  1.00  0.00    -0.032 C 
HETATM    5  C13 UNL     1      -1.491   6.624  12.214  1.00  0.00     0.016 C 
HETATM    6  C14 UNL     1       0.047   8.435  11.264  1.00  0.00     0.003 C 
HETATM    7  C15 UNL     1      -0.295   7.951   9.831  1.00  0.00     0.007 C 
HETATM    8  C16 UNL     1       0.852   8.223   8.862  1.00  0.00     0.011 C 
HETATM    9  C17 UNL     1       2.174   7.466   9.228  1.00  0.00    -0.030 C 
HETATM   10  C18 UNL     1       3.339   8.457   8.975  1.00  0.00     0.016 C 
HETATM   11  C19 UNL     1       2.093   6.940  10.707  1.00  0.00     0.003 C 
HETATM   12  C20 UNL     1       3.380   6.215  11.161  1.00  0.00     0.013 C 
HETATM   13  C21 UNL     1       4.141   5.497  10.055  1.00  0.00     0.079 C 
HETATM   14  C22 UNL     1       3.308   5.165   8.842  1.00  0.00     0.131 C 
HETATM   15  O2  UNL     1       3.476   4.083   8.263  1.00  0.00    -0.298 OA
HETATM   16  C23 UNL     1       2.319   6.197   8.304  1.00  0.00     0.060 C 
HETATM   17  C24 UNL     1       2.679   6.480   6.841  1.00  0.00     0.018 C 
HETATM   18  C25 UNL     1       1.481   7.945  11.770  1.00  0.00    -0.035 C 
HETATM   19  C26 UNL     1       2.423   9.168  11.964  1.00  0.00     0.016 C 
HETATM   20  C27 UNL     1       1.418   7.241  13.172  1.00  0.00     0.011 C 
HETATM   21  C28 UNL     1       0.502   7.858  14.250  1.00  0.00     0.011 C 
HETATM   22  C29 UNL     1      -0.693   8.673  13.713  1.00  0.00    -0.032 C 
HETATM   23  C30 UNL     1      -0.291  10.181  13.719  1.00  0.00     0.016 C 
ENDROOT
BRANCH   1  24
HETATM   24  C2  UNL     1      -2.305   9.119  15.902  1.00  0.00    -0.010 C 
HETATM   25  C1  UNL     1      -2.210   8.168  17.103  1.00  0.00     0.010 C 
BRANCH  24  26
HETATM   26  C3  UNL     1      -3.631   9.920  15.931  1.00  0.00     0.031 C 
BRANCH  26  27
HETATM   27  C4  UNL     1      -4.852   9.056  16.103  1.00  0.00    -0.027 C 
HETATM   28  C5  UNL     1      -5.232   8.111  15.230  1.00  0.00     0.006 C 
BRANCH  28  29
HETATM   29  C6  UNL     1      -6.458   7.231  15.347  1.00  0.00     0.068 C 
HETATM   30  C7  UNL     1      -6.556   6.265  14.163  1.00  0.00     0.050 C 
HETATM   31  C8  UNL     1      -7.725   8.089  15.436  1.00  0.00     0.050 C 
BRANCH  29  32
HETATM   32  O1  UNL     1      -6.380   6.457  16.545  1.00  0.00    -0.387 OA
HETATM   33  H15 UNL     1      -5.651   5.817  16.418  1.00  0.00     0.211 HD
ENDBRANCH  29  32
ENDBRANCH  28  29
ENDBRANCH  26  27
ENDBRANCH  24  26
ENDBRANCH   1  24
TORSDOF 5
ENDMDL
MODEL 5
REMARK minimizedAffinity -8.92179489
REMARK CNNscore 0.317751735
REMARK CNNaffinity 6.94907427
REMARK  5 active torsions:
REMARK  status: ('A' for Active; 'I' for Inactive)
REMARK    1  A    between atoms: C2_2  and  C3_3 
REMARK    2  A    between atoms: C2_2  and  C9_10 
REMARK    3  A    between atoms: C3_3  and  C4_4 
REMARK    4  A    between atoms: C5_5  and  C6_6 
REMARK    5  A    between atoms: C6_6  and  O1_9 
ROOT
HETATM    1  C9  UNL     1      -4.009   6.448  14.959  1.00  0.00    -0.002 C 
HETATM    2  C10 UNL     1      -4.178   5.046  14.301  1.00  0.00     0.006 C 
HETATM    3  C11 UNL     1      -3.088   4.923  13.218  1.00  0.00     0.011 C 
HETATM    4  C12 UNL     1      -2.079   6.044  13.544  1.00  0.00    -0.032 C 
HETATM    5  C13 UNL     1      -1.169   5.485  14.691  1.00  0.00     0.016 C 
HETATM    6  C14 UNL     1      -1.192   6.517  12.348  1.00  0.00     0.003 C 
HETATM    7  C15 UNL     1      -0.205   5.418  11.873  1.00  0.00     0.007 C 
HETATM    8  C16 UNL     1       0.670   5.914  10.726  1.00  0.00     0.011 C 
HETATM    9  C17 UNL     1       1.587   7.123  11.115  1.00  0.00    -0.030 C 
HETATM   10  C18 UNL     1       1.571   8.100   9.911  1.00  0.00     0.016 C 
HETATM   11  C19 UNL     1       1.083   7.760  12.460  1.00  0.00     0.003 C 
HETATM   12  C20 UNL     1       1.911   8.990  12.894  1.00  0.00     0.013 C 
HETATM   13  C21 UNL     1       3.375   8.964  12.474  1.00  0.00     0.079 C 
HETATM   14  C22 UNL     1       3.910   7.585  12.175  1.00  0.00     0.131 C 
HETATM   15  O2  UNL     1       5.060   7.287  12.523  1.00  0.00    -0.298 OA
HETATM   16  C23 UNL     1       3.051   6.602  11.383  1.00  0.00     0.060 C 
HETATM   17  C24 UNL     1       3.840   6.177  10.140  1.00  0.00     0.018 C 
HETATM   18  C25 UNL     1      -0.487   7.927  12.605  1.00  0.00    -0.035 C 
HETATM   19  C26 UNL     1      -1.017   8.978  11.587  1.00  0.00     0.016 C 
HETATM   20  C27 UNL     1      -0.818   8.517  14.022  1.00  0.00     0.011 C 
HETATM   21  C28 UNL     1      -2.265   8.387  14.541  1.00  0.00     0.011 C 
HETATM   22  C29 UNL     1      -3.068   7.202  13.964  1.00  0.00    -0.032 C 
HETATM   23  C30 UNL     1      -3.933   7.735  12.780  1.00  0.00     0.016 C 
ENDROOT
BRANCH   1  24
HETATM   24  C2  UNL     1      -5.338   7.042  15.517  1.00  0.00    -0.010 C 
HETATM   25  C1  UNL     1      -6.271   6.095  16.284  1.00  0.00     0.010 C 
BRANCH  24  26
HETATM   26  C3  UNL     1      -6.110   7.813  14.418  1.00  0.00     0.031 C 
BRANCH  26  27
HETATM   27  C4  UNL     1      -6.971   6.929  13.556  1.00  0.00    -0.027 C 
HETATM   28  C5  UNL     1      -6.934   5.588  13.581  1.00  0.00     0.006 C 
BRANCH  28  29
HETATM   29  C6  UNL     1      -7.763   4.656  12.724  1.00  0.00     0.068 C 
HETATM   30  C7  UNL     1      -6.870   3.689  11.941  1.00  0.00     0.050 C 
HETATM   31  C8  UNL     1      -8.645   5.458  11.762  1.00  0.00     0.050 C 
BRANCH  29  32
HETATM   32  O1  UNL     1      -8.629   3.883  13.557  1.00  0.00    -0.387 OA
HETATM   33  H15 UNL     1      -8.058   3.275  14.067  1.00  0.00     0.211 HD
ENDBRANCH  29  32
ENDBRANCH  28  29
ENDBRANCH  26  27
ENDBRANCH  24  26
ENDBRANCH   1  24
TORSDOF 5
ENDMDL
MODEL 6
REMARK minimizedAffinity -8.33584404
REMARK CNNscore 0.284953833
REMARK CNNaffinity 6.7731061
REMARK  5 active torsions:
REMARK  status: ('A' for Active; 'I' for Inactive)
REMARK    1  A    between atoms: C2_2  and  C3_3 
REMARK    2  A    between atoms: C2_2  and  C9_10 
REMARK    3  A    between atoms: C3_3  and  C4_4 
REMARK    4  A    between atoms: C5_5  and  C6_6 
REMARK    5  A    between atoms: C6_6  and  O1_9 
ROOT
HETATM    1  C9  UNL     1      -3.262   7.939  15.142  1.00  0.00    -0.002 C 
HETATM    2  C10 UNL     1      -3.675   6.440  15.036  1.00  0.00     0.006 C 
HETATM    3  C11 UNL     1      -2.800   5.808  13.936  1.00  0.00     0.011 C 
HETATM    4  C12 UNL     1      -1.645   6.811  13.726  1.00  0.00    -0.032 C 
HETATM    5  C13 UNL     1      -0.615   6.530  14.872  1.00  0.00     0.016 C 
HETATM    6  C14 UNL     1      -0.930   6.729  12.340  1.00  0.00     0.003 C 
HETATM    7  C15 UNL     1      -0.149   5.402  12.155  1.00  0.00     0.007 C 
HETATM    8  C16 UNL     1       0.565   5.358  10.807  1.00  0.00     0.011 C 
HETATM    9  C17 UNL     1       1.648   6.478  10.636  1.00  0.00    -0.030 C 
HETATM   10  C18 UNL     1       1.525   6.997   9.181  1.00  0.00     0.016 C 
HETATM   11  C19 UNL     1       1.441   7.587  11.730  1.00  0.00     0.003 C 
HETATM   12  C20 UNL     1       2.447   8.754  11.604  1.00  0.00     0.013 C 
HETATM   13  C21 UNL     1       3.809   8.374  11.040  1.00  0.00     0.079 C 
HETATM   14  C22 UNL     1       4.149   6.910  11.172  1.00  0.00     0.131 C 
HETATM   15  O2  UNL     1       5.307   6.575  11.456  1.00  0.00    -0.298 OA
HETATM   16  C23 UNL     1       3.078   5.861  10.883  1.00  0.00     0.060 C 
HETATM   17  C24 UNL     1       3.602   4.940   9.776  1.00  0.00     0.018 C 
HETATM   18  C25 UNL     1      -0.058   8.024  12.002  1.00  0.00    -0.035 C 
HETATM   19  C26 UNL     1      -0.646   8.751  10.758  1.00  0.00     0.016 C 
HETATM   20  C27 UNL     1      -0.087   9.087  13.157  1.00  0.00     0.011 C 
HETATM   21  C28 UNL     1      -1.433   9.351  13.865  1.00  0.00     0.011 C 
HETATM   22  C29 UNL     1      -2.433   8.177  13.839  1.00  0.00    -0.032 C 
HETATM   23  C30 UNL     1      -3.428   8.415  12.661  1.00  0.00     0.016 C 
ENDROOT
BRANCH   1  24
HETATM   24  C2  UNL     1      -4.414   8.873  15.622  1.00  0.00    -0.010 C 
HETATM   25  C1  UNL     1      -4.079   9.919  16.694  1.00  0.00     0.010 C 
BRANCH  24  26
HETATM   26  C3  UNL     1      -5.668   8.055  16.016  1.00  0.00     0.031 C 
BRANCH  26  27
HETATM   27  C4  UNL     1      -6.256   7.268  14.875  1.00  0.00    -0.027 C 
HETATM   28  C5  UNL     1      -7.211   6.336  15.019  1.00  0.00     0.006 C 
BRANCH  28  29
HETATM   29  C6  UNL     1      -7.820   5.505  13.911  1.00  0.00     0.068 C 
HETATM   30  C7  UNL     1      -6.829   5.315  12.758  1.00  0.00     0.050 C 
HETATM   31  C8  UNL     1      -9.108   6.158  13.399  1.00  0.00     0.050 C 
BRANCH  29  32
HETATM   32  O1  UNL     1      -8.165   4.213  14.415  1.00  0.00    -0.387 OA
HETATM   33  H15 UNL     1      -7.324   3.755  14.609  1.00  0.00     0.211 HD
ENDBRANCH  29  32
ENDBRANCH  28  29
ENDBRANCH  26  27
ENDBRANCH  24  26
ENDBRANCH   1  24
TORSDOF 5
ENDMDL
MODEL 7
REMARK minimizedAffinity -7.10120773
REMARK CNNscore 0.263253301
REMARK CNNaffinity 6.29215813
REMARK  5 active torsions:
REMARK  status: ('A' for Active; 'I' for Inactive)
REMARK    1  A    between atoms: C2_2  and  C3_3 
REMARK    2  A    between atoms: C2_2  and  C9_10 
REMARK    3  A    between atoms: C3_3  and  C4_4 
REMARK    4  A    between atoms: C5_5  and  C6_6 
REMARK    5  A    between atoms: C6_6  and  O1_9 
ROOT
HETATM    1  C9  UNL     1       0.586  11.766  18.148  1.00  0.00    -0.002 C 
HETATM    2  C10 UNL     1      -0.385  12.947  18.445  1.00  0.00     0.006 C 
HETATM    3  C11 UNL     1      -1.703  12.647  17.704  1.00  0.00     0.011 C 
HETATM    4  C12 UNL     1      -1.621  11.146  17.349  1.00  0.00    -0.032 C 
HETATM    5  C13 UNL     1      -2.037  10.373  18.646  1.00  0.00     0.016 C 
HETATM    6  C14 UNL     1      -2.516  10.691  16.152  1.00  0.00     0.003 C 
HETATM    7  C15 UNL     1      -4.030  10.794  16.474  1.00  0.00     0.007 C 
HETATM    8  C16 UNL     1      -4.882  10.315  15.302  1.00  0.00     0.011 C 
HETATM    9  C17 UNL     1      -4.659   8.807  14.940  1.00  0.00    -0.030 C 
HETATM   10  C18 UNL     1      -4.652   8.717  13.392  1.00  0.00     0.016 C 
HETATM   11  C19 UNL     1      -3.338   8.289  15.615  1.00  0.00     0.003 C 
HETATM   12  C20 UNL     1      -3.021   6.816  15.272  1.00  0.00     0.013 C 
HETATM   13  C21 UNL     1      -4.238   5.936  15.023  1.00  0.00     0.079 C 
HETATM   14  C22 UNL     1      -5.517   6.458  15.630  1.00  0.00     0.131 C 
HETATM   15  O2  UNL     1      -6.318   5.666  16.144  1.00  0.00    -0.298 OA
HETATM   16  C23 UNL     1      -5.838   7.948  15.537  1.00  0.00     0.060 C 
HETATM   17  C24 UNL     1      -7.191   8.099  14.832  1.00  0.00     0.018 C 
HETATM   18  C25 UNL     1      -2.094   9.272  15.554  1.00  0.00    -0.035 C 
HETATM   19  C26 UNL     1      -1.606   9.438  14.086  1.00  0.00     0.016 C 
HETATM   20  C27 UNL     1      -0.887   8.628  16.323  1.00  0.00     0.011 C 
HETATM   21  C28 UNL     1       0.277   9.550  16.745  1.00  0.00     0.011 C 
HETATM   22  C29 UNL     1      -0.097  11.033  16.948  1.00  0.00    -0.032 C 
HETATM   23  C30 UNL     1       0.255  11.804  15.637  1.00  0.00     0.016 C 
ENDROOT
BRANCH   1  24
HETATM   24  C2  UNL     1       2.091  12.170  18.176  1.00  0.00    -0.010 C 
HETATM   25  C1  UNL     1       3.114  11.128  17.702  1.00  0.00     0.010 C 
BRANCH  24  26
HETATM   26  C3  UNL     1       2.487  12.749  19.557  1.00  0.00     0.031 C 
BRANCH  26  27
HETATM   27  C4  UNL     1       3.124  11.739  20.473  1.00  0.00    -0.027 C 
HETATM   28  C5  UNL     1       2.437  10.846  21.202  1.00  0.00     0.006 C 
BRANCH  28  29
HETATM   29  C6  UNL     1       3.027   9.826  22.150  1.00  0.00     0.068 C 
HETATM   30  C7  UNL     1       2.130   8.588  22.254  1.00  0.00     0.050 C 
HETATM   31  C8  UNL     1       3.240  10.443  23.536  1.00  0.00     0.050 C 
BRANCH  29  32
HETATM   32  O1  UNL     1       4.305   9.406  21.667  1.00  0.00    -0.387 OA
HETATM   33  H15 UNL     1       4.141   8.892  20.851  1.00  0.00     0.211 HD
ENDBRANCH  29  32
ENDBRANCH  28  29
ENDBRANCH  26  27
ENDBRANCH  24  26
ENDBRANCH   1  24
TORSDOF 5
ENDMDL
MODEL 8
REMARK minimizedAffinity -7.66656399
REMARK CNNscore 0.253313035
REMARK CNNaffinity 6.08397436
REMARK  5 active torsions:
REMARK  status: ('A' for Active; 'I' for Inactive)
REMARK    1  A    between atoms: C2_2  and  C3_3 
REMARK    2  A    between atoms: C2_2  and  C9_10 
REMARK    3  A    between atoms: C3_3  and  C4_4 
REMARK    4  A    between atoms: C5_5  and  C6_6 
REMARK    5  A    between atoms: C6_6  and  O1_9 
ROOT
HETATM    1  C9  UNL     1      -3.161   9.136  14.695  1.00  0.00    -0.002 C 
HETATM    2  C10 UNL     1      -2.224   9.194  13.451  1.00  0.00     0.006 C 
HETATM    3  C11 UNL     1      -0.937   9.920  13.889  1.00  0.00     0.011 C 
HETATM    4  C12 UNL     1      -0.976   9.894  15.433  1.00  0.00    -0.032 C 
HETATM    5  C13 UNL     1      -0.461   8.476  15.854  1.00  0.00     0.016 C 
HETATM    6  C14 UNL     1      -0.129  10.998  16.143  1.00  0.00     0.003 C 
HETATM    7  C15 UNL     1       1.395  10.804  15.925  1.00  0.00     0.007 C 
HETATM    8  C16 UNL     1       2.202  11.875  16.654  1.00  0.00     0.011 C 
HETATM    9  C17 UNL     1       2.021  11.846  18.210  1.00  0.00    -0.030 C 
HETATM   10  C18 UNL     1       1.935  13.322  18.676  1.00  0.00     0.016 C 
HETATM   11  C19 UNL     1       0.759  10.985  18.581  1.00  0.00     0.003 C 
HETATM   12  C20 UNL     1       0.485  10.940  20.101  1.00  0.00     0.013 C 
HETATM   13  C21 UNL     1       1.721  11.042  20.984  1.00  0.00     0.079 C 
HETATM   14  C22 UNL     1       3.008  10.661  20.295  1.00  0.00     0.131 C 
HETATM   15  O2  UNL     1       3.867  10.020  20.916  1.00  0.00    -0.298 OA
HETATM   16  C23 UNL     1       3.264  11.131  18.865  1.00  0.00     0.060 C 
HETATM   17  C24 UNL     1       4.569  11.934  18.856  1.00  0.00     0.018 C 
HETATM   18  C25 UNL     1      -0.524  11.206  17.676  1.00  0.00    -0.035 C 
HETATM   19  C26 UNL     1      -1.096  12.638  17.887  1.00  0.00     0.016 C 
HETATM   20  C27 UNL     1      -1.662  10.231  18.144  1.00  0.00     0.011 C 
HETATM   21  C28 UNL     1      -2.838   9.975  17.177  1.00  0.00     0.011 C 
HETATM   22  C29 UNL     1      -2.514  10.162  15.680  1.00  0.00    -0.032 C 
HETATM   23  C30 UNL     1      -2.967  11.596  15.263  1.00  0.00     0.016 C 
ENDROOT
BRANCH   1  24
HETATM   24  C2  UNL     1      -4.678   9.113  14.335  1.00  0.00    -0.010 C 
HETATM   25  C1  UNL     1      -5.674   8.870  15.478  1.00  0.00     0.010 C 
BRANCH  24  26
HETATM   26  C3  UNL     1      -4.955   8.163  13.145  1.00  0.00     0.031 C 
BRANCH  26  27
HETATM   27  C4  UNL     1      -5.411   6.791  13.564  1.00  0.00    -0.027 C 
HETATM   28  C5  UNL     1      -6.554   6.221  13.152  1.00  0.00     0.006 C 
BRANCH  28  29
HETATM   29  C6  UNL     1      -7.066   4.856  13.558  1.00  0.00     0.068 C 
HETATM   30  C7  UNL     1      -8.306   4.470  12.745  1.00  0.00     0.050 C 
HETATM   31  C8  UNL     1      -7.386   4.829  15.056  1.00  0.00     0.050 C 
BRANCH  29  32
HETATM   32  O1  UNL     1      -6.056   3.874  13.316  1.00  0.00    -0.387 OA
HETATM   33  H15 UNL     1      -5.961   3.803  12.346  1.00  0.00     0.211 HD
ENDBRANCH  29  32
ENDBRANCH  28  29
ENDBRANCH  26  27
ENDBRANCH  24  26
ENDBRANCH   1  24
TORSDOF 5
ENDMDL
MODEL 9
REMARK minimizedAffinity -9.05826855
REMARK CNNscore 0.239822611
REMARK CNNaffinity 6.66167593
REMARK  5 active torsions:
REMARK  status: ('A' for Active; 'I' for Inactive)
REMARK    1  A    between atoms: C2_2  and  C3_3 
REMARK    2  A    between atoms: C2_2  and  C9_10 
REMARK    3  A    between atoms: C3_3  and  C4_4 
REMARK    4  A    between atoms: C5_5  and  C6_6 
REMARK    5  A    between atoms: C6_6  and  O1_9 
ROOT
HETATM    1  C9  UNL     1      -6.675   7.156  14.379  1.00  0.00    -0.002 C 
HETATM    2  C10 UNL     1      -6.555   8.571  15.020  1.00  0.00     0.006 C 
HETATM    3  C11 UNL     1      -5.058   8.941  15.022  1.00  0.00     0.011 C 
HETATM    4  C12 UNL     1      -4.407   7.950  14.034  1.00  0.00    -0.032 C 
HETATM    5  C13 UNL     1      -4.670   8.532  12.603  1.00  0.00     0.016 C 
HETATM    6  C14 UNL     1      -2.876   7.712  14.235  1.00  0.00     0.003 C 
HETATM    7  C15 UNL     1      -2.035   8.976  13.918  1.00  0.00     0.007 C 
HETATM    8  C16 UNL     1      -0.542   8.710  14.092  1.00  0.00     0.011 C 
HETATM    9  C17 UNL     1       0.015   7.614  13.121  1.00  0.00    -0.030 C 
HETATM   10  C18 UNL     1       1.006   6.752  13.945  1.00  0.00     0.016 C 
HETATM   11  C19 UNL     1      -1.176   6.799  12.500  1.00  0.00     0.003 C 
HETATM   12  C20 UNL     1      -0.708   5.666  11.559  1.00  0.00     0.013 C 
HETATM   13  C21 UNL     1       0.598   5.936  10.824  1.00  0.00     0.079 C 
HETATM   14  C22 UNL     1       0.958   7.397  10.714  1.00  0.00     0.131 C 
HETATM   15  O2  UNL     1       1.464   7.824   9.668  1.00  0.00    -0.298 OA
HETATM   16  C23 UNL     1       0.760   8.313  11.920  1.00  0.00     0.060 C 
HETATM   17  C24 UNL     1       2.111   8.950  12.259  1.00  0.00     0.018 C 
HETATM   18  C25 UNL     1      -2.341   6.399  13.499  1.00  0.00    -0.035 C 
HETATM   19  C26 UNL     1      -1.825   5.374  14.551  1.00  0.00     0.016 C 
HETATM   20  C27 UNL     1      -3.469   5.649  12.706  1.00  0.00     0.011 C 
HETATM   21  C28 UNL     1      -4.859   5.528  13.367  1.00  0.00     0.011 C 
HETATM   22  C29 UNL     1      -5.202   6.632  14.389  1.00  0.00    -0.032 C 
HETATM   23  C30 UNL     1      -4.886   6.085  15.816  1.00  0.00     0.016 C 
ENDROOT
BRANCH   1  24
HETATM   24  C2  UNL     1      -7.893   6.334  14.899  1.00  0.00    -0.010 C 
HETATM   25  C1  UNL     1      -7.608   4.964  15.530  1.00  0.00     0.010 C 
BRANCH  24  26
HETATM   26  C3  UNL     1      -8.996   6.229  13.817  1.00  0.00     0.031 C 
BRANCH  26  27
HETATM   27  C4  UNL     1      -9.949   7.394  13.814  1.00  0.00    -0.027 C 
HETATM   28  C5  UNL     1     -10.857   7.619  12.851  1.00  0.00     0.006 C 
BRANCH  28  29
HETATM   29  C6  UNL     1     -11.822   8.783  12.791  1.00  0.00     0.068 C 
HETATM   30  C7  UNL     1     -11.515   9.809  13.886  1.00  0.00     0.050 C 
HETATM   31  C8  UNL     1     -13.266   8.288  12.920  1.00  0.00     0.050 C 
BRANCH  29  32
HETATM   32  O1  UNL     1     -11.704   9.438  11.526  1.00  0.00    -0.387 OA
HETATM   33  H15 UNL     1     -10.827   9.868  11.514  1.00  0.00     0.211 HD
ENDBRANCH  29  32
ENDBRANCH  28  29
ENDBRANCH  26  27
ENDBRANCH  24  26
ENDBRANCH   1  24
TORSDOF 5
ENDMDL
