MODEL 1
REMARK minimizedAffinity -7.46594429
REMARK CNNscore 0.502031863
REMARK CNNaffinity 7.61112785
REMARK  14 active torsions:
REMARK  status: ('A' for Active; 'I' for Inactive)
REMARK    1  A    between atoms: O1_2  and  C2_3 
REMARK    2  A    between atoms: C8_9  and  O2_10 
REMARK    3  A    between atoms: O2_10  and  C9_11 
REMARK    4  A    between atoms: C10_13  and  C11_14 
REMARK    5  A    between atoms: C11_14  and  O4_15 
REMARK    6  A    between atoms: C12_16  and  O5_17 
REMARK    7  A    between atoms: C13_18  and  O6_19 
REMARK    8  A    between atoms: C14_20  and  O7_21 
REMARK    9  A    between atoms: C18_25  and  C19_26 
REMARK   10  A    between atoms: C24_32  and  C25_33 
REMARK   11  A    between atoms: C25_33  and  C27_35 
REMARK   12  A    between atoms: C27_35  and  C28_36 
REMARK   13  A    between atoms: C29_37  and  C30_38 
REMARK   14  A    between atoms: C30_38  and  O9_41 
ROOT
HETATM    1  C2  UNL     1      -5.581   5.625  15.331  1.00  0.00     0.149 C 
HETATM    2  C3  UNL     1      -6.851   5.533  14.551  1.00  0.00     0.009 C 
HETATM    3  C4  UNL     1      -7.451   6.607  14.012  1.00  0.00    -0.066 C 
HETATM    4  C5  UNL     1      -6.840   7.984  14.201  1.00  0.00     0.031 C 
HETATM    5  C6  UNL     1      -7.685   8.680  15.294  1.00  0.00     0.013 C 
HETATM    6  C7  UNL     1      -9.201   8.430  15.136  1.00  0.00     0.034 C 
HETATM    7  C8  UNL     1      -9.592   7.941  13.730  1.00  0.00     0.136 C 
HETATM    8  C15 UNL     1      -8.843   6.602  13.357  1.00  0.00     0.002 C 
HETATM    9  C16 UNL     1      -8.674   6.538  11.822  1.00  0.00     0.022 C 
HETATM   10  C17 UNL     1      -9.693   5.376  13.769  1.00  0.00     0.022 C 
HETATM   11  C18 UNL     1      -5.256   8.023  14.329  1.00  0.00     0.027 C 
HETATM   12  C20 UNL     1      -4.707   8.589  12.962  1.00  0.00     0.018 C 
HETATM   13  C21 UNL     1      -3.247   8.328  12.555  1.00  0.00     0.011 C 
HETATM   14  C22 UNL     1      -2.565   7.146  13.253  1.00  0.00    -0.032 C 
HETATM   15  C23 UNL     1      -1.777   7.725  14.475  1.00  0.00     0.016 C 
HETATM   16  C24 UNL     1      -1.573   6.296  12.385  1.00  0.00    -0.002 C 
HETATM   17  C34 UNL     1      -1.515   4.953  13.172  1.00  0.00     0.006 C 
HETATM   18  C35 UNL     1      -2.738   4.905  14.104  1.00  0.00     0.011 C 
HETATM   19  C36 UNL     1      -3.644   6.064  13.638  1.00  0.00    -0.029 C 
HETATM   20  C37 UNL     1      -4.474   5.494  12.446  1.00  0.00     0.016 C 
HETATM   21  C38 UNL     1      -4.583   6.642  14.739  1.00  0.00     0.043 C 
ENDROOT
BRANCH   7  22
HETATM   22  O2  UNL     1     -11.011   7.748  13.667  1.00  0.00    -0.352 OA
BRANCH  22  23
HETATM   23  C9  UNL     1     -11.786   8.756  14.319  1.00  0.00     0.292 C 
HETATM   24  O3  UNL     1     -13.048   8.230  14.704  1.00  0.00    -0.348 OA
HETATM   25  C10 UNL     1     -14.017   7.993  13.669  1.00  0.00     0.179 C 
HETATM   26  C12 UNL     1     -13.899   8.919  12.452  1.00  0.00     0.180 C 
HETATM   27  C13 UNL     1     -13.282  10.241  12.887  1.00  0.00     0.183 C 
HETATM   28  C14 UNL     1     -11.862   9.992  13.386  1.00  0.00     0.204 C 
BRANCH  25  29
HETATM   29  C11 UNL     1     -14.033   6.505  13.272  1.00  0.00     0.198 C 
BRANCH  29  30
HETATM   30  O4  UNL     1     -13.501   5.659  14.284  1.00  0.00    -0.398 OA
HETATM   31  H16 UNL     1     -13.934   5.912  15.124  1.00  0.00     0.209 HD
ENDBRANCH  29  30
ENDBRANCH  25  29
BRANCH  26  32
HETATM   32  O5  UNL     1     -15.197   9.158  11.888  1.00  0.00    -0.390 OA
HETATM   33  H18 UNL     1     -15.033   9.779  11.153  1.00  0.00     0.210 HD
ENDBRANCH  26  32
BRANCH  27  34
HETATM   34  O6  UNL     1     -13.252  11.148  11.772  1.00  0.00    -0.390 OA
HETATM   35  H20 UNL     1     -12.745  11.926  12.085  1.00  0.00     0.210 HD
ENDBRANCH  27  34
BRANCH  28  36
HETATM   36  O7  UNL     1     -11.408  11.195  14.032  1.00  0.00    -0.388 OA
HETATM   37  H22 UNL     1     -10.465  11.073  14.255  1.00  0.00     0.210 HD
ENDBRANCH  28  36
ENDBRANCH  22  23
ENDBRANCH   7  22
BRANCH  11  38
HETATM   38  C19 UNL     1      -4.904   9.019  15.445  1.00  0.00     0.241 C 
HETATM   39  O8  UNL     1      -4.329  10.090  15.269  1.00  0.00    -0.306 OA
ENDBRANCH  11  38
BRANCH   1  40
HETATM   40  O1  UNL     1      -5.900   6.081  16.655  1.00  0.00    -0.386 OA
HETATM   41  C1  UNL     1      -7.285   5.978  16.967  1.00  0.00     0.202 C 
ENDBRANCH   1  40
BRANCH  16  42
HETATM   42  C25 UNL     1      -0.154   6.842  12.036  1.00  0.00    -0.010 C 
HETATM   43  C26 UNL     1       0.667   7.151  13.295  1.00  0.00     0.010 C 
BRANCH  42  44
HETATM   44  C27 UNL     1      -0.279   8.110  11.147  1.00  0.00     0.031 C 
BRANCH  44  45
HETATM   45  C28 UNL     1       0.683   8.173   9.993  1.00  0.00    -0.027 C 
HETATM   46  C29 UNL     1       1.235   7.087   9.429  1.00  0.00     0.006 C 
BRANCH  46  47
HETATM   47  C30 UNL     1       2.178   7.036   8.243  1.00  0.00     0.070 C 
HETATM   48  C31 UNL     1       1.557   7.397   6.883  1.00  0.00     0.050 C 
HETATM   49  C32 UNL     1       3.318   8.028   8.523  1.00  0.00     0.050 C 
BRANCH  47  50
HETATM   50  O9  UNL     1       2.803   5.740   8.204  1.00  0.00    -0.382 OA
HETATM   51  C33 UNL     1       3.360   5.272   9.426  1.00  0.00     0.202 C 
ENDBRANCH  47  50
ENDBRANCH  46  47
ENDBRANCH  44  45
ENDBRANCH  42  44
ENDBRANCH  16  42
TORSDOF 14
ENDMDL
MODEL 2
REMARK minimizedAffinity -7.71152306
REMARK CNNscore 0.424349934
REMARK CNNaffinity 6.85661554
REMARK  14 active torsions:
REMARK  status: ('A' for Active; 'I' for Inactive)
REMARK    1  A    between atoms: O1_2  and  C2_3 
REMARK    2  A    between atoms: C8_9  and  O2_10 
REMARK    3  A    between atoms: O2_10  and  C9_11 
REMARK    4  A    between atoms: C10_13  and  C11_14 
REMARK    5  A    between atoms: C11_14  and  O4_15 
REMARK    6  A    between atoms: C12_16  and  O5_17 
REMARK    7  A    between atoms: C13_18  and  O6_19 
REMARK    8  A    between atoms: C14_20  and  O7_21 
REMARK    9  A    between atoms: C18_25  and  C19_26 
REMARK   10  A    between atoms: C24_32  and  C25_33 
REMARK   11  A    between atoms: C25_33  and  C27_35 
REMARK   12  A    between atoms: C27_35  and  C28_36 
REMARK   13  A    between atoms: C29_37  and  C30_38 
REMARK   14  A    between atoms: C30_38  and  O9_41 
ROOT
HETATM    1  C2  UNL     1      -2.305  11.299  14.851  1.00  0.00     0.149 C 
HETATM    2  C3  UNL     1      -3.021  10.073  14.391  1.00  0.00     0.009 C 
HETATM    3  C4  UNL     1      -3.022   8.927  15.092  1.00  0.00    -0.066 C 
HETATM    4  C5  UNL     1      -2.258   8.845  16.402  1.00  0.00     0.031 C 
HETATM    5  C6  UNL     1      -0.955   8.072  16.090  1.00  0.00     0.013 C 
HETATM    6  C7  UNL     1      -1.178   6.866  15.152  1.00  0.00     0.034 C 
HETATM    7  C8  UNL     1      -2.648   6.416  15.082  1.00  0.00     0.136 C 
HETATM    8  C15 UNL     1      -3.586   7.587  14.588  1.00  0.00     0.002 C 
HETATM    9  C16 UNL     1      -4.995   7.380  15.186  1.00  0.00     0.022 C 
HETATM   10  C17 UNL     1      -3.739   7.544  13.049  1.00  0.00     0.022 C 
HETATM   11  C18 UNL     1      -2.157  10.201  17.225  1.00  0.00     0.027 C 
HETATM   12  C20 UNL     1      -3.146  10.062  18.447  1.00  0.00     0.018 C 
HETATM   13  C21 UNL     1      -3.654  11.321  19.169  1.00  0.00     0.011 C 
HETATM   14  C22 UNL     1      -3.560  12.628  18.371  1.00  0.00    -0.032 C 
HETATM   15  C23 UNL     1      -2.223  13.326  18.788  1.00  0.00     0.016 C 
HETATM   16  C24 UNL     1      -4.731  13.652  18.561  1.00  0.00    -0.002 C 
HETATM   17  C34 UNL     1      -4.616  14.526  17.278  1.00  0.00     0.006 C 
HETATM   18  C35 UNL     1      -3.777  13.743  16.253  1.00  0.00     0.011 C 
HETATM   19  C36 UNL     1      -3.669  12.316  16.831  1.00  0.00    -0.029 C 
HETATM   20  C37 UNL     1      -4.974  11.584  16.388  1.00  0.00     0.016 C 
HETATM   21  C38 UNL     1      -2.408  11.521  16.375  1.00  0.00     0.043 C 
ENDROOT
BRANCH   7  22
HETATM   22  O2  UNL     1      -2.763   5.288  14.204  1.00  0.00    -0.352 OA
BRANCH  22  23
HETATM   23  C9  UNL     1      -2.270   5.502  12.879  1.00  0.00     0.292 C 
HETATM   24  O3  UNL     1      -3.297   5.252  11.930  1.00  0.00    -0.348 OA
HETATM   25  C10 UNL     1      -3.670   3.884  11.694  1.00  0.00     0.179 C 
HETATM   26  C12 UNL     1      -2.546   2.863  11.910  1.00  0.00     0.180 C 
HETATM   27  C13 UNL     1      -1.203   3.536  11.659  1.00  0.00     0.183 C 
HETATM   28  C14 UNL     1      -0.994   4.641  12.690  1.00  0.00     0.204 C 
BRANCH  25  29
HETATM   29  C11 UNL     1      -4.943   3.525  12.481  1.00  0.00     0.198 C 
BRANCH  29  30
HETATM   30  O4  UNL     1      -5.790   4.648  12.699  1.00  0.00    -0.398 OA
HETATM   31  H16 UNL     1      -5.897   5.096  11.837  1.00  0.00     0.209 HD
ENDBRANCH  29  30
ENDBRANCH  25  29
BRANCH  26  32
HETATM   32  O5  UNL     1      -2.704   1.757  11.009  1.00  0.00    -0.390 OA
HETATM   33  H18 UNL     1      -1.934   1.185  11.188  1.00  0.00     0.210 HD
ENDBRANCH  26  32
BRANCH  27  34
HETATM   34  O6  UNL     1      -0.149   2.564  11.770  1.00  0.00    -0.390 OA
HETATM   35  H20 UNL     1       0.683   3.079  11.713  1.00  0.00     0.210 HD
ENDBRANCH  27  34
BRANCH  28  36
HETATM   36  O7  UNL     1       0.137   5.425  12.269  1.00  0.00    -0.388 OA
HETATM   37  H22 UNL     1       0.336   6.063  12.981  1.00  0.00     0.210 HD
ENDBRANCH  28  36
ENDBRANCH  22  23
ENDBRANCH   7  22
BRANCH  11  38
HETATM   38  C19 UNL     1      -0.724  10.308  17.769  1.00  0.00     0.241 C 
HETATM   39  O8  UNL     1       0.284   9.972  17.153  1.00  0.00    -0.306 OA
ENDBRANCH  11  38
BRANCH   1  40
HETATM   40  O1  UNL     1      -0.909  11.143  14.550  1.00  0.00    -0.386 OA
HETATM   41  C1  UNL     1      -0.152  12.330  14.763  1.00  0.00     0.202 C 
ENDBRANCH   1  40
BRANCH  16  42
HETATM   42  C25 UNL     1      -4.832  14.512  19.859  1.00  0.00    -0.010 C 
HETATM   43  C26 UNL     1      -3.540  15.293  20.130  1.00  0.00     0.010 C 
BRANCH  42  44
HETATM   44  C27 UNL     1      -5.180  13.603  21.071  1.00  0.00     0.031 C 
BRANCH  44  45
HETATM   45  C28 UNL     1      -6.476  13.932  21.758  1.00  0.00    -0.027 C 
HETATM   46  C29 UNL     1      -7.411  13.014  22.055  1.00  0.00     0.006 C 
BRANCH  46  47
HETATM   47  C30 UNL     1      -8.725  13.231  22.779  1.00  0.00     0.070 C 
HETATM   48  C31 UNL     1      -8.612  13.585  24.272  1.00  0.00     0.050 C 
HETATM   49  C32 UNL     1      -9.452  14.385  22.071  1.00  0.00     0.050 C 
BRANCH  47  50
HETATM   50  O9  UNL     1      -9.560  12.076  22.579  1.00  0.00    -0.382 OA
HETATM   51  C33 UNL     1     -10.490  11.784  23.614  1.00  0.00     0.202 C 
ENDBRANCH  47  50
ENDBRANCH  46  47
ENDBRANCH  44  45
ENDBRANCH  42  44
ENDBRANCH  16  42
TORSDOF 14
ENDMDL
MODEL 3
REMARK minimizedAffinity -7.66465664
REMARK CNNscore 0.287654668
REMARK CNNaffinity 6.28885841
REMARK  14 active torsions:
REMARK  status: ('A' for Active; 'I' for Inactive)
REMARK    1  A    between atoms: O1_2  and  C2_3 
REMARK    2  A    between atoms: C8_9  and  O2_10 
REMARK    3  A    between atoms: O2_10  and  C9_11 
REMARK    4  A    between atoms: C10_13  and  C11_14 
REMARK    5  A    between atoms: C11_14  and  O4_15 
REMARK    6  A    between atoms: C12_16  and  O5_17 
REMARK    7  A    between atoms: C13_18  and  O6_19 
REMARK    8  A    between atoms: C14_20  and  O7_21 
REMARK    9  A    between atoms: C18_25  and  C19_26 
REMARK   10  A    between atoms: C24_32  and  C25_33 
REMARK   11  A    between atoms: C25_33  and  C27_35 
REMARK   12  A    between atoms: C27_35  and  C28_36 
REMARK   13  A    between atoms: C29_37  and  C30_38 
REMARK   14  A    between atoms: C30_38  and  O9_41 
ROOT
HETATM    1  C2  UNL     1      -0.249  13.412  17.795  1.00  0.00     0.149 C 
HETATM    2  C3  UNL     1      -1.445  12.556  17.541  1.00  0.00     0.009 C 
HETATM    3  C4  UNL     1      -1.389  11.430  16.811  1.00  0.00    -0.066 C 
HETATM    4  C5  UNL     1      -0.070  10.997  16.195  1.00  0.00     0.031 C 
HETATM    5  C6  UNL     1      -0.154  11.374  14.697  1.00  0.00     0.013 C 
HETATM    6  C7  UNL     1      -1.532  11.066  14.072  1.00  0.00     0.034 C 
HETATM    7  C8  UNL     1      -2.365  10.072  14.901  1.00  0.00     0.136 C 
HETATM    8  C15 UNL     1      -2.610  10.607  16.366  1.00  0.00     0.002 C 
HETATM    9  C16 UNL     1      -2.773   9.399  17.315  1.00  0.00     0.022 C 
HETATM   10  C17 UNL     1      -3.930  11.413  16.432  1.00  0.00     0.022 C 
HETATM   11  C18 UNL     1       1.235  11.403  17.007  1.00  0.00     0.027 C 
HETATM   12  C20 UNL     1       1.770  10.084  17.689  1.00  0.00     0.018 C 
HETATM   13  C21 UNL     1       2.711  10.176  18.901  1.00  0.00     0.011 C 
HETATM   14  C22 UNL     1       2.685  11.507  19.663  1.00  0.00    -0.032 C 
HETATM   15  C23 UNL     1       3.855  12.381  19.102  1.00  0.00     0.016 C 
HETATM   16  C24 UNL     1       2.833  11.427  21.222  1.00  0.00    -0.002 C 
HETATM   17  C34 UNL     1       2.232  12.787  21.681  1.00  0.00     0.006 C 
HETATM   18  C35 UNL     1       1.388  13.340  20.519  1.00  0.00     0.011 C 
HETATM   19  C36 UNL     1       1.262  12.169  19.522  1.00  0.00    -0.029 C 
HETATM   20  C37 UNL     1       0.069  11.306  20.037  1.00  0.00     0.016 C 
HETATM   21  C38 UNL     1       1.037  12.596  18.039  1.00  0.00     0.043 C 
ENDROOT
BRANCH   7  22
HETATM   22  O2  UNL     1      -3.618   9.833  14.245  1.00  0.00    -0.352 OA
BRANCH  22  23
HETATM   23  C9  UNL     1      -3.698   8.598  13.529  1.00  0.00     0.292 C 
HETATM   24  O3  UNL     1      -5.057   8.229  13.343  1.00  0.00    -0.348 OA
HETATM   25  C10 UNL     1      -5.781   7.746  14.486  1.00  0.00     0.179 C 
HETATM   26  C12 UNL     1      -4.921   7.039  15.541  1.00  0.00     0.180 C 
HETATM   27  C13 UNL     1      -3.700   6.429  14.866  1.00  0.00     0.183 C 
HETATM   28  C14 UNL     1      -2.842   7.544  14.279  1.00  0.00     0.204 C 
BRANCH  25  29
HETATM   29  C11 UNL     1      -6.647   8.864  15.092  1.00  0.00     0.198 C 
BRANCH  29  30
HETATM   30  O4  UNL     1      -8.039   8.580  15.025  1.00  0.00    -0.398 OA
HETATM   31  H16 UNL     1      -8.162   7.672  15.367  1.00  0.00     0.209 HD
ENDBRANCH  29  30
ENDBRANCH  25  29
BRANCH  26  32
HETATM   32  O5  UNL     1      -5.681   6.003  16.183  1.00  0.00    -0.390 OA
HETATM   33  H18 UNL     1      -5.052   5.588  16.803  1.00  0.00     0.210 HD
ENDBRANCH  26  32
BRANCH  27  34
HETATM   34  O6  UNL     1      -2.936   5.687  15.832  1.00  0.00    -0.390 OA
HETATM   35  H20 UNL     1      -2.116   5.422  15.364  1.00  0.00     0.210 HD
ENDBRANCH  27  34
BRANCH  28  36
HETATM   36  O7  UNL     1      -1.854   6.936  13.427  1.00  0.00    -0.388 OA
HETATM   37  H22 UNL     1      -1.240   7.637  13.138  1.00  0.00     0.210 HD
ENDBRANCH  28  36
ENDBRANCH  22  23
ENDBRANCH   7  22
BRANCH  11  38
HETATM   38  C19 UNL     1       2.282  11.885  15.991  1.00  0.00     0.241 C 
HETATM   39  O8  UNL     1       2.775  13.010  15.977  1.00  0.00    -0.306 OA
ENDBRANCH  11  38
BRANCH   1  40
HETATM   40  O1  UNL     1      -0.013  14.212  16.625  1.00  0.00    -0.386 OA
HETATM   41  C1  UNL     1      -1.142  14.991  16.239  1.00  0.00     0.202 C 
ENDBRANCH   1  40
BRANCH  16  42
HETATM   42  C25 UNL     1       4.221  11.139  21.874  1.00  0.00    -0.010 C 
HETATM   43  C26 UNL     1       4.250   9.778  22.583  1.00  0.00     0.010 C 
BRANCH  42  44
HETATM   44  C27 UNL     1       4.584  12.276  22.870  1.00  0.00     0.031 C 
BRANCH  44  45
HETATM   45  C28 UNL     1       5.837  13.036  22.534  1.00  0.00    -0.027 C 
HETATM   46  C29 UNL     1       7.043  12.740  23.046  1.00  0.00     0.006 C 
BRANCH  46  47
HETATM   47  C30 UNL     1       8.368  13.412  22.743  1.00  0.00     0.070 C 
HETATM   48  C31 UNL     1       9.474  12.489  22.203  1.00  0.00     0.050 C 
HETATM   49  C32 UNL     1       8.100  14.498  21.690  1.00  0.00     0.050 C 
BRANCH  47  50
HETATM   50  O9  UNL     1       8.806  14.120  23.917  1.00  0.00    -0.382 OA
HETATM   51  C33 UNL     1       8.319  15.447  24.070  1.00  0.00     0.202 C 
ENDBRANCH  47  50
ENDBRANCH  46  47
ENDBRANCH  44  45
ENDBRANCH  42  44
ENDBRANCH  16  42
TORSDOF 14
ENDMDL
MODEL 4
REMARK minimizedAffinity -7.85636282
REMARK CNNscore 0.23116976
REMARK CNNaffinity 6.59087992
REMARK  14 active torsions:
REMARK  status: ('A' for Active; 'I' for Inactive)
REMARK    1  A    between atoms: O1_2  and  C2_3 
REMARK    2  A    between atoms: C8_9  and  O2_10 
REMARK    3  A    between atoms: O2_10  and  C9_11 
REMARK    4  A    between atoms: C10_13  and  C11_14 
REMARK    5  A    between atoms: C11_14  and  O4_15 
REMARK    6  A    between atoms: C12_16  and  O5_17 
REMARK    7  A    between atoms: C13_18  and  O6_19 
REMARK    8  A    between atoms: C14_20  and  O7_21 
REMARK    9  A    between atoms: C18_25  and  C19_26 
REMARK   10  A    between atoms: C24_32  and  C25_33 
REMARK   11  A    between atoms: C25_33  and  C27_35 
REMARK   12  A    between atoms: C27_35  and  C28_36 
REMARK   13  A    between atoms: C29_37  and  C30_38 
REMARK   14  A    between atoms: C30_38  and  O9_41 
ROOT
HETATM    1  C2  UNL     1      -0.722   9.773  13.650  1.00  0.00     0.149 C 
HETATM    2  C3  UNL     1      -2.196   9.536  13.629  1.00  0.00     0.009 C 
HETATM    3  C4  UNL     1      -2.820   8.762  14.531  1.00  0.00    -0.066 C 
HETATM    4  C5  UNL     1      -2.013   8.076  15.620  1.00  0.00     0.031 C 
HETATM    5  C6  UNL     1      -1.876   6.598  15.183  1.00  0.00     0.013 C 
HETATM    6  C7  UNL     1      -3.179   6.019  14.590  1.00  0.00     0.034 C 
HETATM    7  C8  UNL     1      -4.428   6.843  14.952  1.00  0.00     0.136 C 
HETATM    8  C15 UNL     1      -4.296   8.337  14.457  1.00  0.00     0.002 C 
HETATM    9  C16 UNL     1      -5.127   9.245  15.391  1.00  0.00     0.022 C 
HETATM   10  C17 UNL     1      -4.891   8.488  13.036  1.00  0.00     0.022 C 
HETATM   11  C18 UNL     1      -0.709   8.848  16.101  1.00  0.00     0.027 C 
HETATM   12  C20 UNL     1      -1.043   9.457  17.518  1.00  0.00     0.018 C 
HETATM   13  C21 UNL     1      -0.214  10.631  18.063  1.00  0.00     0.011 C 
HETATM   14  C22 UNL     1       0.554  11.444  17.013  1.00  0.00    -0.032 C 
HETATM   15  C23 UNL     1       2.009  10.869  16.961  1.00  0.00     0.016 C 
HETATM   16  C24 UNL     1       0.644  12.991  17.251  1.00  0.00    -0.002 C 
HETATM   17  C34 UNL     1       0.962  13.526  15.824  1.00  0.00     0.006 C 
HETATM   18  C35 UNL     1       0.590  12.423  14.819  1.00  0.00     0.011 C 
HETATM   19  C36 UNL     1      -0.210  11.387  15.637  1.00  0.00    -0.029 C 
HETATM   20  C37 UNL     1      -1.677  11.918  15.664  1.00  0.00     0.016 C 
HETATM   21  C38 UNL     1      -0.158   9.933  15.078  1.00  0.00     0.043 C 
ENDROOT
BRANCH   7  22
HETATM   22  O2  UNL     1      -5.589   6.231  14.376  1.00  0.00    -0.352 OA
BRANCH  22  23
HETATM   23  C9  UNL     1      -6.501   5.661  15.317  1.00  0.00     0.292 C 
HETATM   24  O3  UNL     1      -7.247   4.618  14.705  1.00  0.00    -0.348 OA
HETATM   25  C10 UNL     1      -8.270   4.992  13.768  1.00  0.00     0.179 C 
HETATM   26  C12 UNL     1      -8.913   6.360  14.026  1.00  0.00     0.180 C 
HETATM   27  C13 UNL     1      -8.828   6.680  15.512  1.00  0.00     0.183 C 
HETATM   28  C14 UNL     1      -7.362   6.803  15.916  1.00  0.00     0.204 C 
BRANCH  25  29
HETATM   29  C11 UNL     1      -7.760   4.851  12.322  1.00  0.00     0.198 C 
BRANCH  29  30
HETATM   30  O4  UNL     1      -6.530   4.139  12.240  1.00  0.00    -0.398 OA
HETATM   31  H16 UNL     1      -6.637   3.324  12.768  1.00  0.00     0.209 HD
ENDBRANCH  29  30
ENDBRANCH  25  29
BRANCH  26  32
HETATM   32  O5  UNL     1     -10.290   6.343  13.618  1.00  0.00    -0.390 OA
HETATM   33  H18 UNL     1     -10.624   7.230  13.852  1.00  0.00     0.210 HD
ENDBRANCH  26  32
BRANCH  27  34
HETATM   34  O6  UNL     1      -9.508   7.919  15.778  1.00  0.00    -0.390 OA
HETATM   35  H20 UNL     1      -9.318   8.122  16.718  1.00  0.00     0.210 HD
ENDBRANCH  27  34
BRANCH  28  36
HETATM   36  O7  UNL     1      -7.303   6.836  17.353  1.00  0.00    -0.388 OA
HETATM   37  H22 UNL     1      -6.380   7.023  17.608  1.00  0.00     0.210 HD
ENDBRANCH  28  36
ENDBRANCH  22  23
ENDBRANCH   7  22
BRANCH  11  38
HETATM   38  C19 UNL     1       0.410   7.810  16.268  1.00  0.00     0.241 C 
HETATM   39  O8  UNL     1       1.608   8.076  16.326  1.00  0.00    -0.306 OA
ENDBRANCH  11  38
BRANCH   1  40
HETATM   40  O1  UNL     1      -0.075   8.627  13.077  1.00  0.00    -0.386 OA
HETATM   41  C1  UNL     1      -0.373   8.444  11.696  1.00  0.00     0.202 C 
ENDBRANCH   1  40
BRANCH  16  42
HETATM   42  C25 UNL     1       1.607  13.574  18.333  1.00  0.00    -0.010 C 
HETATM   43  C26 UNL     1       3.080  13.350  17.968  1.00  0.00     0.010 C 
BRANCH  42  44
HETATM   44  C27 UNL     1       1.289  12.945  19.718  1.00  0.00     0.031 C 
BRANCH  44  45
HETATM   45  C28 UNL     1       2.460  12.292  20.400  1.00  0.00    -0.027 C 
HETATM   46  C29 UNL     1       2.339  11.478  21.462  1.00  0.00     0.006 C 
BRANCH  46  47
HETATM   47  C30 UNL     1       3.442  10.740  22.194  1.00  0.00     0.070 C 
HETATM   48  C31 UNL     1       4.856  11.324  22.029  1.00  0.00     0.050 C 
HETATM   49  C32 UNL     1       3.091  10.759  23.690  1.00  0.00     0.050 C 
BRANCH  47  50
HETATM   50  O9  UNL     1       3.403   9.353  21.812  1.00  0.00    -0.382 OA
HETATM   51  C33 UNL     1       2.260   8.618  22.229  1.00  0.00     0.202 C 
ENDBRANCH  47  50
ENDBRANCH  46  47
ENDBRANCH  44  45
ENDBRANCH  42  44
ENDBRANCH  16  42
TORSDOF 14
ENDMDL
MODEL 5
REMARK minimizedAffinity -7.74678993
REMARK CNNscore 0.225186393
REMARK CNNaffinity 6.46437407
REMARK  14 active torsions:
REMARK  status: ('A' for Active; 'I' for Inactive)
REMARK    1  A    between atoms: O1_2  and  C2_3 
REMARK    2  A    between atoms: C8_9  and  O2_10 
REMARK    3  A    between atoms: O2_10  and  C9_11 
REMARK    4  A    between atoms: C10_13  and  C11_14 
REMARK    5  A    between atoms: C11_14  and  O4_15 
REMARK    6  A    between atoms: C12_16  and  O5_17 
REMARK    7  A    between atoms: C13_18  and  O6_19 
REMARK    8  A    between atoms: C14_20  and  O7_21 
REMARK    9  A    between atoms: C18_25  and  C19_26 
REMARK   10  A    between atoms: C24_32  and  C25_33 
REMARK   11  A    between atoms: C25_33  and  C27_35 
REMARK   12  A    between atoms: C27_35  and  C28_36 
REMARK   13  A    between atoms: C29_37  and  C30_38 
REMARK   14  A    between atoms: C30_38  and  O9_41 
ROOT
HETATM    1  C2  UNL     1      -1.589  12.698  15.160  1.00  0.00     0.149 C 
HETATM    2  C3  UNL     1      -1.746  11.443  14.367  1.00  0.00     0.009 C 
HETATM    3  C4  UNL     1      -1.489  10.227  14.876  1.00  0.00    -0.066 C 
HETATM    4  C5  UNL     1      -1.003  10.098  16.309  1.00  0.00     0.031 C 
HETATM    5  C6  UNL     1       0.519   9.836  16.222  1.00  0.00     0.013 C 
HETATM    6  C7  UNL     1       0.900   8.849  15.097  1.00  0.00     0.034 C 
HETATM    7  C8  UNL     1      -0.289   8.007  14.602  1.00  0.00     0.136 C 
HETATM    8  C15 UNL     1      -1.459   8.921  14.064  1.00  0.00     0.002 C 
HETATM    9  C16 UNL     1      -2.800   8.179  14.259  1.00  0.00     0.022 C 
HETATM   10  C17 UNL     1      -1.296   9.166  12.544  1.00  0.00     0.022 C 
HETATM   11  C18 UNL     1      -1.524  11.213  17.316  1.00  0.00     0.027 C 
HETATM   12  C20 UNL     1      -2.619  10.525  18.222  1.00  0.00     0.018 C 
HETATM   13  C21 UNL     1      -3.650  11.388  18.967  1.00  0.00     0.011 C 
HETATM   14  C22 UNL     1      -3.857  12.802  18.411  1.00  0.00    -0.032 C 
HETATM   15  C23 UNL     1      -2.941  13.762  19.241  1.00  0.00     0.016 C 
HETATM   16  C24 UNL     1      -5.320  13.364  18.449  1.00  0.00    -0.002 C 
HETATM   17  C34 UNL     1      -5.271  14.487  17.372  1.00  0.00     0.006 C 
HETATM   18  C35 UNL     1      -4.039  14.230  16.486  1.00  0.00     0.011 C 
HETATM   19  C36 UNL     1      -3.563  12.811  16.864  1.00  0.00    -0.029 C 
HETATM   20  C37 UNL     1      -4.434  11.836  16.012  1.00  0.00     0.016 C 
HETATM   21  C38 UNL     1      -2.045  12.547  16.626  1.00  0.00     0.043 C 
ENDROOT
BRANCH   7  22
HETATM   22  O2  UNL     1       0.153   7.112  13.573  1.00  0.00    -0.352 OA
BRANCH  22  23
HETATM   23  C9  UNL     1       0.753   7.745  12.440  1.00  0.00     0.292 C 
HETATM   24  O3  UNL     1       0.185   7.240  11.240  1.00  0.00    -0.348 OA
HETATM   25  C10 UNL     1       0.553   5.911  10.836  1.00  0.00     0.179 C 
HETATM   26  C12 UNL     1       1.950   5.465  11.283  1.00  0.00     0.180 C 
HETATM   27  C13 UNL     1       2.842   6.689  11.435  1.00  0.00     0.183 C 
HETATM   28  C14 UNL     1       2.291   7.577  12.546  1.00  0.00     0.204 C 
BRANCH  25  29
HETATM   29  C11 UNL     1      -0.538   4.901  11.235  1.00  0.00     0.198 C 
BRANCH  29  30
HETATM   30  O4  UNL     1      -0.034   3.580  11.392  1.00  0.00    -0.398 OA
HETATM   31  H16 UNL     1       0.759   3.643  11.960  1.00  0.00     0.209 HD
ENDBRANCH  29  30
ENDBRANCH  25  29
BRANCH  26  32
HETATM   32  O5  UNL     1       2.519   4.575  10.310  1.00  0.00    -0.390 OA
HETATM   33  H18 UNL     1       3.410   4.376  10.653  1.00  0.00     0.210 HD
ENDBRANCH  26  32
BRANCH  27  34
HETATM   34  O6  UNL     1       4.179   6.274  11.766  1.00  0.00    -0.390 OA
HETATM   35  H20 UNL     1       4.666   7.102  11.960  1.00  0.00     0.210 HD
ENDBRANCH  27  34
BRANCH  28  36
HETATM   36  O7  UNL     1       2.984   8.837  12.485  1.00  0.00    -0.388 OA
HETATM   37  H22 UNL     1       2.709   9.364  13.260  1.00  0.00     0.210 HD
ENDBRANCH  28  36
ENDBRANCH  22  23
ENDBRANCH   7  22
BRANCH  11  38
HETATM   38  C19 UNL     1      -0.342  11.624  18.207  1.00  0.00     0.241 C 
HETATM   39  O8  UNL     1      -0.210  11.301  19.384  1.00  0.00    -0.306 OA
ENDBRANCH  11  38
BRANCH   1  40
HETATM   40  O1  UNL     1      -0.193  13.035  15.194  1.00  0.00    -0.386 OA
HETATM   41  C1  UNL     1       0.055  14.356  15.667  1.00  0.00     0.202 C 
ENDBRANCH   1  40
BRANCH  16  42
HETATM   42  C25 UNL     1      -5.949  13.854  19.790  1.00  0.00    -0.010 C 
HETATM   43  C26 UNL     1      -5.445  13.041  20.990  1.00  0.00     0.010 C 
BRANCH  42  44
HETATM   44  C27 UNL     1      -7.499  13.788  19.704  1.00  0.00     0.031 C 
BRANCH  44  45
HETATM   45  C28 UNL     1      -8.210  13.824  21.029  1.00  0.00    -0.027 C 
HETATM   46  C29 UNL     1      -8.890  12.781  21.533  1.00  0.00     0.006 C 
BRANCH  46  47
HETATM   47  C30 UNL     1      -9.602  12.698  22.869  1.00  0.00     0.070 C 
HETATM   48  C31 UNL     1      -8.745  13.032  24.102  1.00  0.00     0.050 C 
HETATM   49  C32 UNL     1     -10.776  13.689  22.824  1.00  0.00     0.050 C 
BRANCH  47  50
HETATM   50  O9  UNL     1     -10.207  11.398  22.991  1.00  0.00    -0.382 OA
HETATM   51  C33 UNL     1     -11.618  11.374  23.160  1.00  0.00     0.202 C 
ENDBRANCH  47  50
ENDBRANCH  46  47
ENDBRANCH  44  45
ENDBRANCH  42  44
ENDBRANCH  16  42
TORSDOF 14
ENDMDL
MODEL 6
REMARK minimizedAffinity -7.56278086
REMARK CNNscore 0.225089043
REMARK CNNaffinity 6.51728249
REMARK  14 active torsions:
REMARK  status: ('A' for Active; 'I' for Inactive)
REMARK    1  A    between atoms: O1_2  and  C2_3 
REMARK    2  A    between atoms: C8_9  and  O2_10 
REMARK    3  A    between atoms: O2_10  and  C9_11 
REMARK    4  A    between atoms: C10_13  and  C11_14 
REMARK    5  A    between atoms: C11_14  and  O4_15 
REMARK    6  A    between atoms: C12_16  and  O5_17 
REMARK    7  A    between atoms: C13_18  and  O6_19 
REMARK    8  A    between atoms: C14_20  and  O7_21 
REMARK    9  A    between atoms: C18_25  and  C19_26 
REMARK   10  A    between atoms: C24_32  and  C25_33 
REMARK   11  A    between atoms: C25_33  and  C27_35 
REMARK   12  A    between atoms: C27_35  and  C28_36 
REMARK   13  A    between atoms: C29_37  and  C30_38 
REMARK   14  A    between atoms: C30_38  and  O9_41 
ROOT
HETATM    1  C2  UNL     1      -6.658 -13.190   4.446  1.00  0.00     0.149 C 
HETATM    2  C3  UNL     1      -7.342 -12.175   5.299  1.00  0.00     0.009 C 
HETATM    3  C4  UNL     1      -6.715 -11.087   5.776  1.00  0.00    -0.066 C 
HETATM    4  C5  UNL     1      -5.246 -10.866   5.462  1.00  0.00     0.031 C 
HETATM    5  C6  UNL     1      -4.471 -11.263   6.741  1.00  0.00     0.013 C 
HETATM    6  C7  UNL     1      -5.152 -10.772   8.037  1.00  0.00     0.034 C 
HETATM    7  C8  UNL     1      -6.174  -9.647   7.796  1.00  0.00     0.136 C 
HETATM    8  C15 UNL     1      -7.311 -10.106   6.800  1.00  0.00     0.002 C 
HETATM    9  C16 UNL     1      -7.846  -8.864   6.052  1.00  0.00     0.022 C 
HETATM   10  C17 UNL     1      -8.503 -10.708   7.582  1.00  0.00     0.022 C 
HETATM   11  C18 UNL     1      -4.747 -11.439   4.065  1.00  0.00     0.027 C 
HETATM   12  C20 UNL     1      -4.556 -10.196   3.111  1.00  0.00     0.018 C 
HETATM   13  C21 UNL     1      -4.542 -10.395   1.587  1.00  0.00     0.011 C 
HETATM   14  C22 UNL     1      -5.191 -11.689   1.080  1.00  0.00    -0.032 C 
HETATM   15  C23 UNL     1      -4.044 -12.739   0.898  1.00  0.00     0.016 C 
HETATM   16  C24 UNL     1      -5.990 -11.594  -0.265  1.00  0.00    -0.002 C 
HETATM   17  C34 UNL     1      -6.919 -12.841  -0.187  1.00  0.00     0.006 C 
HETATM   18  C35 UNL     1      -6.970 -13.292   1.284  1.00  0.00     0.011 C 
HETATM   19  C36 UNL     1      -6.322 -12.140   2.080  1.00  0.00    -0.029 C 
HETATM   20  C37 UNL     1      -7.462 -11.100   2.313  1.00  0.00     0.016 C 
HETATM   21  C38 UNL     1      -5.676 -12.564   3.433  1.00  0.00     0.043 C 
ENDROOT
BRANCH   7  22
HETATM   22  O2  UNL     1      -6.746  -9.243   9.047  1.00  0.00    -0.352 OA
BRANCH  22  23
HETATM   23  C9  UNL     1      -6.395 -10.064  10.164  1.00  0.00     0.292 C 
HETATM   24  O3  UNL     1      -7.515 -10.833  10.577  1.00  0.00    -0.348 OA
HETATM   25  C10 UNL     1      -8.576 -10.152  11.266  1.00  0.00     0.179 C 
HETATM   26  C12 UNL     1      -8.136  -8.924  12.073  1.00  0.00     0.180 C 
HETATM   27  C13 UNL     1      -6.687  -9.102  12.505  1.00  0.00     0.183 C 
HETATM   28  C14 UNL     1      -5.796  -9.153  11.268  1.00  0.00     0.204 C 
BRANCH  25  29
HETATM   29  C11 UNL     1      -9.732  -9.832  10.301  1.00  0.00     0.198 C 
BRANCH  29  30
HETATM   30  O4  UNL     1      -9.806  -8.451   9.969  1.00  0.00    -0.398 OA
HETATM   31  H16 UNL     1      -8.906  -8.170   9.711  1.00  0.00     0.209 HD
ENDBRANCH  29  30
ENDBRANCH  25  29
BRANCH  26  32
HETATM   32  O5  UNL     1      -8.967  -8.773  13.234  1.00  0.00    -0.390 OA
HETATM   33  H18 UNL     1      -8.596  -8.001  13.701  1.00  0.00     0.210 HD
ENDBRANCH  26  32
BRANCH  27  34
HETATM   34  O6  UNL     1      -6.294  -7.998  13.339  1.00  0.00    -0.390 OA
HETATM   35  H20 UNL     1      -5.331  -8.114  13.484  1.00  0.00     0.210 HD
ENDBRANCH  27  34
BRANCH  28  36
HETATM   36  O7  UNL     1      -4.489  -9.587  11.685  1.00  0.00    -0.388 OA
HETATM   37  H22 UNL     1      -3.893  -9.517  10.915  1.00  0.00     0.210 HD
ENDBRANCH  28  36
ENDBRANCH  22  23
ENDBRANCH   7  22
BRANCH  11  38
HETATM   38  C19 UNL     1      -3.376 -12.093   4.294  1.00  0.00     0.241 C 
HETATM   39  O8  UNL     1      -3.096 -13.251   3.997  1.00  0.00    -0.306 OA
ENDBRANCH  11  38
BRANCH   1  40
HETATM   40  O1  UNL     1      -5.880 -14.044   5.301  1.00  0.00    -0.386 OA
HETATM   41  C1  UNL     1      -5.824 -15.393   4.847  1.00  0.00     0.202 C 
ENDBRANCH   1  40
BRANCH  16  42
HETATM   42  C25 UNL     1      -5.239 -11.497  -1.630  1.00  0.00    -0.010 C 
HETATM   43  C26 UNL     1      -3.870 -12.188  -1.580  1.00  0.00     0.010 C 
BRANCH  42  44
HETATM   44  C27 UNL     1      -5.079 -10.007  -2.041  1.00  0.00     0.031 C 
BRANCH  44  45
HETATM   45  C28 UNL     1      -6.196  -9.460  -2.887  1.00  0.00    -0.027 C 
HETATM   46  C29 UNL     1      -7.286  -8.864  -2.379  1.00  0.00     0.006 C 
BRANCH  46  47
HETATM   47  C30 UNL     1      -8.443  -8.245  -3.139  1.00  0.00     0.070 C 
HETATM   48  C31 UNL     1      -9.811  -8.311  -2.440  1.00  0.00     0.050 C 
HETATM   49  C32 UNL     1      -8.098  -6.765  -3.370  1.00  0.00     0.050 C 
BRANCH  47  50
HETATM   50  O9  UNL     1      -8.499  -8.830  -4.453  1.00  0.00    -0.382 OA
HETATM   51  C33 UNL     1      -8.254  -7.953  -5.544  1.00  0.00     0.202 C 
ENDBRANCH  47  50
ENDBRANCH  46  47
ENDBRANCH  44  45
ENDBRANCH  42  44
ENDBRANCH  16  42
TORSDOF 14
ENDMDL
MODEL 7
REMARK minimizedAffinity -7.39421797
REMARK CNNscore 0.209249631
REMARK CNNaffinity 6.11045694
REMARK  14 active torsions:
REMARK  status: ('A' for Active; 'I' for Inactive)
REMARK    1  A    between atoms: O1_2  and  C2_3 
REMARK    2  A    between atoms: C8_9  and  O2_10 
REMARK    3  A    between atoms: O2_10  and  C9_11 
REMARK    4  A    between atoms: C10_13  and  C11_14 
REMARK    5  A    between atoms: C11_14  and  O4_15 
REMARK    6  A    between atoms: C12_16  and  O5_17 
REMARK    7  A    between atoms: C13_18  and  O6_19 
REMARK    8  A    between atoms: C14_20  and  O7_21 
REMARK    9  A    between atoms: C18_25  and  C19_26 
REMARK   10  A    between atoms: C24_32  and  C25_33 
REMARK   11  A    between atoms: C25_33  and  C27_35 
REMARK   12  A    between atoms: C27_35  and  C28_36 
REMARK   13  A    between atoms: C29_37  and  C30_38 
REMARK   14  A    between atoms: C30_38  and  O9_41 
ROOT
HETATM    1  C2  UNL     1       0.172  13.075  16.669  1.00  0.00     0.149 C 
HETATM    2  C3  UNL     1      -1.162  12.406  16.680  1.00  0.00     0.009 C 
HETATM    3  C4  UNL     1      -1.336  11.140  17.094  1.00  0.00    -0.066 C 
HETATM    4  C5  UNL     1      -0.140  10.330  17.561  1.00  0.00     0.031 C 
HETATM    5  C6  UNL     1       0.211   9.375  16.396  1.00  0.00     0.013 C 
HETATM    6  C7  UNL     1      -1.035   8.754  15.727  1.00  0.00     0.034 C 
HETATM    7  C8  UNL     1      -2.300   8.844  16.600  1.00  0.00     0.136 C 
HETATM    8  C15 UNL     1      -2.645  10.342  16.961  1.00  0.00     0.002 C 
HETATM    9  C16 UNL     1      -3.387  10.368  18.316  1.00  0.00     0.022 C 
HETATM   10  C17 UNL     1      -3.607  10.943  15.908  1.00  0.00     0.022 C 
HETATM   11  C18 UNL     1       1.033  11.163  18.238  1.00  0.00     0.027 C 
HETATM   12  C20 UNL     1       0.950  10.878  19.789  1.00  0.00     0.018 C 
HETATM   13  C21 UNL     1       1.603  11.853  20.783  1.00  0.00     0.011 C 
HETATM   14  C22 UNL     1       1.866  13.267  20.250  1.00  0.00    -0.032 C 
HETATM   15  C23 UNL     1       3.348  13.301  19.748  1.00  0.00     0.016 C 
HETATM   16  C24 UNL     1       1.661  14.448  21.261  1.00  0.00    -0.002 C 
HETATM   17  C34 UNL     1       1.466  15.666  20.311  1.00  0.00     0.006 C 
HETATM   18  C35 UNL     1       1.106  15.118  18.919  1.00  0.00     0.011 C 
HETATM   19  C36 UNL     1       0.803  13.621  19.142  1.00  0.00    -0.029 C 
HETATM   20  C37 UNL     1      -0.687  13.558  19.601  1.00  0.00     0.016 C 
HETATM   21  C38 UNL     1       1.037  12.715  17.895  1.00  0.00     0.043 C 
ENDROOT
BRANCH   7  22
HETATM   22  O2  UNL     1      -3.401   8.235  15.912  1.00  0.00    -0.352 OA
BRANCH  22  23
HETATM   23  C9  UNL     1      -3.202   8.039  14.510  1.00  0.00     0.292 C 
HETATM   24  O3  UNL     1      -4.262   8.638  13.778  1.00  0.00    -0.348 OA
HETATM   25  C10 UNL     1      -5.543   7.987  13.804  1.00  0.00     0.179 C 
HETATM   26  C12 UNL     1      -5.489   6.466  13.990  1.00  0.00     0.180 C 
HETATM   27  C13 UNL     1      -4.171   5.940  13.438  1.00  0.00     0.183 C 
HETATM   28  C14 UNL     1      -3.019   6.521  14.253  1.00  0.00     0.204 C 
BRANCH  25  29
HETATM   29  C11 UNL     1      -6.476   8.667  14.823  1.00  0.00     0.198 C 
BRANCH  29  30
HETATM   30  O4  UNL     1      -7.745   8.030  14.917  1.00  0.00    -0.398 OA
HETATM   31  H16 UNL     1      -7.576   7.073  15.021  1.00  0.00     0.209 HD
ENDBRANCH  29  30
ENDBRANCH  25  29
BRANCH  26  32
HETATM   32  O5  UNL     1      -6.581   5.845  13.295  1.00  0.00    -0.390 OA
HETATM   33  H18 UNL     1      -6.447   4.888  13.434  1.00  0.00     0.210 HD
ENDBRANCH  26  32
BRANCH  27  34
HETATM   34  O6  UNL     1      -4.150   4.505  13.526  1.00  0.00    -0.390 OA
HETATM   35  H20 UNL     1      -3.242   4.244  13.266  1.00  0.00     0.210 HD
ENDBRANCH  27  34
BRANCH  28  36
HETATM   36  O7  UNL     1      -1.796   6.229  13.552  1.00  0.00    -0.388 OA
HETATM   37  H22 UNL     1      -1.054   6.504  14.124  1.00  0.00     0.210 HD
ENDBRANCH  28  36
ENDBRANCH  22  23
ENDBRANCH   7  22
BRANCH  11  38
HETATM   38  C19 UNL     1       2.363  10.604  17.711  1.00  0.00     0.241 C 
HETATM   39  O8  UNL     1       2.674   9.416  17.718  1.00  0.00    -0.306 OA
ENDBRANCH  11  38
BRANCH   1  40
HETATM   40  O1  UNL     1       0.891  12.623  15.510  1.00  0.00    -0.386 OA
HETATM   41  C1  UNL     1       1.765  13.610  14.970  1.00  0.00     0.202 C 
ENDBRANCH   1  40
BRANCH  16  42
HETATM   42  C25 UNL     1       2.713  14.729  22.379  1.00  0.00    -0.010 C 
HETATM   43  C26 UNL     1       3.569  15.962  22.062  1.00  0.00     0.010 C 
BRANCH  42  44
HETATM   44  C27 UNL     1       3.616  13.480  22.582  1.00  0.00     0.031 C 
BRANCH  44  45
HETATM   45  C28 UNL     1       5.081  13.777  22.740  1.00  0.00    -0.027 C 
HETATM   46  C29 UNL     1       6.044  12.853  22.592  1.00  0.00     0.006 C 
BRANCH  46  47
HETATM   47  C30 UNL     1       7.544  13.054  22.687  1.00  0.00     0.070 C 
HETATM   48  C31 UNL     1       8.355  11.820  23.116  1.00  0.00     0.050 C 
HETATM   49  C32 UNL     1       8.036  13.487  21.297  1.00  0.00     0.050 C 
BRANCH  47  50
HETATM   50  O9  UNL     1       7.806  14.176  23.549  1.00  0.00    -0.382 OA
HETATM   51  C33 UNL     1       8.580  15.231  22.992  1.00  0.00     0.202 C 
ENDBRANCH  47  50
ENDBRANCH  46  47
ENDBRANCH  44  45
ENDBRANCH  42  44
ENDBRANCH  16  42
TORSDOF 14
ENDMDL
MODEL 8
REMARK minimizedAffinity -7.51614714
REMARK CNNscore 0.205292121
REMARK CNNaffinity 5.97229624
REMARK  14 active torsions:
REMARK  status: ('A' for Active; 'I' for Inactive)
REMARK    1  A    between atoms: O1_2  and  C2_3 
REMARK    2  A    between atoms: C8_9  and  O2_10 
REMARK    3  A    between atoms: O2_10  and  C9_11 
REMARK    4  A    between atoms: C10_13  and  C11_14 
REMARK    5  A    between atoms: C11_14  and  O4_15 
REMARK    6  A    between atoms: C12_16  and  O5_17 
REMARK    7  A    between atoms: C13_18  and  O6_19 
REMARK    8  A    between atoms: C14_20  and  O7_21 
REMARK    9  A    between atoms: C18_25  and  C19_26 
REMARK   10  A    between atoms: C24_32  and  C25_33 
REMARK   11  A    between atoms: C25_33  and  C27_35 
REMARK   12  A    between atoms: C27_35  and  C28_36 
REMARK   13  A    between atoms: C29_37  and  C30_38 
REMARK   14  A    between atoms: C30_38  and  O9_41 
ROOT
HETATM    1  C2  UNL     1       1.218  10.735  20.435  1.00  0.00     0.149 C 
HETATM    2  C3  UNL     1       1.867  11.952  21.007  1.00  0.00     0.009 C 
HETATM    3  C4  UNL     1       2.770  12.679  20.328  1.00  0.00    -0.066 C 
HETATM    4  C5  UNL     1       3.176  12.258  18.927  1.00  0.00     0.031 C 
HETATM    5  C6  UNL     1       4.561  11.583  19.067  1.00  0.00     0.013 C 
HETATM    6  C7  UNL     1       5.499  12.326  20.043  1.00  0.00     0.034 C 
HETATM    7  C8  UNL     1       5.060  13.775  20.322  1.00  0.00     0.136 C 
HETATM    8  C15 UNL     1       3.601  13.829  20.923  1.00  0.00     0.002 C 
HETATM    9  C16 UNL     1       2.951  15.174  20.529  1.00  0.00     0.022 C 
HETATM   10  C17 UNL     1       3.653  13.790  22.470  1.00  0.00     0.022 C 
HETATM   11  C18 UNL     1       2.054  11.517  18.079  1.00  0.00     0.027 C 
HETATM   12  C20 UNL     1       1.539  12.556  17.007  1.00  0.00     0.018 C 
HETATM   13  C21 UNL     1       0.165  12.356  16.345  1.00  0.00     0.011 C 
HETATM   14  C22 UNL     1      -0.813  11.451  17.104  1.00  0.00    -0.032 C 
HETATM   15  C23 UNL     1      -0.677  10.016  16.497  1.00  0.00     0.016 C 
HETATM   16  C24 UNL     1      -2.325  11.862  17.064  1.00  0.00    -0.002 C 
HETATM   17  C34 UNL     1      -2.901  11.123  18.306  1.00  0.00     0.006 C 
HETATM   18  C35 UNL     1      -1.718  10.748  19.216  1.00  0.00     0.011 C 
HETATM   19  C36 UNL     1      -0.513  11.527  18.649  1.00  0.00    -0.029 C 
HETATM   20  C37 UNL     1      -0.602  12.952  19.278  1.00  0.00     0.016 C 
HETATM   21  C38 UNL     1       0.876  10.881  18.938  1.00  0.00     0.043 C 
ENDROOT
BRANCH   7  22
HETATM   22  O2  UNL     1       5.990  14.392  21.222  1.00  0.00    -0.352 OA
BRANCH  22  23
HETATM   23  C9  UNL     1       7.046  13.542  21.675  1.00  0.00     0.292 C 
HETATM   24  O3  UNL     1       7.349  13.821  23.034  1.00  0.00    -0.348 OA
HETATM   25  C10 UNL     1       8.052  15.041  23.325  1.00  0.00     0.179 C 
HETATM   26  C12 UNL     1       8.975  15.536  22.204  1.00  0.00     0.180 C 
HETATM   27  C13 UNL     1       9.447  14.344  21.382  1.00  0.00     0.183 C 
HETATM   28  C14 UNL     1       8.245  13.696  20.702  1.00  0.00     0.204 C 
BRANCH  25  29
HETATM   29  C11 UNL     1       7.073  16.131  23.798  1.00  0.00     0.198 C 
BRANCH  29  30
HETATM   30  O4  UNL     1       5.740  15.652  23.936  1.00  0.00    -0.398 OA
HETATM   31  H16 UNL     1       5.787  14.824  24.454  1.00  0.00     0.209 HD
ENDBRANCH  29  30
ENDBRANCH  25  29
BRANCH  26  32
HETATM   32  O5  UNL     1      10.111  16.211  22.764  1.00  0.00    -0.390 OA
HETATM   33  H18 UNL     1      10.656  16.454  21.992  1.00  0.00     0.210 HD
ENDBRANCH  26  32
BRANCH  27  34
HETATM   34  O6  UNL     1      10.385  14.788  20.386  1.00  0.00    -0.390 OA
HETATM   35  H20 UNL     1      10.557  14.002  19.826  1.00  0.00     0.210 HD
ENDBRANCH  27  34
BRANCH  28  36
HETATM   36  O7  UNL     1       8.675  12.434  20.161  1.00  0.00    -0.388 OA
HETATM   37  H22 UNL     1       7.937  12.070  19.635  1.00  0.00     0.210 HD
ENDBRANCH  28  36
ENDBRANCH  22  23
ENDBRANCH   7  22
BRANCH  11  38
HETATM   38  C19 UNL     1       2.725  10.349  17.341  1.00  0.00     0.241 C 
HETATM   39  O8  UNL     1       2.352   9.180  17.398  1.00  0.00    -0.306 OA
ENDBRANCH  11  38
BRANCH   1  40
HETATM   40  O1  UNL     1       2.142   9.641  20.543  1.00  0.00    -0.386 OA
HETATM   41  C1  UNL     1       2.566   9.392  21.880  1.00  0.00     0.202 C 
ENDBRANCH   1  40
BRANCH  16  42
HETATM   42  C25 UNL     1      -3.180  11.623  15.780  1.00  0.00    -0.010 C 
HETATM   43  C26 UNL     1      -3.610  12.942  15.125  1.00  0.00     0.010 C 
BRANCH  42  44
HETATM   44  C27 UNL     1      -4.424  10.758  16.126  1.00  0.00     0.031 C 
BRANCH  44  45
HETATM   45  C28 UNL     1      -4.424   9.380  15.526  1.00  0.00    -0.027 C 
HETATM   46  C29 UNL     1      -5.539   8.743  15.131  1.00  0.00     0.006 C 
BRANCH  46  47
HETATM   47  C30 UNL     1      -5.645   7.379  14.480  1.00  0.00     0.070 C 
HETATM   48  C31 UNL     1      -4.796   7.178  13.213  1.00  0.00     0.050 C 
HETATM   49  C32 UNL     1      -5.200   6.339  15.520  1.00  0.00     0.050 C 
BRANCH  47  50
HETATM   50  O9  UNL     1      -7.033   7.093  14.228  1.00  0.00    -0.382 OA
HETATM   51  C33 UNL     1      -7.304   6.120  13.228  1.00  0.00     0.202 C 
ENDBRANCH  47  50
ENDBRANCH  46  47
ENDBRANCH  44  45
ENDBRANCH  42  44
ENDBRANCH  16  42
TORSDOF 14
ENDMDL
MODEL 9
REMARK minimizedAffinity -6.99651623
REMARK CNNscore 0.193585172
REMARK CNNaffinity 5.94227648
REMARK  14 active torsions:
REMARK  status: ('A' for Active; 'I' for Inactive)
REMARK    1  A    between atoms: O1_2  and  C2_3 
REMARK    2  A    between atoms: C8_9  and  O2_10 
REMARK    3  A    between atoms: O2_10  and  C9_11 
REMARK    4  A    between atoms: C10_13  and  C11_14 
REMARK    5  A    between atoms: C11_14  and  O4_15 
REMARK    6  A    between atoms: C12_16  and  O5_17 
REMARK    7  A    between atoms: C13_18  and  O6_19 
REMARK    8  A    between atoms: C14_20  and  O7_21 
REMARK    9  A    between atoms: C18_25  and  C19_26 
REMARK   10  A    between atoms: C24_32  and  C25_33 
REMARK   11  A    between atoms: C25_33  and  C27_35 
REMARK   12  A    between atoms: C27_35  and  C28_36 
REMARK   13  A    between atoms: C29_37  and  C30_38 
REMARK   14  A    between atoms: C30_38  and  O9_41 
ROOT
HETATM    1  C2  UNL     1       9.158  14.950  19.441  1.00  0.00     0.149 C 
HETATM    2  C3  UNL     1       9.050  14.268  18.119  1.00  0.00     0.009 C 
HETATM    3  C4  UNL     1       8.894  12.939  17.998  1.00  0.00    -0.066 C 
HETATM    4  C5  UNL     1       8.837  12.072  19.244  1.00  0.00     0.031 C 
HETATM    5  C6  UNL     1      10.224  11.398  19.359  1.00  0.00     0.013 C 
HETATM    6  C7  UNL     1      10.774  10.910  18.002  1.00  0.00     0.034 C 
HETATM    7  C8  UNL     1       9.688  10.783  16.918  1.00  0.00     0.136 C 
HETATM    8  C15 UNL     1       8.957  12.161  16.673  1.00  0.00     0.002 C 
HETATM    9  C16 UNL     1       7.517  11.879  16.189  1.00  0.00     0.022 C 
HETATM   10  C17 UNL     1       9.663  12.955  15.547  1.00  0.00     0.022 C 
HETATM   11  C18 UNL     1       8.220  12.764  20.536  1.00  0.00     0.027 C 
HETATM   12  C20 UNL     1       6.778  12.151  20.730  1.00  0.00     0.018 C 
HETATM   13  C21 UNL     1       5.733  12.902  21.571  1.00  0.00     0.011 C 
HETATM   14  C22 UNL     1       5.987  14.403  21.760  1.00  0.00    -0.032 C 
HETATM   15  C23 UNL     1       6.730  14.575  23.126  1.00  0.00     0.016 C 
HETATM   16  C24 UNL     1       4.726  15.333  21.764  1.00  0.00    -0.002 C 
HETATM   17  C34 UNL     1       5.339  16.723  21.423  1.00  0.00     0.006 C 
HETATM   18  C35 UNL     1       6.728  16.480  20.806  1.00  0.00     0.011 C 
HETATM   19  C36 UNL     1       6.782  14.964  20.521  1.00  0.00    -0.029 C 
HETATM   20  C37 UNL     1       6.085  14.774  19.138  1.00  0.00     0.016 C 
HETATM   21  C38 UNL     1       8.216  14.353  20.507  1.00  0.00     0.043 C 
ENDROOT
BRANCH   7  22
HETATM   22  O2  UNL     1      10.280  10.314  15.699  1.00  0.00    -0.352 OA
BRANCH  22  23
HETATM   23  C9  UNL     1      10.025   8.941  15.395  1.00  0.00     0.292 C 
HETATM   24  O3  UNL     1       9.891   8.768  13.991  1.00  0.00    -0.348 OA
HETATM   25  C10 UNL     1       8.688   9.248  13.371  1.00  0.00     0.179 C 
HETATM   26  C12 UNL     1       7.449   9.243  14.276  1.00  0.00     0.180 C 
HETATM   27  C13 UNL     1       7.603   8.152  15.327  1.00  0.00     0.183 C 
HETATM   28  C14 UNL     1       8.795   8.480  16.220  1.00  0.00     0.204 C 
BRANCH  25  29
HETATM   29  C11 UNL     1       8.926  10.621  12.715  1.00  0.00     0.198 C 
BRANCH  29  30
HETATM   30  O4  UNL     1      10.205  10.723  12.101  1.00  0.00    -0.398 OA
HETATM   31  H16 UNL     1      10.319   9.927  11.546  1.00  0.00     0.209 HD
ENDBRANCH  29  30
ENDBRANCH  25  29
BRANCH  26  32
HETATM   32  O5  UNL     1       6.270   8.994  13.496  1.00  0.00    -0.390 OA
HETATM   33  H18 UNL     1       5.546   8.970  14.150  1.00  0.00     0.210 HD
ENDBRANCH  26  32
BRANCH  27  34
HETATM   34  O6  UNL     1       6.407   8.079  16.123  1.00  0.00    -0.390 OA
HETATM   35  H20 UNL     1       6.615   7.447  16.843  1.00  0.00     0.210 HD
ENDBRANCH  27  34
BRANCH  28  36
HETATM   36  O7  UNL     1       9.078   7.317  17.019  1.00  0.00    -0.388 OA
HETATM   37  H22 UNL     1       9.768   7.561  17.664  1.00  0.00     0.210 HD
ENDBRANCH  28  36
ENDBRANCH  22  23
ENDBRANCH   7  22
BRANCH  11  38
HETATM   38  C19 UNL     1       9.087  12.359  21.738  1.00  0.00     0.241 C 
HETATM   39  O8  UNL     1       8.768  11.526  22.581  1.00  0.00    -0.306 OA
ENDBRANCH  11  38
BRANCH   1  40
HETATM   40  O1  UNL     1      10.498  14.774  19.930  1.00  0.00    -0.386 OA
HETATM   41  C1  UNL     1      11.492  15.255  19.030  1.00  0.00     0.202 C 
ENDBRANCH   1  40
BRANCH  16  42
HETATM   42  C25 UNL     1       3.783  15.389  23.006  1.00  0.00    -0.010 C 
HETATM   43  C26 UNL     1       4.521  15.867  24.264  1.00  0.00     0.010 C 
BRANCH  42  44
HETATM   44  C27 UNL     1       3.146  13.993  23.250  1.00  0.00     0.031 C 
BRANCH  44  45
HETATM   45  C28 UNL     1       2.536  13.353  22.033  1.00  0.00    -0.027 C 
HETATM   46  C29 UNL     1       2.467  12.025  21.850  1.00  0.00     0.006 C 
BRANCH  46  47
HETATM   47  C30 UNL     1       1.840  11.281  20.688  1.00  0.00     0.070 C 
HETATM   48  C31 UNL     1       0.566  11.914  20.102  1.00  0.00     0.050 C 
HETATM   49  C32 UNL     1       2.892  11.208  19.570  1.00  0.00     0.050 C 
BRANCH  47  50
HETATM   50  O9  UNL     1       1.610   9.916  21.082  1.00  0.00    -0.382 OA
HETATM   51  C33 UNL     1       2.633   9.304  21.857  1.00  0.00     0.202 C 
ENDBRANCH  47  50
ENDBRANCH  46  47
ENDBRANCH  44  45
ENDBRANCH  42  44
ENDBRANCH  16  42
TORSDOF 14
ENDMDL
