MODEL 1
REMARK minimizedAffinity -7.56523514
REMARK CNNscore 0.719055474
REMARK CNNaffinity 6.75124741
REMARK  7 active torsions:
REMARK  status: ('A' for Active; 'I' for Inactive)
REMARK    1  A    between atoms: C2_2  and  C30_33 
REMARK    2  A    between atoms: C3_3  and  C4_4 
REMARK    3  A    between atoms: C4_4  and  C5_5 
REMARK    4  A    between atoms: C5_5  and  C6_6 
REMARK    5  A    between atoms: C6_6  and  C8_8 
REMARK    6  A    between atoms: C15_15  and  O1_16 
REMARK    7  A    between atoms: C30_33  and  O5_35 
ROOT
HETATM    1  C8  UNL     1       0.760  12.273  19.260  1.00  0.00    -0.002 C 
HETATM    2  C9  UNL     1      -0.368  13.297  19.519  1.00  0.00     0.007 C 
HETATM    3  C10 UNL     1      -1.559  12.875  18.625  1.00  0.00     0.015 C 
HETATM    4  C11 UNL     1      -1.236  11.435  18.169  1.00  0.00    -0.005 C 
HETATM    5  C12 UNL     1      -1.673  10.486  19.332  1.00  0.00     0.021 C 
HETATM    6  C13 UNL     1      -1.878  10.812  16.936  1.00  0.00     0.002 C 
HETATM    7  C14 UNL     1      -1.224   9.873  16.190  1.00  0.00    -0.032 C 
HETATM    8  C15 UNL     1       0.216   9.467  16.522  1.00  0.00     0.149 C 
HETATM    9  C16 UNL     1       0.901  10.176  17.715  1.00  0.00     0.047 C 
HETATM   10  C17 UNL     1       0.319  11.577  17.940  1.00  0.00    -0.026 C 
HETATM   11  C18 UNL     1       0.650  12.465  16.704  1.00  0.00     0.016 C 
HETATM   12  C19 UNL     1      -1.904   9.228  14.948  1.00  0.00    -0.012 C 
HETATM   13  C20 UNL     1      -1.663  10.220  13.777  1.00  0.00     0.021 C 
HETATM   14  C21 UNL     1      -1.349   7.841  14.495  1.00  0.00     0.021 C 
HETATM   15  C22 UNL     1      -2.107   6.659  15.079  1.00  0.00     0.080 C 
HETATM   16  C23 UNL     1      -3.530   6.678  14.561  1.00  0.00     0.135 C 
HETATM   17  O2  UNL     1      -4.082   5.632  14.219  1.00  0.00    -0.297 OA
HETATM   18  C24 UNL     1      -4.246   8.041  14.499  1.00  0.00     0.018 C 
HETATM   19  C25 UNL     1      -4.423   8.421  13.025  1.00  0.00     0.023 C 
HETATM   20  C26 UNL     1      -5.648   7.845  15.118  1.00  0.00     0.023 C 
HETATM   21  C27 UNL     1      -3.416   9.060  15.344  1.00  0.00     0.020 C 
HETATM   22  C28 UNL     1      -4.056  10.432  15.549  1.00  0.00     0.090 C 
HETATM   23  C29 UNL     1      -3.285  11.223  16.587  1.00  0.00     0.157 C 
HETATM   24  O3  UNL     1      -3.820  12.186  17.132  1.00  0.00    -0.293 OA
ENDROOT
BRANCH   1  25
HETATM   25  C6  UNL     1       2.228  12.725  19.496  1.00  0.00    -0.014 C 
HETATM   26  C7  UNL     1       2.448  14.111  18.864  1.00  0.00     0.010 C 
BRANCH  25  27
HETATM   27  C5  UNL     1       3.425  11.788  19.204  1.00  0.00     0.008 C 
BRANCH  27  28
HETATM   28  C4  UNL     1       4.226  11.137  20.337  1.00  0.00     0.028 C 
BRANCH  28  29
HETATM   29  C3  UNL     1       3.530  10.019  21.057  1.00  0.00    -0.013 C 
HETATM   30  C2  UNL     1       3.089  10.024  22.331  1.00  0.00     0.008 C 
HETATM   31  C1  UNL     1       3.252  11.150  23.307  1.00  0.00     0.055 C 
BRANCH  30  32
HETATM   32  C30 UNL     1       2.406   8.792  22.802  1.00  0.00     0.171 C 
HETATM   33  O4  UNL     1       1.919   7.916  22.109  1.00  0.00    -0.646 OA
BRANCH  32  34
HETATM   34  O5  UNL     1       2.358   8.715  24.142  1.00  0.00    -0.773 OA
HETATM   35  H44 UNL     1       1.882   7.874  24.303  1.00  0.00     0.167 HD
ENDBRANCH  32  34
ENDBRANCH  30  32
ENDBRANCH  28  29
ENDBRANCH  27  28
ENDBRANCH  25  27
ENDBRANCH   1  25
BRANCH   8  36
HETATM   36  O1  UNL     1       1.007   9.708  15.360  1.00  0.00    -0.391 OA
HETATM   37  H22 UNL     1       1.900   9.367  15.534  1.00  0.00     0.210 HD
ENDBRANCH   8  36
TORSDOF 7
ENDMDL
MODEL 2
REMARK minimizedAffinity -8.35192871
REMARK CNNscore 0.637418807
REMARK CNNaffinity 6.81716681
REMARK  7 active torsions:
REMARK  status: ('A' for Active; 'I' for Inactive)
REMARK    1  A    between atoms: C2_2  and  C30_33 
REMARK    2  A    between atoms: C3_3  and  C4_4 
REMARK    3  A    between atoms: C4_4  and  C5_5 
REMARK    4  A    between atoms: C5_5  and  C6_6 
REMARK    5  A    between atoms: C6_6  and  C8_8 
REMARK    6  A    between atoms: C15_15  and  O1_16 
REMARK    7  A    between atoms: C30_33  and  O5_35 
ROOT
HETATM    1  C8  UNL     1       0.878  10.480  16.950  1.00  0.00    -0.002 C 
HETATM    2  C9  UNL     1       2.380  10.365  17.294  1.00  0.00     0.007 C 
HETATM    3  C10 UNL     1       3.055   9.664  16.089  1.00  0.00     0.015 C 
HETATM    4  C11 UNL     1       2.019   9.733  14.945  1.00  0.00    -0.005 C 
HETATM    5  C12 UNL     1       2.158  11.149  14.298  1.00  0.00     0.021 C 
HETATM    6  C13 UNL     1       2.064   8.786  13.753  1.00  0.00     0.002 C 
HETATM    7  C14 UNL     1       0.926   8.412  13.098  1.00  0.00    -0.032 C 
HETATM    8  C15 UNL     1      -0.452   8.872  13.587  1.00  0.00     0.149 C 
HETATM    9  C16 UNL     1      -0.501   9.751  14.859  1.00  0.00     0.047 C 
HETATM   10  C17 UNL     1       0.700   9.478  15.774  1.00  0.00    -0.026 C 
HETATM   11  C18 UNL     1       0.611   8.013  16.297  1.00  0.00     0.016 C 
HETATM   12  C19 UNL     1       0.992   7.464  11.865  1.00  0.00    -0.012 C 
HETATM   13  C20 UNL     1       1.041   6.024  12.447  1.00  0.00     0.021 C 
HETATM   14  C21 UNL     1      -0.220   7.519  10.882  1.00  0.00     0.021 C 
HETATM   15  C22 UNL     1      -0.014   8.470   9.713  1.00  0.00     0.080 C 
HETATM   16  C23 UNL     1       1.134   7.969   8.862  1.00  0.00     0.135 C 
HETATM   17  O2  UNL     1       1.060   8.005   7.633  1.00  0.00    -0.297 OA
HETATM   18  C24 UNL     1       2.381   7.438   9.593  1.00  0.00     0.018 C 
HETATM   19  C25 UNL     1       2.453   5.922   9.379  1.00  0.00     0.023 C 
HETATM   20  C26 UNL     1       3.613   8.079   8.913  1.00  0.00     0.023 C 
HETATM   21  C27 UNL     1       2.291   7.886  11.087  1.00  0.00     0.020 C 
HETATM   22  C28 UNL     1       3.525   7.602  11.943  1.00  0.00     0.090 C 
HETATM   23  C29 UNL     1       3.413   8.309  13.279  1.00  0.00     0.157 C 
HETATM   24  O3  UNL     1       4.424   8.487  13.955  1.00  0.00    -0.293 OA
ENDROOT
BRANCH   1  25
HETATM   25  C6  UNL     1      -0.138  10.554  18.123  1.00  0.00    -0.014 C 
HETATM   26  C7  UNL     1      -1.387  11.335  17.674  1.00  0.00     0.010 C 
BRANCH  25  27
HETATM   27  C5  UNL     1       0.293  10.973  19.549  1.00  0.00     0.008 C 
BRANCH  27  28
HETATM   28  C4  UNL     1       1.754  10.884  20.002  1.00  0.00     0.028 C 
BRANCH  28  29
HETATM   29  C3  UNL     1       1.996  10.068  21.239  1.00  0.00    -0.013 C 
HETATM   30  C2  UNL     1       2.787  10.390  22.281  1.00  0.00     0.008 C 
HETATM   31  C1  UNL     1       3.631  11.625  22.389  1.00  0.00     0.055 C 
BRANCH  30  32
HETATM   32  C30 UNL     1       2.837   9.418  23.402  1.00  0.00     0.171 C 
HETATM   33  O4  UNL     1       2.796   9.673  24.593  1.00  0.00    -0.646 OA
BRANCH  32  34
HETATM   34  O5  UNL     1       2.943   8.149  22.974  1.00  0.00    -0.773 OA
HETATM   35  H44 UNL     1       2.972   7.632  23.806  1.00  0.00     0.167 HD
ENDBRANCH  32  34
ENDBRANCH  30  32
ENDBRANCH  28  29
ENDBRANCH  27  28
ENDBRANCH  25  27
ENDBRANCH   1  25
BRANCH   8  36
HETATM   36  O1  UNL     1      -1.229   7.701  13.837  1.00  0.00    -0.391 OA
HETATM   37  H22 UNL     1      -2.130   7.988  14.058  1.00  0.00     0.210 HD
ENDBRANCH   8  36
TORSDOF 7
ENDMDL
MODEL 3
REMARK minimizedAffinity -8.15668011
REMARK CNNscore 0.622945607
REMARK CNNaffinity 6.75403357
REMARK  7 active torsions:
REMARK  status: ('A' for Active; 'I' for Inactive)
REMARK    1  A    between atoms: C2_2  and  C30_33 
REMARK    2  A    between atoms: C3_3  and  C4_4 
REMARK    3  A    between atoms: C4_4  and  C5_5 
REMARK    4  A    between atoms: C5_5  and  C6_6 
REMARK    5  A    between atoms: C6_6  and  C8_8 
REMARK    6  A    between atoms: C15_15  and  O1_16 
REMARK    7  A    between atoms: C30_33  and  O5_35 
ROOT
HETATM    1  C8  UNL     1      -4.012   7.335  14.998  1.00  0.00    -0.002 C 
HETATM    2  C9  UNL     1      -4.643   6.076  14.363  1.00  0.00     0.007 C 
HETATM    3  C10 UNL     1      -3.668   5.606  13.256  1.00  0.00     0.015 C 
HETATM    4  C11 UNL     1      -2.348   6.362  13.529  1.00  0.00    -0.005 C 
HETATM    5  C12 UNL     1      -1.594   5.564  14.640  1.00  0.00     0.021 C 
HETATM    6  C13 UNL     1      -1.292   6.563  12.449  1.00  0.00     0.002 C 
HETATM    7  C14 UNL     1      -0.477   7.658  12.446  1.00  0.00    -0.032 C 
HETATM    8  C15 UNL     1      -0.647   8.770  13.488  1.00  0.00     0.149 C 
HETATM    9  C16 UNL     1      -1.787   8.611  14.521  1.00  0.00     0.047 C 
HETATM   10  C17 UNL     1      -2.936   7.762  13.960  1.00  0.00    -0.026 C 
HETATM   11  C18 UNL     1      -3.583   8.520  12.763  1.00  0.00     0.016 C 
HETATM   12  C19 UNL     1       0.615   7.835  11.350  1.00  0.00    -0.012 C 
HETATM   13  C20 UNL     1      -0.114   8.466  10.132  1.00  0.00     0.021 C 
HETATM   14  C21 UNL     1       1.809   8.776  11.706  1.00  0.00     0.021 C 
HETATM   15  C22 UNL     1       3.012   8.044  12.282  1.00  0.00     0.080 C 
HETATM   16  C23 UNL     1       3.573   7.110  11.231  1.00  0.00     0.135 C 
HETATM   17  O2  UNL     1       4.791   7.003  11.080  1.00  0.00    -0.297 OA
HETATM   18  C24 UNL     1       2.569   6.303  10.387  1.00  0.00     0.018 C 
HETATM   19  C25 UNL     1       2.605   6.843   8.954  1.00  0.00     0.023 C 
HETATM   20  C26 UNL     1       3.068   4.841  10.364  1.00  0.00     0.023 C 
HETATM   21  C27 UNL     1       1.173   6.390  11.086  1.00  0.00     0.020 C 
HETATM   22  C28 UNL     1       0.075   5.508  10.493  1.00  0.00     0.090 C 
HETATM   23  C29 UNL     1      -1.133   5.486  11.406  1.00  0.00     0.157 C 
HETATM   24  O3  UNL     1      -1.965   4.590  11.286  1.00  0.00    -0.293 OA
ENDROOT
BRANCH   1  25
HETATM   25  C6  UNL     1      -4.958   8.371  15.668  1.00  0.00    -0.014 C 
HETATM   26  C7  UNL     1      -6.324   8.354  14.958  1.00  0.00     0.010 C 
BRANCH  25  27
HETATM   27  C5  UNL     1      -4.504   9.820  15.959  1.00  0.00     0.008 C 
BRANCH  27  28
HETATM   28  C4  UNL     1      -3.559  10.145  17.121  1.00  0.00     0.028 C 
BRANCH  28  29
HETATM   29  C3  UNL     1      -3.528  11.585  17.542  1.00  0.00    -0.013 C 
HETATM   30  C2  UNL     1      -2.583  12.193  18.287  1.00  0.00     0.008 C 
HETATM   31  C1  UNL     1      -1.382  11.527  18.888  1.00  0.00     0.055 C 
BRANCH  30  32
HETATM   32  C30 UNL     1      -2.773  13.643  18.546  1.00  0.00     0.171 C 
HETATM   33  O4  UNL     1      -2.971  14.173  19.625  1.00  0.00    -0.646 OA
BRANCH  32  34
HETATM   34  O5  UNL     1      -2.709  14.376  17.423  1.00  0.00    -0.773 OA
HETATM   35  H44 UNL     1      -2.856  15.291  17.741  1.00  0.00     0.167 HD
ENDBRANCH  32  34
ENDBRANCH  30  32
ENDBRANCH  28  29
ENDBRANCH  27  28
ENDBRANCH  25  27
ENDBRANCH   1  25
BRANCH   8  36
HETATM   36  O1  UNL     1      -0.867   9.988  12.780  1.00  0.00    -0.391 OA
HETATM   37  H22 UNL     1      -0.884  10.709  13.431  1.00  0.00     0.210 HD
ENDBRANCH   8  36
TORSDOF 7
ENDMDL
MODEL 4
REMARK minimizedAffinity -7.03838205
REMARK CNNscore 0.603509963
REMARK CNNaffinity 6.50218916
REMARK  7 active torsions:
REMARK  status: ('A' for Active; 'I' for Inactive)
REMARK    1  A    between atoms: C2_2  and  C30_33 
REMARK    2  A    between atoms: C3_3  and  C4_4 
REMARK    3  A    between atoms: C4_4  and  C5_5 
REMARK    4  A    between atoms: C5_5  and  C6_6 
REMARK    5  A    between atoms: C6_6  and  C8_8 
REMARK    6  A    between atoms: C15_15  and  O1_16 
REMARK    7  A    between atoms: C30_33  and  O5_35 
ROOT
HETATM    1  C8  UNL     1       7.059  10.829  15.502  1.00  0.00    -0.002 C 
HETATM    2  C9  UNL     1       8.219  11.200  14.552  1.00  0.00     0.007 C 
HETATM    3  C10 UNL     1       7.831  10.662  13.152  1.00  0.00     0.015 C 
HETATM    4  C11 UNL     1       6.323  10.338  13.245  1.00  0.00    -0.005 C 
HETATM    5  C12 UNL     1       5.560  11.684  13.025  1.00  0.00     0.021 C 
HETATM    6  C13 UNL     1       5.641   9.375  12.282  1.00  0.00     0.002 C 
HETATM    7  C14 UNL     1       4.562   8.630  12.665  1.00  0.00    -0.032 C 
HETATM    8  C15 UNL     1       4.043   8.678  14.107  1.00  0.00     0.149 C 
HETATM    9  C16 UNL     1       4.802   9.581  15.108  1.00  0.00     0.047 C 
HETATM   10  C17 UNL     1       6.274   9.747  14.707  1.00  0.00    -0.026 C 
HETATM   11  C18 UNL     1       6.981   8.361  14.803  1.00  0.00     0.016 C 
HETATM   12  C19 UNL     1       3.861   7.670  11.660  1.00  0.00    -0.012 C 
HETATM   13  C20 UNL     1       4.687   6.355  11.693  1.00  0.00     0.021 C 
HETATM   14  C21 UNL     1       2.381   7.289  11.983  1.00  0.00     0.021 C 
HETATM   15  C22 UNL     1       1.358   8.180  11.295  1.00  0.00     0.080 C 
HETATM   16  C23 UNL     1       1.471   8.000   9.796  1.00  0.00     0.135 C 
HETATM   17  O2  UNL     1       0.458   7.932   9.099  1.00  0.00    -0.297 OA
HETATM   18  C24 UNL     1       2.887   7.923   9.194  1.00  0.00     0.018 C 
HETATM   19  C25 UNL     1       3.121   6.491   8.702  1.00  0.00     0.023 C 
HETATM   20  C26 UNL     1       2.911   8.863   7.968  1.00  0.00     0.023 C 
HETATM   21  C27 UNL     1       3.899   8.417  10.278  1.00  0.00     0.020 C 
HETATM   22  C28 UNL     1       5.346   8.580   9.814  1.00  0.00     0.090 C 
HETATM   23  C29 UNL     1       6.158   9.303  10.868  1.00  0.00     0.157 C 
HETATM   24  O3  UNL     1       7.227   9.824  10.555  1.00  0.00    -0.293 OA
ENDROOT
BRANCH   1  25
HETATM   25  C6  UNL     1       7.375  10.665  17.015  1.00  0.00    -0.014 C 
HETATM   26  C7  UNL     1       6.329  11.431  17.845  1.00  0.00     0.010 C 
BRANCH  25  27
HETATM   27  C5  UNL     1       8.799  10.886  17.578  1.00  0.00     0.008 C 
BRANCH  27  28
HETATM   28  C4  UNL     1       9.264  12.265  18.057  1.00  0.00     0.028 C 
BRANCH  28  29
HETATM   29  C3  UNL     1       9.116  12.519  19.529  1.00  0.00    -0.013 C 
HETATM   30  C2  UNL     1      10.048  12.326  20.484  1.00  0.00     0.008 C 
HETATM   31  C1  UNL     1      11.421  11.767  20.264  1.00  0.00     0.055 C 
BRANCH  30  32
HETATM   32  C30 UNL     1       9.659  12.679  21.873  1.00  0.00     0.171 C 
HETATM   33  O4  UNL     1       9.327  11.910  22.757  1.00  0.00    -0.646 OA
BRANCH  32  34
HETATM   34  O5  UNL     1       9.699  14.004  22.094  1.00  0.00    -0.773 OA
HETATM   35  H44 UNL     1       9.416  14.085  23.028  1.00  0.00     0.167 HD
ENDBRANCH  32  34
ENDBRANCH  30  32
ENDBRANCH  28  29
ENDBRANCH  27  28
ENDBRANCH  25  27
ENDBRANCH   1  25
BRANCH   8  36
HETATM   36  O1  UNL     1       4.071   7.345  14.614  1.00  0.00    -0.391 OA
HETATM   37  H22 UNL     1       3.658   7.356  15.494  1.00  0.00     0.210 HD
ENDBRANCH   8  36
TORSDOF 7
ENDMDL
MODEL 5
REMARK minimizedAffinity -8.14861584
REMARK CNNscore 0.599851489
REMARK CNNaffinity 6.67243433
REMARK  7 active torsions:
REMARK  status: ('A' for Active; 'I' for Inactive)
REMARK    1  A    between atoms: C2_2  and  C30_33 
REMARK    2  A    between atoms: C3_3  and  C4_4 
REMARK    3  A    between atoms: C4_4  and  C5_5 
REMARK    4  A    between atoms: C5_5  and  C6_6 
REMARK    5  A    between atoms: C6_6  and  C8_8 
REMARK    6  A    between atoms: C15_15  and  O1_16 
REMARK    7  A    between atoms: C30_33  and  O5_35 
ROOT
HETATM    1  C8  UNL     1      -3.999   7.184  15.031  1.00  0.00    -0.002 C 
HETATM    2  C9  UNL     1      -4.595   5.918  14.375  1.00  0.00     0.007 C 
HETATM    3  C10 UNL     1      -3.613   5.500  13.253  1.00  0.00     0.015 C 
HETATM    4  C11 UNL     1      -2.316   6.292  13.533  1.00  0.00    -0.005 C 
HETATM    5  C12 UNL     1      -1.530   5.496  14.623  1.00  0.00     0.021 C 
HETATM    6  C13 UNL     1      -1.273   6.546  12.451  1.00  0.00     0.002 C 
HETATM    7  C14 UNL     1      -0.493   7.667  12.464  1.00  0.00    -0.032 C 
HETATM    8  C15 UNL     1      -0.690   8.752  13.529  1.00  0.00     0.149 C 
HETATM    9  C16 UNL     1      -1.818   8.537  14.566  1.00  0.00     0.047 C 
HETATM   10  C17 UNL     1      -2.943   7.664  13.995  1.00  0.00    -0.026 C 
HETATM   11  C18 UNL     1      -3.622   8.424  12.817  1.00  0.00     0.016 C 
HETATM   12  C19 UNL     1       0.586   7.899  11.366  1.00  0.00    -0.012 C 
HETATM   13  C20 UNL     1      -0.171   8.530  10.165  1.00  0.00     0.021 C 
HETATM   14  C21 UNL     1       1.752   8.869  11.733  1.00  0.00     0.021 C 
HETATM   15  C22 UNL     1       2.981   8.164  12.287  1.00  0.00     0.080 C 
HETATM   16  C23 UNL     1       3.564   7.269  11.215  1.00  0.00     0.135 C 
HETATM   17  O2  UNL     1       4.784   7.203  11.054  1.00  0.00    -0.297 OA
HETATM   18  C24 UNL     1       2.580   6.447  10.361  1.00  0.00     0.018 C 
HETATM   19  C25 UNL     1       2.590   7.016   8.938  1.00  0.00     0.023 C 
HETATM   20  C26 UNL     1       3.124   5.002  10.306  1.00  0.00     0.023 C 
HETATM   21  C27 UNL     1       1.187   6.477  11.070  1.00  0.00     0.020 C 
HETATM   22  C28 UNL     1       0.113   5.573  10.466  1.00  0.00     0.090 C 
HETATM   23  C29 UNL     1      -1.088   5.496  11.386  1.00  0.00     0.157 C 
HETATM   24  O3  UNL     1      -1.893   4.576  11.253  1.00  0.00    -0.293 OA
ENDROOT
BRANCH   1  25
HETATM   25  C6  UNL     1      -4.973   8.176  15.727  1.00  0.00    -0.014 C 
HETATM   26  C7  UNL     1      -6.420   7.680  15.557  1.00  0.00     0.010 C 
BRANCH  25  27
HETATM   27  C5  UNL     1      -4.880   9.703  15.498  1.00  0.00     0.008 C 
BRANCH  27  28
HETATM   28  C4  UNL     1      -4.004  10.594  16.386  1.00  0.00     0.028 C 
BRANCH  28  29
HETATM   29  C3  UNL     1      -3.171  11.607  15.657  1.00  0.00    -0.013 C 
HETATM   30  C2  UNL     1      -3.489  12.894  15.413  1.00  0.00     0.008 C 
HETATM   31  C1  UNL     1      -4.778  13.563  15.787  1.00  0.00     0.055 C 
BRANCH  30  32
HETATM   32  C30 UNL     1      -2.475  13.703  14.689  1.00  0.00     0.171 C 
HETATM   33  O4  UNL     1      -1.797  13.347  13.742  1.00  0.00    -0.646 OA
BRANCH  32  34
HETATM   34  O5  UNL     1      -2.351  14.941  15.196  1.00  0.00    -0.773 OA
HETATM   35  H44 UNL     1      -1.657  15.346  14.635  1.00  0.00     0.167 HD
ENDBRANCH  32  34
ENDBRANCH  30  32
ENDBRANCH  28  29
ENDBRANCH  27  28
ENDBRANCH  25  27
ENDBRANCH   1  25
BRANCH   8  36
HETATM   36  O1  UNL     1      -0.953   9.976  12.846  1.00  0.00    -0.391 OA
HETATM   37  H22 UNL     1      -0.987  10.683  13.512  1.00  0.00     0.210 HD
ENDBRANCH   8  36
TORSDOF 7
ENDMDL
MODEL 6
REMARK minimizedAffinity -8.40079308
REMARK CNNscore 0.50849241
REMARK CNNaffinity 6.5192008
REMARK  7 active torsions:
REMARK  status: ('A' for Active; 'I' for Inactive)
REMARK    1  A    between atoms: C2_2  and  C30_33 
REMARK    2  A    between atoms: C3_3  and  C4_4 
REMARK    3  A    between atoms: C4_4  and  C5_5 
REMARK    4  A    between atoms: C5_5  and  C6_6 
REMARK    5  A    between atoms: C6_6  and  C8_8 
REMARK    6  A    between atoms: C15_15  and  O1_16 
REMARK    7  A    between atoms: C30_33  and  O5_35 
ROOT
HETATM    1  C8  UNL     1      -4.968   6.535  14.954  1.00  0.00    -0.002 C 
HETATM    2  C9  UNL     1      -5.365   5.333  14.068  1.00  0.00     0.007 C 
HETATM    3  C10 UNL     1      -4.219   5.141  13.045  1.00  0.00     0.015 C 
HETATM    4  C11 UNL     1      -3.040   5.974  13.595  1.00  0.00    -0.005 C 
HETATM    5  C12 UNL     1      -2.330   5.093  14.673  1.00  0.00     0.021 C 
HETATM    6  C13 UNL     1      -1.896   6.445  12.705  1.00  0.00     0.002 C 
HETATM    7  C14 UNL     1      -1.223   7.604  12.966  1.00  0.00    -0.032 C 
HETATM    8  C15 UNL     1      -1.644   8.518  14.123  1.00  0.00     0.149 C 
HETATM    9  C16 UNL     1      -2.870   8.086  14.962  1.00  0.00     0.047 C 
HETATM   10  C17 UNL     1      -3.836   7.224  14.139  1.00  0.00    -0.026 C 
HETATM   11  C18 UNL     1      -4.426   8.089  12.986  1.00  0.00     0.016 C 
HETATM   12  C19 UNL     1      -0.040   8.058  12.061  1.00  0.00    -0.012 C 
HETATM   13  C20 UNL     1      -0.692   8.794  10.859  1.00  0.00     0.021 C 
HETATM   14  C21 UNL     1       0.984   9.047  12.703  1.00  0.00     0.021 C 
HETATM   15  C22 UNL     1       2.190   8.360  13.324  1.00  0.00     0.080 C 
HETATM   16  C23 UNL     1       2.977   7.662  12.235  1.00  0.00     0.135 C 
HETATM   17  O2  UNL     1       4.208   7.703  12.234  1.00  0.00    -0.297 OA
HETATM   18  C24 UNL     1       2.182   6.899  11.159  1.00  0.00     0.018 C 
HETATM   19  C25 UNL     1       2.320   7.656   9.835  1.00  0.00     0.023 C 
HETATM   20  C26 UNL     1       2.851   5.516  10.996  1.00  0.00     0.023 C 
HETATM   21  C27 UNL     1       0.714   6.735  11.671  1.00  0.00     0.020 C 
HETATM   22  C28 UNL     1      -0.194   5.851  10.819  1.00  0.00     0.090 C 
HETATM   23  C29 UNL     1      -1.490   5.566  11.551  1.00  0.00     0.157 C 
HETATM   24  O3  UNL     1      -2.190   4.620  11.195  1.00  0.00    -0.293 OA
ENDROOT
BRANCH   1  25
HETATM   25  C6  UNL     1      -6.102   7.352  15.632  1.00  0.00    -0.014 C 
HETATM   26  C7  UNL     1      -6.991   6.409  16.462  1.00  0.00     0.010 C 
BRANCH  25  27
HETATM   27  C5  UNL     1      -6.961   8.366  14.838  1.00  0.00     0.008 C 
BRANCH  27  28
HETATM   28  C4  UNL     1      -8.302   8.874  15.379  1.00  0.00     0.028 C 
BRANCH  28  29
HETATM   29  C3  UNL     1      -9.513   8.130  14.897  1.00  0.00    -0.013 C 
HETATM   30  C2  UNL     1     -10.783   8.286  15.321  1.00  0.00     0.008 C 
HETATM   31  C1  UNL     1     -11.234   9.216  16.407  1.00  0.00     0.055 C 
BRANCH  30  32
HETATM   32  C30 UNL     1     -11.812   7.441  14.663  1.00  0.00     0.171 C 
HETATM   33  O4  UNL     1     -11.690   6.821  13.622  1.00  0.00    -0.646 OA
BRANCH  32  34
HETATM   34  O5  UNL     1     -12.966   7.414  15.349  1.00  0.00    -0.773 OA
HETATM   35  H44 UNL     1     -13.540   6.837  14.803  1.00  0.00     0.167 HD
ENDBRANCH  32  34
ENDBRANCH  30  32
ENDBRANCH  28  29
ENDBRANCH  27  28
ENDBRANCH  25  27
ENDBRANCH   1  25
BRANCH   8  36
HETATM   36  O1  UNL     1      -1.925   9.803  13.571  1.00  0.00    -0.391 OA
HETATM   37  H22 UNL     1      -2.103  10.408  14.310  1.00  0.00     0.210 HD
ENDBRANCH   8  36
TORSDOF 7
ENDMDL
MODEL 7
REMARK minimizedAffinity -6.96790504
REMARK CNNscore 0.452448308
REMARK CNNaffinity 6.62503767
REMARK  7 active torsions:
REMARK  status: ('A' for Active; 'I' for Inactive)
REMARK    1  A    between atoms: C2_2  and  C30_33 
REMARK    2  A    between atoms: C3_3  and  C4_4 
REMARK    3  A    between atoms: C4_4  and  C5_5 
REMARK    4  A    between atoms: C5_5  and  C6_6 
REMARK    5  A    between atoms: C6_6  and  C8_8 
REMARK    6  A    between atoms: C15_15  and  O1_16 
REMARK    7  A    between atoms: C30_33  and  O5_35 
ROOT
HETATM    1  C8  UNL     1      -2.591   8.984  15.779  1.00  0.00    -0.002 C 
HETATM    2  C9  UNL     1      -1.163   8.843  16.351  1.00  0.00     0.007 C 
HETATM    3  C10 UNL     1      -0.889  10.126  17.173  1.00  0.00     0.015 C 
HETATM    4  C11 UNL     1      -2.271  10.789  17.365  1.00  0.00    -0.005 C 
HETATM    5  C12 UNL     1      -2.951  10.068  18.573  1.00  0.00     0.021 C 
HETATM    6  C13 UNL     1      -2.421  12.268  17.698  1.00  0.00     0.002 C 
HETATM    7  C14 UNL     1      -3.513  12.982  17.291  1.00  0.00    -0.032 C 
HETATM    8  C15 UNL     1      -4.595  12.337  16.417  1.00  0.00     0.149 C 
HETATM    9  C16 UNL     1      -4.388  10.863  15.997  1.00  0.00     0.047 C 
HETATM   10  C17 UNL     1      -2.898  10.500  15.946  1.00  0.00    -0.026 C 
HETATM   11  C18 UNL     1      -2.214  11.335  14.823  1.00  0.00     0.016 C 
HETATM   12  C19 UNL     1      -3.663  14.486  17.662  1.00  0.00    -0.012 C 
HETATM   13  C20 UNL     1      -2.849  15.263  16.591  1.00  0.00     0.021 C 
HETATM   14  C21 UNL     1      -5.114  15.064  17.642  1.00  0.00     0.021 C 
HETATM   15  C22 UNL     1      -5.803  15.028  18.998  1.00  0.00     0.080 C 
HETATM   16  C23 UNL     1      -5.056  15.930  19.957  1.00  0.00     0.135 C 
HETATM   17  O2  UNL     1      -5.672  16.658  20.736  1.00  0.00    -0.297 OA
HETATM   18  C24 UNL     1      -3.516  15.883  19.925  1.00  0.00     0.018 C 
HETATM   19  C25 UNL     1      -3.009  17.209  19.349  1.00  0.00     0.023 C 
HETATM   20  C26 UNL     1      -3.034  15.778  21.389  1.00  0.00     0.023 C 
HETATM   21  C27 UNL     1      -3.090  14.612  19.120  1.00  0.00     0.020 C 
HETATM   22  C28 UNL     1      -1.596  14.293  19.121  1.00  0.00     0.090 C 
HETATM   23  C29 UNL     1      -1.351  12.917  18.537  1.00  0.00     0.157 C 
HETATM   24  O3  UNL     1      -0.285  12.347  18.759  1.00  0.00    -0.293 OA
ENDROOT
BRANCH   1  25
HETATM   25  C6  UNL     1      -2.935   8.219  14.470  1.00  0.00    -0.014 C 
HETATM   26  C7  UNL     1      -4.285   8.716  13.923  1.00  0.00     0.010 C 
BRANCH  25  27
HETATM   27  C5  UNL     1      -2.834   6.678  14.378  1.00  0.00     0.008 C 
BRANCH  27  28
HETATM   28  C4  UNL     1      -4.023   5.824  13.924  1.00  0.00     0.028 C 
BRANCH  28  29
HETATM   29  C3  UNL     1      -3.699   4.742  12.935  1.00  0.00    -0.013 C 
HETATM   30  C2  UNL     1      -4.549   3.831  12.422  1.00  0.00     0.008 C 
HETATM   31  C1  UNL     1      -5.997   3.688  12.779  1.00  0.00     0.055 C 
BRANCH  30  32
HETATM   32  C30 UNL     1      -3.982   2.876  11.435  1.00  0.00     0.171 C 
HETATM   33  O4  UNL     1      -3.645   1.724  11.644  1.00  0.00    -0.646 OA
BRANCH  32  34
HETATM   34  O5  UNL     1      -3.856   3.418  10.213  1.00  0.00    -0.773 OA
HETATM   35  H44 UNL     1      -3.471   2.691   9.682  1.00  0.00     0.167 HD
ENDBRANCH  32  34
ENDBRANCH  30  32
ENDBRANCH  28  29
ENDBRANCH  27  28
ENDBRANCH  25  27
ENDBRANCH   1  25
BRANCH   8  36
HETATM   36  O1  UNL     1      -4.703  13.118  15.228  1.00  0.00    -0.391 OA
HETATM   37  H22 UNL     1      -5.449  12.769  14.713  1.00  0.00     0.210 HD
ENDBRANCH   8  36
TORSDOF 7
ENDMDL
MODEL 8
REMARK minimizedAffinity -8.70151997
REMARK CNNscore 0.42648676
REMARK CNNaffinity 6.64091873
REMARK  7 active torsions:
REMARK  status: ('A' for Active; 'I' for Inactive)
REMARK    1  A    between atoms: C2_2  and  C30_33 
REMARK    2  A    between atoms: C3_3  and  C4_4 
REMARK    3  A    between atoms: C4_4  and  C5_5 
REMARK    4  A    between atoms: C5_5  and  C6_6 
REMARK    5  A    between atoms: C6_6  and  C8_8 
REMARK    6  A    between atoms: C15_15  and  O1_16 
REMARK    7  A    between atoms: C30_33  and  O5_35 
ROOT
HETATM    1  C8  UNL     1      -3.910   7.320  14.768  1.00  0.00    -0.002 C 
HETATM    2  C9  UNL     1      -4.524   6.066  14.105  1.00  0.00     0.007 C 
HETATM    3  C10 UNL     1      -3.516   5.600  13.027  1.00  0.00     0.015 C 
HETATM    4  C11 UNL     1      -2.203   6.351  13.345  1.00  0.00    -0.005 C 
HETATM    5  C12 UNL     1      -1.486   5.545  14.475  1.00  0.00     0.021 C 
HETATM    6  C13 UNL     1      -1.113   6.555  12.300  1.00  0.00     0.002 C 
HETATM    7  C14 UNL     1      -0.296   7.649  12.329  1.00  0.00    -0.032 C 
HETATM    8  C15 UNL     1      -0.496   8.755  13.372  1.00  0.00     0.149 C 
HETATM    9  C16 UNL     1      -1.668   8.592  14.368  1.00  0.00     0.047 C 
HETATM   10  C17 UNL     1      -2.800   7.750  13.766  1.00  0.00    -0.026 C 
HETATM   11  C18 UNL     1      -3.409   8.516  12.554  1.00  0.00     0.016 C 
HETATM   12  C19 UNL     1       0.830   7.829  11.269  1.00  0.00    -0.012 C 
HETATM   13  C20 UNL     1       0.141   8.469  10.033  1.00  0.00     0.021 C 
HETATM   14  C21 UNL     1       2.015   8.765  11.668  1.00  0.00     0.021 C 
HETATM   15  C22 UNL     1       3.197   8.027  12.277  1.00  0.00     0.080 C 
HETATM   16  C23 UNL     1       3.789   7.097  11.239  1.00  0.00     0.135 C 
HETATM   17  O2  UNL     1       5.011   6.988  11.125  1.00  0.00    -0.297 OA
HETATM   18  C24 UNL     1       2.810   6.298  10.359  1.00  0.00     0.018 C 
HETATM   19  C25 UNL     1       2.893   6.846   8.930  1.00  0.00     0.023 C 
HETATM   20  C26 UNL     1       3.306   4.834  10.343  1.00  0.00     0.023 C 
HETATM   21  C27 UNL     1       1.393   6.384  11.014  1.00  0.00     0.020 C 
HETATM   22  C28 UNL     1       0.312   5.508  10.382  1.00  0.00     0.090 C 
HETATM   23  C29 UNL     1      -0.924   5.485  11.257  1.00  0.00     0.157 C 
HETATM   24  O3  UNL     1      -1.754   4.591  11.105  1.00  0.00    -0.293 OA
ENDROOT
BRANCH   1  25
HETATM   25  C6  UNL     1      -4.875   8.354  15.414  1.00  0.00    -0.014 C 
HETATM   26  C7  UNL     1      -4.231   8.932  16.687  1.00  0.00     0.010 C 
BRANCH  25  27
HETATM   27  C5  UNL     1      -6.371   8.037  15.645  1.00  0.00     0.008 C 
BRANCH  27  28
HETATM   28  C4  UNL     1      -6.846   6.619  15.980  1.00  0.00     0.028 C 
BRANCH  28  29
HETATM   29  C3  UNL     1      -7.287   5.794  14.807  1.00  0.00    -0.013 C 
HETATM   30  C2  UNL     1      -8.391   5.977  14.055  1.00  0.00     0.008 C 
HETATM   31  C1  UNL     1      -9.435   7.029  14.277  1.00  0.00     0.055 C 
BRANCH  30  32
HETATM   32  C30 UNL     1      -8.590   5.031  12.927  1.00  0.00     0.171 C 
HETATM   33  O4  UNL     1      -8.644   5.309  11.742  1.00  0.00    -0.646 OA
BRANCH  32  34
HETATM   34  O5  UNL     1      -8.720   3.761  13.342  1.00  0.00    -0.773 OA
HETATM   35  H44 UNL     1      -8.850   3.263  12.507  1.00  0.00     0.167 HD
ENDBRANCH  32  34
ENDBRANCH  30  32
ENDBRANCH  28  29
ENDBRANCH  27  28
ENDBRANCH  25  27
ENDBRANCH   1  25
BRANCH   8  36
HETATM   36  O1  UNL     1      -0.691   9.978  12.664  1.00  0.00    -0.391 OA
HETATM   37  H22 UNL     1      -0.726  10.695  13.319  1.00  0.00     0.210 HD
ENDBRANCH   8  36
TORSDOF 7
ENDMDL
MODEL 9
REMARK minimizedAffinity -6.88485336
REMARK CNNscore 0.323046118
REMARK CNNaffinity 6.05491638
REMARK  7 active torsions:
REMARK  status: ('A' for Active; 'I' for Inactive)
REMARK    1  A    between atoms: C2_2  and  C30_33 
REMARK    2  A    between atoms: C3_3  and  C4_4 
REMARK    3  A    between atoms: C4_4  and  C5_5 
REMARK    4  A    between atoms: C5_5  and  C6_6 
REMARK    5  A    between atoms: C6_6  and  C8_8 
REMARK    6  A    between atoms: C15_15  and  O1_16 
REMARK    7  A    between atoms: C30_33  and  O5_35 
ROOT
HETATM    1  C8  UNL     1      -4.316 -10.181   6.061  1.00  0.00    -0.002 C 
HETATM    2  C9  UNL     1      -3.017 -11.015   5.987  1.00  0.00     0.007 C 
HETATM    3  C10 UNL     1      -2.962 -11.618   4.562  1.00  0.00     0.015 C 
HETATM    4  C11 UNL     1      -4.009 -10.828   3.745  1.00  0.00    -0.005 C 
HETATM    5  C12 UNL     1      -3.319  -9.501   3.293  1.00  0.00     0.021 C 
HETATM    6  C13 UNL     1      -4.613 -11.376   2.458  1.00  0.00     0.002 C 
HETATM    7  C14 UNL     1      -5.881 -11.047   2.070  1.00  0.00    -0.032 C 
HETATM    8  C15 UNL     1      -6.774 -10.173   2.958  1.00  0.00     0.149 C 
HETATM    9  C16 UNL     1      -6.192  -9.702   4.312  1.00  0.00     0.047 C 
HETATM   10  C17 UNL     1      -5.137 -10.684   4.839  1.00  0.00    -0.026 C 
HETATM   11  C18 UNL     1      -5.827 -12.045   5.151  1.00  0.00     0.016 C 
HETATM   12  C19 UNL     1      -6.474 -11.594   0.739  1.00  0.00    -0.012 C 
HETATM   13  C20 UNL     1      -7.023 -13.008   1.077  1.00  0.00     0.021 C 
HETATM   14  C21 UNL     1      -7.653 -10.781   0.119  1.00  0.00     0.021 C 
HETATM   15  C22 UNL     1      -7.211  -9.756  -0.915  1.00  0.00     0.080 C 
HETATM   16  C23 UNL     1      -6.594 -10.477  -2.094  1.00  0.00     0.135 C 
HETATM   17  O2  UNL     1      -6.838 -10.112  -3.245  1.00  0.00    -0.297 OA
HETATM   18  C24 UNL     1      -5.651 -11.658  -1.793  1.00  0.00     0.018 C 
HETATM   19  C25 UNL     1      -6.346 -12.950  -2.233  1.00  0.00     0.023 C 
HETATM   20  C26 UNL     1      -4.391 -11.466  -2.667  1.00  0.00     0.023 C 
HETATM   21  C27 UNL     1      -5.275 -11.598  -0.277  1.00  0.00     0.020 C 
HETATM   22  C28 UNL     1      -4.205 -12.588   0.183  1.00  0.00     0.090 C 
HETATM   23  C29 UNL     1      -3.751 -12.255   1.589  1.00  0.00     0.157 C 
HETATM   24  O3  UNL     1      -2.683 -12.705   2.001  1.00  0.00    -0.293 OA
ENDROOT
BRANCH   1  25
HETATM   25  C6  UNL     1      -4.970  -9.967   7.454  1.00  0.00    -0.014 C 
HETATM   26  C7  UNL     1      -5.970  -8.798   7.378  1.00  0.00     0.010 C 
BRANCH  25  27
HETATM   27  C5  UNL     1      -4.125  -9.889   8.747  1.00  0.00     0.008 C 
BRANCH  27  28
HETATM   28  C4  UNL     1      -4.697 -10.316  10.103  1.00  0.00     0.028 C 
BRANCH  28  29
HETATM   29  C3  UNL     1      -5.414  -9.241  10.867  1.00  0.00    -0.013 C 
HETATM   30  C2  UNL     1      -6.715  -9.227  11.220  1.00  0.00     0.008 C 
HETATM   31  C1  UNL     1      -7.726 -10.278  10.874  1.00  0.00     0.055 C 
BRANCH  30  32
HETATM   32  C30 UNL     1      -7.179  -8.051  12.000  1.00  0.00     0.171 C 
HETATM   33  O4  UNL     1      -6.556  -7.026  12.216  1.00  0.00    -0.646 OA
BRANCH  32  34
HETATM   34  O5  UNL     1      -8.420  -8.216  12.485  1.00  0.00    -0.773 OA
HETATM   35  H44 UNL     1      -8.585  -7.383  12.972  1.00  0.00     0.167 HD
ENDBRANCH  32  34
ENDBRANCH  30  32
ENDBRANCH  28  29
ENDBRANCH  27  28
ENDBRANCH  25  27
ENDBRANCH   1  25
BRANCH   8  36
HETATM   36  O1  UNL     1      -7.962 -10.914   3.229  1.00  0.00    -0.391 OA
HETATM   37  H22 UNL     1      -8.570 -10.331   3.713  1.00  0.00     0.210 HD
ENDBRANCH   8  36
TORSDOF 7
ENDMDL
