MODEL 1
REMARK minimizedAffinity -8.45221615
REMARK CNNscore 0.2053608
REMARK CNNaffinity 5.80626822
REMARK  19 active torsions:
REMARK  status: ('A' for Active; 'I' for Inactive)
REMARK    1  A    between atoms: O1_2  and  C2_3 
REMARK    2  A    between atoms: C2_3  and  C3_4 
REMARK    3  A    between atoms: C2_3  and  C28_36 
REMARK    4  A    between atoms: C3_4  and  C4_5 
REMARK    5  A    between atoms: C4_5  and  C6_7 
REMARK    6  A    between atoms: C6_7  and  O2_8 
REMARK    7  A    between atoms: C6_7  and  C7_9 
REMARK    8  A    between atoms: C8_10  and  C9_11 
REMARK    9  A    between atoms: C10_12  and  C11_13 
REMARK   10  A    between atoms: C11_13  and  N1_14 
REMARK       I    between atoms: N1_14  and  C12_15 
REMARK   11  A    between atoms: C12_15  and  C13_17 
REMARK   12  A    between atoms: C13_17  and  C16_20 
REMARK   13  A    between atoms: C16_20  and  O4_21 
REMARK   14  A    between atoms: C16_20  and  C17_22 
REMARK   15  A    between atoms: C19_24  and  C20_25 
REMARK   16  A    between atoms: C21_26  and  C22_27 
REMARK   17  A    between atoms: C23_28  and  C24_29 
REMARK   18  A    between atoms: C26_31  and  N2_33 
REMARK   19  A    between atoms: C28_36  and  O7_37 
ROOT
HETATM    1  C9  UNL     1      -6.974  49.685 -21.726  1.00  0.00    -0.003 C 
HETATM    2  C10 UNL     1      -5.730  49.814 -21.236  1.00  0.00    -0.007 C 
ENDROOT
BRANCH   1   3
HETATM    3  C8  UNL     1      -7.238  49.688 -23.150  1.00  0.00    -0.002 C 
HETATM    4  C7  UNL     1      -8.209  48.958 -23.719  1.00  0.00     0.005 C 
BRANCH   4   5
HETATM    5  C6  UNL     1      -8.531  48.909 -25.197  1.00  0.00     0.144 C 
BRANCH   5   6
HETATM    6  C4  UNL     1      -9.161  47.570 -25.634  1.00  0.00     0.016 C 
HETATM    7  C5  UNL     1      -9.247  46.580 -24.468  1.00  0.00     0.013 C 
BRANCH   6   8
HETATM    8  C3  UNL     1      -8.543  46.939 -26.918  1.00  0.00     0.042 C 
BRANCH   8   9
HETATM    9  C2  UNL     1      -9.481  46.245 -27.942  1.00  0.00     0.159 C 
BRANCH   9  10
HETATM   10  O1  UNL     1      -9.014  44.928 -28.272  1.00  0.00    -0.388 OA
HETATM   11  C1  UNL     1      -8.168  44.354 -27.282  1.00  0.00     0.202 C 
ENDBRANCH   9  10
BRANCH   9  12
HETATM   12  C28 UNL     1      -9.702  47.003 -29.300  1.00  0.00     0.133 C 
HETATM   13  C29 UNL     1     -10.679  46.156 -30.197  1.00  0.00     0.114 C 
HETATM   14  C30 UNL     1     -11.590  46.944 -31.134  1.00  0.00     0.023 C 
HETATM   15  C31 UNL     1      -9.759  45.314 -31.044  1.00  0.00     0.227 C 
HETATM   16  O8  UNL     1     -10.075  44.275 -31.598  1.00  0.00    -0.273 OA
HETATM   17  N3  UNL     1      -8.547  45.971 -31.137  1.00  0.00    -0.332 N 
HETATM   18  C32 UNL     1      -7.397  45.275 -31.672  1.00  0.00     0.154 C 
HETATM   19  C33 UNL     1      -8.415  47.114 -30.166  1.00  0.00     0.183 C 
HETATM   20  C34 UNL     1      -7.012  47.265 -29.468  1.00  0.00     0.294 C 
HETATM   21  C35 UNL     1      -7.940  48.437 -30.873  1.00  0.00     0.169 C 
HETATM   22  O9  UNL     1      -6.267  46.636 -28.754  1.00  0.00    -0.262 OA
HETATM   23  O10 UNL     1      -6.760  48.482 -30.027  1.00  0.00    -0.311 OA
HETATM   24  C36 UNL     1      -8.648  49.779 -30.824  1.00  0.00     0.043 C 
BRANCH  12  25
HETATM   25  O7  UNL     1     -10.271  48.277 -28.996  1.00  0.00    -0.383 OA
HETATM   26  H42 UNL     1     -10.706  48.661 -29.776  1.00  0.00     0.210 HD
ENDBRANCH  12  25
ENDBRANCH   9  12
ENDBRANCH   8   9
ENDBRANCH   6   8
ENDBRANCH   5   6
BRANCH   5  27
HETATM   27  O2  UNL     1      -9.405  49.979 -25.545  1.00  0.00    -0.391 OA
HETATM   28  H12 UNL     1      -9.063  50.778 -25.101  1.00  0.00     0.210 HD
ENDBRANCH   5  27
ENDBRANCH   4   5
ENDBRANCH   1   3
BRANCH   2  29
HETATM   29  C11 UNL     1      -5.248  49.818 -19.816  1.00  0.00     0.149 C 
BRANCH  29  30
HETATM   30  N1  UNL     1      -3.856  50.160 -19.679  1.00  0.00    -0.357 N 
HETATM   31  C12 UNL     1      -3.032  49.345 -18.926  1.00  0.00     0.228 C 
HETATM   32  O3  UNL     1      -3.451  48.284 -18.461  1.00  0.00    -0.273 OA
HETATM   33  H19 UNL     1      -3.554  51.101 -19.865  1.00  0.00     0.162 HD
BRANCH  31  34
HETATM   34  C13 UNL     1      -1.576  49.824 -18.736  1.00  0.00     0.063 C 
HETATM   35  C14 UNL     1      -0.842  49.784 -20.092  1.00  0.00     0.028 C 
HETATM   36  C15 UNL     1      -0.870  48.785 -17.823  1.00  0.00     0.028 C 
BRANCH  34  37
HETATM   37  C16 UNL     1      -1.465  51.219 -18.046  1.00  0.00     0.164 C 
BRANCH  37  38
HETATM   38  O4  UNL     1      -2.219  52.199 -18.763  1.00  0.00    -0.390 OA
HETATM   39  H27 UNL     1      -2.227  53.006 -18.223  1.00  0.00     0.210 HD
ENDBRANCH  37  38
BRANCH  37  40
HETATM   40  C17 UNL     1      -0.085  51.799 -17.757  1.00  0.00    -0.054 C 
HETATM   41  C18 UNL     1       0.556  51.422 -16.439  1.00  0.00     0.046 C 
HETATM   42  C19 UNL     1       0.653  52.520 -18.635  1.00  0.00     0.005 C 
BRANCH  42  43
HETATM   43  C20 UNL     1       0.299  52.877 -19.995  1.00  0.00     0.000 C 
HETATM   44  C21 UNL     1       1.164  52.796 -21.021  1.00  0.00     0.000 C 
BRANCH  44  45
HETATM   45  C22 UNL     1       0.784  53.108 -22.387  1.00  0.00     0.001 C 
HETATM   46  C23 UNL     1      -0.049  52.330 -23.105  1.00  0.00     0.009 C 
BRANCH  46  47
HETATM   47  C24 UNL     1      -0.530  52.586 -24.472  1.00  0.00    -0.034 C 
HETATM   48  C25 UNL     1       0.054  53.811 -25.160  1.00  0.00     0.050 C 
HETATM   49  C26 UNL     1      -1.432  51.757 -25.051  1.00  0.00     0.082 C 
HETATM   50  C27 UNL     1      -2.099  50.510 -24.568  1.00  0.00     0.075 C 
BRANCH  49  51
HETATM   51  N2  UNL     1      -1.884  52.087 -26.389  1.00  0.00    -0.120 N 
HETATM   52  O5  UNL     1      -2.841  52.868 -26.475  1.00  0.00    -0.532 OA
HETATM   53  O6  UNL     1      -1.264  51.583 -27.334  1.00  0.00    -0.532 OA
ENDBRANCH  49  51
ENDBRANCH  46  47
ENDBRANCH  44  45
ENDBRANCH  42  43
ENDBRANCH  37  40
ENDBRANCH  34  37
ENDBRANCH  31  34
ENDBRANCH  29  30
ENDBRANCH   2  29
TORSDOF 19
ENDMDL
MODEL 2
REMARK minimizedAffinity -9.25819492
REMARK CNNscore 0.198877692
REMARK CNNaffinity 6.28203726
REMARK  19 active torsions:
REMARK  status: ('A' for Active; 'I' for Inactive)
REMARK    1  A    between atoms: O1_2  and  C2_3 
REMARK    2  A    between atoms: C2_3  and  C3_4 
REMARK    3  A    between atoms: C2_3  and  C28_36 
REMARK    4  A    between atoms: C3_4  and  C4_5 
REMARK    5  A    between atoms: C4_5  and  C6_7 
REMARK    6  A    between atoms: C6_7  and  O2_8 
REMARK    7  A    between atoms: C6_7  and  C7_9 
REMARK    8  A    between atoms: C8_10  and  C9_11 
REMARK    9  A    between atoms: C10_12  and  C11_13 
REMARK   10  A    between atoms: C11_13  and  N1_14 
REMARK       I    between atoms: N1_14  and  C12_15 
REMARK   11  A    between atoms: C12_15  and  C13_17 
REMARK   12  A    between atoms: C13_17  and  C16_20 
REMARK   13  A    between atoms: C16_20  and  O4_21 
REMARK   14  A    between atoms: C16_20  and  C17_22 
REMARK   15  A    between atoms: C19_24  and  C20_25 
REMARK   16  A    between atoms: C21_26  and  C22_27 
REMARK   17  A    between atoms: C23_28  and  C24_29 
REMARK   18  A    between atoms: C26_31  and  N2_33 
REMARK   19  A    between atoms: C28_36  and  O7_37 
ROOT
HETATM    1  C9  UNL     1      -2.941  49.080 -24.588  1.00  0.00    -0.003 C 
HETATM    2  C10 UNL     1      -3.311  50.341 -24.311  1.00  0.00    -0.007 C 
ENDROOT
BRANCH   1   3
HETATM    3  C8  UNL     1      -3.293  48.437 -25.837  1.00  0.00    -0.002 C 
HETATM    4  C7  UNL     1      -4.221  48.919 -26.676  1.00  0.00     0.005 C 
BRANCH   4   5
HETATM    5  C6  UNL     1      -4.642  48.293 -27.988  1.00  0.00     0.144 C 
BRANCH   5   6
HETATM    6  C4  UNL     1      -6.131  47.890 -28.015  1.00  0.00     0.016 C 
HETATM    7  C5  UNL     1      -6.637  47.506 -26.620  1.00  0.00     0.013 C 
BRANCH   6   8
HETATM    8  C3  UNL     1      -6.511  46.843 -29.104  1.00  0.00     0.042 C 
BRANCH   8   9
HETATM    9  C2  UNL     1      -6.969  47.341 -30.501  1.00  0.00     0.159 C 
BRANCH   9  10
HETATM   10  O1  UNL     1      -8.370  47.106 -30.708  1.00  0.00    -0.388 OA
HETATM   11  C1  UNL     1      -9.189  48.233 -30.421  1.00  0.00     0.202 C 
ENDBRANCH   9  10
BRANCH   9  12
HETATM   12  C28 UNL     1      -6.216  46.724 -31.735  1.00  0.00     0.133 C 
HETATM   13  C29 UNL     1      -6.476  47.637 -32.991  1.00  0.00     0.114 C 
HETATM   14  C30 UNL     1      -5.349  47.707 -34.018  1.00  0.00     0.023 C 
HETATM   15  C31 UNL     1      -7.673  47.008 -33.658  1.00  0.00     0.227 C 
HETATM   16  O8  UNL     1      -8.424  47.580 -34.429  1.00  0.00    -0.273 OA
HETATM   17  N3  UNL     1      -7.707  45.674 -33.300  1.00  0.00    -0.332 N 
HETATM   18  C32 UNL     1      -8.888  44.889 -33.583  1.00  0.00     0.154 C 
HETATM   19  C33 UNL     1      -6.770  45.338 -32.170  1.00  0.00     0.183 C 
HETATM   20  C34 UNL     1      -7.329  44.342 -31.087  1.00  0.00     0.294 C 
HETATM   21  C35 UNL     1      -5.867  44.094 -32.504  1.00  0.00     0.169 C 
HETATM   22  O9  UNL     1      -8.237  44.260 -30.294  1.00  0.00    -0.262 OA
HETATM   23  O10 UNL     1      -6.405  43.378 -31.359  1.00  0.00    -0.311 OA
HETATM   24  C36 UNL     1      -4.350  44.053 -32.457  1.00  0.00     0.043 C 
BRANCH  12  25
HETATM   25  O7  UNL     1      -4.825  46.685 -31.417  1.00  0.00    -0.383 OA
HETATM   26  H42 UNL     1      -4.284  46.608 -32.221  1.00  0.00     0.210 HD
ENDBRANCH  12  25
ENDBRANCH   9  12
ENDBRANCH   8   9
ENDBRANCH   6   8
ENDBRANCH   5   6
BRANCH   5  27
HETATM   27  O2  UNL     1      -4.375  49.185 -29.066  1.00  0.00    -0.391 OA
HETATM   28  H12 UNL     1      -3.483  49.553 -28.913  1.00  0.00     0.210 HD
ENDBRANCH   5  27
ENDBRANCH   4   5
ENDBRANCH   1   3
BRANCH   2  29
HETATM   29  C11 UNL     1      -3.038  51.184 -23.102  1.00  0.00     0.149 C 
BRANCH  29  30
HETATM   30  N1  UNL     1      -2.558  50.434 -21.970  1.00  0.00    -0.357 N 
HETATM   31  C12 UNL     1      -3.284  50.450 -20.794  1.00  0.00     0.228 C 
HETATM   32  O3  UNL     1      -4.381  51.011 -20.738  1.00  0.00    -0.273 OA
HETATM   33  H19 UNL     1      -1.593  50.156 -21.930  1.00  0.00     0.162 HD
BRANCH  31  34
HETATM   34  C13 UNL     1      -2.663  49.709 -19.590  1.00  0.00     0.063 C 
HETATM   35  C14 UNL     1      -1.600  48.711 -20.095  1.00  0.00     0.028 C 
HETATM   36  C15 UNL     1      -3.792  48.860 -18.945  1.00  0.00     0.028 C 
BRANCH  34  37
HETATM   37  C16 UNL     1      -2.100  50.666 -18.494  1.00  0.00     0.164 C 
BRANCH  37  38
HETATM   38  O4  UNL     1      -2.620  51.987 -18.660  1.00  0.00    -0.390 OA
HETATM   39  H27 UNL     1      -2.349  52.502 -17.883  1.00  0.00     0.210 HD
ENDBRANCH  37  38
BRANCH  37  40
HETATM   40  C17 UNL     1      -0.592  50.770 -18.299  1.00  0.00    -0.054 C 
HETATM   41  C18 UNL     1       0.017  49.935 -17.192  1.00  0.00     0.046 C 
HETATM   42  C19 UNL     1       0.251  51.451 -19.112  1.00  0.00     0.005 C 
BRANCH  42  43
HETATM   43  C20 UNL     1      -0.094  52.199 -20.306  1.00  0.00     0.000 C 
HETATM   44  C21 UNL     1       0.675  52.210 -21.408  1.00  0.00     0.000 C 
BRANCH  44  45
HETATM   45  C22 UNL     1       0.295  52.923 -22.616  1.00  0.00     0.001 C 
HETATM   46  C23 UNL     1       0.470  52.407 -23.847  1.00  0.00     0.009 C 
BRANCH  46  47
HETATM   47  C24 UNL     1       0.074  53.027 -25.123  1.00  0.00    -0.034 C 
HETATM   48  C25 UNL     1       0.102  54.548 -25.155  1.00  0.00     0.050 C 
HETATM   49  C26 UNL     1      -0.280  52.258 -26.181  1.00  0.00     0.082 C 
HETATM   50  C27 UNL     1      -0.350  50.777 -26.363  1.00  0.00     0.075 C 
BRANCH  49  51
HETATM   51  N2  UNL     1      -0.687  52.936 -27.396  1.00  0.00    -0.120 N 
HETATM   52  O5  UNL     1       0.170  53.049 -28.283  1.00  0.00    -0.532 OA
HETATM   53  O6  UNL     1      -1.861  53.324 -27.461  1.00  0.00    -0.532 OA
ENDBRANCH  49  51
ENDBRANCH  46  47
ENDBRANCH  44  45
ENDBRANCH  42  43
ENDBRANCH  37  40
ENDBRANCH  34  37
ENDBRANCH  31  34
ENDBRANCH  29  30
ENDBRANCH   2  29
TORSDOF 19
ENDMDL
MODEL 3
REMARK minimizedAffinity -9.25823021
REMARK CNNscore 0.194606051
REMARK CNNaffinity 6.10270834
REMARK  19 active torsions:
REMARK  status: ('A' for Active; 'I' for Inactive)
REMARK    1  A    between atoms: O1_2  and  C2_3 
REMARK    2  A    between atoms: C2_3  and  C3_4 
REMARK    3  A    between atoms: C2_3  and  C28_36 
REMARK    4  A    between atoms: C3_4  and  C4_5 
REMARK    5  A    between atoms: C4_5  and  C6_7 
REMARK    6  A    between atoms: C6_7  and  O2_8 
REMARK    7  A    between atoms: C6_7  and  C7_9 
REMARK    8  A    between atoms: C8_10  and  C9_11 
REMARK    9  A    between atoms: C10_12  and  C11_13 
REMARK   10  A    between atoms: C11_13  and  N1_14 
REMARK       I    between atoms: N1_14  and  C12_15 
REMARK   11  A    between atoms: C12_15  and  C13_17 
REMARK   12  A    between atoms: C13_17  and  C16_20 
REMARK   13  A    between atoms: C16_20  and  O4_21 
REMARK   14  A    between atoms: C16_20  and  C17_22 
REMARK   15  A    between atoms: C19_24  and  C20_25 
REMARK   16  A    between atoms: C21_26  and  C22_27 
REMARK   17  A    between atoms: C23_28  and  C24_29 
REMARK   18  A    between atoms: C26_31  and  N2_33 
REMARK   19  A    between atoms: C28_36  and  O7_37 
ROOT
HETATM    1  C9  UNL     1      -4.564  48.492 -24.365  1.00  0.00    -0.003 C 
HETATM    2  C10 UNL     1      -5.195  48.063 -23.260  1.00  0.00    -0.007 C 
ENDROOT
BRANCH   1   3
HETATM    3  C8  UNL     1      -5.009  48.122 -25.692  1.00  0.00    -0.002 C 
HETATM    4  C7  UNL     1      -4.360  48.476 -26.811  1.00  0.00     0.005 C 
BRANCH   4   5
HETATM    5  C6  UNL     1      -4.776  48.131 -28.225  1.00  0.00     0.144 C 
BRANCH   5   6
HETATM    6  C4  UNL     1      -6.254  47.700 -28.332  1.00  0.00     0.016 C 
HETATM    7  C5  UNL     1      -6.941  47.697 -26.963  1.00  0.00     0.013 C 
BRANCH   6   8
HETATM    8  C3  UNL     1      -6.501  46.388 -29.135  1.00  0.00     0.042 C 
BRANCH   8   9
HETATM    9  C2  UNL     1      -7.641  46.352 -30.189  1.00  0.00     0.159 C 
BRANCH   9  10
HETATM   10  O1  UNL     1      -8.852  45.821 -29.632  1.00  0.00    -0.388 OA
HETATM   11  C1  UNL     1      -9.913  46.765 -29.559  1.00  0.00     0.202 C 
ENDBRANCH   9  10
BRANCH   9  12
HETATM   12  C28 UNL     1      -7.344  45.537 -31.498  1.00  0.00     0.133 C 
HETATM   13  C29 UNL     1      -5.866  44.998 -31.433  1.00  0.00     0.114 C 
HETATM   14  C30 UNL     1      -5.603  43.663 -32.123  1.00  0.00     0.023 C 
HETATM   15  C31 UNL     1      -5.061  46.055 -32.144  1.00  0.00     0.227 C 
HETATM   16  O8  UNL     1      -3.862  46.230 -32.008  1.00  0.00    -0.273 OA
HETATM   17  N3  UNL     1      -5.904  46.716 -33.018  1.00  0.00    -0.332 N 
HETATM   18  C32 UNL     1      -5.465  47.945 -33.642  1.00  0.00     0.154 C 
HETATM   19  C33 UNL     1      -7.359  46.406 -32.787  1.00  0.00     0.183 C 
HETATM   20  C34 UNL     1      -8.347  47.626 -32.898  1.00  0.00     0.294 C 
HETATM   21  C35 UNL     1      -8.092  45.996 -34.118  1.00  0.00     0.169 C 
HETATM   22  O9  UNL     1      -8.544  48.700 -32.382  1.00  0.00    -0.262 OA
HETATM   23  O10 UNL     1      -9.013  47.110 -33.970  1.00  0.00    -0.311 OA
HETATM   24  C36 UNL     1      -8.879  44.719 -34.347  1.00  0.00     0.043 C 
BRANCH  12  25
HETATM   25  O7  UNL     1      -8.274  44.455 -31.554  1.00  0.00    -0.383 OA
HETATM   26  H42 UNL     1      -7.962  43.755 -32.152  1.00  0.00     0.210 HD
ENDBRANCH  12  25
ENDBRANCH   9  12
ENDBRANCH   8   9
ENDBRANCH   6   8
ENDBRANCH   5   6
BRANCH   5  27
HETATM   27  O2  UNL     1      -4.543  49.239 -29.089  1.00  0.00    -0.391 OA
HETATM   28  H12 UNL     1      -3.661  49.592 -28.865  1.00  0.00     0.210 HD
ENDBRANCH   5  27
ENDBRANCH   4   5
ENDBRANCH   1   3
BRANCH   2  29
HETATM   29  C11 UNL     1      -4.908  48.342 -21.815  1.00  0.00     0.149 C 
BRANCH  29  30
HETATM   30  N1  UNL     1      -3.634  48.974 -21.589  1.00  0.00    -0.357 N 
HETATM   31  C12 UNL     1      -3.369  49.533 -20.353  1.00  0.00     0.228 C 
HETATM   32  O3  UNL     1      -4.165  49.405 -19.420  1.00  0.00    -0.273 OA
HETATM   33  H19 UNL     1      -3.078  49.267 -22.373  1.00  0.00     0.162 HD
BRANCH  31  34
HETATM   34  C13 UNL     1      -2.026  50.282 -20.209  1.00  0.00     0.063 C 
HETATM   35  C14 UNL     1      -1.832  51.223 -21.416  1.00  0.00     0.028 C 
HETATM   36  C15 UNL     1      -0.899  49.219 -20.293  1.00  0.00     0.028 C 
BRANCH  34  37
HETATM   37  C16 UNL     1      -1.876  51.031 -18.848  1.00  0.00     0.164 C 
BRANCH  37  38
HETATM   38  O4  UNL     1      -2.574  52.278 -18.876  1.00  0.00    -0.390 OA
HETATM   39  H27 UNL     1      -2.562  52.634 -17.973  1.00  0.00     0.210 HD
ENDBRANCH  37  38
BRANCH  37  40
HETATM   40  C17 UNL     1      -0.481  51.280 -18.286  1.00  0.00    -0.054 C 
HETATM   41  C18 UNL     1      -0.049  50.422 -17.116  1.00  0.00     0.046 C 
HETATM   42  C19 UNL     1       0.435  52.118 -18.826  1.00  0.00     0.005 C 
BRANCH  42  43
HETATM   43  C20 UNL     1       0.289  52.928 -20.021  1.00  0.00     0.000 C 
HETATM   44  C21 UNL     1       1.160  52.884 -21.044  1.00  0.00     0.000 C 
BRANCH  44  45
HETATM   45  C22 UNL     1       0.976  53.662 -22.257  1.00  0.00     0.001 C 
HETATM   46  C23 UNL     1       0.733  53.094 -23.453  1.00  0.00     0.009 C 
BRANCH  46  47
HETATM   47  C24 UNL     1       0.485  53.795 -24.724  1.00  0.00    -0.034 C 
HETATM   48  C25 UNL     1       0.515  55.315 -24.657  1.00  0.00     0.050 C 
HETATM   49  C26 UNL     1       0.254  53.096 -25.862  1.00  0.00     0.082 C 
HETATM   50  C27 UNL     1       0.208  51.630 -26.143  1.00  0.00     0.075 C 
BRANCH  49  51
HETATM   51  N2  UNL     1      -0.012  53.852 -27.071  1.00  0.00    -0.120 N 
HETATM   52  O5  UNL     1      -0.124  53.201 -28.118  1.00  0.00    -0.532 OA
HETATM   53  O6  UNL     1      -0.131  55.078 -26.955  1.00  0.00    -0.532 OA
ENDBRANCH  49  51
ENDBRANCH  46  47
ENDBRANCH  44  45
ENDBRANCH  42  43
ENDBRANCH  37  40
ENDBRANCH  34  37
ENDBRANCH  31  34
ENDBRANCH  29  30
ENDBRANCH   2  29
TORSDOF 19
ENDMDL
MODEL 4
REMARK minimizedAffinity -8.92373276
REMARK CNNscore 0.192186281
REMARK CNNaffinity 6.5194211
REMARK  19 active torsions:
REMARK  status: ('A' for Active; 'I' for Inactive)
REMARK    1  A    between atoms: O1_2  and  C2_3 
REMARK    2  A    between atoms: C2_3  and  C3_4 
REMARK    3  A    between atoms: C2_3  and  C28_36 
REMARK    4  A    between atoms: C3_4  and  C4_5 
REMARK    5  A    between atoms: C4_5  and  C6_7 
REMARK    6  A    between atoms: C6_7  and  O2_8 
REMARK    7  A    between atoms: C6_7  and  C7_9 
REMARK    8  A    between atoms: C8_10  and  C9_11 
REMARK    9  A    between atoms: C10_12  and  C11_13 
REMARK   10  A    between atoms: C11_13  and  N1_14 
REMARK       I    between atoms: N1_14  and  C12_15 
REMARK   11  A    between atoms: C12_15  and  C13_17 
REMARK   12  A    between atoms: C13_17  and  C16_20 
REMARK   13  A    between atoms: C16_20  and  O4_21 
REMARK   14  A    between atoms: C16_20  and  C17_22 
REMARK   15  A    between atoms: C19_24  and  C20_25 
REMARK   16  A    between atoms: C21_26  and  C22_27 
REMARK   17  A    between atoms: C23_28  and  C24_29 
REMARK   18  A    between atoms: C26_31  and  N2_33 
REMARK   19  A    between atoms: C28_36  and  O7_37 
ROOT
HETATM    1  C9  UNL     1       1.017  53.383 -21.314  1.00  0.00    -0.003 C 
HETATM    2  C10 UNL     1       1.341  54.477 -22.023  1.00  0.00    -0.007 C 
ENDROOT
BRANCH   1   3
HETATM    3  C8  UNL     1       1.215  53.315 -19.881  1.00  0.00    -0.002 C 
HETATM    4  C7  UNL     1       0.402  52.637 -19.058  1.00  0.00     0.005 C 
BRANCH   4   5
HETATM    5  C6  UNL     1       0.547  52.534 -17.555  1.00  0.00     0.144 C 
BRANCH   5   6
HETATM    6  C4  UNL     1       0.555  51.077 -17.047  1.00  0.00     0.016 C 
HETATM    7  C5  UNL     1      -0.320  50.170 -17.919  1.00  0.00     0.013 C 
BRANCH   6   8
HETATM    8  C3  UNL     1       0.270  50.908 -15.525  1.00  0.00     0.042 C 
BRANCH   8   9
HETATM    9  C2  UNL     1       1.449  50.579 -14.569  1.00  0.00     0.159 C 
BRANCH   9  10
HETATM   10  O1  UNL     1       1.528  49.171 -14.299  1.00  0.00    -0.388 OA
HETATM   11  C1  UNL     1       0.838  48.365 -15.247  1.00  0.00     0.202 C 
ENDBRANCH   9  10
BRANCH   9  12
HETATM   12  C28 UNL     1       1.435  51.310 -13.179  1.00  0.00     0.133 C 
HETATM   13  C29 UNL     1       2.741  50.919 -12.391  1.00  0.00     0.114 C 
HETATM   14  C30 UNL     1       3.308  51.982 -11.455  1.00  0.00     0.023 C 
HETATM   15  C31 UNL     1       2.322  49.738 -11.553  1.00  0.00     0.227 C 
HETATM   16  O8  UNL     1       3.082  48.908 -11.085  1.00  0.00    -0.273 OA
HETATM   17  N3  UNL     1       0.957  49.821 -11.354  1.00  0.00    -0.332 N 
HETATM   18  C32 UNL     1       0.245  48.687 -10.806  1.00  0.00     0.154 C 
HETATM   19  C33 UNL     1       0.288  50.837 -12.241  1.00  0.00     0.183 C 
HETATM   20  C34 UNL     1      -1.098  50.410 -12.852  1.00  0.00     0.294 C 
HETATM   21  C35 UNL     1      -0.640  51.811 -11.425  1.00  0.00     0.169 C 
HETATM   22  O9  UNL     1      -1.565  49.554 -13.565  1.00  0.00    -0.262 OA
HETATM   23  O10 UNL     1      -1.792  51.388 -12.203  1.00  0.00    -0.311 OA
HETATM   24  C36 UNL     1      -0.563  53.327 -11.424  1.00  0.00     0.043 C 
BRANCH  12  25
HETATM   25  O7  UNL     1       1.397  52.714 -13.429  1.00  0.00    -0.383 OA
HETATM   26  H42 UNL     1       1.689  53.217 -12.650  1.00  0.00     0.210 HD
ENDBRANCH  12  25
ENDBRANCH   9  12
ENDBRANCH   8   9
ENDBRANCH   6   8
ENDBRANCH   5   6
BRANCH   5  27
HETATM   27  O2  UNL     1       1.738  53.189 -17.130  1.00  0.00    -0.391 OA
HETATM   28  H12 UNL     1       1.781  54.037 -17.612  1.00  0.00     0.210 HD
ENDBRANCH   5  27
ENDBRANCH   4   5
ENDBRANCH   1   3
BRANCH   2  29
HETATM   29  C11 UNL     1       1.201  54.752 -23.490  1.00  0.00     0.149 C 
BRANCH  29  30
HETATM   30  N1  UNL     1       0.906  53.581 -24.274  1.00  0.00    -0.357 N 
HETATM   31  C12 UNL     1       0.258  53.726 -25.486  1.00  0.00     0.228 C 
HETATM   32  O3  UNL     1       0.026  54.846 -25.946  1.00  0.00    -0.273 OA
HETATM   33  H19 UNL     1       0.895  52.677 -23.833  1.00  0.00     0.162 HD
BRANCH  31  34
HETATM   34  C13 UNL     1      -0.118  52.424 -26.228  1.00  0.00     0.063 C 
HETATM   35  C14 UNL     1       0.961  51.354 -25.964  1.00  0.00     0.028 C 
HETATM   36  C15 UNL     1      -0.069  52.735 -27.748  1.00  0.00     0.028 C 
BRANCH  34  37
HETATM   37  C16 UNL     1      -1.553  51.911 -25.892  1.00  0.00     0.164 C 
BRANCH  37  38
HETATM   38  O4  UNL     1      -2.456  53.005 -25.723  1.00  0.00    -0.390 OA
HETATM   39  H27 UNL     1      -3.349  52.632 -25.652  1.00  0.00     0.210 HD
ENDBRANCH  37  38
BRANCH  37  40
HETATM   40  C17 UNL     1      -1.745  50.951 -24.723  1.00  0.00    -0.054 C 
HETATM   41  C18 UNL     1      -1.543  51.514 -23.332  1.00  0.00     0.046 C 
HETATM   42  C19 UNL     1      -2.199  49.680 -24.830  1.00  0.00     0.005 C 
BRANCH  42  43
HETATM   43  C20 UNL     1      -2.589  48.984 -26.042  1.00  0.00     0.000 C 
HETATM   44  C21 UNL     1      -3.851  48.976 -26.505  1.00  0.00     0.000 C 
BRANCH  44  45
HETATM   45  C22 UNL     1      -4.220  48.319 -27.747  1.00  0.00     0.001 C 
HETATM   46  C23 UNL     1      -5.491  47.985 -28.041  1.00  0.00     0.009 C 
BRANCH  46  47
HETATM   47  C24 UNL     1      -5.969  47.365 -29.287  1.00  0.00    -0.034 C 
HETATM   48  C25 UNL     1      -6.726  46.054 -29.125  1.00  0.00     0.050 C 
HETATM   49  C26 UNL     1      -5.738  47.956 -30.484  1.00  0.00     0.082 C 
HETATM   50  C27 UNL     1      -5.052  49.230 -30.854  1.00  0.00     0.075 C 
BRANCH  49  51
HETATM   51  N2  UNL     1      -6.212  47.274 -31.673  1.00  0.00    -0.120 N 
HETATM   52  O5  UNL     1      -5.740  46.150 -31.894  1.00  0.00    -0.532 OA
HETATM   53  O6  UNL     1      -7.066  47.855 -32.354  1.00  0.00    -0.532 OA
ENDBRANCH  49  51
ENDBRANCH  46  47
ENDBRANCH  44  45
ENDBRANCH  42  43
ENDBRANCH  37  40
ENDBRANCH  34  37
ENDBRANCH  31  34
ENDBRANCH  29  30
ENDBRANCH   2  29
TORSDOF 19
ENDMDL
MODEL 5
REMARK minimizedAffinity -8.23945618
REMARK CNNscore 0.174713299
REMARK CNNaffinity 6.04901361
REMARK  19 active torsions:
REMARK  status: ('A' for Active; 'I' for Inactive)
REMARK    1  A    between atoms: O1_2  and  C2_3 
REMARK    2  A    between atoms: C2_3  and  C3_4 
REMARK    3  A    between atoms: C2_3  and  C28_36 
REMARK    4  A    between atoms: C3_4  and  C4_5 
REMARK    5  A    between atoms: C4_5  and  C6_7 
REMARK    6  A    between atoms: C6_7  and  O2_8 
REMARK    7  A    between atoms: C6_7  and  C7_9 
REMARK    8  A    between atoms: C8_10  and  C9_11 
REMARK    9  A    between atoms: C10_12  and  C11_13 
REMARK   10  A    between atoms: C11_13  and  N1_14 
REMARK       I    between atoms: N1_14  and  C12_15 
REMARK   11  A    between atoms: C12_15  and  C13_17 
REMARK   12  A    between atoms: C13_17  and  C16_20 
REMARK   13  A    between atoms: C16_20  and  O4_21 
REMARK   14  A    between atoms: C16_20  and  C17_22 
REMARK   15  A    between atoms: C19_24  and  C20_25 
REMARK   16  A    between atoms: C21_26  and  C22_27 
REMARK   17  A    between atoms: C23_28  and  C24_29 
REMARK   18  A    between atoms: C26_31  and  N2_33 
REMARK   19  A    between atoms: C28_36  and  O7_37 
ROOT
HETATM    1  C9  UNL     1       0.362  52.420 -20.531  1.00  0.00    -0.003 C 
HETATM    2  C10 UNL     1       0.474  51.895 -21.761  1.00  0.00    -0.007 C 
ENDROOT
BRANCH   1   3
HETATM    3  C8  UNL     1       0.078  51.599 -19.372  1.00  0.00    -0.002 C 
HETATM    4  C7  UNL     1       0.364  51.975 -18.117  1.00  0.00     0.005 C 
BRANCH   4   5
HETATM    5  C6  UNL     1       0.103  51.163 -16.866  1.00  0.00     0.144 C 
BRANCH   5   6
HETATM    6  C4  UNL     1       0.730  51.784 -15.601  1.00  0.00     0.016 C 
HETATM    7  C5  UNL     1       2.130  52.343 -15.881  1.00  0.00     0.013 C 
BRANCH   6   8
HETATM    8  C3  UNL     1       0.683  50.882 -14.332  1.00  0.00     0.042 C 
BRANCH   8   9
HETATM    9  C2  UNL     1       0.111  51.466 -13.012  1.00  0.00     0.159 C 
BRANCH   9  10
HETATM   10  O1  UNL     1       1.088  51.440 -11.961  1.00  0.00    -0.388 OA
HETATM   11  C1  UNL     1       2.301  52.107 -12.287  1.00  0.00     0.202 C 
ENDBRANCH   9  10
BRANCH   9  12
HETATM   12  C28 UNL     1      -1.181  50.770 -12.452  1.00  0.00     0.133 C 
HETATM   13  C29 UNL     1      -2.063  50.294 -13.666  1.00  0.00     0.114 C 
HETATM   14  C30 UNL     1      -2.889  49.030 -13.445  1.00  0.00     0.023 C 
HETATM   15  C31 UNL     1      -3.018  51.439 -13.893  1.00  0.00     0.227 C 
HETATM   16  O8  UNL     1      -3.612  51.656 -14.935  1.00  0.00    -0.273 OA
HETATM   17  N3  UNL     1      -3.148  52.128 -12.702  1.00  0.00    -0.332 N 
HETATM   18  C32 UNL     1      -3.797  53.420 -12.692  1.00  0.00     0.154 C 
HETATM   19  C33 UNL     1      -2.119  51.736 -11.675  1.00  0.00     0.183 C 
HETATM   20  C34 UNL     1      -1.505  52.916 -10.833  1.00  0.00     0.294 C 
HETATM   21  C35 UNL     1      -2.774  51.400 -10.284  1.00  0.00     0.169 C 
HETATM   22  O9  UNL     1      -0.881  53.937 -10.998  1.00  0.00    -0.262 OA
HETATM   23  O10 UNL     1      -2.004  52.457  -9.650  1.00  0.00    -0.311 OA
HETATM   24  C36 UNL     1      -2.598  50.110  -9.503  1.00  0.00     0.043 C 
BRANCH  12  25
HETATM   25  O7  UNL     1      -0.764  49.656 -11.663  1.00  0.00    -0.383 OA
HETATM   26  H42 UNL     1      -1.489  49.020 -11.544  1.00  0.00     0.210 HD
ENDBRANCH  12  25
ENDBRANCH   9  12
ENDBRANCH   8   9
ENDBRANCH   6   8
ENDBRANCH   5   6
BRANCH   5  27
HETATM   27  O2  UNL     1      -1.299  51.002 -16.669  1.00  0.00    -0.391 OA
HETATM   28  H12 UNL     1      -1.683  50.779 -17.539  1.00  0.00     0.210 HD
ENDBRANCH   5  27
ENDBRANCH   4   5
ENDBRANCH   1   3
BRANCH   2  29
HETATM   29  C11 UNL     1       0.777  52.559 -23.071  1.00  0.00     0.149 C 
BRANCH  29  30
HETATM   30  N1  UNL     1       0.150  51.924 -24.201  1.00  0.00    -0.357 N 
HETATM   31  C12 UNL     1      -0.730  52.652 -24.980  1.00  0.00     0.228 C 
HETATM   32  O3  UNL     1      -0.901  53.856 -24.780  1.00  0.00    -0.273 OA
HETATM   33  H19 UNL     1       0.113  50.921 -24.251  1.00  0.00     0.162 HD
BRANCH  31  34
HETATM   34  C13 UNL     1      -1.444  51.883 -26.114  1.00  0.00     0.063 C 
HETATM   35  C14 UNL     1      -0.633  50.619 -26.467  1.00  0.00     0.028 C 
HETATM   36  C15 UNL     1      -1.412  52.793 -27.372  1.00  0.00     0.028 C 
BRANCH  34  37
HETATM   37  C16 UNL     1      -2.937  51.557 -25.799  1.00  0.00     0.164 C 
BRANCH  37  38
HETATM   38  O4  UNL     1      -3.721  52.752 -25.766  1.00  0.00    -0.390 OA
HETATM   39  H27 UNL     1      -4.651  52.484 -25.703  1.00  0.00     0.210 HD
ENDBRANCH  37  38
BRANCH  37  40
HETATM   40  C17 UNL     1      -3.275  50.734 -24.561  1.00  0.00    -0.054 C 
HETATM   41  C18 UNL     1      -2.987  51.367 -23.216  1.00  0.00     0.046 C 
HETATM   42  C19 UNL     1      -3.919  49.543 -24.573  1.00  0.00     0.005 C 
BRANCH  42  43
HETATM   43  C20 UNL     1      -4.413  48.823 -25.731  1.00  0.00     0.000 C 
HETATM   44  C21 UNL     1      -3.762  48.796 -26.907  1.00  0.00     0.000 C 
BRANCH  44  45
HETATM   45  C22 UNL     1      -4.241  48.030 -28.044  1.00  0.00     0.001 C 
HETATM   46  C23 UNL     1      -5.549  47.900 -28.333  1.00  0.00     0.009 C 
BRANCH  46  47
HETATM   47  C24 UNL     1      -6.128  47.190 -29.485  1.00  0.00    -0.034 C 
HETATM   48  C25 UNL     1      -6.894  45.916 -29.159  1.00  0.00     0.050 C 
HETATM   49  C26 UNL     1      -5.973  47.673 -30.741  1.00  0.00     0.082 C 
HETATM   50  C27 UNL     1      -5.292  48.895 -31.266  1.00  0.00     0.075 C 
BRANCH  49  51
HETATM   51  N2  UNL     1      -6.544  46.906 -31.831  1.00  0.00    -0.120 N 
HETATM   52  O5  UNL     1      -7.689  47.215 -32.188  1.00  0.00    -0.532 OA
HETATM   53  O6  UNL     1      -5.835  46.025 -32.334  1.00  0.00    -0.532 OA
ENDBRANCH  49  51
ENDBRANCH  46  47
ENDBRANCH  44  45
ENDBRANCH  42  43
ENDBRANCH  37  40
ENDBRANCH  34  37
ENDBRANCH  31  34
ENDBRANCH  29  30
ENDBRANCH   2  29
TORSDOF 19
ENDMDL
MODEL 6
REMARK minimizedAffinity -8.32092094
REMARK CNNscore 0.170365199
REMARK CNNaffinity 6.34163904
REMARK  19 active torsions:
REMARK  status: ('A' for Active; 'I' for Inactive)
REMARK    1  A    between atoms: O1_2  and  C2_3 
REMARK    2  A    between atoms: C2_3  and  C3_4 
REMARK    3  A    between atoms: C2_3  and  C28_36 
REMARK    4  A    between atoms: C3_4  and  C4_5 
REMARK    5  A    between atoms: C4_5  and  C6_7 
REMARK    6  A    between atoms: C6_7  and  O2_8 
REMARK    7  A    between atoms: C6_7  and  C7_9 
REMARK    8  A    between atoms: C8_10  and  C9_11 
REMARK    9  A    between atoms: C10_12  and  C11_13 
REMARK   10  A    between atoms: C11_13  and  N1_14 
REMARK       I    between atoms: N1_14  and  C12_15 
REMARK   11  A    between atoms: C12_15  and  C13_17 
REMARK   12  A    between atoms: C13_17  and  C16_20 
REMARK   13  A    between atoms: C16_20  and  O4_21 
REMARK   14  A    between atoms: C16_20  and  C17_22 
REMARK   15  A    between atoms: C19_24  and  C20_25 
REMARK   16  A    between atoms: C21_26  and  C22_27 
REMARK   17  A    between atoms: C23_28  and  C24_29 
REMARK   18  A    between atoms: C26_31  and  N2_33 
REMARK   19  A    between atoms: C28_36  and  O7_37 
ROOT
HETATM    1  C9  UNL     1      -3.668  48.791 -25.316  1.00  0.00    -0.003 C 
HETATM    2  C10 UNL     1      -4.586  49.176 -24.415  1.00  0.00    -0.007 C 
ENDROOT
BRANCH   1   3
HETATM    3  C8  UNL     1      -4.031  48.418 -26.667  1.00  0.00    -0.002 C 
HETATM    4  C7  UNL     1      -5.293  48.165 -27.046  1.00  0.00     0.005 C 
BRANCH   4   5
HETATM    5  C6  UNL     1      -5.739  47.762 -28.435  1.00  0.00     0.144 C 
BRANCH   5   6
HETATM    6  C4  UNL     1      -7.259  47.911 -28.649  1.00  0.00     0.016 C 
HETATM    7  C5  UNL     1      -8.020  47.896 -27.318  1.00  0.00     0.013 C 
BRANCH   6   8
HETATM    8  C3  UNL     1      -7.874  46.945 -29.706  1.00  0.00     0.042 C 
BRANCH   8   9
HETATM    9  C2  UNL     1      -7.146  46.753 -31.064  1.00  0.00     0.159 C 
BRANCH   9  10
HETATM   10  O1  UNL     1      -6.962  48.004 -31.741  1.00  0.00    -0.388 OA
HETATM   11  C1  UNL     1      -7.958  48.974 -31.438  1.00  0.00     0.202 C 
ENDBRANCH   9  10
BRANCH   9  12
HETATM   12  C28 UNL     1      -7.836  45.778 -32.085  1.00  0.00     0.133 C 
HETATM   13  C29 UNL     1      -9.243  46.369 -32.473  1.00  0.00     0.114 C 
HETATM   14  C30 UNL     1      -9.732  46.073 -33.887  1.00  0.00     0.023 C 
HETATM   15  C31 UNL     1     -10.194  45.712 -31.505  1.00  0.00     0.227 C 
HETATM   16  O8  UNL     1     -11.294  46.142 -31.205  1.00  0.00    -0.273 OA
HETATM   17  N3  UNL     1      -9.628  44.519 -31.097  1.00  0.00    -0.332 N 
HETATM   18  C32 UNL     1     -10.198  43.805 -29.976  1.00  0.00     0.154 C 
HETATM   19  C33 UNL     1      -8.178  44.387 -31.481  1.00  0.00     0.183 C 
HETATM   20  C34 UNL     1      -7.235  43.752 -30.393  1.00  0.00     0.294 C 
HETATM   21  C35 UNL     1      -7.880  43.018 -32.197  1.00  0.00     0.169 C 
HETATM   22  O9  UNL     1      -6.866  43.957 -29.261  1.00  0.00    -0.262 OA
HETATM   23  O10 UNL     1      -6.927  42.666 -31.158  1.00  0.00    -0.311 OA
HETATM   24  C36 UNL     1      -7.229  42.845 -33.557  1.00  0.00     0.043 C 
BRANCH  12  25
HETATM   25  O7  UNL     1      -6.992  45.687 -33.233  1.00  0.00    -0.383 OA
HETATM   26  H42 UNL     1      -7.485  45.360 -34.004  1.00  0.00     0.210 HD
ENDBRANCH  12  25
ENDBRANCH   9  12
ENDBRANCH   8   9
ENDBRANCH   6   8
ENDBRANCH   5   6
BRANCH   5  27
HETATM   27  O2  UNL     1      -5.046  48.530 -29.415  1.00  0.00    -0.391 OA
HETATM   28  H12 UNL     1      -4.109  48.556 -29.142  1.00  0.00     0.210 HD
ENDBRANCH   5  27
ENDBRANCH   4   5
ENDBRANCH   1   3
BRANCH   2  29
HETATM   29  C11 UNL     1      -4.418  49.613 -22.991  1.00  0.00     0.149 C 
BRANCH  29  30
HETATM   30  N1  UNL     1      -3.370  48.915 -22.292  1.00  0.00    -0.357 N 
HETATM   31  C12 UNL     1      -3.461  48.761 -20.921  1.00  0.00     0.228 C 
HETATM   32  O3  UNL     1      -4.471  49.120 -20.313  1.00  0.00    -0.273 OA
HETATM   33  H19 UNL     1      -2.469  48.808 -22.724  1.00  0.00     0.162 HD
BRANCH  31  34
HETATM   34  C13 UNL     1      -2.257  48.094 -20.221  1.00  0.00     0.063 C 
HETATM   35  C14 UNL     1      -1.357  47.422 -21.278  1.00  0.00     0.028 C 
HETATM   36  C15 UNL     1      -2.821  46.952 -19.333  1.00  0.00     0.028 C 
BRANCH  34  37
HETATM   37  C16 UNL     1      -1.458  49.066 -19.299  1.00  0.00     0.164 C 
BRANCH  37  38
HETATM   38  O4  UNL     1      -1.005  48.391 -18.123  1.00  0.00    -0.390 OA
HETATM   39  H27 UNL     1      -0.406  48.997 -17.657  1.00  0.00     0.210 HD
ENDBRANCH  37  38
BRANCH  37  40
HETATM   40  C17 UNL     1      -2.097  50.383 -18.874  1.00  0.00    -0.054 C 
HETATM   41  C18 UNL     1      -2.888  50.379 -17.583  1.00  0.00     0.046 C 
HETATM   42  C19 UNL     1      -1.908  51.572 -19.495  1.00  0.00     0.005 C 
BRANCH  42  43
HETATM   43  C20 UNL     1      -1.081  51.836 -20.657  1.00  0.00     0.000 C 
HETATM   44  C21 UNL     1      -1.534  51.723 -21.917  1.00  0.00     0.000 C 
BRANCH  44  45
HETATM   45  C22 UNL     1      -0.711  52.039 -23.072  1.00  0.00     0.001 C 
HETATM   46  C23 UNL     1      -1.087  51.750 -24.332  1.00  0.00     0.009 C 
BRANCH  46  47
HETATM   47  C24 UNL     1      -0.350  52.072 -25.564  1.00  0.00    -0.034 C 
HETATM   48  C25 UNL     1       1.160  52.194 -25.418  1.00  0.00     0.050 C 
HETATM   49  C26 UNL     1      -1.007  52.236 -26.737  1.00  0.00     0.082 C 
HETATM   50  C27 UNL     1      -2.455  52.136 -27.095  1.00  0.00     0.075 C 
BRANCH  49  51
HETATM   51  N2  UNL     1      -0.220  52.581 -27.905  1.00  0.00    -0.120 N 
HETATM   52  O5  UNL     1       0.311  51.643 -28.515  1.00  0.00    -0.532 OA
HETATM   53  O6  UNL     1      -0.164  53.778 -28.215  1.00  0.00    -0.532 OA
ENDBRANCH  49  51
ENDBRANCH  46  47
ENDBRANCH  44  45
ENDBRANCH  42  43
ENDBRANCH  37  40
ENDBRANCH  34  37
ENDBRANCH  31  34
ENDBRANCH  29  30
ENDBRANCH   2  29
TORSDOF 19
ENDMDL
MODEL 7
REMARK minimizedAffinity -8.16210651
REMARK CNNscore 0.16346781
REMARK CNNaffinity 6.06745195
REMARK  19 active torsions:
REMARK  status: ('A' for Active; 'I' for Inactive)
REMARK    1  A    between atoms: O1_2  and  C2_3 
REMARK    2  A    between atoms: C2_3  and  C3_4 
REMARK    3  A    between atoms: C2_3  and  C28_36 
REMARK    4  A    between atoms: C3_4  and  C4_5 
REMARK    5  A    between atoms: C4_5  and  C6_7 
REMARK    6  A    between atoms: C6_7  and  O2_8 
REMARK    7  A    between atoms: C6_7  and  C7_9 
REMARK    8  A    between atoms: C8_10  and  C9_11 
REMARK    9  A    between atoms: C10_12  and  C11_13 
REMARK   10  A    between atoms: C11_13  and  N1_14 
REMARK       I    between atoms: N1_14  and  C12_15 
REMARK   11  A    between atoms: C12_15  and  C13_17 
REMARK   12  A    between atoms: C13_17  and  C16_20 
REMARK   13  A    between atoms: C16_20  and  O4_21 
REMARK   14  A    between atoms: C16_20  and  C17_22 
REMARK   15  A    between atoms: C19_24  and  C20_25 
REMARK   16  A    between atoms: C21_26  and  C22_27 
REMARK   17  A    between atoms: C23_28  and  C24_29 
REMARK   18  A    between atoms: C26_31  and  N2_33 
REMARK   19  A    between atoms: C28_36  and  O7_37 
ROOT
HETATM    1  C9  UNL     1       0.756  52.511 -18.163  1.00  0.00    -0.003 C 
HETATM    2  C10 UNL     1      -0.248  51.689 -18.511  1.00  0.00    -0.007 C 
ENDROOT
BRANCH   1   3
HETATM    3  C8  UNL     1       1.351  52.474 -16.843  1.00  0.00    -0.002 C 
HETATM    4  C7  UNL     1       0.828  51.781 -15.820  1.00  0.00     0.005 C 
BRANCH   4   5
HETATM    5  C6  UNL     1       1.393  51.708 -14.418  1.00  0.00     0.144 C 
BRANCH   5   6
HETATM    6  C4  UNL     1       1.404  50.276 -13.844  1.00  0.00     0.016 C 
HETATM    7  C5  UNL     1       0.969  49.245 -14.892  1.00  0.00     0.013 C 
BRANCH   6   8
HETATM    8  C3  UNL     1       0.662  50.104 -12.485  1.00  0.00     0.042 C 
BRANCH   8   9
HETATM    9  C2  UNL     1      -0.843  50.475 -12.396  1.00  0.00     0.159 C 
BRANCH   9  10
HETATM   10  O1  UNL     1      -1.462  50.465 -13.690  1.00  0.00    -0.388 OA
HETATM   11  C1  UNL     1      -2.496  49.497 -13.825  1.00  0.00     0.202 C 
ENDBRANCH   9  10
BRANCH   9  12
HETATM   12  C28 UNL     1      -1.174  51.865 -11.743  1.00  0.00     0.133 C 
HETATM   13  C29 UNL     1       0.158  52.483 -11.173  1.00  0.00     0.114 C 
HETATM   14  C30 UNL     1       0.256  54.006 -11.193  1.00  0.00     0.023 C 
HETATM   15  C31 UNL     1       0.182  52.035  -9.735  1.00  0.00     0.227 C 
HETATM   16  O8  UNL     1       1.181  51.971  -9.039  1.00  0.00    -0.273 OA
HETATM   17  N3  UNL     1      -1.121  51.796  -9.341  1.00  0.00    -0.332 N 
HETATM   18  C32 UNL     1      -1.376  51.109  -8.094  1.00  0.00     0.154 C 
HETATM   19  C33 UNL     1      -2.091  51.760 -10.492  1.00  0.00     0.183 C 
HETATM   20  C34 UNL     1      -3.198  50.642 -10.423  1.00  0.00     0.294 C 
HETATM   21  C35 UNL     1      -3.342  52.680 -10.237  1.00  0.00     0.169 C 
HETATM   22  O9  UNL     1      -3.288  49.439 -10.373  1.00  0.00    -0.262 OA
HETATM   23  O10 UNL     1      -4.227  51.533 -10.350  1.00  0.00    -0.311 OA
HETATM   24  C36 UNL     1      -3.836  53.789 -11.150  1.00  0.00     0.043 C 
BRANCH  12  25
HETATM   25  O7  UNL     1      -1.725  52.701 -12.760  1.00  0.00    -0.383 OA
HETATM   26  H42 UNL     1      -1.666  53.638 -12.513  1.00  0.00     0.210 HD
ENDBRANCH  12  25
ENDBRANCH   9  12
ENDBRANCH   8   9
ENDBRANCH   6   8
ENDBRANCH   5   6
BRANCH   5  27
HETATM   27  O2  UNL     1       2.715  52.238 -14.393  1.00  0.00    -0.391 OA
HETATM   28  H12 UNL     1       2.700  53.060 -14.919  1.00  0.00     0.210 HD
ENDBRANCH   5  27
ENDBRANCH   4   5
ENDBRANCH   1   3
BRANCH   2  29
HETATM   29  C11 UNL     1      -0.980  51.557 -19.813  1.00  0.00     0.149 C 
BRANCH  29  30
HETATM   30  N1  UNL     1      -1.888  50.441 -19.855  1.00  0.00    -0.357 N 
HETATM   31  C12 UNL     1      -1.595  49.364 -20.670  1.00  0.00     0.228 C 
HETATM   32  O3  UNL     1      -0.522  49.306 -21.276  1.00  0.00    -0.273 OA
HETATM   33  H19 UNL     1      -2.837  50.559 -19.546  1.00  0.00     0.162 HD
BRANCH  31  34
HETATM   34  C13 UNL     1      -2.658  48.247 -20.747  1.00  0.00     0.063 C 
HETATM   35  C14 UNL     1      -2.782  47.561 -19.370  1.00  0.00     0.028 C 
HETATM   36  C15 UNL     1      -2.120  47.170 -21.728  1.00  0.00     0.028 C 
BRANCH  34  37
HETATM   37  C16 UNL     1      -4.038  48.738 -21.286  1.00  0.00     0.164 C 
BRANCH  37  38
HETATM   38  O4  UNL     1      -4.914  49.071 -20.208  1.00  0.00    -0.390 OA
HETATM   39  H27 UNL     1      -5.697  49.494 -20.594  1.00  0.00     0.210 HD
ENDBRANCH  37  38
BRANCH  37  40
HETATM   40  C17 UNL     1      -4.807  47.863 -22.270  1.00  0.00    -0.054 C 
HETATM   41  C18 UNL     1      -5.677  46.772 -21.684  1.00  0.00     0.046 C 
HETATM   42  C19 UNL     1      -4.865  48.067 -23.607  1.00  0.00     0.005 C 
BRANCH  42  43
HETATM   43  C20 UNL     1      -4.231  49.131 -24.363  1.00  0.00     0.000 C 
HETATM   44  C21 UNL     1      -2.904  49.189 -24.571  1.00  0.00     0.000 C 
BRANCH  44  45
HETATM   45  C22 UNL     1      -2.286  50.231 -25.372  1.00  0.00     0.001 C 
HETATM   46  C23 UNL     1      -1.069  50.735 -25.092  1.00  0.00     0.009 C 
BRANCH  46  47
HETATM   47  C24 UNL     1      -0.341  51.753 -25.868  1.00  0.00    -0.034 C 
HETATM   48  C25 UNL     1       1.133  51.914 -25.526  1.00  0.00     0.050 C 
HETATM   49  C26 UNL     1      -0.976  52.475 -26.822  1.00  0.00     0.082 C 
HETATM   50  C27 UNL     1      -2.384  52.456 -27.321  1.00  0.00     0.075 C 
BRANCH  49  51
HETATM   51  N2  UNL     1      -0.204  53.481 -27.527  1.00  0.00    -0.120 N 
HETATM   52  O5  UNL     1       0.313  53.134 -28.597  1.00  0.00    -0.532 OA
HETATM   53  O6  UNL     1      -0.145  54.607 -27.017  1.00  0.00    -0.532 OA
ENDBRANCH  49  51
ENDBRANCH  46  47
ENDBRANCH  44  45
ENDBRANCH  42  43
ENDBRANCH  37  40
ENDBRANCH  34  37
ENDBRANCH  31  34
ENDBRANCH  29  30
ENDBRANCH   2  29
TORSDOF 19
ENDMDL
MODEL 8
REMARK minimizedAffinity -8.30695438
REMARK CNNscore 0.162215903
REMARK CNNaffinity 6.13167953
REMARK  19 active torsions:
REMARK  status: ('A' for Active; 'I' for Inactive)
REMARK    1  A    between atoms: O1_2  and  C2_3 
REMARK    2  A    between atoms: C2_3  and  C3_4 
REMARK    3  A    between atoms: C2_3  and  C28_36 
REMARK    4  A    between atoms: C3_4  and  C4_5 
REMARK    5  A    between atoms: C4_5  and  C6_7 
REMARK    6  A    between atoms: C6_7  and  O2_8 
REMARK    7  A    between atoms: C6_7  and  C7_9 
REMARK    8  A    between atoms: C8_10  and  C9_11 
REMARK    9  A    between atoms: C10_12  and  C11_13 
REMARK   10  A    between atoms: C11_13  and  N1_14 
REMARK       I    between atoms: N1_14  and  C12_15 
REMARK   11  A    between atoms: C12_15  and  C13_17 
REMARK   12  A    between atoms: C13_17  and  C16_20 
REMARK   13  A    between atoms: C16_20  and  O4_21 
REMARK   14  A    between atoms: C16_20  and  C17_22 
REMARK   15  A    between atoms: C19_24  and  C20_25 
REMARK   16  A    between atoms: C21_26  and  C22_27 
REMARK   17  A    between atoms: C23_28  and  C24_29 
REMARK   18  A    between atoms: C26_31  and  N2_33 
REMARK   19  A    between atoms: C28_36  and  O7_37 
ROOT
HETATM    1  C9  UNL     1      -6.014  47.357 -22.831  1.00  0.00    -0.003 C 
HETATM    2  C10 UNL     1      -6.142  46.852 -21.593  1.00  0.00    -0.007 C 
ENDROOT
BRANCH   1   3
HETATM    3  C8  UNL     1      -7.077  47.258 -23.810  1.00  0.00    -0.002 C 
HETATM    4  C7  UNL     1      -8.075  48.149 -23.904  1.00  0.00     0.005 C 
BRANCH   4   5
HETATM    5  C6  UNL     1      -9.218  48.099 -24.895  1.00  0.00     0.144 C 
BRANCH   5   6
HETATM    6  C4  UNL     1      -8.832  47.430 -26.230  1.00  0.00     0.016 C 
HETATM    7  C5  UNL     1      -8.523  45.941 -26.046  1.00  0.00     0.013 C 
BRANCH   6   8
HETATM    8  C3  UNL     1      -7.737  48.177 -27.049  1.00  0.00     0.042 C 
BRANCH   8   9
HETATM    9  C2  UNL     1      -6.944  47.399 -28.133  1.00  0.00     0.159 C 
BRANCH   9  10
HETATM   10  O1  UNL     1      -5.530  47.596 -27.990  1.00  0.00    -0.388 OA
HETATM   11  C1  UNL     1      -5.155  48.193 -26.755  1.00  0.00     0.202 C 
ENDBRANCH   9  10
BRANCH   9  12
HETATM   12  C28 UNL     1      -7.303  47.734 -29.626  1.00  0.00     0.133 C 
HETATM   13  C29 UNL     1      -8.631  48.580 -29.646  1.00  0.00     0.114 C 
HETATM   14  C30 UNL     1      -8.763  49.601 -30.773  1.00  0.00     0.023 C 
HETATM   15  C31 UNL     1      -9.716  47.549 -29.825  1.00  0.00     0.227 C 
HETATM   16  O8  UNL     1     -10.888  47.710 -29.529  1.00  0.00    -0.273 OA
HETATM   17  N3  UNL     1      -9.159  46.447 -30.445  1.00  0.00    -0.332 N 
HETATM   18  C32 UNL     1      -9.905  45.209 -30.507  1.00  0.00     0.154 C 
HETATM   19  C33 UNL     1      -7.655  46.482 -30.476  1.00  0.00     0.183 C 
HETATM   20  C34 UNL     1      -6.929  45.114 -30.193  1.00  0.00     0.294 C 
HETATM   21  C35 UNL     1      -7.089  46.210 -31.920  1.00  0.00     0.169 C 
HETATM   22  O9  UNL     1      -6.844  44.281 -29.322  1.00  0.00    -0.262 OA
HETATM   23  O10 UNL     1      -6.368  45.046 -31.433  1.00  0.00    -0.311 OA
HETATM   24  C36 UNL     1      -6.137  47.107 -32.689  1.00  0.00     0.043 C 
BRANCH  12  25
HETATM   25  O7  UNL     1      -6.218  48.484 -30.173  1.00  0.00    -0.383 OA
HETATM   26  H42 UNL     1      -6.496  48.974 -30.965  1.00  0.00     0.210 HD
ENDBRANCH  12  25
ENDBRANCH   9  12
ENDBRANCH   8   9
ENDBRANCH   6   8
ENDBRANCH   5   6
BRANCH   5  27
HETATM   27  O2  UNL     1     -10.330  47.413 -24.327  1.00  0.00    -0.391 OA
HETATM   28  H12 UNL     1     -10.431  47.745 -23.414  1.00  0.00     0.210 HD
ENDBRANCH   5  27
ENDBRANCH   4   5
ENDBRANCH   1   3
BRANCH   2  29
HETATM   29  C11 UNL     1      -5.181  46.864 -20.442  1.00  0.00     0.149 C 
BRANCH  29  30
HETATM   30  N1  UNL     1      -4.077  47.772 -20.619  1.00  0.00    -0.357 N 
HETATM   31  C12 UNL     1      -3.646  48.526 -19.545  1.00  0.00     0.228 C 
HETATM   32  O3  UNL     1      -4.126  48.356 -18.422  1.00  0.00    -0.273 OA
HETATM   33  H19 UNL     1      -3.822  48.071 -21.544  1.00  0.00     0.162 HD
BRANCH  31  34
HETATM   34  C13 UNL     1      -2.526  49.551 -19.827  1.00  0.00     0.063 C 
HETATM   35  C14 UNL     1      -2.855  50.328 -21.119  1.00  0.00     0.028 C 
HETATM   36  C15 UNL     1      -1.231  48.745 -20.116  1.00  0.00     0.028 C 
BRANCH  34  37
HETATM   37  C16 UNL     1      -2.237  50.503 -18.625  1.00  0.00     0.164 C 
BRANCH  37  38
HETATM   38  O4  UNL     1      -2.933  51.742 -18.781  1.00  0.00    -0.390 OA
HETATM   39  H27 UNL     1      -2.829  52.236 -17.952  1.00  0.00     0.210 HD
ENDBRANCH  37  38
BRANCH  37  40
HETATM   40  C17 UNL     1      -0.792  50.814 -18.251  1.00  0.00    -0.054 C 
HETATM   41  C18 UNL     1      -0.217  50.079 -17.059  1.00  0.00     0.046 C 
HETATM   42  C19 UNL     1       0.045  51.597 -18.973  1.00  0.00     0.005 C 
BRANCH  42  43
HETATM   43  C20 UNL     1      -0.247  52.282 -20.218  1.00  0.00     0.000 C 
HETATM   44  C21 UNL     1       0.199  51.852 -21.411  1.00  0.00     0.000 C 
BRANCH  44  45
HETATM   45  C22 UNL     1      -0.142  52.517 -22.656  1.00  0.00     0.001 C 
HETATM   46  C23 UNL     1       0.686  52.537 -23.718  1.00  0.00     0.009 C 
BRANCH  46  47
HETATM   47  C24 UNL     1       0.412  53.139 -25.033  1.00  0.00    -0.034 C 
HETATM   48  C25 UNL     1       0.334  54.659 -25.061  1.00  0.00     0.050 C 
HETATM   49  C26 UNL     1       0.252  52.358 -26.128  1.00  0.00     0.082 C 
HETATM   50  C27 UNL     1       0.313  50.877 -26.318  1.00  0.00     0.075 C 
BRANCH  49  51
HETATM   51  N2  UNL     1      -0.045  53.016 -27.385  1.00  0.00    -0.120 N 
HETATM   52  O5  UNL     1      -0.770  54.019 -27.330  1.00  0.00    -0.532 OA
HETATM   53  O6  UNL     1       0.469  52.542 -28.406  1.00  0.00    -0.532 OA
ENDBRANCH  49  51
ENDBRANCH  46  47
ENDBRANCH  44  45
ENDBRANCH  42  43
ENDBRANCH  37  40
ENDBRANCH  34  37
ENDBRANCH  31  34
ENDBRANCH  29  30
ENDBRANCH   2  29
TORSDOF 19
ENDMDL
MODEL 9
REMARK minimizedAffinity -8.16718388
REMARK CNNscore 0.160727113
REMARK CNNaffinity 6.5405364
REMARK  19 active torsions:
REMARK  status: ('A' for Active; 'I' for Inactive)
REMARK    1  A    between atoms: O1_2  and  C2_3 
REMARK    2  A    between atoms: C2_3  and  C3_4 
REMARK    3  A    between atoms: C2_3  and  C28_36 
REMARK    4  A    between atoms: C3_4  and  C4_5 
REMARK    5  A    between atoms: C4_5  and  C6_7 
REMARK    6  A    between atoms: C6_7  and  O2_8 
REMARK    7  A    between atoms: C6_7  and  C7_9 
REMARK    8  A    between atoms: C8_10  and  C9_11 
REMARK    9  A    between atoms: C10_12  and  C11_13 
REMARK   10  A    between atoms: C11_13  and  N1_14 
REMARK       I    between atoms: N1_14  and  C12_15 
REMARK   11  A    between atoms: C12_15  and  C13_17 
REMARK   12  A    between atoms: C13_17  and  C16_20 
REMARK   13  A    between atoms: C16_20  and  O4_21 
REMARK   14  A    between atoms: C16_20  and  C17_22 
REMARK   15  A    between atoms: C19_24  and  C20_25 
REMARK   16  A    between atoms: C21_26  and  C22_27 
REMARK   17  A    between atoms: C23_28  and  C24_29 
REMARK   18  A    between atoms: C26_31  and  N2_33 
REMARK   19  A    between atoms: C28_36  and  O7_37 
ROOT
HETATM    1  C9  UNL     1      -0.403  50.426 -18.578  1.00  0.00    -0.003 C 
HETATM    2  C10 UNL     1       0.080  51.661 -18.791  1.00  0.00    -0.007 C 
ENDROOT
BRANCH   1   3
HETATM    3  C8  UNL     1      -0.315  49.783 -17.283  1.00  0.00    -0.002 C 
HETATM    4  C7  UNL     1      -0.575  50.416 -16.129  1.00  0.00     0.005 C 
BRANCH   4   5
HETATM    5  C6  UNL     1      -0.493  49.808 -14.746  1.00  0.00     0.144 C 
BRANCH   5   6
HETATM    6  C4  UNL     1      -0.778  50.824 -13.621  1.00  0.00     0.016 C 
HETATM    7  C5  UNL     1      -0.049  52.151 -13.861  1.00  0.00     0.013 C 
BRANCH   6   8
HETATM    8  C3  UNL     1      -0.580  50.279 -12.175  1.00  0.00     0.042 C 
BRANCH   8   9
HETATM    9  C2  UNL     1      -0.216  51.273 -11.039  1.00  0.00     0.159 C 
BRANCH   9  10
HETATM   10  O1  UNL     1       1.140  51.097 -10.603  1.00  0.00    -0.388 OA
HETATM   11  C1  UNL     1       1.309  51.201  -9.194  1.00  0.00     0.202 C 
ENDBRANCH   9  10
BRANCH   9  12
HETATM   12  C28 UNL     1      -1.119  51.213  -9.754  1.00  0.00     0.133 C 
HETATM   13  C29 UNL     1      -2.409  50.372 -10.085  1.00  0.00     0.114 C 
HETATM   14  C30 UNL     1      -3.008  49.573  -8.930  1.00  0.00     0.023 C 
HETATM   15  C31 UNL     1      -3.421  51.406 -10.507  1.00  0.00     0.227 C 
HETATM   16  O8  UNL     1      -4.408  51.182 -11.186  1.00  0.00    -0.273 OA
HETATM   17  N3  UNL     1      -3.068  52.609  -9.925  1.00  0.00    -0.332 N 
HETATM   18  C32 UNL     1      -3.709  53.829 -10.363  1.00  0.00     0.154 C 
HETATM   19  C33 UNL     1      -1.686  52.597  -9.328  1.00  0.00     0.183 C 
HETATM   20  C34 UNL     1      -0.828  53.897  -9.554  1.00  0.00     0.294 C 
HETATM   21  C35 UNL     1      -1.677  53.134  -7.849  1.00  0.00     0.169 C 
HETATM   22  O9  UNL     1      -0.377  54.556 -10.461  1.00  0.00    -0.262 OA
HETATM   23  O10 UNL     1      -0.760  54.197  -8.226  1.00  0.00    -0.311 OA
HETATM   24  C36 UNL     1      -1.131  52.403  -6.637  1.00  0.00     0.043 C 
BRANCH  12  25
HETATM   25  O7  UNL     1      -0.360  50.587  -8.720  1.00  0.00    -0.383 OA
HETATM   26  H42 UNL     1      -0.938  50.248  -8.017  1.00  0.00     0.210 HD
ENDBRANCH  12  25
ENDBRANCH   9  12
ENDBRANCH   8   9
ENDBRANCH   6   8
ENDBRANCH   5   6
BRANCH   5  27
HETATM   27  O2  UNL     1      -1.399  48.714 -14.636  1.00  0.00    -0.391 OA
HETATM   28  H12 UNL     1      -1.310  48.190 -15.455  1.00  0.00     0.210 HD
ENDBRANCH   5  27
ENDBRANCH   4   5
ENDBRANCH   1   3
BRANCH   2  29
HETATM   29  C11 UNL     1       0.074  52.499 -20.034  1.00  0.00     0.149 C 
BRANCH  29  30
HETATM   30  N1  UNL     1      -0.786  51.990 -21.071  1.00  0.00    -0.357 N 
HETATM   31  C12 UNL     1      -0.582  52.398 -22.375  1.00  0.00     0.228 C 
HETATM   32  O3  UNL     1       0.384  53.104 -22.671  1.00  0.00    -0.273 OA
HETATM   33  H19 UNL     1      -1.679  51.597 -20.828  1.00  0.00     0.162 HD
BRANCH  31  34
HETATM   34  C13 UNL     1      -1.601  51.895 -23.422  1.00  0.00     0.063 C 
HETATM   35  C14 UNL     1      -3.026  52.288 -22.980  1.00  0.00     0.028 C 
HETATM   36  C15 UNL     1      -1.546  50.344 -23.404  1.00  0.00     0.028 C 
BRANCH  34  37
HETATM   37  C16 UNL     1      -1.284  52.367 -24.875  1.00  0.00     0.164 C 
BRANCH  37  38
HETATM   38  O4  UNL     1      -2.485  52.703 -25.572  1.00  0.00    -0.390 OA
HETATM   39  H27 UNL     1      -2.224  53.114 -26.412  1.00  0.00     0.210 HD
ENDBRANCH  37  38
BRANCH  37  40
HETATM   40  C17 UNL     1      -0.442  51.475 -25.780  1.00  0.00    -0.054 C 
HETATM   41  C18 UNL     1       1.062  51.598 -25.660  1.00  0.00     0.046 C 
HETATM   42  C19 UNL     1      -0.933  50.504 -26.586  1.00  0.00     0.005 C 
BRANCH  42  43
HETATM   43  C20 UNL     1      -2.321  50.116 -26.751  1.00  0.00     0.000 C 
HETATM   44  C21 UNL     1      -2.767  48.872 -26.507  1.00  0.00     0.000 C 
BRANCH  44  45
HETATM   45  C22 UNL     1      -4.168  48.509 -26.626  1.00  0.00     0.001 C 
HETATM   46  C23 UNL     1      -4.730  48.163 -27.799  1.00  0.00     0.009 C 
BRANCH  46  47
HETATM   47  C24 UNL     1      -6.122  47.733 -28.013  1.00  0.00    -0.034 C 
HETATM   48  C25 UNL     1      -6.908  47.390 -26.756  1.00  0.00     0.050 C 
HETATM   49  C26 UNL     1      -6.638  47.666 -29.264  1.00  0.00     0.082 C 
HETATM   50  C27 UNL     1      -6.055  47.977 -30.604  1.00  0.00     0.075 C 
BRANCH  49  51
HETATM   51  N2  UNL     1      -8.006  47.206 -29.403  1.00  0.00    -0.120 N 
HETATM   52  O5  UNL     1      -8.580  47.483 -30.464  1.00  0.00    -0.532 OA
HETATM   53  O6  UNL     1      -8.480  46.555 -28.463  1.00  0.00    -0.532 OA
ENDBRANCH  49  51
ENDBRANCH  46  47
ENDBRANCH  44  45
ENDBRANCH  42  43
ENDBRANCH  37  40
ENDBRANCH  34  37
ENDBRANCH  31  34
ENDBRANCH  29  30
ENDBRANCH   2  29
TORSDOF 19
ENDMDL
