MODEL 1
REMARK minimizedAffinity -9.25075054
REMARK  7 active torsions:
REMARK  status: ('A' for Active; 'I' for Inactive)
REMARK    1  A    between atoms: C2_2  and  C30_32 
REMARK    2  A    between atoms: C3_3  and  C4_4 
REMARK    3  A    between atoms: C4_4  and  C5_5 
REMARK    4  A    between atoms: C5_5  and  C6_6 
REMARK    5  A    between atoms: C6_6  and  C8_8 
REMARK    6  A    between atoms: C29_30  and  O2_31 
REMARK    7  A    between atoms: C30_32  and  O3_33 
ROOT
HETATM    1  C8  UNL     1      -0.739  52.046 -21.968  1.00  0.00    -0.002 C 
HETATM    2  C9  UNL     1      -0.548  51.790 -23.483  1.00  0.00     0.007 C 
HETATM    3  C10 UNL     1      -1.787  50.996 -23.959  1.00  0.00     0.015 C 
HETATM    4  C11 UNL     1      -2.809  51.093 -22.807  1.00  0.00    -0.010 C 
HETATM    5  C12 UNL     1      -3.561  52.453 -22.974  1.00  0.00     0.021 C 
HETATM    6  C13 UNL     1      -3.901  50.032 -22.662  1.00  0.00    -0.039 C 
HETATM    7  C14 UNL     1      -4.433  49.792 -21.430  1.00  0.00    -0.066 C 
HETATM    8  C15 UNL     1      -3.907  50.514 -20.173  1.00  0.00     0.036 C 
HETATM    9  C16 UNL     1      -2.647  51.394 -20.317  1.00  0.00     0.015 C 
HETATM   10  C17 UNL     1      -1.841  51.023 -21.567  1.00  0.00    -0.029 C 
HETATM   11  C18 UNL     1      -1.223  49.612 -21.344  1.00  0.00     0.016 C 
HETATM   12  C19 UNL     1      -5.577  48.763 -21.206  1.00  0.00    -0.015 C 
HETATM   13  C20 UNL     1      -4.950  47.535 -20.499  1.00  0.00     0.020 C 
HETATM   14  C21 UNL     1      -6.680  49.371 -20.289  1.00  0.00     0.021 C 
HETATM   15  C22 UNL     1      -8.075  48.768 -20.434  1.00  0.00     0.080 C 
HETATM   16  C23 UNL     1      -8.070  47.407 -21.085  1.00  0.00     0.135 C 
HETATM   17  O1  UNL     1      -8.656  46.460 -20.559  1.00  0.00    -0.297 OA
HETATM   18  C24 UNL     1      -7.389  47.295 -22.455  1.00  0.00     0.018 C 
HETATM   19  C25 UNL     1      -8.480  47.568 -23.514  1.00  0.00     0.023 C 
HETATM   20  C26 UNL     1      -6.894  45.851 -22.670  1.00  0.00     0.023 C 
HETATM   21  C27 UNL     1      -6.266  48.382 -22.566  1.00  0.00     0.016 C 
HETATM   22  C28 UNL     1      -5.211  48.072 -23.638  1.00  0.00     0.043 C 
HETATM   23  C29 UNL     1      -4.335  49.293 -23.908  1.00  0.00     0.148 C 
ENDROOT
BRANCH   1  24
HETATM   24  C6  UNL     1       0.556  52.133 -21.105  1.00  0.00    -0.014 C 
HETATM   25  C7  UNL     1       1.450  53.349 -21.381  1.00  0.00     0.010 C 
BRANCH  24  26
HETATM   26  C5  UNL     1       0.166  52.100 -19.600  1.00  0.00     0.008 C 
BRANCH  26  27
HETATM   27  C4  UNL     1       1.173  52.795 -18.677  1.00  0.00     0.028 C 
BRANCH  27  28
HETATM   28  C3  UNL     1       0.968  52.380 -17.246  1.00  0.00    -0.022 C 
HETATM   29  C2  UNL     1       1.901  52.295 -16.274  1.00  0.00    -0.064 C 
HETATM   30  C1  UNL     1       3.348  52.673 -16.448  1.00  0.00     0.045 C 
BRANCH  29  31
HETATM   31  C30 UNL     1       1.535  51.826 -14.890  1.00  0.00     0.197 C 
BRANCH  31  32
HETATM   32  O3  UNL     1       0.672  52.784 -14.295  1.00  0.00    -0.397 OA
HETATM   33  H48 UNL     1       0.434  52.437 -13.421  1.00  0.00     0.209 HD
ENDBRANCH  31  32
ENDBRANCH  29  31
ENDBRANCH  27  28
ENDBRANCH  26  27
ENDBRANCH  24  26
ENDBRANCH   1  24
BRANCH  23  34
HETATM   34  O2  UNL     1      -5.083  50.182 -24.734  1.00  0.00    -0.391 OA
HETATM   35  H45 UNL     1      -4.445  50.765 -25.174  1.00  0.00     0.210 HD
ENDBRANCH  23  34
TORSDOF 7
ENDMDL
MODEL 2
REMARK minimizedAffinity -9.22303295
REMARK  7 active torsions:
REMARK  status: ('A' for Active; 'I' for Inactive)
REMARK    1  A    between atoms: C2_2  and  C30_32 
REMARK    2  A    between atoms: C3_3  and  C4_4 
REMARK    3  A    between atoms: C4_4  and  C5_5 
REMARK    4  A    between atoms: C5_5  and  C6_6 
REMARK    5  A    between atoms: C6_6  and  C8_8 
REMARK    6  A    between atoms: C29_30  and  O2_31 
REMARK    7  A    between atoms: C30_32  and  O3_33 
ROOT
HETATM    1  C8  UNL     1      -3.718  50.072 -25.424  1.00  0.00    -0.002 C 
HETATM    2  C9  UNL     1      -5.158  49.668 -25.022  1.00  0.00     0.007 C 
HETATM    3  C10 UNL     1      -5.213  49.696 -23.477  1.00  0.00     0.015 C 
HETATM    4  C11 UNL     1      -3.927  50.424 -23.031  1.00  0.00    -0.010 C 
HETATM    5  C12 UNL     1      -4.215  51.958 -23.114  1.00  0.00     0.021 C 
HETATM    6  C13 UNL     1      -3.360  50.184 -21.630  1.00  0.00    -0.039 C 
HETATM    7  C14 UNL     1      -2.026  50.360 -21.416  1.00  0.00    -0.066 C 
HETATM    8  C15 UNL     1      -1.068  50.721 -22.568  1.00  0.00     0.036 C 
HETATM    9  C16 UNL     1      -1.630  50.717 -24.006  1.00  0.00     0.015 C 
HETATM   10  C17 UNL     1      -2.912  49.883 -24.106  1.00  0.00    -0.029 C 
HETATM   11  C18 UNL     1      -2.534  48.387 -23.905  1.00  0.00     0.016 C 
HETATM   12  C19 UNL     1      -1.379  50.181 -20.013  1.00  0.00    -0.015 C 
HETATM   13  C20 UNL     1      -0.576  48.856 -20.049  1.00  0.00     0.020 C 
HETATM   14  C21 UNL     1      -0.406  51.359 -19.711  1.00  0.00     0.021 C 
HETATM   15  C22 UNL     1      -0.152  51.652 -18.234  1.00  0.00     0.080 C 
HETATM   16  C23 UNL     1      -0.503  50.496 -17.330  1.00  0.00     0.135 C 
HETATM   17  O1  UNL     1       0.307  50.084 -16.499  1.00  0.00    -0.297 OA
HETATM   18  C24 UNL     1      -1.929  49.940 -17.435  1.00  0.00     0.018 C 
HETATM   19  C25 UNL     1      -2.786  50.726 -16.420  1.00  0.00     0.023 C 
HETATM   20  C26 UNL     1      -1.941  48.462 -16.997  1.00  0.00     0.023 C 
HETATM   21  C27 UNL     1      -2.474  50.185 -18.885  1.00  0.00     0.016 C 
HETATM   22  C28 UNL     1      -3.647  49.270 -19.265  1.00  0.00     0.043 C 
HETATM   23  C29 UNL     1      -4.323  49.757 -20.545  1.00  0.00     0.148 C 
ENDROOT
BRANCH   1  24
HETATM   24  C6  UNL     1      -3.161  49.453 -26.741  1.00  0.00    -0.014 C 
HETATM   25  C7  UNL     1      -4.093  48.459 -27.448  1.00  0.00     0.010 C 
BRANCH  24  26
HETATM   26  C5  UNL     1      -2.781  50.600 -27.720  1.00  0.00     0.008 C 
BRANCH  26  27
HETATM   27  C4  UNL     1      -1.798  51.621 -27.136  1.00  0.00     0.028 C 
BRANCH  27  28
HETATM   28  C3  UNL     1      -0.446  51.501 -27.786  1.00  0.00    -0.022 C 
HETATM   29  C2  UNL     1       0.754  51.799 -27.245  1.00  0.00    -0.064 C 
HETATM   30  C1  UNL     1       0.957  52.259 -25.825  1.00  0.00     0.045 C 
BRANCH  29  31
HETATM   31  C30 UNL     1       2.021  51.654 -28.047  1.00  0.00     0.197 C 
BRANCH  31  32
HETATM   32  O3  UNL     1       3.107  51.453 -27.156  1.00  0.00    -0.397 OA
HETATM   33  H48 UNL     1       3.897  51.335 -27.706  1.00  0.00     0.209 HD
ENDBRANCH  31  32
ENDBRANCH  29  31
ENDBRANCH  27  28
ENDBRANCH  26  27
ENDBRANCH  24  26
ENDBRANCH   1  24
BRANCH  23  34
HETATM   34  O2  UNL     1      -5.148  50.865 -20.197  1.00  0.00    -0.391 OA
HETATM   35  H45 UNL     1      -5.813  50.955 -20.898  1.00  0.00     0.210 HD
ENDBRANCH  23  34
TORSDOF 7
ENDMDL
MODEL 3
REMARK minimizedAffinity -9.19055939
REMARK  7 active torsions:
REMARK  status: ('A' for Active; 'I' for Inactive)
REMARK    1  A    between atoms: C2_2  and  C30_32 
REMARK    2  A    between atoms: C3_3  and  C4_4 
REMARK    3  A    between atoms: C4_4  and  C5_5 
REMARK    4  A    between atoms: C5_5  and  C6_6 
REMARK    5  A    between atoms: C6_6  and  C8_8 
REMARK    6  A    between atoms: C29_30  and  O2_31 
REMARK    7  A    between atoms: C30_32  and  O3_33 
ROOT
HETATM    1  C8  UNL     1      -0.228  51.726 -17.175  1.00  0.00    -0.002 C 
HETATM    2  C9  UNL     1       1.248  52.153 -17.364  1.00  0.00     0.007 C 
HETATM    3  C10 UNL     1       1.433  52.459 -18.868  1.00  0.00     0.015 C 
HETATM    4  C11 UNL     1       0.008  52.525 -19.456  1.00  0.00    -0.010 C 
HETATM    5  C12 UNL     1      -0.535  53.965 -19.183  1.00  0.00     0.021 C 
HETATM    6  C13 UNL     1      -0.216  52.274 -20.948  1.00  0.00    -0.039 C 
HETATM    7  C14 UNL     1      -1.426  51.806 -21.367  1.00  0.00    -0.066 C 
HETATM    8  C15 UNL     1      -2.543  51.455 -20.365  1.00  0.00     0.036 C 
HETATM    9  C16 UNL     1      -2.202  51.489 -18.859  1.00  0.00     0.015 C 
HETATM   10  C17 UNL     1      -0.692  51.387 -18.622  1.00  0.00    -0.029 C 
HETATM   11  C18 UNL     1      -0.233  49.955 -19.023  1.00  0.00     0.016 C 
HETATM   12  C19 UNL     1      -1.749  51.568 -22.870  1.00  0.00    -0.015 C 
HETATM   13  C20 UNL     1      -1.765  50.034 -23.093  1.00  0.00     0.020 C 
HETATM   14  C21 UNL     1      -3.151  52.149 -23.220  1.00  0.00     0.021 C 
HETATM   15  C22 UNL     1      -3.372  52.519 -24.685  1.00  0.00     0.080 C 
HETATM   16  C23 UNL     1      -2.394  51.852 -25.621  1.00  0.00     0.135 C 
HETATM   17  O1  UNL     1      -2.795  51.240 -26.612  1.00  0.00    -0.297 OA
HETATM   18  C24 UNL     1      -0.902  52.057 -25.328  1.00  0.00     0.018 C 
HETATM   19  C25 UNL     1      -0.469  53.319 -26.107  1.00  0.00     0.023 C 
HETATM   20  C26 UNL     1      -0.097  50.871 -25.894  1.00  0.00     0.023 C 
HETATM   21  C27 UNL     1      -0.704  52.295 -23.791  1.00  0.00     0.016 C 
HETATM   22  C28 UNL     1       0.727  52.024 -23.306  1.00  0.00     0.043 C 
HETATM   23  C29 UNL     1       0.931  52.559 -21.890  1.00  0.00     0.148 C 
ENDROOT
BRANCH   1  24
HETATM   24  C6  UNL     1      -0.520  50.705 -16.034  1.00  0.00    -0.014 C 
HETATM   25  C7  UNL     1       0.321  49.422 -16.068  1.00  0.00     0.010 C 
BRANCH  24  26
HETATM   26  C5  UNL     1      -0.340  51.413 -14.662  1.00  0.00     0.008 C 
BRANCH  26  27
HETATM   27  C4  UNL     1      -1.138  50.775 -13.519  1.00  0.00     0.028 C 
BRANCH  27  28
HETATM   28  C3  UNL     1      -2.396  51.552 -13.240  1.00  0.00    -0.022 C 
HETATM   29  C2  UNL     1      -2.600  52.461 -12.265  1.00  0.00    -0.064 C 
HETATM   30  C1  UNL     1      -1.545  52.917 -11.291  1.00  0.00     0.045 C 
BRANCH  29  31
HETATM   31  C30 UNL     1      -3.940  53.130 -12.099  1.00  0.00     0.197 C 
BRANCH  31  32
HETATM   32  O3  UNL     1      -4.260  53.819 -13.298  1.00  0.00    -0.397 OA
HETATM   33  H48 UNL     1      -5.138  54.210 -13.166  1.00  0.00     0.209 HD
ENDBRANCH  31  32
ENDBRANCH  29  31
ENDBRANCH  27  28
ENDBRANCH  26  27
ENDBRANCH  24  26
ENDBRANCH   1  24
BRANCH  23  34
HETATM   34  O2  UNL     1       1.107  53.970 -21.989  1.00  0.00    -0.391 OA
HETATM   35  H45 UNL     1       1.561  54.257 -21.181  1.00  0.00     0.210 HD
ENDBRANCH  23  34
TORSDOF 7
ENDMDL
MODEL 4
REMARK minimizedAffinity -9.11089611
REMARK  7 active torsions:
REMARK  status: ('A' for Active; 'I' for Inactive)
REMARK    1  A    between atoms: C2_2  and  C30_32 
REMARK    2  A    between atoms: C3_3  and  C4_4 
REMARK    3  A    between atoms: C4_4  and  C5_5 
REMARK    4  A    between atoms: C5_5  and  C6_6 
REMARK    5  A    between atoms: C6_6  and  C8_8 
REMARK    6  A    between atoms: C29_30  and  O2_31 
REMARK    7  A    between atoms: C30_32  and  O3_33 
ROOT
HETATM    1  C8  UNL     1      -2.797  50.459 -25.002  1.00  0.00    -0.002 C 
HETATM    2  C9  UNL     1      -3.898  51.543 -25.105  1.00  0.00     0.007 C 
HETATM    3  C10 UNL     1      -4.878  51.291 -23.935  1.00  0.00     0.015 C 
HETATM    4  C11 UNL     1      -4.161  50.295 -23.000  1.00  0.00    -0.010 C 
HETATM    5  C12 UNL     1      -3.210  51.130 -22.083  1.00  0.00     0.021 C 
HETATM    6  C13 UNL     1      -4.977  49.411 -22.055  1.00  0.00    -0.039 C 
HETATM    7  C14 UNL     1      -4.458  48.218 -21.651  1.00  0.00    -0.066 C 
HETATM    8  C15 UNL     1      -3.103  47.708 -22.184  1.00  0.00     0.036 C 
HETATM    9  C16 UNL     1      -2.424  48.508 -23.317  1.00  0.00     0.015 C 
HETATM   10  C17 UNL     1      -3.429  49.392 -24.062  1.00  0.00    -0.029 C 
HETATM   11  C18 UNL     1      -4.394  48.465 -24.858  1.00  0.00     0.016 C 
HETATM   12  C19 UNL     1      -5.202  47.282 -20.657  1.00  0.00    -0.015 C 
HETATM   13  C20 UNL     1      -5.732  46.078 -21.476  1.00  0.00     0.020 C 
HETATM   14  C21 UNL     1      -4.221  46.763 -19.564  1.00  0.00     0.021 C 
HETATM   15  C22 UNL     1      -4.858  46.340 -18.243  1.00  0.00     0.080 C 
HETATM   16  C23 UNL     1      -6.336  46.059 -18.358  1.00  0.00     0.135 C 
HETATM   17  O1  UNL     1      -6.808  45.005 -17.929  1.00  0.00    -0.297 OA
HETATM   18  C24 UNL     1      -7.212  47.176 -18.939  1.00  0.00     0.018 C 
HETATM   19  C25 UNL     1      -7.680  48.037 -17.746  1.00  0.00     0.023 C 
HETATM   20  C26 UNL     1      -8.472  46.562 -19.583  1.00  0.00     0.023 C 
HETATM   21  C27 UNL     1      -6.354  48.052 -19.915  1.00  0.00     0.016 C 
HETATM   22  C28 UNL     1      -7.192  48.864 -20.913  1.00  0.00     0.043 C 
HETATM   23  C29 UNL     1      -6.334  49.913 -21.616  1.00  0.00     0.148 C 
ENDROOT
BRANCH   1  24
HETATM   24  C6  UNL     1      -2.148  49.993 -26.340  1.00  0.00    -0.014 C 
HETATM   25  C7  UNL     1      -2.691  48.676 -26.911  1.00  0.00     0.010 C 
BRANCH  24  26
HETATM   26  C5  UNL     1      -2.298  51.122 -27.397  1.00  0.00     0.008 C 
BRANCH  26  27
HETATM   27  C4  UNL     1      -1.244  52.230 -27.284  1.00  0.00     0.028 C 
BRANCH  27  28
HETATM   28  C3  UNL     1       0.143  51.651 -27.232  1.00  0.00    -0.022 C 
HETATM   29  C2  UNL     1       1.066  51.819 -26.262  1.00  0.00    -0.064 C 
HETATM   30  C1  UNL     1       0.835  52.591 -24.990  1.00  0.00     0.045 C 
BRANCH  29  31
HETATM   31  C30 UNL     1       2.432  51.193 -26.378  1.00  0.00     0.197 C 
BRANCH  31  32
HETATM   32  O3  UNL     1       3.207  51.951 -27.295  1.00  0.00    -0.397 OA
HETATM   33  H48 UNL     1       4.085  51.539 -27.321  1.00  0.00     0.209 HD
ENDBRANCH  31  32
ENDBRANCH  29  31
ENDBRANCH  27  28
ENDBRANCH  26  27
ENDBRANCH  24  26
ENDBRANCH   1  24
BRANCH  23  34
HETATM   34  O2  UNL     1      -6.153  50.997 -20.708  1.00  0.00    -0.391 OA
HETATM   35  H45 UNL     1      -5.919  51.775 -21.237  1.00  0.00     0.210 HD
ENDBRANCH  23  34
TORSDOF 7
ENDMDL
MODEL 5
REMARK minimizedAffinity -9.03935909
REMARK  7 active torsions:
REMARK  status: ('A' for Active; 'I' for Inactive)
REMARK    1  A    between atoms: C2_2  and  C30_32 
REMARK    2  A    between atoms: C3_3  and  C4_4 
REMARK    3  A    between atoms: C4_4  and  C5_5 
REMARK    4  A    between atoms: C5_5  and  C6_6 
REMARK    5  A    between atoms: C6_6  and  C8_8 
REMARK    6  A    between atoms: C29_30  and  O2_31 
REMARK    7  A    between atoms: C30_32  and  O3_33 
ROOT
HETATM    1  C8  UNL     1      -0.172  51.836 -23.257  1.00  0.00    -0.002 C 
HETATM    2  C9  UNL     1       0.025  52.608 -21.929  1.00  0.00     0.007 C 
HETATM    3  C10 UNL     1      -0.997  52.029 -20.923  1.00  0.00     0.015 C 
HETATM    4  C11 UNL     1      -1.527  50.733 -21.571  1.00  0.00    -0.010 C 
HETATM    5  C12 UNL     1      -0.498  49.602 -21.245  1.00  0.00     0.021 C 
HETATM    6  C13 UNL     1      -2.894  50.179 -21.164  1.00  0.00    -0.039 C 
HETATM    7  C14 UNL     1      -3.587  49.408 -22.049  1.00  0.00    -0.066 C 
HETATM    8  C15 UNL     1      -3.058  49.147 -23.474  1.00  0.00     0.036 C 
HETATM    9  C16 UNL     1      -1.801  49.918 -23.932  1.00  0.00     0.015 C 
HETATM   10  C17 UNL     1      -1.569  51.171 -23.082  1.00  0.00    -0.029 C 
HETATM   11  C18 UNL     1      -2.702  52.190 -23.401  1.00  0.00     0.016 C 
HETATM   12  C19 UNL     1      -4.961  48.770 -21.697  1.00  0.00    -0.015 C 
HETATM   13  C20 UNL     1      -6.042  49.560 -22.476  1.00  0.00     0.020 C 
HETATM   14  C21 UNL     1      -4.996  47.279 -22.146  1.00  0.00     0.021 C 
HETATM   15  C22 UNL     1      -5.975  46.379 -21.396  1.00  0.00     0.080 C 
HETATM   16  C23 UNL     1      -7.057  47.148 -20.677  1.00  0.00     0.135 C 
HETATM   17  O1  UNL     1      -8.242  46.850 -20.830  1.00  0.00    -0.297 OA
HETATM   18  C24 UNL     1      -6.601  48.231 -19.691  1.00  0.00     0.018 C 
HETATM   19  C25 UNL     1      -6.460  47.545 -18.315  1.00  0.00     0.023 C 
HETATM   20  C26 UNL     1      -7.700  49.304 -19.558  1.00  0.00     0.023 C 
HETATM   21  C27 UNL     1      -5.208  48.790 -20.145  1.00  0.00     0.016 C 
HETATM   22  C28 UNL     1      -4.880  50.173 -19.563  1.00  0.00     0.043 C 
HETATM   23  C29 UNL     1      -3.410  50.521 -19.785  1.00  0.00     0.148 C 
ENDROOT
BRANCH   1  24
HETATM   24  C6  UNL     1       0.130  52.617 -24.571  1.00  0.00    -0.014 C 
HETATM   25  C7  UNL     1       0.609  54.063 -24.383  1.00  0.00     0.010 C 
BRANCH  24  26
HETATM   26  C5  UNL     1       1.176  51.824 -25.404  1.00  0.00     0.008 C 
BRANCH  26  27
HETATM   27  C4  UNL     1       0.842  51.720 -26.896  1.00  0.00     0.028 C 
BRANCH  27  28
HETATM   28  C3  UNL     1      -0.416  50.924 -27.113  1.00  0.00    -0.022 C 
HETATM   29  C2  UNL     1      -1.657  51.397 -27.351  1.00  0.00    -0.064 C 
HETATM   30  C1  UNL     1      -1.996  52.856 -27.508  1.00  0.00     0.045 C 
BRANCH  29  31
HETATM   31  C30 UNL     1      -2.825  50.459 -27.514  1.00  0.00     0.197 C 
BRANCH  31  32
HETATM   32  O3  UNL     1      -3.350  50.604 -28.825  1.00  0.00    -0.397 OA
HETATM   33  H48 UNL     1      -4.077  49.966 -28.902  1.00  0.00     0.209 HD
ENDBRANCH  31  32
ENDBRANCH  29  31
ENDBRANCH  27  28
ENDBRANCH  26  27
ENDBRANCH  24  26
ENDBRANCH   1  24
BRANCH  23  34
HETATM   34  O2  UNL     1      -2.650  49.804 -18.816  1.00  0.00    -0.391 OA
HETATM   35  H45 UNL     1      -1.799  50.261 -18.727  1.00  0.00     0.210 HD
ENDBRANCH  23  34
TORSDOF 7
ENDMDL
MODEL 6
REMARK minimizedAffinity -9.0273304
REMARK  7 active torsions:
REMARK  status: ('A' for Active; 'I' for Inactive)
REMARK    1  A    between atoms: C2_2  and  C30_32 
REMARK    2  A    between atoms: C3_3  and  C4_4 
REMARK    3  A    between atoms: C4_4  and  C5_5 
REMARK    4  A    between atoms: C5_5  and  C6_6 
REMARK    5  A    between atoms: C6_6  and  C8_8 
REMARK    6  A    between atoms: C29_30  and  O2_31 
REMARK    7  A    between atoms: C30_32  and  O3_33 
ROOT
HETATM    1  C8  UNL     1      -0.878  50.669 -21.409  1.00  0.00    -0.002 C 
HETATM    2  C9  UNL     1      -0.769  50.010 -20.012  1.00  0.00     0.007 C 
HETATM    3  C10 UNL     1      -1.971  49.046 -19.880  1.00  0.00     0.015 C 
HETATM    4  C11 UNL     1      -2.556  48.918 -21.302  1.00  0.00    -0.010 C 
HETATM    5  C12 UNL     1      -1.713  47.835 -22.050  1.00  0.00     0.021 C 
HETATM    6  C13 UNL     1      -4.018  48.509 -21.493  1.00  0.00    -0.039 C 
HETATM    7  C14 UNL     1      -4.674  48.899 -22.622  1.00  0.00    -0.066 C 
HETATM    8  C15 UNL     1      -3.998  49.804 -23.672  1.00  0.00     0.036 C 
HETATM    9  C16 UNL     1      -2.613  50.396 -23.333  1.00  0.00     0.015 C 
HETATM   10  C17 UNL     1      -2.352  50.389 -21.823  1.00  0.00    -0.029 C 
HETATM   11  C18 UNL     1      -3.312  51.420 -21.161  1.00  0.00     0.016 C 
HETATM   12  C19 UNL     1      -6.145  48.487 -22.913  1.00  0.00    -0.015 C 
HETATM   13  C20 UNL     1      -7.020  49.750 -22.704  1.00  0.00     0.020 C 
HETATM   14  C21 UNL     1      -6.291  48.004 -24.386  1.00  0.00     0.021 C 
HETATM   15  C22 UNL     1      -7.455  47.056 -24.665  1.00  0.00     0.080 C 
HETATM   16  C23 UNL     1      -8.526  47.102 -23.603  1.00  0.00     0.135 C 
HETATM   17  O1  UNL     1      -9.707  47.259 -23.914  1.00  0.00    -0.297 OA
HETATM   18  C24 UNL     1      -8.082  46.850 -22.157  1.00  0.00     0.018 C 
HETATM   19  C25 UNL     1      -8.199  45.329 -21.917  1.00  0.00     0.023 C 
HETATM   20  C26 UNL     1      -9.060  47.544 -21.188  1.00  0.00     0.023 C 
HETATM   21  C27 UNL     1      -6.588  47.295 -21.990  1.00  0.00     0.016 C 
HETATM   22  C28 UNL     1      -6.183  47.560 -20.532  1.00  0.00     0.043 C 
HETATM   23  C29 UNL     1      -4.667  47.685 -20.404  1.00  0.00     0.148 C 
ENDROOT
BRANCH   1  24
HETATM   24  C6  UNL     1      -0.321  52.119 -21.543  1.00  0.00    -0.014 C 
HETATM   25  C7  UNL     1       0.382  52.671 -20.296  1.00  0.00     0.010 C 
BRANCH  24  26
HETATM   26  C5  UNL     1       0.644  52.181 -22.760  1.00  0.00     0.008 C 
BRANCH  26  27
HETATM   27  C4  UNL     1      -0.018  52.646 -24.061  1.00  0.00     0.028 C 
BRANCH  27  28
HETATM   28  C3  UNL     1       0.960  52.619 -25.204  1.00  0.00    -0.022 C 
HETATM   29  C2  UNL     1       0.992  51.751 -26.237  1.00  0.00    -0.064 C 
HETATM   30  C1  UNL     1      -0.019  50.659 -26.463  1.00  0.00     0.045 C 
BRANCH  29  31
HETATM   31  C30 UNL     1       2.067  51.841 -27.289  1.00  0.00     0.197 C 
BRANCH  31  32
HETATM   32  O3  UNL     1       3.249  51.232 -26.789  1.00  0.00    -0.397 OA
HETATM   33  H48 UNL     1       3.906  51.282 -27.501  1.00  0.00     0.209 HD
ENDBRANCH  31  32
ENDBRANCH  29  31
ENDBRANCH  27  28
ENDBRANCH  26  27
ENDBRANCH  24  26
ENDBRANCH   1  24
BRANCH  23  34
HETATM   34  O2  UNL     1      -4.125  46.367 -20.437  1.00  0.00    -0.391 OA
HETATM   35  H45 UNL     1      -3.247  46.411 -20.028  1.00  0.00     0.210 HD
ENDBRANCH  23  34
TORSDOF 7
ENDMDL
MODEL 7
REMARK minimizedAffinity -9.00954056
REMARK  7 active torsions:
REMARK  status: ('A' for Active; 'I' for Inactive)
REMARK    1  A    between atoms: C2_2  and  C30_32 
REMARK    2  A    between atoms: C3_3  and  C4_4 
REMARK    3  A    between atoms: C4_4  and  C5_5 
REMARK    4  A    between atoms: C5_5  and  C6_6 
REMARK    5  A    between atoms: C6_6  and  C8_8 
REMARK    6  A    between atoms: C29_30  and  O2_31 
REMARK    7  A    between atoms: C30_32  and  O3_33 
ROOT
HETATM    1  C8  UNL     1      -0.559  49.985 -20.530  1.00  0.00    -0.002 C 
HETATM    2  C9  UNL     1      -0.984  49.193 -19.270  1.00  0.00     0.007 C 
HETATM    3  C10 UNL     1      -2.264  48.412 -19.647  1.00  0.00     0.015 C 
HETATM    4  C11 UNL     1      -2.367  48.503 -21.184  1.00  0.00    -0.010 C 
HETATM    5  C12 UNL     1      -1.455  47.378 -21.772  1.00  0.00     0.021 C 
HETATM    6  C13 UNL     1      -3.724  48.336 -21.870  1.00  0.00    -0.039 C 
HETATM    7  C14 UNL     1      -3.929  48.921 -23.084  1.00  0.00    -0.066 C 
HETATM    8  C15 UNL     1      -2.852  49.806 -23.742  1.00  0.00     0.036 C 
HETATM    9  C16 UNL     1      -1.594  50.151 -22.915  1.00  0.00     0.015 C 
HETATM   10  C17 UNL     1      -1.840  49.968 -21.414  1.00  0.00    -0.029 C 
HETATM   11  C18 UNL     1      -2.840  51.066 -20.949  1.00  0.00     0.016 C 
HETATM   12  C19 UNL     1      -5.263  48.762 -23.868  1.00  0.00    -0.015 C 
HETATM   13  C20 UNL     1      -6.009  50.116 -23.774  1.00  0.00     0.020 C 
HETATM   14  C21 UNL     1      -4.975  48.441 -25.365  1.00  0.00     0.021 C 
HETATM   15  C22 UNL     1      -6.085  47.707 -26.115  1.00  0.00     0.080 C 
HETATM   16  C23 UNL     1      -7.431  47.816 -25.440  1.00  0.00     0.135 C 
HETATM   17  O1  UNL     1      -8.421  48.175 -26.078  1.00  0.00    -0.297 OA
HETATM   18  C24 UNL     1      -7.511  47.370 -23.975  1.00  0.00     0.018 C 
HETATM   19  C25 UNL     1      -7.871  45.869 -23.989  1.00  0.00     0.023 C 
HETATM   20  C26 UNL     1      -8.666  48.111 -23.273  1.00  0.00     0.023 C 
HETATM   21  C27 UNL     1      -6.112  47.570 -23.296  1.00  0.00     0.016 C 
HETATM   22  C28 UNL     1      -6.176  47.637 -21.763  1.00  0.00     0.043 C 
HETATM   23  C29 UNL     1      -4.779  47.522 -21.156  1.00  0.00     0.148 C 
ENDROOT
BRANCH   1  24
HETATM   24  C6  UNL     1       0.171  51.342 -20.290  1.00  0.00    -0.014 C 
HETATM   25  C7  UNL     1      -0.087  52.423 -21.348  1.00  0.00     0.010 C 
BRANCH  24  26
HETATM   26  C5  UNL     1      -0.213  51.882 -18.885  1.00  0.00     0.008 C 
BRANCH  26  27
HETATM   27  C4  UNL     1       0.936  52.578 -18.146  1.00  0.00     0.028 C 
BRANCH  27  28
HETATM   28  C3  UNL     1       1.061  52.065 -16.737  1.00  0.00    -0.022 C 
HETATM   29  C2  UNL     1       2.157  52.089 -15.950  1.00  0.00    -0.064 C 
HETATM   30  C1  UNL     1       3.471  52.712 -16.338  1.00  0.00     0.045 C 
BRANCH  29  31
HETATM   31  C30 UNL     1       2.125  51.498 -14.564  1.00  0.00     0.197 C 
BRANCH  31  32
HETATM   32  O3  UNL     1       2.868  52.336 -13.692  1.00  0.00    -0.397 OA
HETATM   33  H48 UNL     1       2.801  51.943 -12.807  1.00  0.00     0.209 HD
ENDBRANCH  31  32
ENDBRANCH  29  31
ENDBRANCH  27  28
ENDBRANCH  26  27
ENDBRANCH  24  26
ENDBRANCH   1  24
BRANCH  23  34
HETATM   34  O2  UNL     1      -4.408  46.147 -21.196  1.00  0.00    -0.391 OA
HETATM   35  H45 UNL     1      -3.711  46.021 -20.533  1.00  0.00     0.210 HD
ENDBRANCH  23  34
TORSDOF 7
ENDMDL
MODEL 8
REMARK minimizedAffinity -9.00302505
REMARK  7 active torsions:
REMARK  status: ('A' for Active; 'I' for Inactive)
REMARK    1  A    between atoms: C2_2  and  C30_32 
REMARK    2  A    between atoms: C3_3  and  C4_4 
REMARK    3  A    between atoms: C4_4  and  C5_5 
REMARK    4  A    between atoms: C5_5  and  C6_6 
REMARK    5  A    between atoms: C6_6  and  C8_8 
REMARK    6  A    between atoms: C29_30  and  O2_31 
REMARK    7  A    between atoms: C30_32  and  O3_33 
ROOT
HETATM    1  C8  UNL     1      -1.753  51.356 -24.894  1.00  0.00    -0.002 C 
HETATM    2  C9  UNL     1      -2.890  51.920 -25.780  1.00  0.00     0.007 C 
HETATM    3  C10 UNL     1      -4.222  51.478 -25.130  1.00  0.00     0.015 C 
HETATM    4  C11 UNL     1      -3.845  50.960 -23.726  1.00  0.00    -0.010 C 
HETATM    5  C12 UNL     1      -3.749  52.206 -22.787  1.00  0.00     0.021 C 
HETATM    6  C13 UNL     1      -4.761  49.968 -23.006  1.00  0.00    -0.039 C 
HETATM    7  C14 UNL     1      -4.226  49.124 -22.080  1.00  0.00    -0.066 C 
HETATM    8  C15 UNL     1      -2.710  49.096 -21.798  1.00  0.00     0.036 C 
HETATM    9  C16 UNL     1      -1.788  49.933 -22.712  1.00  0.00     0.015 C 
HETATM   10  C17 UNL     1      -2.468  50.265 -24.044  1.00  0.00    -0.029 C 
HETATM   11  C18 UNL     1      -2.613  48.946 -24.857  1.00  0.00     0.016 C 
HETATM   12  C19 UNL     1      -5.096  48.119 -21.272  1.00  0.00    -0.015 C 
HETATM   13  C20 UNL     1      -4.798  46.706 -21.835  1.00  0.00     0.020 C 
HETATM   14  C21 UNL     1      -4.708  48.159 -19.764  1.00  0.00     0.021 C 
HETATM   15  C22 UNL     1      -5.790  47.709 -18.785  1.00  0.00     0.080 C 
HETATM   16  C23 UNL     1      -6.871  46.879 -19.434  1.00  0.00     0.135 C 
HETATM   17  O1  UNL     1      -7.198  45.793 -18.954  1.00  0.00    -0.297 OA
HETATM   18  C24 UNL     1      -7.588  47.495 -20.641  1.00  0.00     0.018 C 
HETATM   19  C25 UNL     1      -8.804  48.268 -20.085  1.00  0.00     0.023 C 
HETATM   20  C26 UNL     1      -8.134  46.373 -21.546  1.00  0.00     0.023 C 
HETATM   21  C27 UNL     1      -6.619  48.491 -21.367  1.00  0.00     0.016 C 
HETATM   22  C28 UNL     1      -7.015  48.786 -22.821  1.00  0.00     0.043 C 
HETATM   23  C29 UNL     1      -6.229  49.977 -23.367  1.00  0.00     0.148 C 
ENDROOT
BRANCH   1  24
HETATM   24  C6  UNL     1      -0.420  50.993 -25.614  1.00  0.00    -0.014 C 
HETATM   25  C7  UNL     1      -0.429  51.159 -27.140  1.00  0.00     0.010 C 
BRANCH  24  26
HETATM   26  C5  UNL     1       0.733  51.838 -25.003  1.00  0.00     0.008 C 
BRANCH  26  27
HETATM   27  C4  UNL     1       0.260  53.003 -24.127  1.00  0.00     0.028 C 
BRANCH  27  28
HETATM   28  C3  UNL     1       0.328  52.644 -22.668  1.00  0.00    -0.022 C 
HETATM   29  C2  UNL     1       0.959  53.320 -21.685  1.00  0.00    -0.064 C 
HETATM   30  C1  UNL     1       1.676  54.631 -21.877  1.00  0.00     0.045 C 
BRANCH  29  31
HETATM   31  C30 UNL     1       0.961  52.804 -20.269  1.00  0.00     0.197 C 
BRANCH  31  32
HETATM   32  O3  UNL     1       1.035  53.908 -19.379  1.00  0.00    -0.397 OA
HETATM   33  H48 UNL     1       1.003  53.541 -18.482  1.00  0.00     0.209 HD
ENDBRANCH  31  32
ENDBRANCH  29  31
ENDBRANCH  27  28
ENDBRANCH  26  27
ENDBRANCH  24  26
ENDBRANCH   1  24
BRANCH  23  34
HETATM   34  O2  UNL     1      -6.827  51.159 -22.842  1.00  0.00    -0.391 OA
HETATM   35  H45 UNL     1      -6.571  51.890 -23.426  1.00  0.00     0.210 HD
ENDBRANCH  23  34
TORSDOF 7
ENDMDL
MODEL 9
REMARK minimizedAffinity -8.88755989
REMARK  7 active torsions:
REMARK  status: ('A' for Active; 'I' for Inactive)
REMARK    1  A    between atoms: C2_2  and  C30_32 
REMARK    2  A    between atoms: C3_3  and  C4_4 
REMARK    3  A    between atoms: C4_4  and  C5_5 
REMARK    4  A    between atoms: C5_5  and  C6_6 
REMARK    5  A    between atoms: C6_6  and  C8_8 
REMARK    6  A    between atoms: C29_30  and  O2_31 
REMARK    7  A    between atoms: C30_32  and  O3_33 
ROOT
HETATM    1  C8  UNL     1      -1.655  50.214 -23.716  1.00  0.00    -0.002 C 
HETATM    2  C9  UNL     1      -1.105  50.776 -22.382  1.00  0.00     0.007 C 
HETATM    3  C10 UNL     1      -2.050  50.274 -21.266  1.00  0.00     0.015 C 
HETATM    4  C11 UNL     1      -2.919  49.180 -21.920  1.00  0.00    -0.010 C 
HETATM    5  C12 UNL     1      -2.094  47.853 -21.880  1.00  0.00     0.021 C 
HETATM    6  C13 UNL     1      -4.287  48.835 -21.328  1.00  0.00    -0.039 C 
HETATM    7  C14 UNL     1      -5.248  48.312 -22.140  1.00  0.00    -0.066 C 
HETATM    8  C15 UNL     1      -5.011  48.132 -23.653  1.00  0.00     0.036 C 
HETATM    9  C16 UNL     1      -3.714  48.714 -24.257  1.00  0.00     0.015 C 
HETATM   10  C17 UNL     1      -3.110  49.795 -23.356  1.00  0.00    -0.029 C 
HETATM   11  C18 UNL     1      -4.057  51.031 -23.380  1.00  0.00     0.016 C 
HETATM   12  C19 UNL     1      -6.648  47.893 -21.607  1.00  0.00    -0.015 C 
HETATM   13  C20 UNL     1      -7.661  48.951 -22.112  1.00  0.00     0.020 C 
HETATM   14  C21 UNL     1      -7.045  46.497 -22.172  1.00  0.00     0.021 C 
HETATM   15  C22 UNL     1      -8.053  45.704 -21.342  1.00  0.00     0.080 C 
HETATM   16  C23 UNL     1      -8.835  46.562 -20.378  1.00  0.00     0.135 C 
HETATM   17  O1  UNL     1     -10.065  46.503 -20.346  1.00  0.00    -0.297 OA
HETATM   18  C24 UNL     1      -8.027  47.422 -19.399  1.00  0.00     0.018 C 
HETATM   19  C25 UNL     1      -7.809  46.563 -18.134  1.00  0.00     0.023 C 
HETATM   20  C26 UNL     1      -8.859  48.650 -18.981  1.00  0.00     0.023 C 
HETATM   21  C27 UNL     1      -6.640  47.772 -20.041  1.00  0.00     0.016 C 
HETATM   22  C28 UNL     1      -5.959  48.994 -19.407  1.00  0.00     0.043 C 
HETATM   23  C29 UNL     1      -4.503  49.098 -19.855  1.00  0.00     0.148 C 
ENDROOT
BRANCH   1  24
HETATM   24  C6  UNL     1      -1.415  51.079 -24.990  1.00  0.00    -0.014 C 
HETATM   25  C7  UNL     1      -2.321  50.755 -26.186  1.00  0.00     0.010 C 
BRANCH  24  26
HETATM   26  C5  UNL     1      -1.557  52.582 -24.618  1.00  0.00     0.008 C 
BRANCH  26  27
HETATM   27  C4  UNL     1      -0.301  53.416 -24.891  1.00  0.00     0.028 C 
BRANCH  27  28
HETATM   28  C3  UNL     1       0.890  52.532 -25.141  1.00  0.00    -0.022 C 
HETATM   29  C2  UNL     1       1.344  52.083 -26.330  1.00  0.00    -0.064 C 
HETATM   30  C1  UNL     1       0.752  52.455 -27.664  1.00  0.00     0.045 C 
BRANCH  29  31
HETATM   31  C30 UNL     1       2.541  51.170 -26.406  1.00  0.00     0.197 C 
BRANCH  31  32
HETATM   32  O3  UNL     1       3.357  51.575 -27.495  1.00  0.00    -0.397 OA
HETATM   33  H48 UNL     1       4.129  50.987 -27.494  1.00  0.00     0.209 HD
ENDBRANCH  31  32
ENDBRANCH  29  31
ENDBRANCH  27  28
ENDBRANCH  26  27
ENDBRANCH  24  26
ENDBRANCH   1  24
BRANCH  23  34
HETATM   34  O2  UNL     1      -3.756  48.146 -19.101  1.00  0.00    -0.391 OA
HETATM   35  H45 UNL     1      -2.829  48.430 -19.124  1.00  0.00     0.210 HD
ENDBRANCH  23  34
TORSDOF 7
ENDMDL
