MODEL 1
REMARK minimizedAffinity -8.69798851
REMARK CNNscore 0.683389306
REMARK CNNaffinity 6.40413284
REMARK  5 active torsions:
REMARK  status: ('A' for Active; 'I' for Inactive)
REMARK    1  A    between atoms: C4_4  and  O1_5 
REMARK    2  A    between atoms: C5_6  and  O2_7 
REMARK    3  A    between atoms: C8_11  and  C9_12 
REMARK    4  A    between atoms: C19_23  and  C20_24 
REMARK    5  A    between atoms: C26_32  and  O7_33 
ROOT
HETATM    1  C1  UNL     1     -10.256  40.986 -20.311  1.00  0.00     0.040 C 
HETATM    2  C2  UNL     1      -8.943  41.683 -20.638  1.00  0.00     0.123 C 
HETATM    3  C3  UNL     1      -7.804  41.155 -19.760  1.00  0.00     0.069 C 
HETATM    4  C4  UNL     1      -6.717  42.204 -19.533  1.00  0.00     0.188 C 
HETATM    5  C5  UNL     1      -6.618  43.187 -20.712  1.00  0.00     0.240 C 
HETATM    6  O3  UNL     1      -5.523  44.085 -20.475  1.00  0.00    -0.341 OA
HETATM    7  C6  UNL     1      -5.800  45.362 -21.050  1.00  0.00     0.156 C 
HETATM    8  C7  UNL     1      -4.554  46.242 -20.917  1.00  0.00     0.056 C 
HETATM    9  C8  UNL     1      -4.773  47.696 -21.414  1.00  0.00     0.043 C 
HETATM   10  C10 UNL     1      -6.068  48.252 -20.817  1.00  0.00    -0.065 C 
HETATM   11  C11 UNL     1      -6.147  49.489 -20.298  1.00  0.00    -0.022 C 
HETATM   12  C12 UNL     1      -5.020  50.474 -20.273  1.00  0.00     0.035 C 
HETATM   13  C13 UNL     1      -3.811  50.087 -21.154  1.00  0.00     0.030 C 
HETATM   14  C14 UNL     1      -3.521  48.570 -21.018  1.00  0.00     0.012 C 
HETATM   15  C15 UNL     1      -2.241  48.169 -21.774  1.00  0.00     0.007 C 
HETATM   16  C16 UNL     1      -1.045  49.029 -21.386  1.00  0.00     0.013 C 
HETATM   17  C17 UNL     1      -1.279  50.550 -21.599  1.00  0.00    -0.005 C 
HETATM   18  C18 UNL     1      -1.321  50.838 -23.114  1.00  0.00     0.019 C 
HETATM   19  C19 UNL     1      -0.139  51.325 -20.838  1.00  0.00     0.028 C 
HETATM   20  C24 UNL     1      -0.731  51.659 -19.447  1.00  0.00     0.013 C 
HETATM   21  C25 UNL     1      -2.141  51.071 -19.405  1.00  0.00     0.040 C 
HETATM   22  C26 UNL     1      -2.582  50.999 -20.874  1.00  0.00     0.070 C 
HETATM   23  C27 UNL     1      -7.290  47.357 -20.841  1.00  0.00     0.069 C 
HETATM   24  C28 UNL     1      -6.978  45.970 -20.286  1.00  0.00     0.158 C 
HETATM   25  O8  UNL     1      -8.157  45.162 -20.302  1.00  0.00    -0.347 OA
HETATM   26  C29 UNL     1      -8.023  43.877 -20.923  1.00  0.00     0.325 C 
HETATM   27  O9  UNL     1      -9.115  43.082 -20.428  1.00  0.00    -0.351 OA
ENDROOT
BRANCH  19  28
HETATM   28  C20 UNL     1       0.469  52.519 -21.524  1.00  0.00    -0.045 A 
HETATM   29  C21 UNL     1       0.583  52.781 -22.826  1.00  0.00     0.087 A 
HETATM   30  C22 UNL     1       1.228  54.085 -22.953  1.00  0.00     0.283 A 
HETATM   31  O5  UNL     1       1.475  54.643 -24.005  1.00  0.00    -0.260 OA
HETATM   32  O6  UNL     1       1.486  54.578 -21.711  1.00  0.00    -0.314 OA
HETATM   33  C23 UNL     1       1.033  53.641 -20.736  1.00  0.00     0.213 A 
ENDBRANCH  19  28
BRANCH  22  34
HETATM   34  O7  UNL     1      -2.899  52.334 -21.291  1.00  0.00    -0.389 OA
HETATM   35  H34 UNL     1      -3.628  52.673 -20.747  1.00  0.00     0.210 HD
ENDBRANCH  22  34
BRANCH   9  36
HETATM   36  C9  UNL     1      -4.917  47.664 -22.949  1.00  0.00     0.245 C 
HETATM   37  O4  UNL     1      -5.554  48.471 -23.620  1.00  0.00    -0.306 OA
ENDBRANCH   9  36
BRANCH   5  38
HETATM   38  O2  UNL     1      -6.259  42.443 -21.889  1.00  0.00    -0.360 OA
HETATM   39  H9  UNL     1      -5.650  41.753 -21.565  1.00  0.00     0.213 HD
ENDBRANCH   5  38
BRANCH   4  40
HETATM   40  O1  UNL     1      -5.459  41.523 -19.372  1.00  0.00    -0.390 OA
HETATM   41  H8  UNL     1      -4.791  42.230 -19.268  1.00  0.00     0.210 HD
ENDBRANCH   4  40
TORSDOF 5
ENDMDL
MODEL 2
REMARK minimizedAffinity -7.96377468
REMARK CNNscore 0.651745856
REMARK CNNaffinity 5.63392591
REMARK  5 active torsions:
REMARK  status: ('A' for Active; 'I' for Inactive)
REMARK    1  A    between atoms: C4_4  and  O1_5 
REMARK    2  A    between atoms: C5_6  and  O2_7 
REMARK    3  A    between atoms: C8_11  and  C9_12 
REMARK    4  A    between atoms: C19_23  and  C20_24 
REMARK    5  A    between atoms: C26_32  and  O7_33 
ROOT
HETATM    1  C1  UNL     1     -23.216  41.732 -19.266  1.00  0.00     0.040 C 
HETATM    2  C2  UNL     1     -22.207  41.690 -20.406  1.00  0.00     0.123 C 
HETATM    3  C3  UNL     1     -21.172  40.582 -20.186  1.00  0.00     0.069 C 
HETATM    4  C4  UNL     1     -19.831  40.909 -20.840  1.00  0.00     0.188 C 
HETATM    5  C5  UNL     1     -20.005  41.802 -22.081  1.00  0.00     0.240 C 
HETATM    6  O3  UNL     1     -18.721  41.994 -22.696  1.00  0.00    -0.341 OA
HETATM    7  C6  UNL     1     -18.659  43.279 -23.316  1.00  0.00     0.156 C 
HETATM    8  C7  UNL     1     -17.344  43.387 -24.093  1.00  0.00     0.056 C 
HETATM    9  C8  UNL     1     -17.116  44.787 -24.723  1.00  0.00     0.043 C 
HETATM   10  C10 UNL     1     -17.382  45.870 -23.675  1.00  0.00    -0.065 C 
HETATM   11  C11 UNL     1     -16.567  46.925 -23.509  1.00  0.00    -0.022 C 
HETATM   12  C12 UNL     1     -15.346  47.194 -24.333  1.00  0.00     0.035 C 
HETATM   13  C13 UNL     1     -15.227  46.324 -25.604  1.00  0.00     0.030 C 
HETATM   14  C14 UNL     1     -15.646  44.865 -25.289  1.00  0.00     0.012 C 
HETATM   15  C15 UNL     1     -15.413  43.936 -26.494  1.00  0.00     0.007 C 
HETATM   16  C16 UNL     1     -13.991  44.031 -27.033  1.00  0.00     0.013 C 
HETATM   17  C17 UNL     1     -13.578  45.471 -27.442  1.00  0.00    -0.005 C 
HETATM   18  C18 UNL     1     -14.359  45.870 -28.711  1.00  0.00     0.019 C 
HETATM   19  C19 UNL     1     -12.014  45.489 -27.629  1.00  0.00     0.028 C 
HETATM   20  C24 UNL     1     -11.446  45.957 -26.267  1.00  0.00     0.013 C 
HETATM   21  C25 UNL     1     -12.635  46.166 -25.331  1.00  0.00     0.040 C 
HETATM   22  C26 UNL     1     -13.822  46.455 -26.261  1.00  0.00     0.070 C 
HETATM   23  C27 UNL     1     -18.624  45.728 -22.820  1.00  0.00     0.069 C 
HETATM   24  C28 UNL     1     -18.725  44.332 -22.209  1.00  0.00     0.158 C 
HETATM   25  O8  UNL     1     -19.894  44.241 -21.392  1.00  0.00    -0.347 OA
HETATM   26  C29 UNL     1     -20.754  43.126 -21.657  1.00  0.00     0.325 C 
HETATM   27  O9  UNL     1     -21.561  42.958 -20.478  1.00  0.00    -0.351 OA
ENDROOT
BRANCH  19  28
HETATM   28  C20 UNL     1     -11.461  46.262 -28.797  1.00  0.00    -0.045 A 
HETATM   29  C21 UNL     1     -11.301  45.883 -30.065  1.00  0.00     0.087 A 
HETATM   30  C22 UNL     1     -10.748  47.020 -30.794  1.00  0.00     0.283 A 
HETATM   31  O5  UNL     1     -10.489  47.031 -31.982  1.00  0.00    -0.260 OA
HETATM   32  O6  UNL     1     -10.589  48.065 -29.936  1.00  0.00    -0.314 OA
HETATM   33  C23 UNL     1     -11.021  47.669 -28.635  1.00  0.00     0.213 A 
ENDBRANCH  19  28
BRANCH  22  34
HETATM   34  O7  UNL     1     -13.669  47.796 -26.746  1.00  0.00    -0.389 OA
HETATM   35  H34 UNL     1     -13.685  48.411 -25.994  1.00  0.00     0.210 HD
ENDBRANCH  22  34
BRANCH   9  36
HETATM   36  C9  UNL     1     -18.125  44.966 -25.876  1.00  0.00     0.245 C 
HETATM   37  O4  UNL     1     -18.952  45.868 -25.964  1.00  0.00    -0.306 OA
ENDBRANCH   9  36
BRANCH   5  38
HETATM   38  O2  UNL     1     -20.791  41.084 -23.046  1.00  0.00    -0.360 OA
HETATM   39  H9  UNL     1     -20.509  40.154 -22.949  1.00  0.00     0.213 HD
ENDBRANCH   5  38
BRANCH   4  40
HETATM   40  O1  UNL     1     -19.204  39.671 -21.227  1.00  0.00    -0.390 OA
HETATM   41  H8  UNL     1     -18.373  39.928 -21.674  1.00  0.00     0.210 HD
ENDBRANCH   4  40
TORSDOF 5
ENDMDL
MODEL 3
REMARK minimizedAffinity -9.31953526
REMARK CNNscore 0.631644785
REMARK CNNaffinity 6.50816965
REMARK  5 active torsions:
REMARK  status: ('A' for Active; 'I' for Inactive)
REMARK    1  A    between atoms: C4_4  and  O1_5 
REMARK    2  A    between atoms: C5_6  and  O2_7 
REMARK    3  A    between atoms: C8_11  and  C9_12 
REMARK    4  A    between atoms: C19_23  and  C20_24 
REMARK    5  A    between atoms: C26_32  and  O7_33 
ROOT
HETATM    1  C1  UNL     1     -12.707  44.405 -28.407  1.00  0.00     0.040 C 
HETATM    2  C2  UNL     1     -11.471  45.256 -28.149  1.00  0.00     0.123 C 
HETATM    3  C3  UNL     1     -10.288  44.784 -29.000  1.00  0.00     0.069 C 
HETATM    4  C4  UNL     1      -8.945  45.081 -28.336  1.00  0.00     0.188 C 
HETATM    5  C5  UNL     1      -9.018  46.325 -27.434  1.00  0.00     0.240 C 
HETATM    6  O3  UNL     1      -7.706  46.598 -26.917  1.00  0.00    -0.341 OA
HETATM    7  C6  UNL     1      -7.802  47.183 -25.617  1.00  0.00     0.156 C 
HETATM    8  C7  UNL     1      -6.402  47.605 -25.164  1.00  0.00     0.056 C 
HETATM    9  C8  UNL     1      -6.366  48.158 -23.714  1.00  0.00     0.043 C 
HETATM   10  C10 UNL     1      -7.129  47.210 -22.785  1.00  0.00    -0.065 C 
HETATM   11  C11 UNL     1      -6.653  46.845 -21.583  1.00  0.00    -0.022 C 
HETATM   12  C12 UNL     1      -5.368  47.337 -20.993  1.00  0.00     0.035 C 
HETATM   13  C13 UNL     1      -4.740  48.538 -21.735  1.00  0.00     0.030 C 
HETATM   14  C14 UNL     1      -4.864  48.337 -23.267  1.00  0.00     0.012 C 
HETATM   15  C15 UNL     1      -4.131  49.446 -24.044  1.00  0.00     0.007 C 
HETATM   16  C16 UNL     1      -2.685  49.611 -23.593  1.00  0.00     0.013 C 
HETATM   17  C17 UNL     1      -2.539  49.903 -22.075  1.00  0.00    -0.005 C 
HETATM   18  C18 UNL     1      -3.059  51.327 -21.791  1.00  0.00     0.019 C 
HETATM   19  C19 UNL     1      -1.027  49.692 -21.687  1.00  0.00     0.028 C 
HETATM   20  C24 UNL     1      -0.935  48.231 -21.183  1.00  0.00     0.013 C 
HETATM   21  C25 UNL     1      -2.332  47.623 -21.309  1.00  0.00     0.040 C 
HETATM   22  C26 UNL     1      -3.290  48.821 -21.245  1.00  0.00     0.070 C 
HETATM   23  C27 UNL     1      -8.471  46.694 -23.260  1.00  0.00     0.069 C 
HETATM   24  C28 UNL     1      -8.384  46.128 -24.675  1.00  0.00     0.158 C 
HETATM   25  O8  UNL     1      -9.660  45.630 -25.081  1.00  0.00    -0.347 OA
HETATM   26  C29 UNL     1     -10.140  46.103 -26.345  1.00  0.00     0.325 C 
HETATM   27  O9  UNL     1     -11.146  45.163 -26.765  1.00  0.00    -0.351 OA
ENDROOT
BRANCH  19  28
HETATM   28  C20 UNL     1      -0.406  50.684 -20.739  1.00  0.00    -0.045 A 
HETATM   29  C21 UNL     1       0.236  51.822 -21.005  1.00  0.00     0.087 A 
HETATM   30  C22 UNL     1       0.615  52.417 -19.727  1.00  0.00     0.283 A 
HETATM   31  O5  UNL     1       1.205  53.471 -19.594  1.00  0.00    -0.260 OA
HETATM   32  O6  UNL     1       0.185  51.613 -18.716  1.00  0.00    -0.314 OA
HETATM   33  C23 UNL     1      -0.479  50.480 -19.273  1.00  0.00     0.213 A 
ENDBRANCH  19  28
BRANCH  22  34
HETATM   34  O7  UNL     1      -3.346  49.252 -19.879  1.00  0.00    -0.389 OA
HETATM   35  H34 UNL     1      -3.690  48.528 -19.330  1.00  0.00     0.210 HD
ENDBRANCH  22  34
BRANCH   9  36
HETATM   36  C9  UNL     1      -7.076  49.528 -23.703  1.00  0.00     0.245 C 
HETATM   37  O4  UNL     1      -7.577  50.061 -22.718  1.00  0.00    -0.306 OA
ENDBRANCH   9  36
BRANCH   5  38
HETATM   38  O2  UNL     1      -9.352  47.457 -28.255  1.00  0.00    -0.360 OA
HETATM   39  H9  UNL     1      -8.889  47.292 -29.099  1.00  0.00     0.213 HD
ENDBRANCH   5  38
BRANCH   4  40
HETATM   40  O1  UNL     1      -7.967  45.298 -29.371  1.00  0.00    -0.390 OA
HETATM   41  H8  UNL     1      -7.138  45.522 -28.904  1.00  0.00     0.210 HD
ENDBRANCH   4  40
TORSDOF 5
ENDMDL
MODEL 4
REMARK minimizedAffinity -8.97364998
REMARK CNNscore 0.631624579
REMARK CNNaffinity 6.36505747
REMARK  5 active torsions:
REMARK  status: ('A' for Active; 'I' for Inactive)
REMARK    1  A    between atoms: C4_4  and  O1_5 
REMARK    2  A    between atoms: C5_6  and  O2_7 
REMARK    3  A    between atoms: C8_11  and  C9_12 
REMARK    4  A    between atoms: C19_23  and  C20_24 
REMARK    5  A    between atoms: C26_32  and  O7_33 
ROOT
HETATM    1  C1  UNL     1     -12.497  42.906 -23.492  1.00  0.00     0.040 C 
HETATM    2  C2  UNL     1     -11.210  43.666 -23.782  1.00  0.00     0.123 C 
HETATM    3  C3  UNL     1     -10.061  42.704 -24.102  1.00  0.00     0.069 C 
HETATM    4  C4  UNL     1      -8.700  43.284 -23.723  1.00  0.00     0.188 C 
HETATM    5  C5  UNL     1      -8.693  44.821 -23.809  1.00  0.00     0.240 C 
HETATM    6  O3  UNL     1      -7.365  45.293 -23.531  1.00  0.00    -0.341 OA
HETATM    7  C6  UNL     1      -7.420  46.569 -22.893  1.00  0.00     0.156 C 
HETATM    8  C7  UNL     1      -5.995  47.112 -22.755  1.00  0.00     0.056 C 
HETATM    9  C8  UNL     1      -5.921  48.453 -21.977  1.00  0.00     0.043 C 
HETATM   10  C10 UNL     1      -6.738  48.342 -20.687  1.00  0.00    -0.065 C 
HETATM   11  C11 UNL     1      -6.282  48.793 -19.507  1.00  0.00    -0.022 C 
HETATM   12  C12 UNL     1      -4.967  49.482 -19.310  1.00  0.00     0.035 C 
HETATM   13  C13 UNL     1      -4.267  49.912 -20.619  1.00  0.00     0.030 C 
HETATM   14  C14 UNL     1      -4.409  48.797 -21.687  1.00  0.00     0.012 C 
HETATM   15  C15 UNL     1      -3.610  49.129 -22.961  1.00  0.00     0.007 C 
HETATM   16  C16 UNL     1      -2.155  49.468 -22.661  1.00  0.00     0.013 C 
HETATM   17  C17 UNL     1      -1.986  50.644 -21.661  1.00  0.00    -0.005 C 
HETATM   18  C18 UNL     1      -2.416  51.953 -22.356  1.00  0.00     0.019 C 
HETATM   19  C19 UNL     1      -0.490  50.650 -21.171  1.00  0.00     0.028 C 
HETATM   20  C24 UNL     1      -0.488  49.831 -19.857  1.00  0.00     0.013 C 
HETATM   21  C25 UNL     1      -1.920  49.351 -19.624  1.00  0.00     0.040 C 
HETATM   22  C26 UNL     1      -2.801  50.367 -20.364  1.00  0.00     0.070 C 
HETATM   23  C27 UNL     1      -8.111  47.711 -20.781  1.00  0.00     0.069 C 
HETATM   24  C28 UNL     1      -8.064  46.376 -21.520  1.00  0.00     0.158 C 
HETATM   25  O8  UNL     1      -9.370  45.798 -21.568  1.00  0.00    -0.347 OA
HETATM   26  C29 UNL     1      -9.823  45.392 -22.865  1.00  0.00     0.325 C 
HETATM   27  O9  UNL     1     -10.887  44.450 -22.637  1.00  0.00    -0.351 OA
ENDROOT
BRANCH  19  28
HETATM   28  C20 UNL     1       0.195  51.984 -21.037  1.00  0.00    -0.045 A 
HETATM   29  C21 UNL     1       0.868  52.686 -21.949  1.00  0.00     0.087 A 
HETATM   30  C22 UNL     1       1.307  53.923 -21.309  1.00  0.00     0.283 A 
HETATM   31  O5  UNL     1       1.938  54.807 -21.855  1.00  0.00    -0.260 OA
HETATM   32  O6  UNL     1       0.881  53.932 -20.016  1.00  0.00    -0.314 OA
HETATM   33  C23 UNL     1       0.160  52.729 -19.756  1.00  0.00     0.213 A 
ENDBRANCH  19  28
BRANCH  22  34
HETATM   34  O7  UNL     1      -2.826  51.566 -19.576  1.00  0.00    -0.389 OA
HETATM   35  H34 UNL     1      -3.212  51.368 -18.707  1.00  0.00     0.210 HD
ENDBRANCH  22  34
BRANCH   9  36
HETATM   36  C9  UNL     1      -6.544  49.556 -22.857  1.00  0.00     0.245 C 
HETATM   37  O4  UNL     1      -7.460  49.395 -23.657  1.00  0.00    -0.306 OA
ENDBRANCH   9  36
BRANCH   5  38
HETATM   38  O2  UNL     1      -8.958  45.197 -25.171  1.00  0.00    -0.360 OA
HETATM   39  H9  UNL     1      -8.509  44.514 -25.705  1.00  0.00     0.213 HD
ENDBRANCH   5  38
BRANCH   4  40
HETATM   40  O1  UNL     1      -7.714  42.751 -24.627  1.00  0.00    -0.390 OA
HETATM   41  H8  UNL     1      -6.871  43.177 -24.375  1.00  0.00     0.210 HD
ENDBRANCH   4  40
TORSDOF 5
ENDMDL
MODEL 5
REMARK minimizedAffinity -7.94463062
REMARK CNNscore 0.592370093
REMARK CNNaffinity 6.01507521
REMARK  5 active torsions:
REMARK  status: ('A' for Active; 'I' for Inactive)
REMARK    1  A    between atoms: C4_4  and  O1_5 
REMARK    2  A    between atoms: C5_6  and  O2_7 
REMARK    3  A    between atoms: C8_11  and  C9_12 
REMARK    4  A    between atoms: C19_23  and  C20_24 
REMARK    5  A    between atoms: C26_32  and  O7_33 
ROOT
HETATM    1  C1  UNL     1      10.766  57.504  -3.439  1.00  0.00     0.040 C 
HETATM    2  C2  UNL     1       9.287  57.309  -3.743  1.00  0.00     0.123 C 
HETATM    3  C3  UNL     1       8.629  56.385  -2.712  1.00  0.00     0.069 C 
HETATM    4  C4  UNL     1       7.440  55.625  -3.296  1.00  0.00     0.188 C 
HETATM    5  C5  UNL     1       6.755  56.418  -4.423  1.00  0.00     0.240 C 
HETATM    6  O3  UNL     1       5.597  55.690  -4.863  1.00  0.00    -0.341 OA
HETATM    7  C6  UNL     1       5.369  55.921  -6.253  1.00  0.00     0.156 C 
HETATM    8  C7  UNL     1       4.045  55.262  -6.650  1.00  0.00     0.056 C 
HETATM    9  C8  UNL     1       3.743  55.357  -8.170  1.00  0.00     0.043 C 
HETATM   10  C10 UNL     1       4.982  54.936  -8.965  1.00  0.00    -0.065 C 
HETATM   11  C11 UNL     1       4.910  54.115 -10.027  1.00  0.00    -0.022 C 
HETATM   12  C12 UNL     1       3.638  53.553 -10.581  1.00  0.00     0.035 C 
HETATM   13  C13 UNL     1       2.353  54.209 -10.029  1.00  0.00     0.030 C 
HETATM   14  C14 UNL     1       2.495  54.452  -8.505  1.00  0.00     0.012 C 
HETATM   15  C15 UNL     1       1.185  54.981  -7.892  1.00  0.00     0.007 C 
HETATM   16  C16 UNL     1      -0.011  54.100  -8.233  1.00  0.00     0.013 C 
HETATM   17  C17 UNL     1      -0.229  53.915  -9.759  1.00  0.00    -0.005 C 
HETATM   18  C18 UNL     1      -0.716  55.251 -10.357  1.00  0.00     0.019 C 
HETATM   19  C19 UNL     1      -1.240  52.726  -9.961  1.00  0.00     0.028 C 
HETATM   20  C24 UNL     1      -0.358  51.470 -10.165  1.00  0.00     0.013 C 
HETATM   21  C25 UNL     1       1.098  51.920 -10.052  1.00  0.00     0.040 C 
HETATM   22  C26 UNL     1       1.081  53.407 -10.431  1.00  0.00     0.070 C 
HETATM   23  C27 UNL     1       6.320  55.492  -8.524  1.00  0.00     0.069 C 
HETATM   24  C28 UNL     1       6.536  55.304  -7.025  1.00  0.00     0.158 C 
HETATM   25  O8  UNL     1       7.816  55.818  -6.648  1.00  0.00    -0.347 OA
HETATM   26  C29 UNL     1       7.819  56.735  -5.547  1.00  0.00     0.325 C 
HETATM   27  O9  UNL     1       9.168  56.751  -5.048  1.00  0.00    -0.351 OA
ENDROOT
BRANCH  19  28
HETATM   28  C20 UNL     1      -2.298  52.882 -11.021  1.00  0.00    -0.045 A 
HETATM   29  C21 UNL     1      -2.273  52.518 -12.303  1.00  0.00     0.087 A 
HETATM   30  C22 UNL     1      -3.564  52.877 -12.884  1.00  0.00     0.283 A 
HETATM   31  O5  UNL     1      -3.892  52.675 -14.036  1.00  0.00    -0.260 OA
HETATM   32  O6  UNL     1      -4.340  53.452 -11.924  1.00  0.00    -0.314 OA
HETATM   33  C23 UNL     1      -3.609  53.495 -10.700  1.00  0.00     0.213 A 
ENDBRANCH  19  28
BRANCH  22  34
HETATM   34  O7  UNL     1       0.923  53.484 -11.854  1.00  0.00    -0.389 OA
HETATM   35  H34 UNL     1       1.676  53.046 -12.282  1.00  0.00     0.210 HD
ENDBRANCH  22  34
BRANCH   9  36
HETATM   36  C9  UNL     1       3.423  56.827  -8.508  1.00  0.00     0.245 C 
HETATM   37  O4  UNL     1       3.362  57.746  -7.696  1.00  0.00    -0.306 OA
ENDBRANCH   9  36
BRANCH   5  38
HETATM   38  O2  UNL     1       6.251  57.645  -3.869  1.00  0.00    -0.360 OA
HETATM   39  H9  UNL     1       5.954  57.403  -2.970  1.00  0.00     0.213 HD
ENDBRANCH   5  38
BRANCH   4  40
HETATM   40  O1  UNL     1       6.493  55.385  -2.238  1.00  0.00    -0.390 OA
HETATM   41  H8  UNL     1       5.736  54.934  -2.662  1.00  0.00     0.210 HD
ENDBRANCH   4  40
TORSDOF 5
ENDMDL
MODEL 6
REMARK minimizedAffinity -7.48353195
REMARK CNNscore 0.517033637
REMARK CNNaffinity 5.43682528
REMARK  5 active torsions:
REMARK  status: ('A' for Active; 'I' for Inactive)
REMARK    1  A    between atoms: C4_4  and  O1_5 
REMARK    2  A    between atoms: C5_6  and  O2_7 
REMARK    3  A    between atoms: C8_11  and  C9_12 
REMARK    4  A    between atoms: C19_23  and  C20_24 
REMARK    5  A    between atoms: C26_32  and  O7_33 
ROOT
HETATM    1  C1  UNL     1      12.786  58.728  -0.719  1.00  0.00     0.040 C 
HETATM    2  C2  UNL     1      12.088  57.838  -1.739  1.00  0.00     0.123 C 
HETATM    3  C3  UNL     1      12.892  57.757  -3.041  1.00  0.00     0.069 C 
HETATM    4  C4  UNL     1      12.000  57.505  -4.255  1.00  0.00     0.188 C 
HETATM    5  C5  UNL     1      10.736  56.713  -3.878  1.00  0.00     0.240 C 
HETATM    6  O3  UNL     1       9.991  56.434  -5.074  1.00  0.00    -0.341 OA
HETATM    7  C6  UNL     1       8.593  56.396  -4.786  1.00  0.00     0.156 C 
HETATM    8  C7  UNL     1       7.845  55.942  -6.042  1.00  0.00     0.056 C 
HETATM    9  C8  UNL     1       6.301  55.965  -5.880  1.00  0.00     0.043 C 
HETATM   10  C10 UNL     1       5.870  57.303  -5.273  1.00  0.00    -0.065 C 
HETATM   11  C11 UNL     1       4.822  58.001  -5.743  1.00  0.00    -0.022 C 
HETATM   12  C12 UNL     1       3.937  57.553  -6.864  1.00  0.00     0.035 C 
HETATM   13  C13 UNL     1       4.124  56.076  -7.278  1.00  0.00     0.030 C 
HETATM   14  C14 UNL     1       5.631  55.714  -7.286  1.00  0.00     0.012 C 
HETATM   15  C15 UNL     1       5.868  54.291  -7.822  1.00  0.00     0.007 C 
HETATM   16  C16 UNL     1       5.207  54.064  -9.176  1.00  0.00     0.013 C 
HETATM   17  C17 UNL     1       3.677  54.333  -9.171  1.00  0.00    -0.005 C 
HETATM   18  C18 UNL     1       2.981  53.223  -8.357  1.00  0.00     0.019 C 
HETATM   19  C19 UNL     1       3.198  54.415 -10.669  1.00  0.00     0.028 C 
HETATM   20  C24 UNL     1       3.231  55.921 -11.026  1.00  0.00     0.013 C 
HETATM   21  C25 UNL     1       3.741  56.664  -9.792  1.00  0.00     0.040 C 
HETATM   22  C26 UNL     1       3.384  55.754  -8.609  1.00  0.00     0.070 C 
HETATM   23  C27 UNL     1       6.664  57.825  -4.094  1.00  0.00     0.069 C 
HETATM   24  C28 UNL     1       8.164  57.805  -4.377  1.00  0.00     0.158 C 
HETATM   25  O8  UNL     1       8.879  58.325  -3.254  1.00  0.00    -0.347 OA
HETATM   26  C29 UNL     1       9.948  57.507  -2.763  1.00  0.00     0.325 C 
HETATM   27  O9  UNL     1      10.795  58.379  -1.995  1.00  0.00    -0.351 OA
ENDROOT
BRANCH  19  28
HETATM   28  C20 UNL     1       1.891  53.754 -11.019  1.00  0.00    -0.045 A 
HETATM   29  C21 UNL     1       0.647  54.219 -10.897  1.00  0.00     0.087 A 
HETATM   30  C22 UNL     1      -0.255  53.189 -11.406  1.00  0.00     0.283 A 
HETATM   31  O5  UNL     1      -1.465  53.284 -11.459  1.00  0.00    -0.260 OA
HETATM   32  O6  UNL     1       0.479  52.122 -11.826  1.00  0.00    -0.314 OA
HETATM   33  C23 UNL     1       1.863  52.397 -11.616  1.00  0.00     0.213 A 
ENDBRANCH  19  28
BRANCH  22  34
HETATM   34  O7  UNL     1       1.972  55.875  -8.387  1.00  0.00    -0.389 OA
HETATM   35  H34 UNL     1       1.762  56.797  -8.166  1.00  0.00     0.210 HD
ENDBRANCH  22  34
BRANCH   9  36
HETATM   36  C9  UNL     1       5.902  54.837  -4.907  1.00  0.00     0.245 C 
HETATM   37  O4  UNL     1       6.510  53.782  -4.753  1.00  0.00    -0.306 OA
ENDBRANCH   9  36
BRANCH   5  38
HETATM   38  O2  UNL     1      11.142  55.431  -3.369  1.00  0.00    -0.360 OA
HETATM   39  H9  UNL     1      11.924  55.193  -3.904  1.00  0.00     0.213 HD
ENDBRANCH   5  38
BRANCH   4  40
HETATM   40  O1  UNL     1      12.758  56.760  -5.226  1.00  0.00    -0.390 OA
HETATM   41  H8  UNL     1      12.140  56.588  -5.964  1.00  0.00     0.210 HD
ENDBRANCH   4  40
TORSDOF 5
ENDMDL
MODEL 7
REMARK minimizedAffinity -8.09637547
REMARK CNNscore 0.428010583
REMARK CNNaffinity 6.07984352
REMARK  5 active torsions:
REMARK  status: ('A' for Active; 'I' for Inactive)
REMARK    1  A    between atoms: C4_4  and  O1_5 
REMARK    2  A    between atoms: C5_6  and  O2_7 
REMARK    3  A    between atoms: C8_11  and  C9_12 
REMARK    4  A    between atoms: C19_23  and  C20_24 
REMARK    5  A    between atoms: C26_32  and  O7_33 
ROOT
HETATM    1  C1  UNL     1      -3.180  46.725 -18.300  1.00  0.00     0.040 C 
HETATM    2  C2  UNL     1      -3.032  47.924 -17.372  1.00  0.00     0.123 C 
HETATM    3  C3  UNL     1      -2.993  49.234 -18.166  1.00  0.00     0.069 C 
HETATM    4  C4  UNL     1      -2.193  50.319 -17.449  1.00  0.00     0.188 C 
HETATM    5  C5  UNL     1      -2.241  50.145 -15.921  1.00  0.00     0.240 C 
HETATM    6  O3  UNL     1      -1.548  51.245 -15.309  1.00  0.00    -0.341 OA
HETATM    7  C6  UNL     1      -0.934  50.823 -14.090  1.00  0.00     0.156 C 
HETATM    8  C7  UNL     1      -0.343  52.049 -13.388  1.00  0.00     0.056 C 
HETATM    9  C8  UNL     1       0.446  51.696 -12.099  1.00  0.00     0.043 C 
HETATM   10  C10 UNL     1       1.409  50.542 -12.387  1.00  0.00    -0.065 C 
HETATM   11  C11 UNL     1       2.683  50.544 -11.957  1.00  0.00    -0.022 C 
HETATM   12  C12 UNL     1       3.298  51.627 -11.128  1.00  0.00     0.035 C 
HETATM   13  C13 UNL     1       2.286  52.634 -10.535  1.00  0.00     0.030 C 
HETATM   14  C14 UNL     1       1.206  52.982 -11.591  1.00  0.00     0.012 C 
HETATM   15  C15 UNL     1       0.256  54.084 -11.086  1.00  0.00     0.007 C 
HETATM   16  C16 UNL     1       1.007  55.315 -10.592  1.00  0.00     0.013 C 
HETATM   17  C17 UNL     1       2.032  55.005  -9.468  1.00  0.00    -0.005 C 
HETATM   18  C18 UNL     1       1.264  54.640  -8.181  1.00  0.00     0.019 C 
HETATM   19  C19 UNL     1       2.970  56.260  -9.311  1.00  0.00     0.028 C 
HETATM   20  C24 UNL     1       4.200  55.965 -10.203  1.00  0.00     0.013 C 
HETATM   21  C25 UNL     1       3.960  54.610 -10.867  1.00  0.00     0.040 C 
HETATM   22  C26 UNL     1       3.001  53.873  -9.922  1.00  0.00     0.070 C 
HETATM   23  C27 UNL     1       0.874  49.363 -13.173  1.00  0.00     0.069 C 
HETATM   24  C28 UNL     1       0.162  49.817 -14.445  1.00  0.00     0.158 C 
HETATM   25  O8  UNL     1      -0.308  48.681 -15.173  1.00  0.00    -0.347 OA
HETATM   26  C29 UNL     1      -1.690  48.712 -15.551  1.00  0.00     0.325 C 
HETATM   27  O9  UNL     1      -1.829  47.767 -16.627  1.00  0.00    -0.351 OA
ENDROOT
BRANCH  19  28
HETATM   28  C20 UNL     1       3.340  56.683  -7.915  1.00  0.00    -0.045 A 
HETATM   29  C21 UNL     1       2.732  57.547  -7.102  1.00  0.00     0.087 A 
HETATM   30  C22 UNL     1       3.486  57.574  -5.851  1.00  0.00     0.283 A 
HETATM   31  O5  UNL     1       3.203  58.245  -4.878  1.00  0.00    -0.260 OA
HETATM   32  O6  UNL     1       4.538  56.714  -5.947  1.00  0.00    -0.314 OA
HETATM   33  C23 UNL     1       4.521  56.101  -7.234  1.00  0.00     0.213 A 
ENDBRANCH  19  28
BRANCH  22  34
HETATM   34  O7  UNL     1       3.764  53.444  -8.786  1.00  0.00    -0.389 OA
HETATM   35  H34 UNL     1       4.462  52.837  -9.083  1.00  0.00     0.210 HD
ENDBRANCH  22  34
BRANCH   9  36
HETATM   36  C9  UNL     1      -0.562  51.234 -11.027  1.00  0.00     0.245 C 
HETATM   37  O4  UNL     1      -1.771  51.449 -11.048  1.00  0.00    -0.306 OA
ENDBRANCH   9  36
BRANCH   5  38
HETATM   38  O2  UNL     1      -3.608  50.267 -15.496  1.00  0.00    -0.360 OA
HETATM   39  H9  UNL     1      -3.987  50.948 -16.086  1.00  0.00     0.213 HD
ENDBRANCH   5  38
BRANCH   4  40
HETATM   40  O1  UNL     1      -2.750  51.599 -17.801  1.00  0.00    -0.390 OA
HETATM   41  H8  UNL     1      -2.235  52.257 -17.292  1.00  0.00     0.210 HD
ENDBRANCH   4  40
TORSDOF 5
ENDMDL
MODEL 8
REMARK minimizedAffinity -8.04820442
REMARK CNNscore 0.407899976
REMARK CNNaffinity 5.85776567
REMARK  5 active torsions:
REMARK  status: ('A' for Active; 'I' for Inactive)
REMARK    1  A    between atoms: C4_4  and  O1_5 
REMARK    2  A    between atoms: C5_6  and  O2_7 
REMARK    3  A    between atoms: C8_11  and  C9_12 
REMARK    4  A    between atoms: C19_23  and  C20_24 
REMARK    5  A    between atoms: C26_32  and  O7_33 
ROOT
HETATM    1  C1  UNL     1     -14.296  43.354 -25.262  1.00  0.00     0.040 C 
HETATM    2  C2  UNL     1     -13.353  44.542 -25.130  1.00  0.00     0.123 C 
HETATM    3  C3  UNL     1     -12.863  45.013 -26.503  1.00  0.00     0.069 C 
HETATM    4  C4  UNL     1     -11.483  45.664 -26.430  1.00  0.00     0.188 C 
HETATM    5  C5  UNL     1     -11.238  46.328 -25.064  1.00  0.00     0.240 C 
HETATM    6  O3  UNL     1      -9.966  46.995 -25.096  1.00  0.00    -0.341 OA
HETATM    7  C6  UNL     1      -9.368  46.977 -23.799  1.00  0.00     0.156 C 
HETATM    8  C7  UNL     1      -8.096  47.829 -23.832  1.00  0.00     0.056 C 
HETATM    9  C8  UNL     1      -7.301  47.797 -22.500  1.00  0.00     0.043 C 
HETATM   10  C10 UNL     1      -7.141  46.348 -22.033  1.00  0.00    -0.065 C 
HETATM   11  C11 UNL     1      -5.974  45.866 -21.573  1.00  0.00    -0.022 C 
HETATM   12  C12 UNL     1      -4.722  46.672 -21.420  1.00  0.00     0.035 C 
HETATM   13  C13 UNL     1      -4.922  48.198 -21.557  1.00  0.00     0.030 C 
HETATM   14  C14 UNL     1      -5.906  48.502 -22.716  1.00  0.00     0.012 C 
HETATM   15  C15 UNL     1      -6.028  50.016 -22.972  1.00  0.00     0.007 C 
HETATM   16  C16 UNL     1      -4.671  50.681 -23.169  1.00  0.00     0.013 C 
HETATM   17  C17 UNL     1      -3.697  50.467 -21.978  1.00  0.00    -0.005 C 
HETATM   18  C18 UNL     1      -4.206  51.276 -20.768  1.00  0.00     0.019 C 
HETATM   19  C19 UNL     1      -2.255  50.881 -22.455  1.00  0.00     0.028 C 
HETATM   20  C24 UNL     1      -1.592  49.567 -22.939  1.00  0.00     0.013 C 
HETATM   21  C25 UNL     1      -2.627  48.455 -22.774  1.00  0.00     0.040 C 
HETATM   22  C26 UNL     1      -3.562  48.948 -21.662  1.00  0.00     0.070 C 
HETATM   23  C27 UNL     1      -8.363  45.455 -22.092  1.00  0.00     0.069 C 
HETATM   24  C28 UNL     1      -9.040  45.523 -23.458  1.00  0.00     0.158 C 
HETATM   25  O8  UNL     1     -10.173  44.652 -23.485  1.00  0.00    -0.347 OA
HETATM   26  C29 UNL     1     -11.401  45.242 -23.929  1.00  0.00     0.325 C 
HETATM   27  O9  UNL     1     -12.247  44.147 -24.324  1.00  0.00    -0.351 OA
ENDROOT
BRANCH  19  28
HETATM   28  C20 UNL     1      -1.397  51.654 -21.489  1.00  0.00    -0.045 A 
HETATM   29  C21 UNL     1      -1.405  51.648 -20.156  1.00  0.00     0.087 A 
HETATM   30  C22 UNL     1      -0.355  52.559 -19.710  1.00  0.00     0.283 A 
HETATM   31  O5  UNL     1      -0.073  52.785 -18.549  1.00  0.00    -0.260 OA
HETATM   32  O6  UNL     1       0.264  53.093 -20.798  1.00  0.00    -0.314 OA
HETATM   33  C23 UNL     1      -0.338  52.569 -21.980  1.00  0.00     0.213 A 
ENDBRANCH  19  28
BRANCH  22  34
HETATM   34  O7  UNL     1      -2.863  48.802 -20.418  1.00  0.00    -0.389 OA
HETATM   35  H34 UNL     1      -2.655  47.864 -20.278  1.00  0.00     0.210 HD
ENDBRANCH  22  34
BRANCH   9  36
HETATM   36  C9  UNL     1      -8.110  48.566 -21.436  1.00  0.00     0.245 C 
HETATM   37  O4  UNL     1      -8.152  48.293 -20.240  1.00  0.00    -0.306 OA
ENDBRANCH   9  36
BRANCH   5  38
HETATM   38  O2  UNL     1     -12.214  47.368 -24.887  1.00  0.00    -0.360 OA
HETATM   39  H9  UNL     1     -12.335  47.744 -25.780  1.00  0.00     0.213 HD
ENDBRANCH   5  38
BRANCH   4  40
HETATM   40  O1  UNL     1     -11.397  46.659 -27.467  1.00  0.00    -0.390 OA
HETATM   41  H8  UNL     1     -10.519  47.074 -27.358  1.00  0.00     0.210 HD
ENDBRANCH   4  40
TORSDOF 5
ENDMDL
MODEL 9
REMARK minimizedAffinity -7.29738474
REMARK CNNscore 0.391007185
REMARK CNNaffinity 5.61688852
REMARK  5 active torsions:
REMARK  status: ('A' for Active; 'I' for Inactive)
REMARK    1  A    between atoms: C4_4  and  O1_5 
REMARK    2  A    between atoms: C5_6  and  O2_7 
REMARK    3  A    between atoms: C8_11  and  C9_12 
REMARK    4  A    between atoms: C19_23  and  C20_24 
REMARK    5  A    between atoms: C26_32  and  O7_33 
ROOT
HETATM    1  C1  UNL     1     -19.995  43.063 -29.325  1.00  0.00     0.040 C 
HETATM    2  C2  UNL     1     -18.861  43.262 -28.328  1.00  0.00     0.123 C 
HETATM    3  C3  UNL     1     -19.323  44.093 -27.126  1.00  0.00     0.069 C 
HETATM    4  C4  UNL     1     -18.177  44.882 -26.497  1.00  0.00     0.188 C 
HETATM    5  C5  UNL     1     -16.824  44.174 -26.688  1.00  0.00     0.240 C 
HETATM    6  O3  UNL     1     -15.810  44.920 -25.997  1.00  0.00    -0.341 OA
HETATM    7  C6  UNL     1     -14.560  44.798 -26.677  1.00  0.00     0.156 C 
HETATM    8  C7  UNL     1     -13.474  45.471 -25.833  1.00  0.00     0.056 C 
HETATM    9  C8  UNL     1     -12.085  45.494 -26.525  1.00  0.00     0.043 C 
HETATM   10  C10 UNL     1     -12.239  45.993 -27.965  1.00  0.00    -0.065 C 
HETATM   11  C11 UNL     1     -11.403  46.895 -28.506  1.00  0.00    -0.022 C 
HETATM   12  C12 UNL     1     -10.218  47.484 -27.805  1.00  0.00     0.035 C 
HETATM   13  C13 UNL     1      -9.831  46.770 -26.491  1.00  0.00     0.030 C 
HETATM   14  C14 UNL     1     -11.107  46.407 -25.689  1.00  0.00     0.012 C 
HETATM   15  C15 UNL     1     -10.760  45.815 -24.310  1.00  0.00     0.007 C 
HETATM   16  C16 UNL     1      -9.809  46.705 -23.520  1.00  0.00     0.013 C 
HETATM   17  C17 UNL     1      -8.481  47.009 -24.267  1.00  0.00    -0.005 C 
HETATM   18  C18 UNL     1      -7.637  45.719 -24.324  1.00  0.00     0.019 C 
HETATM   19  C19 UNL     1      -7.769  48.198 -23.520  1.00  0.00     0.028 C 
HETATM   20  C24 UNL     1      -8.219  49.477 -24.268  1.00  0.00     0.013 C 
HETATM   21  C25 UNL     1      -9.173  49.038 -25.377  1.00  0.00     0.040 C 
HETATM   22  C26 UNL     1      -8.781  47.585 -25.682  1.00  0.00     0.070 C 
HETATM   23  C27 UNL     1     -13.374  45.419 -28.787  1.00  0.00     0.069 C 
HETATM   24  C28 UNL     1     -14.700  45.490 -28.034  1.00  0.00     0.158 C 
HETATM   25  O8  UNL     1     -15.751  44.963 -28.847  1.00  0.00    -0.347 OA
HETATM   26  C29 UNL     1     -16.571  43.961 -28.232  1.00  0.00     0.325 C 
HETATM   27  O9  UNL     1     -17.789  43.922 -28.997  1.00  0.00    -0.351 OA
ENDROOT
BRANCH  19  28
HETATM   28  C20 UNL     1      -6.277  48.114 -23.338  1.00  0.00    -0.045 A 
HETATM   29  C21 UNL     1      -5.301  48.515 -24.152  1.00  0.00     0.087 A 
HETATM   30  C22 UNL     1      -4.033  48.223 -23.488  1.00  0.00     0.283 A 
HETATM   31  O5  UNL     1      -2.933  48.473 -23.942  1.00  0.00    -0.260 OA
HETATM   32  O6  UNL     1      -4.284  47.649 -22.280  1.00  0.00    -0.314 OA
HETATM   33  C23 UNL     1      -5.695  47.541 -22.101  1.00  0.00     0.213 A 
ENDBRANCH  19  28
BRANCH  22  34
HETATM   34  O7  UNL     1      -7.557  47.620 -26.429  1.00  0.00    -0.389 OA
HETATM   35  H34 UNL     1      -7.704  48.101 -27.260  1.00  0.00     0.210 HD
ENDBRANCH  22  34
BRANCH   9  36
HETATM   36  C9  UNL     1     -11.541  44.052 -26.564  1.00  0.00     0.245 C 
HETATM   37  O4  UNL     1     -10.393  43.732 -26.861  1.00  0.00    -0.306 OA
ENDBRANCH   9  36
BRANCH   5  38
HETATM   38  O2  UNL     1     -16.886  42.901 -26.024  1.00  0.00    -0.360 OA
HETATM   39  H9  UNL     1     -17.426  43.066 -25.228  1.00  0.00     0.213 HD
ENDBRANCH   5  38
BRANCH   4  40
HETATM   40  O1  UNL     1     -18.446  45.025 -25.089  1.00  0.00    -0.390 OA
HETATM   41  H8  UNL     1     -17.673  45.500 -24.723  1.00  0.00     0.210 HD
ENDBRANCH   4  40
TORSDOF 5
ENDMDL
