MODEL 1
REMARK minimizedAffinity -7.17468596
REMARK CNNscore 0.444582254
REMARK CNNaffinity 7.02586365
REMARK  14 active torsions:
REMARK  status: ('A' for Active; 'I' for Inactive)
REMARK    1  A    between atoms: O1_2  and  C2_3 
REMARK    2  A    between atoms: C8_9  and  O2_10 
REMARK    3  A    between atoms: O2_10  and  C9_11 
REMARK    4  A    between atoms: C10_13  and  C11_14 
REMARK    5  A    between atoms: C11_14  and  O4_15 
REMARK    6  A    between atoms: C12_16  and  O5_17 
REMARK    7  A    between atoms: C13_18  and  O6_19 
REMARK    8  A    between atoms: C14_20  and  O7_21 
REMARK    9  A    between atoms: C18_25  and  C19_26 
REMARK   10  A    between atoms: C24_32  and  C25_33 
REMARK   11  A    between atoms: C25_33  and  C27_35 
REMARK   12  A    between atoms: C27_35  and  C28_36 
REMARK   13  A    between atoms: C29_37  and  C30_38 
REMARK   14  A    between atoms: C30_38  and  O9_41 
ROOT
HETATM    1  C2  UNL     1       0.677  52.147 -10.896  1.00  0.00     0.149 C 
HETATM    2  C3  UNL     1      -0.738  52.133 -11.353  1.00  0.00     0.009 C 
HETATM    3  C4  UNL     1      -1.787  51.959 -10.534  1.00  0.00    -0.066 C 
HETATM    4  C5  UNL     1      -1.581  51.808  -9.041  1.00  0.00     0.031 C 
HETATM    5  C6  UNL     1      -1.982  50.364  -8.647  1.00  0.00     0.013 C 
HETATM    6  C7  UNL     1      -3.255  49.857  -9.348  1.00  0.00     0.034 C 
HETATM    7  C8  UNL     1      -4.090  50.985  -9.968  1.00  0.00     0.136 C 
HETATM    8  C15 UNL     1      -3.240  51.781 -11.029  1.00  0.00     0.002 C 
HETATM    9  C16 UNL     1      -3.876  53.172 -11.216  1.00  0.00     0.022 C 
HETATM   10  C17 UNL     1      -3.289  51.057 -12.399  1.00  0.00     0.022 C 
HETATM   11  C18 UNL     1      -0.209  52.353  -8.434  1.00  0.00     0.027 C 
HETATM   12  C20 UNL     1      -0.592  53.516  -7.439  1.00  0.00     0.018 C 
HETATM   13  C21 UNL     1       0.418  54.628  -7.107  1.00  0.00     0.011 C 
HETATM   14  C22 UNL     1       1.614  54.751  -8.054  1.00  0.00    -0.032 C 
HETATM   15  C23 UNL     1       2.773  53.909  -7.441  1.00  0.00     0.016 C 
HETATM   16  C24 UNL     1       2.158  56.200  -8.327  1.00  0.00    -0.002 C 
HETATM   17  C34 UNL     1       2.912  56.025  -9.680  1.00  0.00     0.006 C 
HETATM   18  C35 UNL     1       2.417  54.715 -10.318  1.00  0.00     0.011 C 
HETATM   19  C36 UNL     1       1.177  54.305  -9.502  1.00  0.00    -0.029 C 
HETATM   20  C37 UNL     1      -0.018  55.101 -10.115  1.00  0.00     0.016 C 
HETATM   21  C38 UNL     1       0.878  52.778  -9.501  1.00  0.00     0.043 C 
ENDROOT
BRANCH   7  22
HETATM   22  O2  UNL     1      -5.271  50.444 -10.583  1.00  0.00    -0.352 OA
BRANCH  22  23
HETATM   23  C9  UNL     1      -5.982  49.509  -9.762  1.00  0.00     0.292 C 
HETATM   24  O3  UNL     1      -5.291  48.263  -9.751  1.00  0.00    -0.348 OA
HETATM   25  C10 UNL     1      -5.730  47.279 -10.695  1.00  0.00     0.179 C 
HETATM   26  C12 UNL     1      -7.177  46.883 -10.368  1.00  0.00     0.180 C 
HETATM   27  C13 UNL     1      -8.076  48.077  -9.991  1.00  0.00     0.183 C 
HETATM   28  C14 UNL     1      -7.443  49.435 -10.276  1.00  0.00     0.204 C 
BRANCH  25  29
HETATM   29  C11 UNL     1      -5.512  47.673 -12.162  1.00  0.00     0.198 C 
BRANCH  29  30
HETATM   30  O4  UNL     1      -6.422  46.975 -13.007  1.00  0.00    -0.398 OA
HETATM   31  H16 UNL     1      -5.996  46.122 -13.229  1.00  0.00     0.209 HD
ENDBRANCH  29  30
ENDBRANCH  25  29
BRANCH  26  32
HETATM   32  O5  UNL     1      -7.186  45.976  -9.241  1.00  0.00    -0.390 OA
HETATM   33  H18 UNL     1      -6.464  46.265  -8.648  1.00  0.00     0.210 HD
ENDBRANCH  26  32
BRANCH  27  34
HETATM   34  O6  UNL     1      -8.437  48.031  -8.592  1.00  0.00    -0.390 OA
HETATM   35  H20 UNL     1      -8.453  47.075  -8.389  1.00  0.00     0.210 HD
ENDBRANCH  27  34
BRANCH  28  36
HETATM   36  O7  UNL     1      -8.238  50.473  -9.680  1.00  0.00    -0.388 OA
HETATM   37  H22 UNL     1      -8.723  50.041  -8.941  1.00  0.00     0.210 HD
ENDBRANCH  28  36
ENDBRANCH  22  23
ENDBRANCH   7  22
BRANCH  11  38
HETATM   38  C19 UNL     1       0.448  51.224  -7.622  1.00  0.00     0.241 C 
HETATM   39  O8  UNL     1       1.637  50.916  -7.678  1.00  0.00    -0.306 OA
ENDBRANCH  11  38
BRANCH   1  40
HETATM   40  O1  UNL     1       1.120  50.781 -10.799  1.00  0.00    -0.386 OA
HETATM   41  C1  UNL     1       2.502  50.607 -11.098  1.00  0.00     0.202 C 
ENDBRANCH   1  40
BRANCH  16  42
HETATM   42  C25 UNL     1       3.025  56.933  -7.252  1.00  0.00    -0.010 C 
HETATM   43  C26 UNL     1       2.333  58.203  -6.743  1.00  0.00     0.010 C 
BRANCH  42  44
HETATM   44  C27 UNL     1       4.431  57.271  -7.828  1.00  0.00     0.031 C 
BRANCH  44  45
HETATM   45  C28 UNL     1       5.489  57.512  -6.783  1.00  0.00    -0.027 C 
HETATM   46  C29 UNL     1       6.260  56.547  -6.254  1.00  0.00     0.006 C 
BRANCH  46  47
HETATM   47  C30 UNL     1       7.359  56.706  -5.218  1.00  0.00     0.070 C 
HETATM   48  C31 UNL     1       7.038  56.151  -3.819  1.00  0.00     0.050 C 
HETATM   49  C32 UNL     1       8.603  55.974  -5.740  1.00  0.00     0.050 C 
BRANCH  47  50
HETATM   50  O9  UNL     1       7.735  58.091  -5.158  1.00  0.00    -0.382 OA
HETATM   51  C33 UNL     1       9.104  58.357  -4.887  1.00  0.00     0.202 C 
ENDBRANCH  47  50
ENDBRANCH  46  47
ENDBRANCH  44  45
ENDBRANCH  42  44
ENDBRANCH  16  42
TORSDOF 14
ENDMDL
MODEL 2
REMARK minimizedAffinity -8.60731697
REMARK CNNscore 0.442412972
REMARK CNNaffinity 7.23599768
REMARK  14 active torsions:
REMARK  status: ('A' for Active; 'I' for Inactive)
REMARK    1  A    between atoms: O1_2  and  C2_3 
REMARK    2  A    between atoms: C8_9  and  O2_10 
REMARK    3  A    between atoms: O2_10  and  C9_11 
REMARK    4  A    between atoms: C10_13  and  C11_14 
REMARK    5  A    between atoms: C11_14  and  O4_15 
REMARK    6  A    between atoms: C12_16  and  O5_17 
REMARK    7  A    between atoms: C13_18  and  O6_19 
REMARK    8  A    between atoms: C14_20  and  O7_21 
REMARK    9  A    between atoms: C18_25  and  C19_26 
REMARK   10  A    between atoms: C24_32  and  C25_33 
REMARK   11  A    between atoms: C25_33  and  C27_35 
REMARK   12  A    between atoms: C27_35  and  C28_36 
REMARK   13  A    between atoms: C29_37  and  C30_38 
REMARK   14  A    between atoms: C30_38  and  O9_41 
ROOT
HETATM    1  C2  UNL     1      -4.748  49.132 -18.928  1.00  0.00     0.149 C 
HETATM    2  C3  UNL     1      -4.690  47.870 -18.143  1.00  0.00     0.009 C 
HETATM    3  C4  UNL     1      -4.308  46.689 -18.653  1.00  0.00    -0.066 C 
HETATM    4  C5  UNL     1      -3.856  46.583 -20.094  1.00  0.00     0.031 C 
HETATM    5  C6  UNL     1      -4.901  45.734 -20.861  1.00  0.00     0.013 C 
HETATM    6  C7  UNL     1      -5.409  44.512 -20.077  1.00  0.00     0.034 C 
HETATM    7  C8  UNL     1      -4.511  44.144 -18.889  1.00  0.00     0.136 C 
HETATM    8  C15 UNL     1      -4.403  45.353 -17.884  1.00  0.00     0.002 C 
HETATM    9  C16 UNL     1      -3.127  45.171 -17.039  1.00  0.00     0.022 C 
HETATM   10  C17 UNL     1      -5.612  45.342 -16.911  1.00  0.00     0.022 C 
HETATM   11  C18 UNL     1      -3.371  47.926 -20.809  1.00  0.00     0.027 C 
HETATM   12  C20 UNL     1      -1.851  47.716 -21.171  1.00  0.00     0.018 C 
HETATM   13  C21 UNL     1      -0.909  48.922 -21.336  1.00  0.00     0.011 C 
HETATM   14  C22 UNL     1      -1.419  50.250 -20.770  1.00  0.00    -0.032 C 
HETATM   15  C23 UNL     1      -2.125  51.005 -21.936  1.00  0.00     0.016 C 
HETATM   16  C24 UNL     1      -0.345  51.214 -20.148  1.00  0.00    -0.002 C 
HETATM   17  C34 UNL     1      -1.206  52.112 -19.208  1.00  0.00     0.006 C 
HETATM   18  C35 UNL     1      -2.546  51.391 -18.982  1.00  0.00     0.011 C 
HETATM   19  C36 UNL     1      -2.339  49.964 -19.522  1.00  0.00    -0.029 C 
HETATM   20  C37 UNL     1      -1.666  49.162 -18.364  1.00  0.00     0.016 C 
HETATM   21  C38 UNL     1      -3.642  49.256 -19.997  1.00  0.00     0.043 C 
ENDROOT
BRANCH   7  22
HETATM   22  O2  UNL     1      -5.030  42.984 -18.218  1.00  0.00    -0.352 OA
BRANCH  22  23
HETATM   23  C9  UNL     1      -5.101  41.814 -19.042  1.00  0.00     0.292 C 
HETATM   24  O3  UNL     1      -6.397  41.232 -18.932  1.00  0.00    -0.348 OA
HETATM   25  C10 UNL     1      -6.546  40.177 -17.975  1.00  0.00     0.179 C 
HETATM   26  C12 UNL     1      -5.661  38.993 -18.395  1.00  0.00     0.180 C 
HETATM   27  C13 UNL     1      -4.268  39.411 -18.904  1.00  0.00     0.183 C 
HETATM   28  C14 UNL     1      -3.933  40.876 -18.642  1.00  0.00     0.204 C 
BRANCH  25  29
HETATM   29  C11 UNL     1      -6.344  40.614 -16.518  1.00  0.00     0.198 C 
BRANCH  29  30
HETATM   30  O4  UNL     1      -6.867  41.923 -16.313  1.00  0.00    -0.398 OA
HETATM   31  H16 UNL     1      -6.149  42.547 -16.544  1.00  0.00     0.209 HD
ENDBRANCH  29  30
ENDBRANCH  25  29
BRANCH  26  32
HETATM   32  O5  UNL     1      -6.304  38.268 -19.469  1.00  0.00    -0.390 OA
HETATM   33  H18 UNL     1      -6.762  38.936 -20.018  1.00  0.00     0.210 HD
ENDBRANCH  26  32
BRANCH  27  34
HETATM   34  O6  UNL     1      -4.141  39.165 -20.323  1.00  0.00    -0.390 OA
HETATM   35  H20 UNL     1      -4.720  38.392 -20.476  1.00  0.00     0.210 HD
ENDBRANCH  27  34
BRANCH  28  36
HETATM   36  O7  UNL     1      -2.737  41.232 -19.353  1.00  0.00    -0.388 OA
HETATM   37  H22 UNL     1      -2.679  40.600 -20.104  1.00  0.00     0.210 HD
ENDBRANCH  28  36
ENDBRANCH  22  23
ENDBRANCH   7  22
BRANCH  11  38
HETATM   38  C19 UNL     1      -4.158  48.092 -22.121  1.00  0.00     0.241 C 
HETATM   39  O8  UNL     1      -3.663  48.066 -23.246  1.00  0.00    -0.306 OA
ENDBRANCH  11  38
BRANCH   1  40
HETATM   40  O1  UNL     1      -6.005  49.153 -19.630  1.00  0.00    -0.386 OA
HETATM   41  C1  UNL     1      -7.129  48.895 -18.793  1.00  0.00     0.202 C 
ENDBRANCH   1  40
BRANCH  16  42
HETATM   42  C25 UNL     1       0.596  52.052 -21.074  1.00  0.00    -0.010 C 
HETATM   43  C26 UNL     1       1.198  53.249 -20.328  1.00  0.00     0.010 C 
BRANCH  42  44
HETATM   44  C27 UNL     1      -0.173  52.528 -22.340  1.00  0.00     0.031 C 
BRANCH  44  45
HETATM   45  C28 UNL     1       0.615  52.429 -23.620  1.00  0.00    -0.027 C 
HETATM   46  C29 UNL     1       0.065  52.243 -24.832  1.00  0.00     0.006 C 
BRANCH  46  47
HETATM   47  C30 UNL     1       0.780  52.155 -26.169  1.00  0.00     0.070 C 
HETATM   48  C31 UNL     1       2.184  51.526 -26.130  1.00  0.00     0.050 C 
HETATM   49  C32 UNL     1      -0.089  51.308 -27.108  1.00  0.00     0.050 C 
BRANCH  47  50
HETATM   50  O9  UNL     1       0.809  53.463 -26.761  1.00  0.00    -0.382 OA
HETATM   51  C33 UNL     1      -0.169  53.720 -27.759  1.00  0.00     0.202 C 
ENDBRANCH  47  50
ENDBRANCH  46  47
ENDBRANCH  44  45
ENDBRANCH  42  44
ENDBRANCH  16  42
TORSDOF 14
ENDMDL
MODEL 3
REMARK minimizedAffinity -8.06219959
REMARK CNNscore 0.355814517
REMARK CNNaffinity 6.19756746
REMARK  14 active torsions:
REMARK  status: ('A' for Active; 'I' for Inactive)
REMARK    1  A    between atoms: O1_2  and  C2_3 
REMARK    2  A    between atoms: C8_9  and  O2_10 
REMARK    3  A    between atoms: O2_10  and  C9_11 
REMARK    4  A    between atoms: C10_13  and  C11_14 
REMARK    5  A    between atoms: C11_14  and  O4_15 
REMARK    6  A    between atoms: C12_16  and  O5_17 
REMARK    7  A    between atoms: C13_18  and  O6_19 
REMARK    8  A    between atoms: C14_20  and  O7_21 
REMARK    9  A    between atoms: C18_25  and  C19_26 
REMARK   10  A    between atoms: C24_32  and  C25_33 
REMARK   11  A    between atoms: C25_33  and  C27_35 
REMARK   12  A    between atoms: C27_35  and  C28_36 
REMARK   13  A    between atoms: C29_37  and  C30_38 
REMARK   14  A    between atoms: C30_38  and  O9_41 
ROOT
HETATM    1  C2  UNL     1       4.617  64.765 -34.010  1.00  0.00     0.149 C 
HETATM    2  C3  UNL     1       3.652  65.191 -35.059  1.00  0.00     0.009 C 
HETATM    3  C4  UNL     1       3.871  66.206 -35.909  1.00  0.00    -0.066 C 
HETATM    4  C5  UNL     1       5.178  66.970 -35.876  1.00  0.00     0.031 C 
HETATM    5  C6  UNL     1       4.876  68.413 -35.400  1.00  0.00     0.013 C 
HETATM    6  C7  UNL     1       3.598  69.016 -36.009  1.00  0.00     0.034 C 
HETATM    7  C8  UNL     1       3.104  68.254 -37.247  1.00  0.00     0.136 C 
HETATM    8  C15 UNL     1       2.804  66.750 -36.886  1.00  0.00     0.002 C 
HETATM    9  C16 UNL     1       2.847  65.921 -38.184  1.00  0.00     0.022 C 
HETATM   10  C17 UNL     1       1.375  66.621 -36.296  1.00  0.00     0.022 C 
HETATM   11  C18 UNL     1       6.429  66.247 -35.197  1.00  0.00     0.027 C 
HETATM   12  C20 UNL     1       7.508  66.062 -36.332  1.00  0.00     0.018 C 
HETATM   13  C21 UNL     1       8.566  64.948 -36.236  1.00  0.00     0.011 C 
HETATM   14  C22 UNL     1       8.280  63.840 -35.219  1.00  0.00    -0.032 C 
HETATM   15  C23 UNL     1       8.993  64.240 -33.892  1.00  0.00     0.016 C 
HETATM   16  C24 UNL     1       8.745  62.389 -35.601  1.00  0.00    -0.002 C 
HETATM   17  C34 UNL     1       7.836  61.498 -34.701  1.00  0.00     0.006 C 
HETATM   18  C35 UNL     1       6.660  62.370 -34.227  1.00  0.00     0.011 C 
HETATM   19  C36 UNL     1       6.721  63.643 -35.091  1.00  0.00    -0.029 C 
HETATM   20  C37 UNL     1       5.979  63.295 -36.419  1.00  0.00     0.016 C 
HETATM   21  C38 UNL     1       6.097  64.906 -34.427  1.00  0.00     0.043 C 
ENDROOT
BRANCH   7  22
HETATM   22  O2  UNL     1       1.925  68.883 -37.775  1.00  0.00    -0.352 OA
BRANCH  22  23
HETATM   23  C9  UNL     1       2.091  69.426 -39.091  1.00  0.00     0.292 C 
HETATM   24  O3  UNL     1       0.821  69.520 -39.730  1.00  0.00    -0.348 OA
HETATM   25  C10 UNL     1       0.448  68.427 -40.577  1.00  0.00     0.179 C 
HETATM   26  C12 UNL     1       1.432  68.347 -41.753  1.00  0.00     0.180 C 
HETATM   27  C13 UNL     1       2.902  68.570 -41.348  1.00  0.00     0.183 C 
HETATM   28  C14 UNL     1       3.131  68.555 -39.840  1.00  0.00     0.204 C 
BRANCH  25  29
HETATM   29  C11 UNL     1       0.257  67.095 -39.838  1.00  0.00     0.198 C 
BRANCH  29  30
HETATM   30  O4  UNL     1      -0.517  66.194 -40.624  1.00  0.00    -0.398 OA
HETATM   31  H16 UNL     1      -1.455  66.381 -40.417  1.00  0.00     0.209 HD
ENDBRANCH  29  30
ENDBRANCH  25  29
BRANCH  26  32
HETATM   32  O5  UNL     1       1.103  69.365 -42.727  1.00  0.00    -0.390 OA
HETATM   33  H18 UNL     1       0.791  70.142 -42.220  1.00  0.00     0.210 HD
ENDBRANCH  26  32
BRANCH  27  34
HETATM   34  O6  UNL     1       3.397  69.825 -41.868  1.00  0.00    -0.390 OA
HETATM   35  H20 UNL     1       2.892  69.947 -42.697  1.00  0.00     0.210 HD
ENDBRANCH  27  34
BRANCH  28  36
HETATM   36  O7  UNL     1       4.465  69.005 -39.550  1.00  0.00    -0.388 OA
HETATM   37  H22 UNL     1       4.726  69.563 -40.316  1.00  0.00     0.210 HD
ENDBRANCH  28  36
ENDBRANCH  22  23
ENDBRANCH   7  22
BRANCH  11  38
HETATM   38  C19 UNL     1       7.014  67.187 -34.128  1.00  0.00     0.241 C 
HETATM   39  O8  UNL     1       7.085  66.929 -32.928  1.00  0.00    -0.306 OA
ENDBRANCH  11  38
BRANCH   1  40
HETATM   40  O1  UNL     1       4.427  65.619 -32.867  1.00  0.00    -0.386 OA
HETATM   41  C1  UNL     1       4.236  64.905 -31.649  1.00  0.00     0.202 C 
ENDBRANCH   1  40
BRANCH  16  42
HETATM   42  C25 UNL     1      10.254  61.991 -35.503  1.00  0.00    -0.010 C 
HETATM   43  C26 UNL     1      10.955  62.727 -34.355  1.00  0.00     0.010 C 
BRANCH  42  44
HETATM   44  C27 UNL     1      10.977  62.270 -36.853  1.00  0.00     0.031 C 
BRANCH  44  45
HETATM   45  C28 UNL     1      12.476  62.372 -36.745  1.00  0.00    -0.027 C 
HETATM   46  C29 UNL     1      13.335  61.548 -37.369  1.00  0.00     0.006 C 
BRANCH  46  47
HETATM   47  C30 UNL     1      14.852  61.594 -37.332  1.00  0.00     0.070 C 
HETATM   48  C31 UNL     1      15.526  62.260 -38.544  1.00  0.00     0.050 C 
HETATM   49  C32 UNL     1      15.266  62.375 -36.077  1.00  0.00     0.050 C 
BRANCH  47  50
HETATM   50  O9  UNL     1      15.346  60.261 -37.125  1.00  0.00    -0.382 OA
HETATM   51  C33 UNL     1      16.423  59.855 -37.957  1.00  0.00     0.202 C 
ENDBRANCH  47  50
ENDBRANCH  46  47
ENDBRANCH  44  45
ENDBRANCH  42  44
ENDBRANCH  16  42
TORSDOF 14
ENDMDL
MODEL 4
REMARK minimizedAffinity -9.15390873
REMARK CNNscore 0.343261361
REMARK CNNaffinity 7.06847143
REMARK  14 active torsions:
REMARK  status: ('A' for Active; 'I' for Inactive)
REMARK    1  A    between atoms: O1_2  and  C2_3 
REMARK    2  A    between atoms: C8_9  and  O2_10 
REMARK    3  A    between atoms: O2_10  and  C9_11 
REMARK    4  A    between atoms: C10_13  and  C11_14 
REMARK    5  A    between atoms: C11_14  and  O4_15 
REMARK    6  A    between atoms: C12_16  and  O5_17 
REMARK    7  A    between atoms: C13_18  and  O6_19 
REMARK    8  A    between atoms: C14_20  and  O7_21 
REMARK    9  A    between atoms: C18_25  and  C19_26 
REMARK   10  A    between atoms: C24_32  and  C25_33 
REMARK   11  A    between atoms: C25_33  and  C27_35 
REMARK   12  A    between atoms: C27_35  and  C28_36 
REMARK   13  A    between atoms: C29_37  and  C30_38 
REMARK   14  A    between atoms: C30_38  and  O9_41 
ROOT
HETATM    1  C2  UNL     1      -4.275  51.364 -21.463  1.00  0.00     0.149 C 
HETATM    2  C3  UNL     1      -5.439  50.465 -21.685  1.00  0.00     0.009 C 
HETATM    3  C4  UNL     1      -5.351  49.257 -22.262  1.00  0.00    -0.066 C 
HETATM    4  C5  UNL     1      -4.008  48.705 -22.692  1.00  0.00     0.031 C 
HETATM    5  C6  UNL     1      -3.999  48.621 -24.238  1.00  0.00     0.013 C 
HETATM    6  C7  UNL     1      -5.318  48.111 -24.844  1.00  0.00     0.034 C 
HETATM    7  C8  UNL     1      -6.221  47.413 -23.817  1.00  0.00     0.136 C 
HETATM    8  C15 UNL     1      -6.578  48.396 -22.639  1.00  0.00     0.002 C 
HETATM    9  C16 UNL     1      -6.994  47.557 -21.415  1.00  0.00     0.022 C 
HETATM   10  C17 UNL     1      -7.791  49.279 -23.034  1.00  0.00     0.022 C 
HETATM   11  C18 UNL     1      -2.708  49.330 -22.007  1.00  0.00     0.027 C 
HETATM   12  C20 UNL     1      -2.017  48.160 -21.208  1.00  0.00     0.018 C 
HETATM   13  C21 UNL     1      -1.108  48.462 -20.003  1.00  0.00     0.011 C 
HETATM   14  C22 UNL     1      -1.225  49.871 -19.415  1.00  0.00    -0.032 C 
HETATM   15  C23 UNL     1      -0.129  50.745 -20.097  1.00  0.00     0.016 C 
HETATM   16  C24 UNL     1      -1.053  50.005 -17.859  1.00  0.00    -0.002 C 
HETATM   17  C34 UNL     1      -1.771  51.356 -17.559  1.00  0.00     0.006 C 
HETATM   18  C35 UNL     1      -2.661  51.685 -18.771  1.00  0.00     0.011 C 
HETATM   19  C36 UNL     1      -2.698  50.396 -19.612  1.00  0.00    -0.029 C 
HETATM   20  C37 UNL     1      -3.816  49.506 -18.982  1.00  0.00     0.016 C 
HETATM   21  C38 UNL     1      -2.964  50.621 -21.129  1.00  0.00     0.043 C 
ENDROOT
BRANCH   7  22
HETATM   22  O2  UNL     1      -7.421  46.944 -24.453  1.00  0.00    -0.352 OA
BRANCH  22  23
HETATM   23  C9  UNL     1      -8.099  47.939 -25.230  1.00  0.00     0.292 C 
HETATM   24  O3  UNL     1      -9.386  48.185 -24.669  1.00  0.00    -0.348 OA
HETATM   25  C10 UNL     1     -10.482  47.455 -25.235  1.00  0.00     0.179 C 
HETATM   26  C12 UNL     1     -10.651  47.870 -26.704  1.00  0.00     0.180 C 
HETATM   27  C13 UNL     1      -9.319  48.016 -27.465  1.00  0.00     0.183 C 
HETATM   28  C14 UNL     1      -8.115  47.465 -26.706  1.00  0.00     0.204 C 
BRANCH  25  29
HETATM   29  C11 UNL     1     -10.403  45.938 -25.025  1.00  0.00     0.198 C 
BRANCH  29  30
HETATM   30  O4  UNL     1     -11.150  45.255 -26.026  1.00  0.00    -0.398 OA
HETATM   31  H16 UNL     1     -12.070  45.199 -25.696  1.00  0.00     0.209 HD
ENDBRANCH  29  30
ENDBRANCH  25  29
BRANCH  26  32
HETATM   32  O5  UNL     1     -11.318  49.151 -26.770  1.00  0.00    -0.390 OA
HETATM   33  H18 UNL     1     -10.998  49.669 -26.004  1.00  0.00     0.210 HD
ENDBRANCH  26  32
BRANCH  27  34
HETATM   34  O6  UNL     1      -9.056  49.402 -27.784  1.00  0.00    -0.390 OA
HETATM   35  H20 UNL     1      -9.948  49.787 -27.891  1.00  0.00     0.210 HD
ENDBRANCH  27  34
BRANCH  28  36
HETATM   36  O7  UNL     1      -6.904  47.856 -27.372  1.00  0.00    -0.388 OA
HETATM   37  H22 UNL     1      -7.132  48.671 -27.875  1.00  0.00     0.210 HD
ENDBRANCH  28  36
ENDBRANCH  22  23
ENDBRANCH   7  22
BRANCH  11  38
HETATM   38  C19 UNL     1      -1.745  49.787 -23.117  1.00  0.00     0.241 C 
HETATM   39  O8  UNL     1      -1.194  50.885 -23.163  1.00  0.00    -0.306 OA
ENDBRANCH  11  38
BRANCH   1  40
HETATM   40  O1  UNL     1      -4.040  52.087 -22.686  1.00  0.00    -0.386 OA
HETATM   41  C1  UNL     1      -5.185  52.164 -23.530  1.00  0.00     0.202 C 
ENDBRANCH   1  40
BRANCH  16  42
HETATM   42  C25 UNL     1       0.367  49.929 -17.210  1.00  0.00    -0.010 C 
HETATM   43  C26 UNL     1       0.396  48.946 -16.033  1.00  0.00     0.010 C 
BRANCH  42  44
HETATM   44  C27 UNL     1       0.832  51.342 -16.754  1.00  0.00     0.031 C 
BRANCH  44  45
HETATM   45  C28 UNL     1       1.800  51.335 -15.600  1.00  0.00    -0.027 C 
HETATM   46  C29 UNL     1       1.779  50.434 -14.604  1.00  0.00     0.006 C 
BRANCH  46  47
HETATM   47  C30 UNL     1       2.726  50.342 -13.420  1.00  0.00     0.070 C 
HETATM   48  C31 UNL     1       2.257  49.444 -12.262  1.00  0.00     0.050 C 
HETATM   49  C32 UNL     1       4.062  49.787 -13.933  1.00  0.00     0.050 C 
BRANCH  47  50
HETATM   50  O9  UNL     1       3.022  51.672 -12.965  1.00  0.00    -0.382 OA
HETATM   51  C33 UNL     1       2.267  52.137 -11.856  1.00  0.00     0.202 C 
ENDBRANCH  47  50
ENDBRANCH  46  47
ENDBRANCH  44  45
ENDBRANCH  42  44
ENDBRANCH  16  42
TORSDOF 14
ENDMDL
MODEL 5
REMARK minimizedAffinity -8.59165192
REMARK CNNscore 0.332618475
REMARK CNNaffinity 6.65193176
REMARK  14 active torsions:
REMARK  status: ('A' for Active; 'I' for Inactive)
REMARK    1  A    between atoms: O1_2  and  C2_3 
REMARK    2  A    between atoms: C8_9  and  O2_10 
REMARK    3  A    between atoms: O2_10  and  C9_11 
REMARK    4  A    between atoms: C10_13  and  C11_14 
REMARK    5  A    between atoms: C11_14  and  O4_15 
REMARK    6  A    between atoms: C12_16  and  O5_17 
REMARK    7  A    between atoms: C13_18  and  O6_19 
REMARK    8  A    between atoms: C14_20  and  O7_21 
REMARK    9  A    between atoms: C18_25  and  C19_26 
REMARK   10  A    between atoms: C24_32  and  C25_33 
REMARK   11  A    between atoms: C25_33  and  C27_35 
REMARK   12  A    between atoms: C27_35  and  C28_36 
REMARK   13  A    between atoms: C29_37  and  C30_38 
REMARK   14  A    between atoms: C30_38  and  O9_41 
ROOT
HETATM    1  C2  UNL     1      -4.659  48.938 -18.982  1.00  0.00     0.149 C 
HETATM    2  C3  UNL     1      -4.073  49.990 -19.855  1.00  0.00     0.009 C 
HETATM    3  C4  UNL     1      -3.914  49.858 -21.180  1.00  0.00    -0.066 C 
HETATM    4  C5  UNL     1      -4.382  48.606 -21.892  1.00  0.00     0.031 C 
HETATM    5  C6  UNL     1      -3.132  47.859 -22.418  1.00  0.00     0.013 C 
HETATM    6  C7  UNL     1      -2.061  48.784 -23.022  1.00  0.00     0.034 C 
HETATM    7  C8  UNL     1      -2.594  50.185 -23.354  1.00  0.00     0.136 C 
HETATM    8  C15 UNL     1      -3.158  50.881 -22.059  1.00  0.00     0.002 C 
HETATM    9  C16 UNL     1      -4.139  51.989 -22.490  1.00  0.00     0.022 C 
HETATM   10  C17 UNL     1      -2.004  51.559 -21.275  1.00  0.00     0.022 C 
HETATM   11  C18 UNL     1      -5.482  47.715 -21.153  1.00  0.00     0.027 C 
HETATM   12  C20 UNL     1      -6.763  47.733 -22.072  1.00  0.00     0.018 C 
HETATM   13  C21 UNL     1      -8.161  47.490 -21.476  1.00  0.00     0.011 C 
HETATM   14  C22 UNL     1      -8.269  47.614 -19.954  1.00  0.00    -0.032 C 
HETATM   15  C23 UNL     1      -8.081  46.184 -19.363  1.00  0.00     0.016 C 
HETATM   16  C24 UNL     1      -9.610  48.201 -19.384  1.00  0.00    -0.002 C 
HETATM   17  C34 UNL     1      -9.180  48.708 -17.974  1.00  0.00     0.006 C 
HETATM   18  C35 UNL     1      -7.645  48.815 -17.970  1.00  0.00     0.011 C 
HETATM   19  C36 UNL     1      -7.222  48.676 -19.444  1.00  0.00    -0.029 C 
HETATM   20  C37 UNL     1      -7.360  50.102 -20.064  1.00  0.00     0.016 C 
HETATM   21  C38 UNL     1      -5.783  48.121 -19.654  1.00  0.00     0.043 C 
ENDROOT
BRANCH   7  22
HETATM   22  O2  UNL     1      -1.551  50.985 -23.934  1.00  0.00    -0.352 OA
BRANCH  22  23
HETATM   23  C9  UNL     1      -1.469  50.895 -25.362  1.00  0.00     0.292 C 
HETATM   24  O3  UNL     1      -0.139  51.188 -25.782  1.00  0.00    -0.348 OA
HETATM   25  C10 UNL     1       0.126  52.540 -26.173  1.00  0.00     0.179 C 
HETATM   26  C12 UNL     1      -0.718  52.877 -27.411  1.00  0.00     0.180 C 
HETATM   27  C13 UNL     1      -2.161  52.340 -27.342  1.00  0.00     0.183 C 
HETATM   28  C14 UNL     1      -2.557  51.820 -25.963  1.00  0.00     0.204 C 
BRANCH  25  29
HETATM   29  C11 UNL     1      -0.008  53.562 -25.035  1.00  0.00     0.198 C 
BRANCH  29  30
HETATM   30  O4  UNL     1       0.261  54.877 -25.511  1.00  0.00    -0.398 OA
HETATM   31  H16 UNL     1       1.228  55.005 -25.440  1.00  0.00     0.209 HD
ENDBRANCH  29  30
ENDBRANCH  25  29
BRANCH  26  32
HETATM   32  O5  UNL     1      -0.106  52.295 -28.585  1.00  0.00    -0.390 OA
HETATM   33  H18 UNL     1       0.280  51.442 -28.301  1.00  0.00     0.210 HD
ENDBRANCH  26  32
BRANCH  27  34
HETATM   34  O6  UNL     1      -2.363  51.276 -28.300  1.00  0.00    -0.390 OA
HETATM   35  H20 UNL     1      -1.754  51.505 -29.031  1.00  0.00     0.210 HD
ENDBRANCH  27  34
BRANCH  28  36
HETATM   36  O7  UNL     1      -3.813  51.128 -26.050  1.00  0.00    -0.388 OA
HETATM   37  H22 UNL     1      -3.883  50.827 -26.985  1.00  0.00     0.210 HD
ENDBRANCH  28  36
ENDBRANCH  22  23
ENDBRANCH   7  22
BRANCH  11  38
HETATM   38  C19 UNL     1      -4.966  46.267 -21.079  1.00  0.00     0.241 C 
HETATM   39  O8  UNL     1      -4.744  45.652 -20.037  1.00  0.00    -0.306 OA
ENDBRANCH  11  38
BRANCH   1  40
HETATM   40  O1  UNL     1      -3.612  48.007 -18.653  1.00  0.00    -0.386 OA
HETATM   41  C1  UNL     1      -3.577  47.652 -17.274  1.00  0.00     0.202 C 
ENDBRANCH   1  40
BRANCH  16  42
HETATM   42  C25 UNL     1     -10.900  47.320 -19.332  1.00  0.00    -0.010 C 
HETATM   43  C26 UNL     1     -10.864  46.339 -18.154  1.00  0.00     0.010 C 
BRANCH  42  44
HETATM   44  C27 UNL     1     -11.088  46.555 -20.674  1.00  0.00     0.031 C 
BRANCH  44  45
HETATM   45  C28 UNL     1     -12.417  46.792 -21.344  1.00  0.00    -0.027 C 
HETATM   46  C29 UNL     1     -13.588  46.320 -20.883  1.00  0.00     0.006 C 
BRANCH  46  47
HETATM   47  C30 UNL     1     -14.968  46.529 -21.481  1.00  0.00     0.070 C 
HETATM   48  C31 UNL     1     -15.594  45.297 -22.156  1.00  0.00     0.050 C 
HETATM   49  C32 UNL     1     -15.905  46.972 -20.349  1.00  0.00     0.050 C 
BRANCH  47  50
HETATM   50  O9  UNL     1     -14.913  47.648 -22.381  1.00  0.00    -0.382 OA
HETATM   51  C33 UNL     1     -15.198  47.369 -23.744  1.00  0.00     0.202 C 
ENDBRANCH  47  50
ENDBRANCH  46  47
ENDBRANCH  44  45
ENDBRANCH  42  44
ENDBRANCH  16  42
TORSDOF 14
ENDMDL
MODEL 6
REMARK minimizedAffinity -7.75206709
REMARK CNNscore 0.329181522
REMARK CNNaffinity 6.79525805
REMARK  14 active torsions:
REMARK  status: ('A' for Active; 'I' for Inactive)
REMARK    1  A    between atoms: O1_2  and  C2_3 
REMARK    2  A    between atoms: C8_9  and  O2_10 
REMARK    3  A    between atoms: O2_10  and  C9_11 
REMARK    4  A    between atoms: C10_13  and  C11_14 
REMARK    5  A    between atoms: C11_14  and  O4_15 
REMARK    6  A    between atoms: C12_16  and  O5_17 
REMARK    7  A    between atoms: C13_18  and  O6_19 
REMARK    8  A    between atoms: C14_20  and  O7_21 
REMARK    9  A    between atoms: C18_25  and  C19_26 
REMARK   10  A    between atoms: C24_32  and  C25_33 
REMARK   11  A    between atoms: C25_33  and  C27_35 
REMARK   12  A    between atoms: C27_35  and  C28_36 
REMARK   13  A    between atoms: C29_37  and  C30_38 
REMARK   14  A    between atoms: C30_38  and  O9_41 
ROOT
HETATM    1  C2  UNL     1      -6.064  48.286 -19.154  1.00  0.00     0.149 C 
HETATM    2  C3  UNL     1      -5.730  46.864 -18.873  1.00  0.00     0.009 C 
HETATM    3  C4  UNL     1      -5.748  45.895 -19.800  1.00  0.00    -0.066 C 
HETATM    4  C5  UNL     1      -6.077  46.215 -21.243  1.00  0.00     0.031 C 
HETATM    5  C6  UNL     1      -7.430  45.543 -21.586  1.00  0.00     0.013 C 
HETATM    6  C7  UNL     1      -7.583  44.122 -21.014  1.00  0.00     0.034 C 
HETATM    7  C8  UNL     1      -6.249  43.503 -20.577  1.00  0.00     0.136 C 
HETATM    8  C15 UNL     1      -5.561  44.395 -19.476  1.00  0.00     0.002 C 
HETATM    9  C16 UNL     1      -4.054  44.073 -19.461  1.00  0.00     0.022 C 
HETATM   10  C17 UNL     1      -6.128  44.042 -18.076  1.00  0.00     0.022 C 
HETATM   11  C18 UNL     1      -5.899  47.731 -21.714  1.00  0.00     0.027 C 
HETATM   12  C20 UNL     1      -4.779  47.726 -22.823  1.00  0.00     0.018 C 
HETATM   13  C21 UNL     1      -3.946  48.989 -23.103  1.00  0.00     0.011 C 
HETATM   14  C22 UNL     1      -3.998  50.077 -22.027  1.00  0.00    -0.032 C 
HETATM   15  C23 UNL     1      -5.124  51.074 -22.437  1.00  0.00     0.016 C 
HETATM   16  C24 UNL     1      -2.683  50.902 -21.788  1.00  0.00    -0.002 C 
HETATM   17  C34 UNL     1      -2.890  51.451 -20.344  1.00  0.00     0.006 C 
HETATM   18  C35 UNL     1      -3.998  50.611 -19.685  1.00  0.00     0.011 C 
HETATM   19  C36 UNL     1      -4.203  49.402 -20.617  1.00  0.00    -0.029 C 
HETATM   20  C37 UNL     1      -3.115  48.360 -20.209  1.00  0.00     0.016 C 
HETATM   21  C38 UNL     1      -5.624  48.768 -20.552  1.00  0.00     0.043 C 
ENDROOT
BRANCH   7  22
HETATM   22  O2  UNL     1      -6.463  42.173 -20.076  1.00  0.00    -0.352 OA
BRANCH  22  23
HETATM   23  C9  UNL     1      -5.904  41.141 -20.899  1.00  0.00     0.292 C 
HETATM   24  O3  UNL     1      -6.941  40.521 -21.654  1.00  0.00    -0.348 OA
HETATM   25  C10 UNL     1      -7.510  39.328 -21.101  1.00  0.00     0.179 C 
HETATM   26  C12 UNL     1      -6.425  38.243 -21.030  1.00  0.00     0.180 C 
HETATM   27  C13 UNL     1      -5.057  38.764 -20.550  1.00  0.00     0.183 C 
HETATM   28  C14 UNL     1      -5.105  40.179 -19.982  1.00  0.00     0.204 C 
BRANCH  25  29
HETATM   29  C11 UNL     1      -8.259  39.543 -19.779  1.00  0.00     0.198 C 
BRANCH  29  30
HETATM   30  O4  UNL     1      -8.216  38.362 -18.983  1.00  0.00    -0.398 OA
HETATM   31  H16 UNL     1      -8.976  37.812 -19.262  1.00  0.00     0.209 HD
ENDBRANCH  29  30
ENDBRANCH  25  29
BRANCH  26  32
HETATM   32  O5  UNL     1      -6.224  37.676 -22.346  1.00  0.00    -0.390 OA
HETATM   33  H18 UNL     1      -6.338  38.410 -22.983  1.00  0.00     0.210 HD
ENDBRANCH  26  32
BRANCH  27  34
HETATM   34  O6  UNL     1      -4.089  38.741 -21.624  1.00  0.00    -0.390 OA
HETATM   35  H20 UNL     1      -4.376  37.987 -22.178  1.00  0.00     0.210 HD
ENDBRANCH  27  34
BRANCH  28  36
HETATM   36  O7  UNL     1      -3.768  40.667 -19.787  1.00  0.00    -0.388 OA
HETATM   37  H22 UNL     1      -3.208  40.158 -20.416  1.00  0.00     0.210 HD
ENDBRANCH  28  36
ENDBRANCH  22  23
ENDBRANCH   7  22
BRANCH  11  38
HETATM   38  C19 UNL     1      -7.214  48.197 -22.362  1.00  0.00     0.241 C 
HETATM   39  O8  UNL     1      -7.347  48.495 -23.548  1.00  0.00    -0.306 OA
ENDBRANCH  11  38
BRANCH   1  40
HETATM   40  O1  UNL     1      -7.497  48.417 -19.104  1.00  0.00    -0.386 OA
HETATM   41  C1  UNL     1      -8.011  48.558 -17.783  1.00  0.00     0.202 C 
ENDBRANCH   1  40
BRANCH  16  42
HETATM   42  C25 UNL     1      -2.256  52.019 -22.795  1.00  0.00    -0.010 C 
HETATM   43  C26 UNL     1      -2.751  51.714 -24.215  1.00  0.00     0.010 C 
BRANCH  42  44
HETATM   44  C27 UNL     1      -0.711  52.200 -22.782  1.00  0.00     0.031 C 
BRANCH  44  45
HETATM   45  C28 UNL     1      -0.119  52.587 -24.112  1.00  0.00    -0.027 C 
HETATM   46  C29 UNL     1       0.407  51.712 -24.986  1.00  0.00     0.006 C 
BRANCH  46  47
HETATM   47  C30 UNL     1       1.001  52.013 -26.351  1.00  0.00     0.070 C 
HETATM   48  C31 UNL     1       2.458  51.565 -26.555  1.00  0.00     0.050 C 
HETATM   49  C32 UNL     1       0.139  51.302 -27.403  1.00  0.00     0.050 C 
BRANCH  47  50
HETATM   50  O9  UNL     1       0.842  53.415 -26.621  1.00  0.00    -0.382 OA
HETATM   51  C33 UNL     1      -0.222  53.769 -27.492  1.00  0.00     0.202 C 
ENDBRANCH  47  50
ENDBRANCH  46  47
ENDBRANCH  44  45
ENDBRANCH  42  44
ENDBRANCH  16  42
TORSDOF 14
ENDMDL
MODEL 7
REMARK minimizedAffinity -8.85938454
REMARK CNNscore 0.300153315
REMARK CNNaffinity 6.73611689
REMARK  14 active torsions:
REMARK  status: ('A' for Active; 'I' for Inactive)
REMARK    1  A    between atoms: O1_2  and  C2_3 
REMARK    2  A    between atoms: C8_9  and  O2_10 
REMARK    3  A    between atoms: O2_10  and  C9_11 
REMARK    4  A    between atoms: C10_13  and  C11_14 
REMARK    5  A    between atoms: C11_14  and  O4_15 
REMARK    6  A    between atoms: C12_16  and  O5_17 
REMARK    7  A    between atoms: C13_18  and  O6_19 
REMARK    8  A    between atoms: C14_20  and  O7_21 
REMARK    9  A    between atoms: C18_25  and  C19_26 
REMARK   10  A    between atoms: C24_32  and  C25_33 
REMARK   11  A    between atoms: C25_33  and  C27_35 
REMARK   12  A    between atoms: C27_35  and  C28_36 
REMARK   13  A    between atoms: C29_37  and  C30_38 
REMARK   14  A    between atoms: C30_38  and  O9_41 
ROOT
HETATM    1  C2  UNL     1      -5.045  49.622 -19.856  1.00  0.00     0.149 C 
HETATM    2  C3  UNL     1      -5.240  48.170 -19.593  1.00  0.00     0.009 C 
HETATM    3  C4  UNL     1      -5.215  47.229 -20.549  1.00  0.00    -0.066 C 
HETATM    4  C5  UNL     1      -4.932  47.599 -21.990  1.00  0.00     0.031 C 
HETATM    5  C6  UNL     1      -6.220  47.343 -22.811  1.00  0.00     0.013 C 
HETATM    6  C7  UNL     1      -6.951  46.042 -22.435  1.00  0.00     0.034 C 
HETATM    7  C8  UNL     1      -6.075  45.070 -21.634  1.00  0.00     0.136 C 
HETATM    8  C15 UNL     1      -5.578  45.747 -20.301  1.00  0.00     0.002 C 
HETATM    9  C16 UNL     1      -4.321  45.000 -19.815  1.00  0.00     0.022 C 
HETATM   10  C17 UNL     1      -6.660  45.605 -19.198  1.00  0.00     0.022 C 
HETATM   11  C18 UNL     1      -4.187  48.987 -22.254  1.00  0.00     0.027 C 
HETATM   12  C20 UNL     1      -2.807  48.632 -22.929  1.00  0.00     0.018 C 
HETATM   13  C21 UNL     1      -1.609  49.591 -22.818  1.00  0.00     0.011 C 
HETATM   14  C22 UNL     1      -1.714  50.670 -21.737  1.00  0.00    -0.032 C 
HETATM   15  C23 UNL     1      -2.306  51.943 -22.415  1.00  0.00     0.016 C 
HETATM   16  C24 UNL     1      -0.381  51.081 -21.013  1.00  0.00    -0.002 C 
HETATM   17  C34 UNL     1      -0.902  51.698 -19.680  1.00  0.00     0.006 C 
HETATM   18  C35 UNL     1      -2.356  51.232 -19.491  1.00  0.00     0.011 C 
HETATM   19  C36 UNL     1      -2.565  50.115 -20.531  1.00  0.00    -0.029 C 
HETATM   20  C37 UNL     1      -2.019  48.810 -19.871  1.00  0.00     0.016 C 
HETATM   21  C38 UNL     1      -4.041  49.924 -20.988  1.00  0.00     0.043 C 
ENDROOT
BRANCH   7  22
HETATM   22  O2  UNL     1      -6.810  43.871 -21.338  1.00  0.00    -0.352 OA
BRANCH  22  23
HETATM   23  C9  UNL     1      -6.934  42.972 -22.447  1.00  0.00     0.292 C 
HETATM   24  O3  UNL     1      -7.914  43.469 -23.355  1.00  0.00    -0.348 OA
HETATM   25  C10 UNL     1      -9.244  42.958 -23.205  1.00  0.00     0.179 C 
HETATM   26  C12 UNL     1      -9.234  41.448 -23.486  1.00  0.00     0.180 C 
HETATM   27  C13 UNL     1      -8.028  40.712 -22.872  1.00  0.00     0.183 C 
HETATM   28  C14 UNL     1      -7.229  41.558 -21.885  1.00  0.00     0.204 C 
BRANCH  25  29
HETATM   29  C11 UNL     1      -9.917  43.337 -21.879  1.00  0.00     0.198 C 
BRANCH  29  30
HETATM   30  O4  UNL     1     -10.996  44.239 -22.107  1.00  0.00    -0.398 OA
HETATM   31  H16 UNL     1     -10.610  45.138 -22.106  1.00  0.00     0.209 HD
ENDBRANCH  29  30
ENDBRANCH  25  29
BRANCH  26  32
HETATM   32  O5  UNL     1      -9.184  41.224 -24.914  1.00  0.00    -0.390 OA
HETATM   33  H18 UNL     1      -8.625  41.936 -25.286  1.00  0.00     0.210 HD
ENDBRANCH  26  32
BRANCH  27  34
HETATM   34  O6  UNL     1      -7.126  40.248 -23.903  1.00  0.00    -0.390 OA
HETATM   35  H20 UNL     1      -7.714  40.076 -24.665  1.00  0.00     0.210 HD
ENDBRANCH  27  34
BRANCH  28  36
HETATM   36  O7  UNL     1      -6.004  40.885 -21.553  1.00  0.00    -0.388 OA
HETATM   37  H22 UNL     1      -5.817  40.289 -22.313  1.00  0.00     0.210 HD
ENDBRANCH  28  36
ENDBRANCH  22  23
ENDBRANCH   7  22
BRANCH  11  38
HETATM   38  C19 UNL     1      -5.018  49.802 -23.261  1.00  0.00     0.241 C 
HETATM   39  O8  UNL     1      -6.239  49.937 -23.220  1.00  0.00    -0.306 OA
ENDBRANCH  11  38
BRANCH   1  40
HETATM   40  O1  UNL     1      -6.312  50.166 -20.271  1.00  0.00    -0.386 OA
HETATM   41  C1  UNL     1      -7.432  49.527 -19.665  1.00  0.00     0.202 C 
ENDBRANCH   1  40
BRANCH  16  42
HETATM   42  C25 UNL     1       0.656  52.003 -21.732  1.00  0.00    -0.010 C 
HETATM   43  C26 UNL     1       1.424  52.873 -20.729  1.00  0.00     0.010 C 
BRANCH  42  44
HETATM   44  C27 UNL     1      -0.053  52.892 -22.794  1.00  0.00     0.031 C 
BRANCH  44  45
HETATM   45  C28 UNL     1       0.628  52.916 -24.138  1.00  0.00    -0.027 C 
HETATM   46  C29 UNL     1       0.386  52.032 -25.121  1.00  0.00     0.006 C 
BRANCH  46  47
HETATM   47  C30 UNL     1       1.008  51.997 -26.506  1.00  0.00     0.070 C 
HETATM   48  C31 UNL     1       2.444  51.449 -26.576  1.00  0.00     0.050 C 
HETATM   49  C32 UNL     1       0.123  51.111 -27.394  1.00  0.00     0.050 C 
BRANCH  47  50
HETATM   50  O9  UNL     1       0.921  53.311 -27.081  1.00  0.00    -0.382 OA
HETATM   51  C33 UNL     1      -0.302  53.630 -27.729  1.00  0.00     0.202 C 
ENDBRANCH  47  50
ENDBRANCH  46  47
ENDBRANCH  44  45
ENDBRANCH  42  44
ENDBRANCH  16  42
TORSDOF 14
ENDMDL
MODEL 8
REMARK minimizedAffinity -7.89504147
REMARK CNNscore 0.294951022
REMARK CNNaffinity 6.76482248
REMARK  14 active torsions:
REMARK  status: ('A' for Active; 'I' for Inactive)
REMARK    1  A    between atoms: O1_2  and  C2_3 
REMARK    2  A    between atoms: C8_9  and  O2_10 
REMARK    3  A    between atoms: O2_10  and  C9_11 
REMARK    4  A    between atoms: C10_13  and  C11_14 
REMARK    5  A    between atoms: C11_14  and  O4_15 
REMARK    6  A    between atoms: C12_16  and  O5_17 
REMARK    7  A    between atoms: C13_18  and  O6_19 
REMARK    8  A    between atoms: C14_20  and  O7_21 
REMARK    9  A    between atoms: C18_25  and  C19_26 
REMARK   10  A    between atoms: C24_32  and  C25_33 
REMARK   11  A    between atoms: C25_33  and  C27_35 
REMARK   12  A    between atoms: C27_35  and  C28_36 
REMARK   13  A    between atoms: C29_37  and  C30_38 
REMARK   14  A    between atoms: C30_38  and  O9_41 
ROOT
HETATM    1  C2  UNL     1      -6.209  48.851 -19.883  1.00  0.00     0.149 C 
HETATM    2  C3  UNL     1      -6.198  47.364 -19.901  1.00  0.00     0.009 C 
HETATM    3  C4  UNL     1      -6.416  46.628 -21.002  1.00  0.00    -0.066 C 
HETATM    4  C5  UNL     1      -6.648  47.296 -22.341  1.00  0.00     0.031 C 
HETATM    5  C6  UNL     1      -8.110  47.016 -22.768  1.00  0.00     0.013 C 
HETATM    6  C7  UNL     1      -8.578  45.578 -22.486  1.00  0.00     0.034 C 
HETATM    7  C8  UNL     1      -7.418  44.609 -22.223  1.00  0.00     0.136 C 
HETATM    8  C15 UNL     1      -6.565  45.090 -20.989  1.00  0.00     0.002 C 
HETATM    9  C16 UNL     1      -5.166  44.452 -21.086  1.00  0.00     0.022 C 
HETATM   10  C17 UNL     1      -7.214  44.594 -19.670  1.00  0.00     0.022 C 
HETATM   11  C18 UNL     1      -6.137  48.800 -22.505  1.00  0.00     0.027 C 
HETATM   12  C20 UNL     1      -5.030  48.776 -23.629  1.00  0.00     0.018 C 
HETATM   13  C21 UNL     1      -3.937  49.858 -23.678  1.00  0.00     0.011 C 
HETATM   14  C22 UNL     1      -3.764  50.692 -22.405  1.00  0.00    -0.032 C 
HETATM   15  C23 UNL     1      -4.639  51.971 -22.572  1.00  0.00     0.016 C 
HETATM   16  C24 UNL     1      -2.303  51.146 -22.048  1.00  0.00    -0.002 C 
HETATM   17  C34 UNL     1      -2.405  51.426 -20.518  1.00  0.00     0.006 C 
HETATM   18  C35 UNL     1      -3.678  50.731 -20.005  1.00  0.00     0.011 C 
HETATM   19  C36 UNL     1      -4.130  49.808 -21.152  1.00  0.00    -0.029 C 
HETATM   20  C37 UNL     1      -3.302  48.494 -20.995  1.00  0.00     0.016 C 
HETATM   21  C38 UNL     1      -5.656  49.498 -21.170  1.00  0.00     0.043 C 
ENDROOT
BRANCH   7  22
HETATM   22  O2  UNL     1      -7.924  43.284 -21.991  1.00  0.00    -0.352 OA
BRANCH  22  23
HETATM   23  C9  UNL     1      -8.849  42.828 -22.986  1.00  0.00     0.292 C 
HETATM   24  O3  UNL     1     -10.007  42.293 -22.350  1.00  0.00    -0.348 OA
HETATM   25  C10 UNL     1     -10.025  40.875 -22.143  1.00  0.00     0.179 C 
HETATM   26  C12 UNL     1     -10.013  40.171 -23.508  1.00  0.00     0.180 C 
HETATM   27  C13 UNL     1      -9.051  40.810 -24.527  1.00  0.00     0.183 C 
HETATM   28  C14 UNL     1      -8.103  41.837 -23.915  1.00  0.00     0.204 C 
BRANCH  25  29
HETATM   29  C11 UNL     1      -8.950  40.366 -21.174  1.00  0.00     0.198 C 
BRANCH  29  30
HETATM   30  O4  UNL     1      -9.397  39.193 -20.503  1.00  0.00    -0.398 OA
HETATM   31  H16 UNL     1      -9.889  39.495 -19.713  1.00  0.00     0.209 HD
ENDBRANCH  29  30
ENDBRANCH  25  29
BRANCH  26  32
HETATM   32  O5  UNL     1     -11.337  40.221 -24.087  1.00  0.00    -0.390 OA
HETATM   33  H18 UNL     1     -11.720  41.084 -23.829  1.00  0.00     0.210 HD
ENDBRANCH  26  32
BRANCH  27  34
HETATM   34  O6  UNL     1      -9.782  41.452 -25.597  1.00  0.00    -0.390 OA
HETATM   35  H20 UNL     1     -10.598  40.918 -25.671  1.00  0.00     0.210 HD
ENDBRANCH  27  34
BRANCH  28  36
HETATM   36  O7  UNL     1      -7.419  42.546 -24.961  1.00  0.00    -0.388 OA
HETATM   37  H22 UNL     1      -8.004  42.481 -25.749  1.00  0.00     0.210 HD
ENDBRANCH  28  36
ENDBRANCH  22  23
ENDBRANCH   7  22
BRANCH  11  38
HETATM   38  C19 UNL     1      -7.309  49.661 -23.006  1.00  0.00     0.241 C 
HETATM   39  O8  UNL     1      -7.700  49.709 -24.171  1.00  0.00    -0.306 OA
ENDBRANCH  11  38
BRANCH   1  40
HETATM   40  O1  UNL     1      -7.579  49.277 -19.762  1.00  0.00    -0.386 OA
HETATM   41  C1  UNL     1      -8.165  48.964 -18.502  1.00  0.00     0.202 C 
ENDBRANCH   1  40
BRANCH  16  42
HETATM   42  C25 UNL     1      -1.630  52.324 -22.825  1.00  0.00    -0.010 C 
HETATM   43  C26 UNL     1      -2.318  52.573 -24.174  1.00  0.00     0.010 C 
BRANCH  42  44
HETATM   44  C27 UNL     1      -0.113  52.041 -23.030  1.00  0.00     0.031 C 
BRANCH  44  45
HETATM   45  C28 UNL     1       0.430  52.497 -24.359  1.00  0.00    -0.027 C 
HETATM   46  C29 UNL     1       0.593  51.691 -25.422  1.00  0.00     0.006 C 
BRANCH  46  47
HETATM   47  C30 UNL     1       1.110  52.070 -26.799  1.00  0.00     0.070 C 
HETATM   48  C31 UNL     1       2.573  51.692 -27.086  1.00  0.00     0.050 C 
HETATM   49  C32 UNL     1       0.230  51.365 -27.839  1.00  0.00     0.050 C 
BRANCH  47  50
HETATM   50  O9  UNL     1       0.882  53.474 -27.003  1.00  0.00    -0.382 OA
HETATM   51  C33 UNL     1      -0.242  53.815 -27.802  1.00  0.00     0.202 C 
ENDBRANCH  47  50
ENDBRANCH  46  47
ENDBRANCH  44  45
ENDBRANCH  42  44
ENDBRANCH  16  42
TORSDOF 14
ENDMDL
MODEL 9
REMARK minimizedAffinity -8.97331619
REMARK CNNscore 0.273543298
REMARK CNNaffinity 6.98863649
REMARK  14 active torsions:
REMARK  status: ('A' for Active; 'I' for Inactive)
REMARK    1  A    between atoms: O1_2  and  C2_3 
REMARK    2  A    between atoms: C8_9  and  O2_10 
REMARK    3  A    between atoms: O2_10  and  C9_11 
REMARK    4  A    between atoms: C10_13  and  C11_14 
REMARK    5  A    between atoms: C11_14  and  O4_15 
REMARK    6  A    between atoms: C12_16  and  O5_17 
REMARK    7  A    between atoms: C13_18  and  O6_19 
REMARK    8  A    between atoms: C14_20  and  O7_21 
REMARK    9  A    between atoms: C18_25  and  C19_26 
REMARK   10  A    between atoms: C24_32  and  C25_33 
REMARK   11  A    between atoms: C25_33  and  C27_35 
REMARK   12  A    between atoms: C27_35  and  C28_36 
REMARK   13  A    between atoms: C29_37  and  C30_38 
REMARK   14  A    between atoms: C30_38  and  O9_41 
ROOT
HETATM    1  C2  UNL     1      -4.730  47.060 -20.952  1.00  0.00     0.149 C 
HETATM    2  C3  UNL     1      -5.451  46.702 -22.203  1.00  0.00     0.009 C 
HETATM    3  C4  UNL     1      -6.318  47.516 -22.824  1.00  0.00    -0.066 C 
HETATM    4  C5  UNL     1      -6.585  48.909 -22.292  1.00  0.00     0.031 C 
HETATM    5  C6  UNL     1      -8.049  48.956 -21.788  1.00  0.00     0.013 C 
HETATM    6  C7  UNL     1      -9.049  48.232 -22.707  1.00  0.00     0.034 C 
HETATM    7  C8  UNL     1      -8.491  47.964 -24.111  1.00  0.00     0.136 C 
HETATM    8  C15 UNL     1      -7.187  47.084 -24.028  1.00  0.00     0.002 C 
HETATM    9  C16 UNL     1      -6.379  47.288 -25.324  1.00  0.00     0.022 C 
HETATM   10  C17 UNL     1      -7.565  45.582 -23.945  1.00  0.00     0.022 C 
HETATM   11  C18 UNL     1      -5.482  49.546 -21.329  1.00  0.00     0.027 C 
HETATM   12  C20 UNL     1      -4.923  50.820 -22.071  1.00  0.00     0.018 C 
HETATM   13  C21 UNL     1      -3.515  51.355 -21.760  1.00  0.00     0.011 C 
HETATM   14  C22 UNL     1      -2.585  50.395 -21.013  1.00  0.00    -0.032 C 
HETATM   15  C23 UNL     1      -2.729  50.707 -19.493  1.00  0.00     0.016 C 
HETATM   16  C24 UNL     1      -1.058  50.458 -21.379  1.00  0.00    -0.002 C 
HETATM   17  C34 UNL     1      -0.546  49.060 -20.918  1.00  0.00     0.006 C 
HETATM   18  C35 UNL     1      -1.775  48.149 -20.756  1.00  0.00     0.011 C 
HETATM   19  C36 UNL     1      -2.940  48.912 -21.413  1.00  0.00    -0.029 C 
HETATM   20  C37 UNL     1      -2.853  48.592 -22.939  1.00  0.00     0.016 C 
HETATM   21  C38 UNL     1      -4.347  48.552 -20.854  1.00  0.00     0.043 C 
ENDROOT
BRANCH   7  22
HETATM   22  O2  UNL     1      -9.482  47.309 -24.919  1.00  0.00    -0.352 OA
BRANCH  22  23
HETATM   23  C9  UNL     1      -9.813  48.013 -26.123  1.00  0.00     0.292 C 
HETATM   24  O3  UNL     1     -11.114  48.582 -25.998  1.00  0.00    -0.348 OA
HETATM   25  C10 UNL     1     -12.202  47.815 -26.527  1.00  0.00     0.179 C 
HETATM   26  C12 UNL     1     -12.022  47.673 -28.045  1.00  0.00     0.180 C 
HETATM   27  C13 UNL     1     -10.570  47.387 -28.473  1.00  0.00     0.183 C 
HETATM   28  C14 UNL     1      -9.646  47.032 -27.312  1.00  0.00     0.204 C 
BRANCH  25  29
HETATM   29  C11 UNL     1     -12.443  46.483 -25.804  1.00  0.00     0.198 C 
BRANCH  29  30
HETATM   30  O4  UNL     1     -13.166  46.694 -24.596  1.00  0.00    -0.398 OA
HETATM   31  H16 UNL     1     -12.501  46.887 -23.904  1.00  0.00     0.209 HD
ENDBRANCH  29  30
ENDBRANCH  25  29
BRANCH  26  32
HETATM   32  O5  UNL     1     -12.420  48.902 -28.695  1.00  0.00    -0.390 OA
HETATM   33  H18 UNL     1     -12.155  49.629 -28.097  1.00  0.00     0.210 HD
ENDBRANCH  26  32
BRANCH  27  34
HETATM   34  O6  UNL     1     -10.003  48.520 -29.170  1.00  0.00    -0.390 OA
HETATM   35  H20 UNL     1     -10.775  48.931 -29.608  1.00  0.00     0.210 HD
ENDBRANCH  27  34
BRANCH  28  36
HETATM   36  O7  UNL     1      -8.283  47.019 -27.765  1.00  0.00    -0.388 OA
HETATM   37  H22 UNL     1      -8.262  47.609 -28.552  1.00  0.00     0.210 HD
ENDBRANCH  28  36
ENDBRANCH  22  23
ENDBRANCH   7  22
BRANCH  11  38
HETATM   38  C19 UNL     1      -6.174  50.010 -20.036  1.00  0.00     0.241 C 
HETATM   39  O8  UNL     1      -7.167  49.480 -19.540  1.00  0.00    -0.306 OA
ENDBRANCH  11  38
BRANCH   1  40
HETATM   40  O1  UNL     1      -5.610  46.786 -19.846  1.00  0.00    -0.386 OA
HETATM   41  C1  UNL     1      -5.437  45.487 -19.288  1.00  0.00     0.202 C 
ENDBRANCH   1  40
BRANCH  16  42
HETATM   42  C25 UNL     1      -0.165  51.625 -20.845  1.00  0.00    -0.010 C 
HETATM   43  C26 UNL     1      -0.724  52.209 -19.541  1.00  0.00     0.010 C 
BRANCH  42  44
HETATM   44  C27 UNL     1      -0.023  52.737 -21.924  1.00  0.00     0.031 C 
BRANCH  44  45
HETATM   45  C28 UNL     1       0.371  52.232 -23.288  1.00  0.00    -0.027 C 
HETATM   46  C29 UNL     1       0.064  52.854 -24.439  1.00  0.00     0.006 C 
BRANCH  46  47
HETATM   47  C30 UNL     1       0.439  52.428 -25.848  1.00  0.00     0.070 C 
HETATM   48  C31 UNL     1      -0.102  51.058 -26.294  1.00  0.00     0.050 C 
HETATM   49  C32 UNL     1      -0.106  53.486 -26.816  1.00  0.00     0.050 C 
BRANCH  47  50
HETATM   50  O9  UNL     1       1.868  52.496 -25.982  1.00  0.00    -0.382 OA
HETATM   51  C33 UNL     1       2.501  51.345 -26.522  1.00  0.00     0.202 C 
ENDBRANCH  47  50
ENDBRANCH  46  47
ENDBRANCH  44  45
ENDBRANCH  42  44
ENDBRANCH  16  42
TORSDOF 14
ENDMDL
