MODEL 1
REMARK minimizedAffinity -9.20701885
REMARK CNNscore 0.695907414
REMARK CNNaffinity 7.09088135
REMARK  13 active torsions:
REMARK  status: ('A' for Active; 'I' for Inactive)
REMARK    1  A    between atoms: O1_2  and  C2_3 
REMARK    2  A    between atoms: C2_3  and  C3_5 
REMARK    3  A    between atoms: C3_5  and  C4_6 
REMARK    4  A    between atoms: C3_5  and  N2_16 
REMARK    5  A    between atoms: C4_6  and  C5_7 
REMARK       I    between atoms: N2_16  and  C13_17 
REMARK    6  A    between atoms: C13_17  and  C14_19 
REMARK    7  A    between atoms: C14_19  and  C15_20 
REMARK    8  A    between atoms: C15_20  and  C16_21 
REMARK    9  A    between atoms: C16_21  and  O5_23 
REMARK   10  A    between atoms: O5_23  and  C17_24 
REMARK   11  A    between atoms: C17_24  and  C18_25 
REMARK   12  A    between atoms: C18_25  and  C19_27 
REMARK   13  A    between atoms: C19_27  and  O7_28 
ROOT
HETATM    1  O5  UNL     1      -7.360  46.677 -28.596  1.00  0.00    -0.314 OA
ENDROOT
BRANCH   1   2
HETATM    2  C16 UNL     1      -6.394  47.512 -29.072  1.00  0.00     0.259 C 
HETATM    3  O4  UNL     1      -6.345  47.945 -30.211  1.00  0.00    -0.265 OA
BRANCH   2   4
HETATM    4  C15 UNL     1      -5.372  47.799 -28.003  1.00  0.00     0.120 C 
BRANCH   4   5
HETATM    5  C14 UNL     1      -4.408  48.894 -28.435  1.00  0.00     0.112 C 
BRANCH   5   6
HETATM    6  C13 UNL     1      -3.462  49.240 -27.305  1.00  0.00     0.218 C 
HETATM    7  N2  UNL     1      -3.418  50.579 -26.995  1.00  0.00    -0.347 N 
HETATM    8  H13 UNL     1      -3.692  51.231 -27.719  1.00  0.00     0.163 HD
HETATM    9  O3  UNL     1      -2.803  48.388 -26.720  1.00  0.00    -0.274 OA
BRANCH   7  10
HETATM   10  C3  UNL     1      -2.411  51.065 -26.042  1.00  0.00     0.188 C 
BRANCH  10  11
HETATM   11  C2  UNL     1      -1.738  52.293 -26.658  1.00  0.00     0.281 C 
HETATM   12  O2  UNL     1      -2.337  53.175 -27.266  1.00  0.00    -0.263 OA
BRANCH  11  13
HETATM   13  O1  UNL     1      -0.403  52.294 -26.389  1.00  0.00    -0.325 OA
HETATM   14  C1  UNL     1       0.103  53.549 -25.932  1.00  0.00     0.213 C 
ENDBRANCH  11  13
ENDBRANCH  10  11
BRANCH  10  15
HETATM   15  C4  UNL     1      -3.029  51.494 -24.706  1.00  0.00     0.076 C 
BRANCH  15  16
HETATM   16  C5  UNL     1      -2.165  51.189 -23.520  1.00  0.00    -0.028 A 
HETATM   17  C6  UNL     1      -1.318  52.074 -22.877  1.00  0.00     0.096 A 
HETATM   18  N1  UNL     1      -0.705  51.410 -21.849  1.00  0.00    -0.365 N 
HETATM   19  C7  UNL     1      -1.130  50.103 -21.803  1.00  0.00     0.042 A 
HETATM   20  H8  UNL     1      -0.032  51.814 -21.213  1.00  0.00     0.165 HD
HETATM   21  C8  UNL     1      -0.775  49.071 -20.926  1.00  0.00     0.030 A 
HETATM   22  C12 UNL     1      -2.045  49.931 -22.843  1.00  0.00    -0.002 A 
HETATM   23  C9  UNL     1      -1.375  47.824 -21.115  1.00  0.00     0.002 A 
HETATM   24  C10 UNL     1      -2.289  47.618 -22.146  1.00  0.00     0.001 A 
HETATM   25  C11 UNL     1      -2.630  48.660 -23.017  1.00  0.00     0.014 A 
ENDBRANCH  15  16
ENDBRANCH  10  15
ENDBRANCH   7  10
ENDBRANCH   5   6
ENDBRANCH   4   5
ENDBRANCH   2   4
ENDBRANCH   1   2
BRANCH   1  26
HETATM   26  C17 UNL     1      -8.615  46.820 -29.261  1.00  0.00     0.260 C 
BRANCH  26  27
HETATM   27  C18 UNL     1      -9.602  47.459 -28.297  1.00  0.00     0.185 C 
HETATM   28  O6  UNL     1      -9.200  48.108 -27.326  1.00  0.00    -0.292 OA
BRANCH  27  29
HETATM   29  C19 UNL     1     -11.110  47.266 -28.591  1.00  0.00     0.128 C 
HETATM   30  C20 UNL     1     -11.363  46.408 -29.865  1.00  0.00     0.047 C 
HETATM   31  C21 UNL     1     -12.604  45.543 -29.577  1.00  0.00     0.009 C 
HETATM   32  C22 UNL     1     -13.153  46.087 -28.264  1.00  0.00     0.002 C 
HETATM   33  C23 UNL     1     -14.119  45.210 -27.456  1.00  0.00    -0.004 C 
HETATM   34  C36 UNL     1     -11.877  46.482 -27.479  1.00  0.00    -0.002 C 
HETATM   35  C24 UNL     1     -15.329  44.769 -28.304  1.00  0.00     0.010 C 
HETATM   36  C33 UNL     1     -14.565  46.004 -26.178  1.00  0.00     0.002 C 
HETATM   37  C25 UNL     1     -16.387  44.028 -27.483  1.00  0.00     0.035 C 
HETATM   38  C26 UNL     1     -16.757  44.869 -26.287  1.00  0.00    -0.068 C 
HETATM   39  C27 UNL     1     -17.988  45.401 -26.195  1.00  0.00     0.053 C 
HETATM   40  C31 UNL     1     -15.605  45.192 -25.327  1.00  0.00    -0.016 C 
HETATM   41  C28 UNL     1     -18.296  46.462 -25.205  1.00  0.00     0.149 C 
HETATM   42  O8  UNL     1     -19.446  46.886 -25.108  1.00  0.00    -0.293 OA
HETATM   43  C29 UNL     1     -17.145  47.058 -24.437  1.00  0.00     0.084 C 
HETATM   44  C30 UNL     1     -16.144  45.969 -24.090  1.00  0.00     0.022 C 
HETATM   45  C32 UNL     1     -14.992  43.890 -24.752  1.00  0.00     0.020 C 
HETATM   46  C34 UNL     1     -13.343  46.520 -25.381  1.00  0.00     0.007 C 
HETATM   47  C35 UNL     1     -12.331  47.291 -26.251  1.00  0.00     0.013 C 
HETATM   48  C37 UNL     1     -11.045  45.260 -27.006  1.00  0.00     0.019 C 
BRANCH  29  49
HETATM   49  O7  UNL     1     -11.736  48.535 -28.803  1.00  0.00    -0.381 OA
HETATM   50  H20 UNL     1     -11.353  48.927 -29.610  1.00  0.00     0.211 HD
ENDBRANCH  29  49
ENDBRANCH  27  29
ENDBRANCH  26  27
ENDBRANCH   1  26
TORSDOF 13
ENDMDL
MODEL 2
REMARK minimizedAffinity -9.38635826
REMARK CNNscore 0.581822455
REMARK CNNaffinity 6.82196045
REMARK  13 active torsions:
REMARK  status: ('A' for Active; 'I' for Inactive)
REMARK    1  A    between atoms: O1_2  and  C2_3 
REMARK    2  A    between atoms: C2_3  and  C3_5 
REMARK    3  A    between atoms: C3_5  and  C4_6 
REMARK    4  A    between atoms: C3_5  and  N2_16 
REMARK    5  A    between atoms: C4_6  and  C5_7 
REMARK       I    between atoms: N2_16  and  C13_17 
REMARK    6  A    between atoms: C13_17  and  C14_19 
REMARK    7  A    between atoms: C14_19  and  C15_20 
REMARK    8  A    between atoms: C15_20  and  C16_21 
REMARK    9  A    between atoms: C16_21  and  O5_23 
REMARK   10  A    between atoms: O5_23  and  C17_24 
REMARK   11  A    between atoms: C17_24  and  C18_25 
REMARK   12  A    between atoms: C18_25  and  C19_27 
REMARK   13  A    between atoms: C19_27  and  O7_28 
ROOT
HETATM    1  O5  UNL     1      -7.257  47.518 -26.353  1.00  0.00    -0.314 OA
ENDROOT
BRANCH   1   2
HETATM    2  C16 UNL     1      -6.077  47.723 -27.003  1.00  0.00     0.259 C 
HETATM    3  O4  UNL     1      -5.839  47.369 -28.146  1.00  0.00    -0.265 OA
BRANCH   2   4
HETATM    4  C15 UNL     1      -5.092  48.420 -26.101  1.00  0.00     0.120 C 
BRANCH   4   5
HETATM    5  C14 UNL     1      -3.709  48.481 -26.732  1.00  0.00     0.112 C 
BRANCH   5   6
HETATM    6  C13 UNL     1      -2.733  49.164 -25.796  1.00  0.00     0.218 C 
HETATM    7  N2  UNL     1      -2.034  50.202 -26.368  1.00  0.00    -0.347 N 
HETATM    8  H13 UNL     1      -1.936  50.194 -27.375  1.00  0.00     0.163 HD
HETATM    9  O3  UNL     1      -2.593  48.816 -24.629  1.00  0.00    -0.274 OA
BRANCH   7  10
HETATM   10  C3  UNL     1      -0.933  50.826 -25.622  1.00  0.00     0.188 C 
BRANCH  10  11
HETATM   11  C2  UNL     1       0.217  51.069 -26.600  1.00  0.00     0.281 C 
HETATM   12  O2  UNL     1       1.394  50.818 -26.357  1.00  0.00    -0.263 OA
BRANCH  11  13
HETATM   13  O1  UNL     1      -0.254  51.546 -27.786  1.00  0.00    -0.325 OA
HETATM   14  C1  UNL     1      -0.079  52.952 -27.963  1.00  0.00     0.213 C 
ENDBRANCH  11  13
ENDBRANCH  10  11
BRANCH  10  15
HETATM   15  C4  UNL     1      -1.327  52.180 -25.022  1.00  0.00     0.076 C 
BRANCH  15  16
HETATM   16  C5  UNL     1      -0.546  52.544 -23.795  1.00  0.00    -0.028 A 
HETATM   17  C6  UNL     1       0.636  53.261 -23.762  1.00  0.00     0.096 A 
HETATM   18  N1  UNL     1       1.032  53.375 -22.457  1.00  0.00    -0.365 N 
HETATM   19  C7  UNL     1       0.135  52.743 -21.628  1.00  0.00     0.042 A 
HETATM   20  H8  UNL     1       1.866  53.849 -22.140  1.00  0.00     0.165 HD
HETATM   21  C8  UNL     1       0.137  52.609 -20.235  1.00  0.00     0.030 A 
HETATM   22  C12 UNL     1      -0.866  52.206 -22.439  1.00  0.00    -0.002 A 
HETATM   23  C9  UNL     1      -0.919  51.906 -19.650  1.00  0.00     0.002 A 
HETATM   24  C10 UNL     1      -1.932  51.356 -20.430  1.00  0.00     0.001 A 
HETATM   25  C11 UNL     1      -1.916  51.495 -21.823  1.00  0.00     0.014 A 
ENDBRANCH  15  16
ENDBRANCH  10  15
ENDBRANCH   7  10
ENDBRANCH   5   6
ENDBRANCH   4   5
ENDBRANCH   2   4
ENDBRANCH   1   2
BRANCH   1  26
HETATM   26  C17 UNL     1      -8.404  47.682 -27.187  1.00  0.00     0.260 C 
BRANCH  26  27
HETATM   27  C18 UNL     1      -9.594  48.027 -26.307  1.00  0.00     0.185 C 
HETATM   28  O6  UNL     1      -9.429  48.364 -25.130  1.00  0.00    -0.292 OA
BRANCH  27  29
HETATM   29  C19 UNL     1     -11.001  47.942 -26.948  1.00  0.00     0.128 C 
HETATM   30  C20 UNL     1     -10.941  47.698 -28.485  1.00  0.00     0.047 C 
HETATM   31  C21 UNL     1     -12.116  46.764 -28.832  1.00  0.00     0.009 C 
HETATM   32  C22 UNL     1     -12.936  46.690 -27.550  1.00  0.00     0.002 C 
HETATM   33  C23 UNL     1     -13.929  45.532 -27.384  1.00  0.00    -0.004 C 
HETATM   34  C36 UNL     1     -11.862  46.745 -26.434  1.00  0.00    -0.002 C 
HETATM   35  C24 UNL     1     -14.923  45.465 -28.560  1.00  0.00     0.010 C 
HETATM   36  C33 UNL     1     -14.669  45.702 -26.009  1.00  0.00     0.002 C 
HETATM   37  C25 UNL     1     -16.023  44.423 -28.345  1.00  0.00     0.035 C 
HETATM   38  C26 UNL     1     -16.679  44.670 -27.009  1.00  0.00    -0.068 C 
HETATM   39  C27 UNL     1     -17.956  45.086 -26.955  1.00  0.00     0.053 C 
HETATM   40  C31 UNL     1     -15.749  44.583 -25.793  1.00  0.00    -0.016 C 
HETATM   41  C28 UNL     1     -18.539  45.622 -25.701  1.00  0.00     0.149 C 
HETATM   42  O8  UNL     1     -19.726  45.940 -25.669  1.00  0.00    -0.293 OA
HETATM   43  C29 UNL     1     -17.605  45.863 -24.543  1.00  0.00     0.084 C 
HETATM   44  C30 UNL     1     -16.571  44.753 -24.481  1.00  0.00     0.022 C 
HETATM   45  C32 UNL     1     -15.111  43.174 -25.693  1.00  0.00     0.020 C 
HETATM   46  C34 UNL     1     -13.663  45.859 -24.844  1.00  0.00     0.007 C 
HETATM   47  C35 UNL     1     -12.602  46.948 -25.100  1.00  0.00     0.013 C 
HETATM   48  C37 UNL     1     -11.000  45.456 -26.349  1.00  0.00     0.019 C 
BRANCH  29  49
HETATM   49  O7  UNL     1     -11.710  49.167 -26.741  1.00  0.00    -0.381 OA
HETATM   50  H20 UNL     1     -11.238  49.872 -27.223  1.00  0.00     0.211 HD
ENDBRANCH  29  49
ENDBRANCH  27  29
ENDBRANCH  26  27
ENDBRANCH   1  26
TORSDOF 13
ENDMDL
MODEL 3
REMARK minimizedAffinity -8.80631447
REMARK CNNscore 0.502360523
REMARK CNNaffinity 6.88901377
REMARK  13 active torsions:
REMARK  status: ('A' for Active; 'I' for Inactive)
REMARK    1  A    between atoms: O1_2  and  C2_3 
REMARK    2  A    between atoms: C2_3  and  C3_5 
REMARK    3  A    between atoms: C3_5  and  C4_6 
REMARK    4  A    between atoms: C3_5  and  N2_16 
REMARK    5  A    between atoms: C4_6  and  C5_7 
REMARK       I    between atoms: N2_16  and  C13_17 
REMARK    6  A    between atoms: C13_17  and  C14_19 
REMARK    7  A    between atoms: C14_19  and  C15_20 
REMARK    8  A    between atoms: C15_20  and  C16_21 
REMARK    9  A    between atoms: C16_21  and  O5_23 
REMARK   10  A    between atoms: O5_23  and  C17_24 
REMARK   11  A    between atoms: C17_24  and  C18_25 
REMARK   12  A    between atoms: C18_25  and  C19_27 
REMARK   13  A    between atoms: C19_27  and  O7_28 
ROOT
HETATM    1  O5  UNL     1      -8.066  47.633 -25.112  1.00  0.00    -0.314 OA
ENDROOT
BRANCH   1   2
HETATM    2  C16 UNL     1      -9.029  46.783 -24.658  1.00  0.00     0.259 C 
HETATM    3  O4  UNL     1      -9.274  46.570 -23.482  1.00  0.00    -0.265 OA
BRANCH   2   4
HETATM    4  C15 UNL     1      -9.728  46.114 -25.813  1.00  0.00     0.120 C 
BRANCH   4   5
HETATM    5  C14 UNL     1     -10.455  47.128 -26.684  1.00  0.00     0.112 C 
BRANCH   5   6
HETATM    6  C13 UNL     1     -11.952  47.013 -26.490  1.00  0.00     0.218 C 
HETATM    7  N2  UNL     1     -12.542  46.012 -27.228  1.00  0.00    -0.347 N 
HETATM    8  H13 UNL     1     -12.057  45.705 -28.061  1.00  0.00     0.163 HD
HETATM    9  O3  UNL     1     -12.572  47.749 -25.732  1.00  0.00    -0.274 OA
BRANCH   7  10
HETATM   10  C3  UNL     1     -14.007  45.914 -27.266  1.00  0.00     0.188 C 
BRANCH  10  11
HETATM   11  C2  UNL     1     -14.391  45.118 -28.513  1.00  0.00     0.281 C 
HETATM   12  O2  UNL     1     -15.547  44.915 -28.873  1.00  0.00    -0.263 OA
BRANCH  11  13
HETATM   13  O1  UNL     1     -13.279  44.718 -29.190  1.00  0.00    -0.325 OA
HETATM   14  C1  UNL     1     -12.763  43.452 -28.777  1.00  0.00     0.213 C 
ENDBRANCH  11  13
ENDBRANCH  10  11
BRANCH  10  15
HETATM   15  C4  UNL     1     -14.575  45.174 -26.049  1.00  0.00     0.076 C 
BRANCH  15  16
HETATM   16  C5  UNL     1     -15.642  45.938 -25.325  1.00  0.00    -0.028 A 
HETATM   17  C6  UNL     1     -15.441  46.943 -24.396  1.00  0.00     0.096 A 
HETATM   18  N1  UNL     1     -16.664  47.380 -23.965  1.00  0.00    -0.365 N 
HETATM   19  C7  UNL     1     -17.669  46.679 -24.590  1.00  0.00     0.042 A 
HETATM   20  H8  UNL     1     -16.815  48.108 -23.282  1.00  0.00     0.165 HD
HETATM   21  C8  UNL     1     -19.059  46.790 -24.459  1.00  0.00     0.030 A 
HETATM   22  C12 UNL     1     -17.060  45.762 -25.447  1.00  0.00    -0.002 A 
HETATM   23  C9  UNL     1     -19.852  45.938 -25.231  1.00  0.00     0.002 A 
HETATM   24  C10 UNL     1     -19.276  45.010 -26.094  1.00  0.00     0.001 A 
HETATM   25  C11 UNL     1     -17.884  44.909 -26.209  1.00  0.00     0.014 A 
ENDBRANCH  15  16
ENDBRANCH  10  15
ENDBRANCH   7  10
ENDBRANCH   5   6
ENDBRANCH   4   5
ENDBRANCH   2   4
ENDBRANCH   1   2
BRANCH   1  26
HETATM   26  C17 UNL     1      -6.870  47.609 -24.333  1.00  0.00     0.260 C 
BRANCH  26  27
HETATM   27  C18 UNL     1      -5.770  48.308 -25.115  1.00  0.00     0.185 C 
HETATM   28  O6  UNL     1      -5.539  47.998 -26.288  1.00  0.00    -0.292 OA
BRANCH  27  29
HETATM   29  C19 UNL     1      -4.972  49.416 -24.384  1.00  0.00     0.128 C 
HETATM   30  C20 UNL     1      -4.650  49.042 -22.907  1.00  0.00     0.047 C 
HETATM   31  C21 UNL     1      -3.244  49.595 -22.606  1.00  0.00     0.009 C 
HETATM   32  C22 UNL     1      -2.904  50.453 -23.817  1.00  0.00     0.002 C 
HETATM   33  C23 UNL     1      -1.433  50.812 -24.069  1.00  0.00    -0.004 C 
HETATM   34  C36 UNL     1      -3.560  49.688 -24.995  1.00  0.00    -0.002 C 
HETATM   35  C24 UNL     1      -0.798  51.493 -22.840  1.00  0.00     0.010 C 
HETATM   36  C33 UNL     1      -1.352  51.725 -25.343  1.00  0.00     0.002 C 
HETATM   37  C25 UNL     1       0.617  52.006 -23.114  1.00  0.00     0.035 C 
HETATM   38  C26 UNL     1       0.593  52.876 -24.346  1.00  0.00    -0.068 C 
HETATM   39  C27 UNL     1       0.831  54.195 -24.241  1.00  0.00     0.053 C 
HETATM   40  C31 UNL     1       0.121  52.185 -25.632  1.00  0.00    -0.016 C 
HETATM   41  C28 UNL     1       0.527  55.123 -25.358  1.00  0.00     0.149 C 
HETATM   42  O8  UNL     1       0.809  56.315 -25.251  1.00  0.00    -0.293 OA
HETATM   43  C29 UNL     1      -0.230  54.572 -26.539  1.00  0.00     0.084 C 
HETATM   44  C30 UNL     1       0.247  53.161 -26.838  1.00  0.00     0.022 C 
HETATM   45  C32 UNL     1       1.043  50.989 -25.979  1.00  0.00     0.020 C 
HETATM   46  C34 UNL     1      -2.071  51.073 -26.549  1.00  0.00     0.007 C 
HETATM   47  C35 UNL     1      -3.505  50.611 -26.224  1.00  0.00     0.013 C 
HETATM   48  C37 UNL     1      -2.848  48.349 -25.329  1.00  0.00     0.019 C 
BRANCH  29  49
HETATM   49  O7  UNL     1      -5.727  50.631 -24.360  1.00  0.00    -0.381 OA
HETATM   50  H20 UNL     1      -6.525  50.476 -23.821  1.00  0.00     0.211 HD
ENDBRANCH  29  49
ENDBRANCH  27  29
ENDBRANCH  26  27
ENDBRANCH   1  26
TORSDOF 13
ENDMDL
MODEL 4
REMARK minimizedAffinity -9.39426899
REMARK CNNscore 0.398068726
REMARK CNNaffinity 6.64661169
REMARK  13 active torsions:
REMARK  status: ('A' for Active; 'I' for Inactive)
REMARK    1  A    between atoms: O1_2  and  C2_3 
REMARK    2  A    between atoms: C2_3  and  C3_5 
REMARK    3  A    between atoms: C3_5  and  C4_6 
REMARK    4  A    between atoms: C3_5  and  N2_16 
REMARK    5  A    between atoms: C4_6  and  C5_7 
REMARK       I    between atoms: N2_16  and  C13_17 
REMARK    6  A    between atoms: C13_17  and  C14_19 
REMARK    7  A    between atoms: C14_19  and  C15_20 
REMARK    8  A    between atoms: C15_20  and  C16_21 
REMARK    9  A    between atoms: C16_21  and  O5_23 
REMARK   10  A    between atoms: O5_23  and  C17_24 
REMARK   11  A    between atoms: C17_24  and  C18_25 
REMARK   12  A    between atoms: C18_25  and  C19_27 
REMARK   13  A    between atoms: C19_27  and  O7_28 
ROOT
HETATM    1  O5  UNL     1      -8.611  49.165 -24.875  1.00  0.00    -0.314 OA
ENDROOT
BRANCH   1   2
HETATM    2  C16 UNL     1      -7.721  49.073 -23.847  1.00  0.00     0.259 C 
HETATM    3  O4  UNL     1      -7.690  49.818 -22.881  1.00  0.00    -0.265 OA
BRANCH   2   4
HETATM    4  C15 UNL     1      -6.755  47.942 -24.086  1.00  0.00     0.120 C 
BRANCH   4   5
HETATM    5  C14 UNL     1      -5.751  48.290 -25.175  1.00  0.00     0.112 C 
BRANCH   5   6
HETATM    6  C13 UNL     1      -4.529  48.951 -24.573  1.00  0.00     0.218 C 
HETATM    7  N2  UNL     1      -4.486  50.316 -24.739  1.00  0.00    -0.347 N 
HETATM    8  H13 UNL     1      -5.015  50.706 -25.508  1.00  0.00     0.163 HD
HETATM    9  O3  UNL     1      -3.663  48.314 -23.985  1.00  0.00    -0.274 OA
BRANCH   7  10
HETATM   10  C3  UNL     1      -3.271  51.050 -24.360  1.00  0.00     0.188 C 
BRANCH  10  11
HETATM   11  C2  UNL     1      -3.221  51.118 -22.833  1.00  0.00     0.281 C 
HETATM   12  O2  UNL     1      -2.284  50.707 -22.155  1.00  0.00    -0.263 OA
BRANCH  11  13
HETATM   13  O1  UNL     1      -4.328  51.742 -22.343  1.00  0.00    -0.325 OA
HETATM   14  C1  UNL     1      -4.860  51.150 -21.158  1.00  0.00     0.213 C 
ENDBRANCH  11  13
ENDBRANCH  10  11
BRANCH  10  15
HETATM   15  C4  UNL     1      -1.993  50.349 -24.836  1.00  0.00     0.076 C 
BRANCH  15  16
HETATM   16  C5  UNL     1      -1.454  50.893 -26.125  1.00  0.00    -0.028 A 
HETATM   17  C6  UNL     1      -2.198  51.250 -27.236  1.00  0.00     0.096 A 
HETATM   18  N1  UNL     1      -1.337  51.693 -28.203  1.00  0.00    -0.365 N 
HETATM   19  C7  UNL     1      -0.039  51.632 -27.753  1.00  0.00     0.042 A 
HETATM   20  H8  UNL     1      -1.608  52.016 -29.121  1.00  0.00     0.165 HD
HETATM   21  C8  UNL     1       1.154  51.983 -28.396  1.00  0.00     0.030 A 
HETATM   22  C12 UNL     1      -0.078  51.129 -26.452  1.00  0.00    -0.002 A 
HETATM   23  C9  UNL     1       2.346  51.816 -27.687  1.00  0.00     0.002 A 
HETATM   24  C10 UNL     1       2.342  51.313 -26.389  1.00  0.00     0.001 A 
HETATM   25  C11 UNL     1       1.140  50.963 -25.761  1.00  0.00     0.014 A 
ENDBRANCH  15  16
ENDBRANCH  10  15
ENDBRANCH   7  10
ENDBRANCH   5   6
ENDBRANCH   4   5
ENDBRANCH   2   4
ENDBRANCH   1   2
BRANCH   1  26
HETATM   26  C17 UNL     1      -9.494  48.047 -24.965  1.00  0.00     0.260 C 
BRANCH  26  27
HETATM   27  C18 UNL     1      -9.664  47.685 -26.432  1.00  0.00     0.185 C 
HETATM   28  O6  UNL     1      -8.684  47.398 -27.126  1.00  0.00    -0.292 OA
BRANCH  27  29
HETATM   29  C19 UNL     1     -11.104  47.688 -27.002  1.00  0.00     0.128 C 
HETATM   30  C20 UNL     1     -11.140  47.379 -28.528  1.00  0.00     0.047 C 
HETATM   31  C21 UNL     1     -12.400  46.528 -28.778  1.00  0.00     0.009 C 
HETATM   32  C22 UNL     1     -13.158  46.569 -27.457  1.00  0.00     0.002 C 
HETATM   33  C23 UNL     1     -14.227  45.501 -27.195  1.00  0.00    -0.004 C 
HETATM   34  C36 UNL     1     -12.028  46.583 -26.397  1.00  0.00    -0.002 C 
HETATM   35  C24 UNL     1     -15.282  45.467 -28.319  1.00  0.00     0.010 C 
HETATM   36  C33 UNL     1     -14.882  45.782 -25.796  1.00  0.00     0.002 C 
HETATM   37  C25 UNL     1     -16.446  44.524 -28.008  1.00  0.00     0.035 C 
HETATM   38  C26 UNL     1     -17.013  44.875 -26.654  1.00  0.00    -0.068 C 
HETATM   39  C27 UNL     1     -18.250  45.392 -26.558  1.00  0.00     0.053 C 
HETATM   40  C31 UNL     1     -16.033  44.762 -25.480  1.00  0.00    -0.016 C 
HETATM   41  C28 UNL     1     -18.726  46.021 -25.301  1.00  0.00     0.149 C 
HETATM   42  O8  UNL     1     -19.882  46.433 -25.228  1.00  0.00    -0.293 OA
HETATM   43  C29 UNL     1     -17.719  46.233 -24.200  1.00  0.00     0.084 C 
HETATM   44  C30 UNL     1     -16.772  45.047 -24.140  1.00  0.00     0.022 C 
HETATM   45  C32 UNL     1     -15.501  43.312 -25.351  1.00  0.00     0.020 C 
HETATM   46  C34 UNL     1     -13.809  45.906 -24.687  1.00  0.00     0.007 C 
HETATM   47  C35 UNL     1     -12.682  46.897 -25.039  1.00  0.00     0.013 C 
HETATM   48  C37 UNL     1     -11.265  45.234 -26.297  1.00  0.00     0.019 C 
BRANCH  29  49
HETATM   49  O7  UNL     1     -11.705  48.972 -26.815  1.00  0.00    -0.381 OA
HETATM   50  H20 UNL     1     -11.205  49.618 -27.348  1.00  0.00     0.211 HD
ENDBRANCH  29  49
ENDBRANCH  27  29
ENDBRANCH  26  27
ENDBRANCH   1  26
TORSDOF 13
ENDMDL
MODEL 5
REMARK minimizedAffinity -9.25020981
REMARK CNNscore 0.384167284
REMARK CNNaffinity 6.54372978
REMARK  13 active torsions:
REMARK  status: ('A' for Active; 'I' for Inactive)
REMARK    1  A    between atoms: O1_2  and  C2_3 
REMARK    2  A    between atoms: C2_3  and  C3_5 
REMARK    3  A    between atoms: C3_5  and  C4_6 
REMARK    4  A    between atoms: C3_5  and  N2_16 
REMARK    5  A    between atoms: C4_6  and  C5_7 
REMARK       I    between atoms: N2_16  and  C13_17 
REMARK    6  A    between atoms: C13_17  and  C14_19 
REMARK    7  A    between atoms: C14_19  and  C15_20 
REMARK    8  A    between atoms: C15_20  and  C16_21 
REMARK    9  A    between atoms: C16_21  and  O5_23 
REMARK   10  A    between atoms: O5_23  and  C17_24 
REMARK   11  A    between atoms: C17_24  and  C18_25 
REMARK   12  A    between atoms: C18_25  and  C19_27 
REMARK   13  A    between atoms: C19_27  and  O7_28 
ROOT
HETATM    1  O5  UNL     1      -8.108  47.199 -28.725  1.00  0.00    -0.314 OA
ENDROOT
BRANCH   1   2
HETATM    2  C16 UNL     1      -6.958  47.839 -29.079  1.00  0.00     0.259 C 
HETATM    3  O4  UNL     1      -6.709  48.261 -30.196  1.00  0.00    -0.265 OA
BRANCH   2   4
HETATM    4  C15 UNL     1      -6.020  47.924 -27.903  1.00  0.00     0.120 C 
BRANCH   4   5
HETATM    5  C14 UNL     1      -4.578  48.104 -28.355  1.00  0.00     0.112 C 
BRANCH   5   6
HETATM    6  C13 UNL     1      -3.888  49.154 -27.510  1.00  0.00     0.218 C 
HETATM    7  N2  UNL     1      -4.247  49.136 -26.182  1.00  0.00    -0.347 N 
HETATM    8  H13 UNL     1      -5.144  48.728 -25.951  1.00  0.00     0.163 HD
HETATM    9  O3  UNL     1      -3.074  49.941 -27.980  1.00  0.00    -0.274 OA
BRANCH   7  10
HETATM   10  C3  UNL     1      -3.787  50.214 -25.297  1.00  0.00     0.188 C 
BRANCH  10  11
HETATM   11  C2  UNL     1      -4.916  50.530 -24.316  1.00  0.00     0.281 C 
HETATM   12  O2  UNL     1      -5.080  51.623 -23.782  1.00  0.00    -0.263 OA
BRANCH  11  13
HETATM   13  O1  UNL     1      -5.737  49.452 -24.164  1.00  0.00    -0.325 OA
HETATM   14  C1  UNL     1      -5.710  48.874 -22.859  1.00  0.00     0.213 C 
ENDBRANCH  11  13
ENDBRANCH  10  11
BRANCH  10  15
HETATM   15  C4  UNL     1      -2.557  49.810 -24.476  1.00  0.00     0.076 C 
BRANCH  15  16
HETATM   16  C5  UNL     1      -1.587  50.932 -24.255  1.00  0.00    -0.028 A 
HETATM   17  C6  UNL     1      -1.184  51.861 -25.197  1.00  0.00     0.096 A 
HETATM   18  N1  UNL     1      -0.290  52.711 -24.605  1.00  0.00    -0.365 N 
HETATM   19  C7  UNL     1      -0.092  52.358 -23.291  1.00  0.00     0.042 A 
HETATM   20  H8  UNL     1       0.169  53.486 -25.064  1.00  0.00     0.165 HD
HETATM   21  C8  UNL     1       0.726  52.942 -22.316  1.00  0.00     0.030 A 
HETATM   22  C12 UNL     1      -0.890  51.241 -23.041  1.00  0.00    -0.002 A 
HETATM   23  C9  UNL     1       0.727  52.366 -21.043  1.00  0.00     0.002 A 
HETATM   24  C10 UNL     1      -0.054  51.248 -20.761  1.00  0.00     0.001 A 
HETATM   25  C11 UNL     1      -0.863  50.675 -21.750  1.00  0.00     0.014 A 
ENDBRANCH  15  16
ENDBRANCH  10  15
ENDBRANCH   7  10
ENDBRANCH   5   6
ENDBRANCH   4   5
ENDBRANCH   2   4
ENDBRANCH   1   2
BRANCH   1  26
HETATM   26  C17 UNL     1      -9.290  47.928 -29.052  1.00  0.00     0.260 C 
BRANCH  26  27
HETATM   27  C18 UNL     1     -10.274  47.793 -27.901  1.00  0.00     0.185 C 
HETATM   28  O6  UNL     1      -9.885  47.868 -26.731  1.00  0.00    -0.292 OA
BRANCH  27  29
HETATM   29  C19 UNL     1     -11.763  47.568 -28.260  1.00  0.00     0.128 C 
HETATM   30  C20 UNL     1     -11.942  46.811 -29.609  1.00  0.00     0.047 C 
HETATM   31  C21 UNL     1     -13.155  45.877 -29.436  1.00  0.00     0.009 C 
HETATM   32  C22 UNL     1     -13.765  46.287 -28.102  1.00  0.00     0.002 C 
HETATM   33  C23 UNL     1     -14.717  45.308 -27.403  1.00  0.00    -0.004 C 
HETATM   34  C36 UNL     1     -12.531  46.664 -27.244  1.00  0.00    -0.002 C 
HETATM   35  C24 UNL     1     -15.882  44.895 -28.324  1.00  0.00     0.010 C 
HETATM   36  C33 UNL     1     -15.235  45.974 -26.078  1.00  0.00     0.002 C 
HETATM   37  C25 UNL     1     -16.933  44.047 -27.604  1.00  0.00     0.035 C 
HETATM   38  C26 UNL     1     -17.374  44.769 -26.355  1.00  0.00    -0.068 C 
HETATM   39  C27 UNL     1     -18.628  45.243 -26.260  1.00  0.00     0.053 C 
HETATM   40  C31 UNL     1     -16.266  45.053 -25.333  1.00  0.00    -0.016 C 
HETATM   41  C28 UNL     1     -19.010  46.204 -25.197  1.00  0.00     0.149 C 
HETATM   42  O8  UNL     1     -20.178  46.574 -25.103  1.00  0.00    -0.293 OA
HETATM   43  C29 UNL     1     -17.907  46.777 -24.343  1.00  0.00     0.084 C 
HETATM   44  C30 UNL     1     -16.874  45.702 -24.055  1.00  0.00     0.022 C 
HETATM   45  C32 UNL     1     -15.617  43.732 -24.849  1.00  0.00     0.020 C 
HETATM   46  C34 UNL     1     -14.060  46.468 -25.200  1.00  0.00     0.007 C 
HETATM   47  C35 UNL     1     -13.055  47.348 -25.969  1.00  0.00     0.013 C 
HETATM   48  C37 UNL     1     -11.663  45.439 -26.847  1.00  0.00     0.019 C 
BRANCH  29  49
HETATM   49  O7  UNL     1     -12.434  48.825 -28.387  1.00  0.00    -0.381 OA
HETATM   50  H20 UNL     1     -12.044  49.298 -29.145  1.00  0.00     0.211 HD
ENDBRANCH  29  49
ENDBRANCH  27  29
ENDBRANCH  26  27
ENDBRANCH   1  26
TORSDOF 13
ENDMDL
MODEL 6
REMARK minimizedAffinity -9.13953114
REMARK CNNscore 0.382167637
REMARK CNNaffinity 6.55988121
REMARK  13 active torsions:
REMARK  status: ('A' for Active; 'I' for Inactive)
REMARK    1  A    between atoms: O1_2  and  C2_3 
REMARK    2  A    between atoms: C2_3  and  C3_5 
REMARK    3  A    between atoms: C3_5  and  C4_6 
REMARK    4  A    between atoms: C3_5  and  N2_16 
REMARK    5  A    between atoms: C4_6  and  C5_7 
REMARK       I    between atoms: N2_16  and  C13_17 
REMARK    6  A    between atoms: C13_17  and  C14_19 
REMARK    7  A    between atoms: C14_19  and  C15_20 
REMARK    8  A    between atoms: C15_20  and  C16_21 
REMARK    9  A    between atoms: C16_21  and  O5_23 
REMARK   10  A    between atoms: O5_23  and  C17_24 
REMARK   11  A    between atoms: C17_24  and  C18_25 
REMARK   12  A    between atoms: C18_25  and  C19_27 
REMARK   13  A    between atoms: C19_27  and  O7_28 
ROOT
HETATM    1  O5  UNL     1      -7.213  47.677 -26.328  1.00  0.00    -0.314 OA
ENDROOT
BRANCH   1   2
HETATM    2  C16 UNL     1      -6.058  47.730 -27.049  1.00  0.00     0.259 C 
HETATM    3  O4  UNL     1      -5.954  47.418 -28.224  1.00  0.00    -0.265 OA
BRANCH   2   4
HETATM    4  C15 UNL     1      -4.918  48.196 -26.183  1.00  0.00     0.120 C 
BRANCH   4   5
HETATM    5  C14 UNL     1      -5.420  48.781 -24.871  1.00  0.00     0.112 C 
BRANCH   5   6
HETATM    6  C13 UNL     1      -4.371  49.688 -24.262  1.00  0.00     0.218 C 
HETATM    7  N2  UNL     1      -4.133  49.459 -22.927  1.00  0.00    -0.347 N 
HETATM    8  H13 UNL     1      -4.870  49.015 -22.394  1.00  0.00     0.163 HD
HETATM    9  O3  UNL     1      -3.787  50.544 -24.917  1.00  0.00    -0.274 OA
BRANCH   7  10
HETATM   10  C3  UNL     1      -3.272  50.386 -22.180  1.00  0.00     0.188 C 
BRANCH  10  11
HETATM   11  C2  UNL     1      -3.703  50.347 -20.713  1.00  0.00     0.281 C 
HETATM   12  O2  UNL     1      -3.779  51.335 -19.990  1.00  0.00    -0.263 OA
BRANCH  11  13
HETATM   13  O1  UNL     1      -4.040  49.079 -20.345  1.00  0.00    -0.325 OA
HETATM   14  C1  UNL     1      -4.508  48.963 -19.001  1.00  0.00     0.213 C 
ENDBRANCH  11  13
ENDBRANCH  10  11
BRANCH  10  15
HETATM   15  C4  UNL     1      -1.793  49.989 -22.241  1.00  0.00     0.076 C 
BRANCH  15  16
HETATM   16  C5  UNL     1      -0.878  51.130 -22.569  1.00  0.00    -0.028 A 
HETATM   17  C6  UNL     1      -0.494  51.531 -23.836  1.00  0.00     0.096 A 
HETATM   18  N1  UNL     1       0.350  52.601 -23.710  1.00  0.00    -0.365 N 
HETATM   19  C7  UNL     1       0.533  52.912 -22.383  1.00  0.00     0.042 A 
HETATM   20  H8  UNL     1       0.785  53.094 -24.477  1.00  0.00     0.165 HD
HETATM   21  C8  UNL     1       1.303  53.921 -21.793  1.00  0.00     0.030 A 
HETATM   22  C12 UNL     1      -0.222  52.003 -21.640  1.00  0.00    -0.002 A 
HETATM   23  C9  UNL     1       1.300  54.006 -20.398  1.00  0.00     0.002 A 
HETATM   24  C10 UNL     1       0.561  53.113 -19.628  1.00  0.00     0.001 A 
HETATM   25  C11 UNL     1      -0.200  52.106 -20.234  1.00  0.00     0.014 A 
ENDBRANCH  15  16
ENDBRANCH  10  15
ENDBRANCH   7  10
ENDBRANCH   5   6
ENDBRANCH   4   5
ENDBRANCH   2   4
ENDBRANCH   1   2
BRANCH   1  26
HETATM   26  C17 UNL     1      -8.390  47.657 -27.136  1.00  0.00     0.260 C 
BRANCH  26  27
HETATM   27  C18 UNL     1      -9.581  48.019 -26.264  1.00  0.00     0.185 C 
HETATM   28  O6  UNL     1      -9.416  48.364 -25.089  1.00  0.00    -0.292 OA
BRANCH  27  29
HETATM   29  C19 UNL     1     -10.986  47.944 -26.911  1.00  0.00     0.128 C 
HETATM   30  C20 UNL     1     -10.921  47.715 -28.449  1.00  0.00     0.047 C 
HETATM   31  C21 UNL     1     -12.097  46.787 -28.809  1.00  0.00     0.009 C 
HETATM   32  C22 UNL     1     -12.921  46.701 -27.531  1.00  0.00     0.002 C 
HETATM   33  C23 UNL     1     -13.916  45.543 -27.379  1.00  0.00    -0.004 C 
HETATM   34  C36 UNL     1     -11.850  46.743 -26.411  1.00  0.00    -0.002 C 
HETATM   35  C24 UNL     1     -14.907  45.490 -28.559  1.00  0.00     0.010 C 
HETATM   36  C33 UNL     1     -14.660  45.700 -26.006  1.00  0.00     0.002 C 
HETATM   37  C25 UNL     1     -16.009  44.447 -28.359  1.00  0.00     0.035 C 
HETATM   38  C26 UNL     1     -16.669  44.682 -27.022  1.00  0.00    -0.068 C 
HETATM   39  C27 UNL     1     -17.946  45.100 -26.968  1.00  0.00     0.053 C 
HETATM   40  C31 UNL     1     -15.743  44.581 -25.804  1.00  0.00    -0.016 C 
HETATM   41  C28 UNL     1     -18.531  45.624 -25.709  1.00  0.00     0.149 C 
HETATM   42  O8  UNL     1     -19.718  45.943 -25.679  1.00  0.00    -0.293 OA
HETATM   43  C29 UNL     1     -17.600  45.851 -24.546  1.00  0.00     0.084 C 
HETATM   44  C30 UNL     1     -16.568  44.738 -24.493  1.00  0.00     0.022 C 
HETATM   45  C32 UNL     1     -15.107  43.170 -25.717  1.00  0.00     0.020 C 
HETATM   46  C34 UNL     1     -13.657  45.844 -24.836  1.00  0.00     0.007 C 
HETATM   47  C35 UNL     1     -12.594  46.934 -25.077  1.00  0.00     0.013 C 
HETATM   48  C37 UNL     1     -10.991  45.452 -26.336  1.00  0.00     0.019 C 
BRANCH  29  49
HETATM   49  O7  UNL     1     -11.693  49.168 -26.693  1.00  0.00    -0.381 OA
HETATM   50  H20 UNL     1     -11.218  49.877 -27.166  1.00  0.00     0.211 HD
ENDBRANCH  29  49
ENDBRANCH  27  29
ENDBRANCH  26  27
ENDBRANCH   1  26
TORSDOF 13
ENDMDL
MODEL 7
REMARK minimizedAffinity -9.59561062
REMARK CNNscore 0.35254252
REMARK CNNaffinity 6.67063093
REMARK  13 active torsions:
REMARK  status: ('A' for Active; 'I' for Inactive)
REMARK    1  A    between atoms: O1_2  and  C2_3 
REMARK    2  A    between atoms: C2_3  and  C3_5 
REMARK    3  A    between atoms: C3_5  and  C4_6 
REMARK    4  A    between atoms: C3_5  and  N2_16 
REMARK    5  A    between atoms: C4_6  and  C5_7 
REMARK       I    between atoms: N2_16  and  C13_17 
REMARK    6  A    between atoms: C13_17  and  C14_19 
REMARK    7  A    between atoms: C14_19  and  C15_20 
REMARK    8  A    between atoms: C15_20  and  C16_21 
REMARK    9  A    between atoms: C16_21  and  O5_23 
REMARK   10  A    between atoms: O5_23  and  C17_24 
REMARK   11  A    between atoms: C17_24  and  C18_25 
REMARK   12  A    between atoms: C18_25  and  C19_27 
REMARK   13  A    between atoms: C19_27  and  O7_28 
ROOT
HETATM    1  O5  UNL     1      -4.231  48.342 -28.674  1.00  0.00    -0.314 OA
ENDROOT
BRANCH   1   2
HETATM    2  C16 UNL     1      -4.398  48.274 -27.323  1.00  0.00     0.259 C 
HETATM    3  O4  UNL     1      -5.457  48.049 -26.761  1.00  0.00    -0.265 OA
BRANCH   2   4
HETATM    4  C15 UNL     1      -3.096  48.551 -26.617  1.00  0.00     0.120 C 
BRANCH   4   5
HETATM    5  C14 UNL     1      -3.244  48.418 -25.108  1.00  0.00     0.112 C 
BRANCH   5   6
HETATM    6  C13 UNL     1      -3.306  49.786 -24.462  1.00  0.00     0.218 C 
HETATM    7  N2  UNL     1      -2.076  50.325 -24.161  1.00  0.00    -0.347 N 
HETATM    8  H13 UNL     1      -1.306  49.680 -24.040  1.00  0.00     0.163 HD
HETATM    9  O3  UNL     1      -4.367  50.357 -24.239  1.00  0.00    -0.274 OA
BRANCH   7  10
HETATM   10  C3  UNL     1      -2.006  51.562 -23.371  1.00  0.00     0.188 C 
BRANCH  10  11
HETATM   11  C2  UNL     1      -0.812  51.445 -22.423  1.00  0.00     0.281 C 
HETATM   12  O2  UNL     1      -0.006  52.347 -22.216  1.00  0.00    -0.263 OA
BRANCH  11  13
HETATM   13  O1  UNL     1      -0.805  50.230 -21.806  1.00  0.00    -0.325 OA
HETATM   14  C1  UNL     1      -0.273  50.248 -20.481  1.00  0.00     0.213 C 
ENDBRANCH  11  13
ENDBRANCH  10  11
BRANCH  10  15
HETATM   15  C4  UNL     1      -1.786  52.801 -24.246  1.00  0.00     0.076 C 
BRANCH  15  16
HETATM   16  C5  UNL     1      -1.415  52.479 -25.662  1.00  0.00    -0.028 A 
HETATM   17  C6  UNL     1      -2.281  52.412 -26.739  1.00  0.00     0.096 A 
HETATM   18  N1  UNL     1      -1.556  52.084 -27.852  1.00  0.00    -0.365 N 
HETATM   19  C7  UNL     1      -0.229  51.930 -27.530  1.00  0.00     0.042 A 
HETATM   20  H8  UNL     1      -1.936  51.965 -28.781  1.00  0.00     0.165 HD
HETATM   21  C8  UNL     1       0.862  51.603 -28.344  1.00  0.00     0.030 A 
HETATM   22  C12 UNL     1      -0.107  52.167 -26.160  1.00  0.00    -0.002 A 
HETATM   23  C9  UNL     1       2.119  51.516 -27.739  1.00  0.00     0.002 A 
HETATM   24  C10 UNL     1       2.274  51.743 -26.374  1.00  0.00     0.001 A 
HETATM   25  C11 UNL     1       1.171  52.065 -25.574  1.00  0.00     0.014 A 
ENDBRANCH  15  16
ENDBRANCH  10  15
ENDBRANCH   7  10
ENDBRANCH   5   6
ENDBRANCH   4   5
ENDBRANCH   2   4
ENDBRANCH   1   2
BRANCH   1  26
HETATM   26  C17 UNL     1      -5.306  47.760 -29.411  1.00  0.00     0.260 C 
BRANCH  26  27
HETATM   27  C18 UNL     1      -5.242  48.270 -30.841  1.00  0.00     0.185 C 
HETATM   28  O6  UNL     1      -4.921  49.440 -31.077  1.00  0.00    -0.292 OA
BRANCH  27  29
HETATM   29  C19 UNL     1      -5.585  47.268 -31.970  1.00  0.00     0.128 C 
HETATM   30  C20 UNL     1      -4.757  45.953 -31.870  1.00  0.00     0.047 C 
HETATM   31  C21 UNL     1      -5.692  44.806 -32.299  1.00  0.00     0.009 C 
HETATM   32  C22 UNL     1      -6.931  45.507 -32.843  1.00  0.00     0.002 C 
HETATM   33  C23 UNL     1      -8.232  44.703 -32.963  1.00  0.00    -0.004 C 
HETATM   34  C36 UNL     1      -7.061  46.758 -31.938  1.00  0.00    -0.002 C 
HETATM   35  C24 UNL     1      -8.033  43.423 -33.799  1.00  0.00     0.010 C 
HETATM   36  C33 UNL     1      -9.339  45.630 -33.579  1.00  0.00     0.002 C 
HETATM   37  C25 UNL     1      -9.345  42.684 -34.070  1.00  0.00     0.035 C 
HETATM   38  C26 UNL     1     -10.339  43.650 -34.666  1.00  0.00    -0.068 C 
HETATM   39  C27 UNL     1     -10.741  43.500 -35.940  1.00  0.00     0.053 C 
HETATM   40  C31 UNL     1     -10.690  44.858 -33.789  1.00  0.00    -0.016 C 
HETATM   41  C28 UNL     1     -11.470  44.579 -36.649  1.00  0.00     0.149 C 
HETATM   42  O8  UNL     1     -11.874  44.388 -37.794  1.00  0.00    -0.293 OA
HETATM   43  C29 UNL     1     -11.581  45.916 -35.963  1.00  0.00     0.084 C 
HETATM   44  C30 UNL     1     -11.797  45.711 -34.475  1.00  0.00     0.022 C 
HETATM   45  C32 UNL     1     -11.307  44.396 -32.444  1.00  0.00     0.020 C 
HETATM   46  C34 UNL     1      -9.469  46.953 -32.786  1.00  0.00     0.007 C 
HETATM   47  C35 UNL     1      -8.122  47.672 -32.577  1.00  0.00     0.013 C 
HETATM   48  C37 UNL     1      -7.487  46.421 -30.484  1.00  0.00     0.019 C 
BRANCH  29  49
HETATM   49  O7  UNL     1      -5.305  47.850 -33.246  1.00  0.00    -0.381 OA
HETATM   50  H20 UNL     1      -4.343  47.998 -33.303  1.00  0.00     0.211 HD
ENDBRANCH  29  49
ENDBRANCH  27  29
ENDBRANCH  26  27
ENDBRANCH   1  26
TORSDOF 13
ENDMDL
MODEL 8
REMARK minimizedAffinity -8.35433769
REMARK CNNscore 0.324765533
REMARK CNNaffinity 5.97664976
REMARK  13 active torsions:
REMARK  status: ('A' for Active; 'I' for Inactive)
REMARK    1  A    between atoms: O1_2  and  C2_3 
REMARK    2  A    between atoms: C2_3  and  C3_5 
REMARK    3  A    between atoms: C3_5  and  C4_6 
REMARK    4  A    between atoms: C3_5  and  N2_16 
REMARK    5  A    between atoms: C4_6  and  C5_7 
REMARK       I    between atoms: N2_16  and  C13_17 
REMARK    6  A    between atoms: C13_17  and  C14_19 
REMARK    7  A    between atoms: C14_19  and  C15_20 
REMARK    8  A    between atoms: C15_20  and  C16_21 
REMARK    9  A    between atoms: C16_21  and  O5_23 
REMARK   10  A    between atoms: O5_23  and  C17_24 
REMARK   11  A    between atoms: C17_24  and  C18_25 
REMARK   12  A    between atoms: C18_25  and  C19_27 
REMARK   13  A    between atoms: C19_27  and  O7_28 
ROOT
HETATM    1  O5  UNL     1      -9.224  47.197 -21.652  1.00  0.00    -0.314 OA
ENDROOT
BRANCH   1   2
HETATM    2  C16 UNL     1      -8.026  47.634 -21.170  1.00  0.00     0.259 C 
HETATM    3  O4  UNL     1      -7.422  47.129 -20.238  1.00  0.00    -0.265 OA
BRANCH   2   4
HETATM    4  C15 UNL     1      -7.567  48.853 -21.927  1.00  0.00     0.120 C 
BRANCH   4   5
HETATM    5  C14 UNL     1      -6.313  49.452 -21.306  1.00  0.00     0.112 C 
BRANCH   5   6
HETATM    6  C13 UNL     1      -5.108  49.172 -22.178  1.00  0.00     0.218 C 
HETATM    7  N2  UNL     1      -4.148  50.157 -22.149  1.00  0.00    -0.347 N 
HETATM    8  H13 UNL     1      -4.447  51.087 -21.886  1.00  0.00     0.163 HD
HETATM    9  O3  UNL     1      -5.004  48.146 -22.841  1.00  0.00    -0.274 OA
BRANCH   7  10
HETATM   10  C3  UNL     1      -3.018  50.089 -23.085  1.00  0.00     0.188 C 
BRANCH  10  11
HETATM   11  C2  UNL     1      -2.826  51.480 -23.691  1.00  0.00     0.281 C 
HETATM   12  O2  UNL     1      -2.151  51.710 -24.689  1.00  0.00    -0.263 OA
BRANCH  11  13
HETATM   13  O1  UNL     1      -3.549  52.407 -23.002  1.00  0.00    -0.325 OA
HETATM   14  C1  UNL     1      -4.224  51.891 -21.855  1.00  0.00     0.213 C 
ENDBRANCH  11  13
ENDBRANCH  10  11
BRANCH  10  15
HETATM   15  C4  UNL     1      -1.707  49.699 -22.391  1.00  0.00     0.076 C 
BRANCH  15  16
HETATM   16  C5  UNL     1      -1.372  50.561 -21.212  1.00  0.00    -0.028 A 
HETATM   17  C6  UNL     1      -1.861  50.414 -19.926  1.00  0.00     0.096 A 
HETATM   18  N1  UNL     1      -1.321  51.400 -19.147  1.00  0.00    -0.365 N 
HETATM   19  C7  UNL     1      -0.488  52.199 -19.894  1.00  0.00     0.042 A 
HETATM   20  H8  UNL     1      -1.508  51.533 -18.163  1.00  0.00     0.165 HD
HETATM   21  C8  UNL     1       0.269  53.313 -19.515  1.00  0.00     0.030 A 
HETATM   22  C12 UNL     1      -0.502  51.701 -21.198  1.00  0.00    -0.002 A 
HETATM   23  C9  UNL     1       1.039  53.939 -20.499  1.00  0.00     0.002 A 
HETATM   24  C10 UNL     1       1.045  53.469 -21.809  1.00  0.00     0.001 A 
HETATM   25  C11 UNL     1       0.278  52.356 -22.173  1.00  0.00     0.014 A 
ENDBRANCH  15  16
ENDBRANCH  10  15
ENDBRANCH   7  10
ENDBRANCH   5   6
ENDBRANCH   4   5
ENDBRANCH   2   4
ENDBRANCH   1   2
BRANCH   1  26
HETATM   26  C17 UNL     1     -10.094  46.689 -20.641  1.00  0.00     0.260 C 
BRANCH  26  27
HETATM   27  C18 UNL     1     -11.502  46.615 -21.209  1.00  0.00     0.185 C 
HETATM   28  O6  UNL     1     -11.683  46.446 -22.419  1.00  0.00    -0.292 OA
BRANCH  27  29
HETATM   29  C19 UNL     1     -12.679  46.753 -20.212  1.00  0.00     0.128 C 
HETATM   30  C20 UNL     1     -12.840  48.208 -19.680  1.00  0.00     0.047 C 
HETATM   31  C21 UNL     1     -14.353  48.463 -19.541  1.00  0.00     0.009 C 
HETATM   32  C22 UNL     1     -14.994  47.101 -19.771  1.00  0.00     0.002 C 
HETATM   33  C23 UNL     1     -16.484  47.045 -20.131  1.00  0.00    -0.004 C 
HETATM   34  C36 UNL     1     -14.078  46.449 -20.838  1.00  0.00    -0.002 C 
HETATM   35  C24 UNL     1     -17.348  47.780 -19.086  1.00  0.00     0.010 C 
HETATM   36  C33 UNL     1     -16.908  45.540 -20.277  1.00  0.00     0.002 C 
HETATM   37  C25 UNL     1     -18.848  47.606 -19.332  1.00  0.00     0.035 C 
HETATM   38  C26 UNL     1     -19.159  46.134 -19.450  1.00  0.00    -0.068 C 
HETATM   39  C27 UNL     1     -19.898  45.526 -18.506  1.00  0.00     0.053 C 
HETATM   40  C31 UNL     1     -18.440  45.399 -20.588  1.00  0.00    -0.016 C 
HETATM   41  C28 UNL     1     -19.975  44.047 -18.423  1.00  0.00     0.149 C 
HETATM   42  O8  UNL     1     -20.706  43.523 -17.585  1.00  0.00    -0.293 OA
HETATM   43  C29 UNL     1     -19.051  43.248 -19.306  1.00  0.00     0.084 C 
HETATM   44  C30 UNL     1     -18.930  43.923 -20.661  1.00  0.00     0.022 C 
HETATM   45  C32 UNL     1     -18.812  46.018 -21.959  1.00  0.00     0.020 C 
HETATM   46  C34 UNL     1     -15.979  44.787 -21.260  1.00  0.00     0.007 C 
HETATM   47  C35 UNL     1     -14.482  44.968 -20.941  1.00  0.00     0.013 C 
HETATM   48  C37 UNL     1     -14.201  47.111 -22.237  1.00  0.00     0.019 C 
BRANCH  29  49
HETATM   49  O7  UNL     1     -12.465  45.907 -19.079  1.00  0.00    -0.381 OA
HETATM   50  H20 UNL     1     -11.676  46.232 -18.608  1.00  0.00     0.211 HD
ENDBRANCH  29  49
ENDBRANCH  27  29
ENDBRANCH  26  27
ENDBRANCH   1  26
TORSDOF 13
ENDMDL
MODEL 9
REMARK minimizedAffinity -8.63092613
REMARK CNNscore 0.291698575
REMARK CNNaffinity 6.69096231
REMARK  13 active torsions:
REMARK  status: ('A' for Active; 'I' for Inactive)
REMARK    1  A    between atoms: O1_2  and  C2_3 
REMARK    2  A    between atoms: C2_3  and  C3_5 
REMARK    3  A    between atoms: C3_5  and  C4_6 
REMARK    4  A    between atoms: C3_5  and  N2_16 
REMARK    5  A    between atoms: C4_6  and  C5_7 
REMARK       I    between atoms: N2_16  and  C13_17 
REMARK    6  A    between atoms: C13_17  and  C14_19 
REMARK    7  A    between atoms: C14_19  and  C15_20 
REMARK    8  A    between atoms: C15_20  and  C16_21 
REMARK    9  A    between atoms: C16_21  and  O5_23 
REMARK   10  A    between atoms: O5_23  and  C17_24 
REMARK   11  A    between atoms: C17_24  and  C18_25 
REMARK   12  A    between atoms: C18_25  and  C19_27 
REMARK   13  A    between atoms: C19_27  and  O7_28 
ROOT
HETATM    1  O5  UNL     1      -1.355  50.543 -16.294  1.00  0.00    -0.314 OA
ENDROOT
BRANCH   1   2
HETATM    2  C16 UNL     1      -0.086  51.034 -16.237  1.00  0.00     0.259 C 
HETATM    3  O4  UNL     1       0.683  51.094 -17.182  1.00  0.00    -0.265 OA
BRANCH   2   4
HETATM    4  C15 UNL     1       0.250  51.464 -14.832  1.00  0.00     0.120 C 
BRANCH   4   5
HETATM    5  C14 UNL     1      -1.007  51.767 -14.029  1.00  0.00     0.112 C 
BRANCH   5   6
HETATM    6  C13 UNL     1      -0.643  52.212 -12.628  1.00  0.00     0.218 C 
HETATM    7  N2  UNL     1       0.620  52.744 -12.516  1.00  0.00    -0.347 N 
HETATM    8  H13 UNL     1       1.300  52.475 -13.215  1.00  0.00     0.163 HD
HETATM    9  O3  UNL     1      -1.420  52.108 -11.686  1.00  0.00    -0.274 OA
BRANCH   7  10
HETATM   10  C3  UNL     1       1.158  53.046 -11.182  1.00  0.00     0.188 C 
BRANCH  10  11
HETATM   11  C2  UNL     1       2.394  52.171 -10.966  1.00  0.00     0.281 C 
HETATM   12  O2  UNL     1       2.796  51.336 -11.770  1.00  0.00    -0.263 OA
BRANCH  11  13
HETATM   13  O1  UNL     1       3.007  52.489  -9.792  1.00  0.00    -0.325 OA
HETATM   14  C1  UNL     1       4.423  52.306  -9.802  1.00  0.00     0.213 C 
ENDBRANCH  11  13
ENDBRANCH  10  11
BRANCH  10  15
HETATM   15  C4  UNL     1       1.595  54.510 -11.046  1.00  0.00     0.076 C 
BRANCH  15  16
HETATM   16  C5  UNL     1       1.203  55.134  -9.741  1.00  0.00    -0.028 A 
HETATM   17  C6  UNL     1      -0.018  54.998  -9.104  1.00  0.00     0.096 A 
HETATM   18  N1  UNL     1       0.020  55.727  -7.946  1.00  0.00    -0.365 N 
HETATM   19  C7  UNL     1       1.241  56.344  -7.809  1.00  0.00     0.042 A 
HETATM   20  H8  UNL     1      -0.739  55.809  -7.284  1.00  0.00     0.165 HD
HETATM   21  C8  UNL     1       1.719  57.176  -6.789  1.00  0.00     0.030 A 
HETATM   22  C12 UNL     1       2.005  55.996  -8.923  1.00  0.00    -0.002 A 
HETATM   23  C9  UNL     1       3.021  57.667  -6.911  1.00  0.00     0.002 A 
HETATM   24  C10 UNL     1       3.809  57.342  -8.012  1.00  0.00     0.001 A 
HETATM   25  C11 UNL     1       3.314  56.511  -9.025  1.00  0.00     0.014 A 
ENDBRANCH  15  16
ENDBRANCH  10  15
ENDBRANCH   7  10
ENDBRANCH   5   6
ENDBRANCH   4   5
ENDBRANCH   2   4
ENDBRANCH   1   2
BRANCH   1  26
HETATM   26  C17 UNL     1      -1.421  49.181 -16.716  1.00  0.00     0.260 C 
BRANCH  26  27
HETATM   27  C18 UNL     1      -2.584  49.031 -17.683  1.00  0.00     0.185 C 
HETATM   28  O6  UNL     1      -3.744  49.229 -17.305  1.00  0.00    -0.292 OA
BRANCH  27  29
HETATM   29  C19 UNL     1      -2.250  48.632 -19.142  1.00  0.00     0.128 C 
HETATM   30  C20 UNL     1      -3.223  47.553 -19.701  1.00  0.00     0.047 C 
HETATM   31  C21 UNL     1      -3.454  47.891 -21.186  1.00  0.00     0.009 C 
HETATM   32  C22 UNL     1      -2.447  48.993 -21.488  1.00  0.00     0.002 C 
HETATM   33  C23 UNL     1      -2.669  49.867 -22.729  1.00  0.00    -0.004 C 
HETATM   34  C36 UNL     1      -2.394  49.802 -20.167  1.00  0.00    -0.002 C 
HETATM   35  C24 UNL     1      -2.802  49.014 -24.007  1.00  0.00     0.010 C 
HETATM   36  C33 UNL     1      -1.485  50.892 -22.838  1.00  0.00     0.002 C 
HETATM   37  C25 UNL     1      -2.865  49.861 -25.279  1.00  0.00     0.035 C 
HETATM   38  C26 UNL     1      -1.688  50.805 -25.299  1.00  0.00    -0.068 C 
HETATM   39  C27 UNL     1      -0.721  50.654 -26.220  1.00  0.00     0.053 C 
HETATM   40  C31 UNL     1      -1.611  51.787 -24.122  1.00  0.00    -0.016 C 
HETATM   41  C28 UNL     1       0.580  51.356 -26.093  1.00  0.00     0.149 C 
HETATM   42  O8  UNL     1       1.421  51.242 -26.982  1.00  0.00    -0.293 OA
HETATM   43  C29 UNL     1       0.855  52.093 -24.807  1.00  0.00     0.084 C 
HETATM   44  C30 UNL     1      -0.417  52.765 -24.322  1.00  0.00     0.022 C 
HETATM   45  C32 UNL     1      -2.872  52.687 -24.079  1.00  0.00     0.020 C 
HETATM   46  C34 UNL     1      -1.302  51.681 -21.519  1.00  0.00     0.007 C 
HETATM   47  C35 UNL     1      -1.206  50.774 -20.276  1.00  0.00     0.013 C 
HETATM   48  C37 UNL     1      -3.691  50.609 -19.890  1.00  0.00     0.019 C 
BRANCH  29  49
HETATM   49  O7  UNL     1      -0.929  48.090 -19.213  1.00  0.00    -0.381 OA
HETATM   50  H20 UNL     1      -0.917  47.261 -18.699  1.00  0.00     0.211 HD
ENDBRANCH  29  49
ENDBRANCH  27  29
ENDBRANCH  26  27
ENDBRANCH   1  26
TORSDOF 13
ENDMDL
