MODEL 1
REMARK minimizedAffinity -9.51127434
REMARK  8 active torsions:
REMARK  status: ('A' for Active; 'I' for Inactive)
REMARK    1  A    between atoms: C4_4  and  C5_5 
REMARK    2  A    between atoms: C5_5  and  C6_6 
REMARK    3  A    between atoms: C6_6  and  C7_7 
REMARK    4  A    between atoms: C7_7  and  C9_9 
REMARK    5  A    between atoms: C25_26  and  C27_28 
REMARK    6  A    between atoms: C27_28  and  O3_30 
REMARK    7  A    between atoms: C28_31  and  O4_32 
REMARK    8  A    between atoms: C30_34  and  O5_35 
ROOT
HETATM    1  C9  UNL     1      -2.452  48.468 -18.644  1.00  0.00    -0.002 C 
HETATM    2  C10 UNL     1      -3.419  47.497 -19.382  1.00  0.00     0.007 C 
HETATM    3  C11 UNL     1      -3.349  47.825 -20.882  1.00  0.00     0.015 C 
HETATM    4  C12 UNL     1      -2.093  48.703 -21.046  1.00  0.00    -0.005 C 
HETATM    5  C13 UNL     1      -0.872  47.733 -21.124  1.00  0.00     0.021 C 
HETATM    6  C14 UNL     1      -1.938  49.617 -22.259  1.00  0.00    -0.000 C 
HETATM    7  C15 UNL     1      -1.224  50.771 -22.185  1.00  0.00    -0.058 C 
HETATM    8  C16 UNL     1      -0.621  51.227 -20.846  1.00  0.00     0.036 C 
HETATM    9  C17 UNL     1      -0.879  50.347 -19.604  1.00  0.00     0.015 C 
HETATM   10  C18 UNL     1      -2.189  49.562 -19.725  1.00  0.00    -0.028 C 
HETATM   11  C19 UNL     1      -3.377  50.575 -19.738  1.00  0.00     0.016 C 
HETATM   12  C20 UNL     1      -1.008  51.735 -23.402  1.00  0.00     0.011 C 
HETATM   13  C21 UNL     1      -2.054  52.861 -23.224  1.00  0.00     0.023 C 
HETATM   14  C22 UNL     1      -1.195  50.921 -24.726  1.00  0.00     0.029 C 
HETATM   15  C23 UNL     1      -2.502  50.128 -24.731  1.00  0.00     0.090 C 
HETATM   16  C24 UNL     1      -2.571  49.194 -23.551  1.00  0.00     0.157 C 
HETATM   17  O1  UNL     1      -3.180  48.130 -23.652  1.00  0.00    -0.293 OA
HETATM   18  C25 UNL     1      -0.926  51.690 -26.076  1.00  0.00     0.072 C 
HETATM   19  C26 UNL     1      -0.228  50.689 -27.043  1.00  0.00     0.030 C 
HETATM   20  C28 UNL     1      -0.037  52.940 -25.862  1.00  0.00     0.139 C 
HETATM   21  C29 UNL     1       1.021  52.707 -24.787  1.00  0.00     0.065 C 
HETATM   22  C30 UNL     1       0.457  52.310 -23.417  1.00  0.00     0.133 C 
ENDROOT
BRANCH   1  23
HETATM   23  C7  UNL     1      -3.009  48.871 -17.247  1.00  0.00    -0.014 C 
HETATM   24  C8  UNL     1      -3.398  47.620 -16.437  1.00  0.00     0.010 C 
BRANCH  23  25
HETATM   25  C6  UNL     1      -2.085  49.769 -16.398  1.00  0.00     0.008 C 
BRANCH  25  26
HETATM   26  C5  UNL     1      -0.704  49.186 -16.080  1.00  0.00     0.028 C 
BRANCH  26  27
HETATM   27  C4  UNL     1       0.383  50.137 -16.510  1.00  0.00    -0.025 C 
HETATM   28  C2  UNL     1       0.895  51.183 -15.831  1.00  0.00    -0.091 C 
HETATM   29  C1  UNL     1       2.004  52.012 -16.433  1.00  0.00     0.042 C 
HETATM   30  C3  UNL     1       0.465  51.635 -14.465  1.00  0.00     0.042 C 
ENDBRANCH  26  27
ENDBRANCH  25  26
ENDBRANCH  23  25
ENDBRANCH   1  23
BRANCH  22  31
HETATM   31  O5  UNL     1       0.562  53.444 -22.549  1.00  0.00    -0.394 OA
HETATM   32  H46 UNL     1       1.509  53.612 -22.399  1.00  0.00     0.210 HD
ENDBRANCH  22  31
BRANCH  18  33
HETATM   33  C27 UNL     1      -2.211  52.141 -26.781  1.00  0.00     0.151 C 
HETATM   34  O2  UNL     1      -3.017  52.956 -26.357  1.00  0.00    -0.649 OA
BRANCH  33  35
HETATM   35  O3  UNL     1      -2.430  51.553 -27.964  1.00  0.00    -0.776 OA
HETATM   36  H40 UNL     1      -3.263  51.960 -28.285  1.00  0.00     0.167 HD
ENDBRANCH  33  35
ENDBRANCH  18  33
BRANCH  20  37
HETATM   37  O4  UNL     1       0.663  53.311 -27.055  1.00  0.00    -0.394 OA
HETATM   38  H42 UNL     1       0.007  53.561 -27.730  1.00  0.00     0.210 HD
ENDBRANCH  20  37
TORSDOF 8
ENDMDL
MODEL 2
REMARK minimizedAffinity -9.30895805
REMARK  8 active torsions:
REMARK  status: ('A' for Active; 'I' for Inactive)
REMARK    1  A    between atoms: C4_4  and  C5_5 
REMARK    2  A    between atoms: C5_5  and  C6_6 
REMARK    3  A    between atoms: C6_6  and  C7_7 
REMARK    4  A    between atoms: C7_7  and  C9_9 
REMARK    5  A    between atoms: C25_26  and  C27_28 
REMARK    6  A    between atoms: C27_28  and  O3_30 
REMARK    7  A    between atoms: C28_31  and  O4_32 
REMARK    8  A    between atoms: C30_34  and  O5_35 
ROOT
HETATM    1  C9  UNL     1      -0.528  51.437 -16.971  1.00  0.00    -0.002 C 
HETATM    2  C10 UNL     1       0.987  51.782 -17.059  1.00  0.00     0.007 C 
HETATM    3  C11 UNL     1       1.304  52.107 -18.528  1.00  0.00     0.015 C 
HETATM    4  C12 UNL     1      -0.067  52.318 -19.200  1.00  0.00    -0.005 C 
HETATM    5  C13 UNL     1      -0.501  53.784 -18.889  1.00  0.00     0.021 C 
HETATM    6  C14 UNL     1      -0.217  52.182 -20.713  1.00  0.00    -0.000 C 
HETATM    7  C15 UNL     1      -1.390  51.779 -21.271  1.00  0.00    -0.058 C 
HETATM    8  C16 UNL     1      -2.573  51.369 -20.380  1.00  0.00     0.036 C 
HETATM    9  C17 UNL     1      -2.370  51.407 -18.851  1.00  0.00     0.015 C 
HETATM   10  C18 UNL     1      -0.903  51.196 -18.466  1.00  0.00    -0.028 C 
HETATM   11  C19 UNL     1      -0.482  49.750 -18.879  1.00  0.00     0.016 C 
HETATM   12  C20 UNL     1      -1.612  51.647 -22.817  1.00  0.00     0.011 C 
HETATM   13  C21 UNL     1      -1.430  50.143 -23.131  1.00  0.00     0.023 C 
HETATM   14  C22 UNL     1      -0.578  52.563 -23.553  1.00  0.00     0.029 C 
HETATM   15  C23 UNL     1       0.851  52.320 -23.065  1.00  0.00     0.090 C 
HETATM   16  C24 UNL     1       0.957  52.534 -21.577  1.00  0.00     0.157 C 
HETATM   17  O1  UNL     1       2.011  52.947 -21.095  1.00  0.00    -0.293 OA
HETATM   18  C25 UNL     1      -0.694  52.647 -25.123  1.00  0.00     0.072 C 
HETATM   19  C26 UNL     1      -0.385  54.119 -25.527  1.00  0.00     0.030 C 
HETATM   20  C28 UNL     1      -2.103  52.237 -25.620  1.00  0.00     0.139 C 
HETATM   21  C29 UNL     1      -3.198  52.686 -24.657  1.00  0.00     0.065 C 
HETATM   22  C30 UNL     1      -3.046  52.149 -23.229  1.00  0.00     0.133 C 
ENDROOT
BRANCH   1  23
HETATM   23  C7  UNL     1      -0.797  50.329 -15.911  1.00  0.00    -0.014 C 
HETATM   24  C8  UNL     1       0.475  49.499 -15.659  1.00  0.00     0.010 C 
BRANCH  23  25
HETATM   25  C6  UNL     1      -1.366  50.825 -14.564  1.00  0.00     0.008 C 
BRANCH  25  26
HETATM   26  C5  UNL     1      -2.876  51.088 -14.539  1.00  0.00     0.028 C 
BRANCH  26  27
HETATM   27  C4  UNL     1      -3.203  52.196 -13.572  1.00  0.00    -0.025 C 
HETATM   28  C2  UNL     1      -3.564  52.097 -12.278  1.00  0.00    -0.091 C 
HETATM   29  C1  UNL     1      -3.835  53.340 -11.464  1.00  0.00     0.042 C 
HETATM   30  C3  UNL     1      -3.729  50.815 -11.511  1.00  0.00     0.042 C 
ENDBRANCH  26  27
ENDBRANCH  25  26
ENDBRANCH  23  25
ENDBRANCH   1  23
BRANCH  22  31
HETATM   31  O5  UNL     1      -4.016  51.113 -23.038  1.00  0.00    -0.394 OA
HETATM   32  H46 UNL     1      -4.897  51.527 -23.066  1.00  0.00     0.210 HD
ENDBRANCH  22  31
BRANCH  18  33
HETATM   33  C27 UNL     1       0.335  51.778 -25.853  1.00  0.00     0.151 C 
HETATM   34  O2  UNL     1       0.227  50.584 -26.097  1.00  0.00    -0.649 OA
BRANCH  33  35
HETATM   35  O3  UNL     1       1.442  52.429 -26.233  1.00  0.00    -0.776 OA
HETATM   36  H40 UNL     1       1.976  51.747 -26.696  1.00  0.00     0.167 HD
ENDBRANCH  33  35
ENDBRANCH  18  33
BRANCH  20  37
HETATM   37  O4  UNL     1      -2.411  52.816 -26.893  1.00  0.00    -0.394 OA
HETATM   38  H42 UNL     1      -1.783  52.465 -27.549  1.00  0.00     0.210 HD
ENDBRANCH  20  37
TORSDOF 8
ENDMDL
MODEL 3
REMARK minimizedAffinity -9.28675365
REMARK  8 active torsions:
REMARK  status: ('A' for Active; 'I' for Inactive)
REMARK    1  A    between atoms: C4_4  and  C5_5 
REMARK    2  A    between atoms: C5_5  and  C6_6 
REMARK    3  A    between atoms: C6_6  and  C7_7 
REMARK    4  A    between atoms: C7_7  and  C9_9 
REMARK    5  A    between atoms: C25_26  and  C27_28 
REMARK    6  A    between atoms: C27_28  and  O3_30 
REMARK    7  A    between atoms: C28_31  and  O4_32 
REMARK    8  A    between atoms: C30_34  and  O5_35 
ROOT
HETATM    1  C9  UNL     1      -1.087  51.090 -23.125  1.00  0.00    -0.002 C 
HETATM    2  C10 UNL     1      -0.502  52.531 -23.084  1.00  0.00     0.007 C 
HETATM    3  C11 UNL     1      -0.035  52.800 -21.644  1.00  0.00     0.015 C 
HETATM    4  C12 UNL     1      -0.001  51.417 -20.965  1.00  0.00    -0.005 C 
HETATM    5  C13 UNL     1       1.355  50.753 -21.362  1.00  0.00     0.021 C 
HETATM    6  C14 UNL     1      -0.059  51.299 -19.444  1.00  0.00    -0.000 C 
HETATM    7  C15 UNL     1      -0.605  50.208 -18.842  1.00  0.00    -0.058 C 
HETATM    8  C16 UNL     1      -1.255  49.100 -19.687  1.00  0.00     0.036 C 
HETATM    9  C17 UNL     1      -1.286  49.286 -21.218  1.00  0.00     0.015 C 
HETATM   10  C18 UNL     1      -1.286  50.767 -21.612  1.00  0.00    -0.028 C 
HETATM   11  C19 UNL     1      -2.617  51.414 -21.115  1.00  0.00     0.016 C 
HETATM   12  C20 UNL     1      -0.669  50.018 -17.288  1.00  0.00     0.011 C 
HETATM   13  C21 UNL     1      -2.101  50.439 -16.882  1.00  0.00     0.023 C 
HETATM   14  C22 UNL     1       0.446  50.898 -16.629  1.00  0.00     0.029 C 
HETATM   15  C23 UNL     1       0.400  52.344 -17.123  1.00  0.00     0.090 C 
HETATM   16  C24 UNL     1       0.530  52.406 -18.623  1.00  0.00     0.157 C 
HETATM   17  O1  UNL     1       1.073  53.378 -19.147  1.00  0.00    -0.293 OA
HETATM   18  C25 UNL     1       0.613  50.778 -15.066  1.00  0.00     0.072 C 
HETATM   19  C26 UNL     1       2.139  50.851 -14.762  1.00  0.00     0.030 C 
HETATM   20  C28 UNL     1       0.019  49.455 -14.521  1.00  0.00     0.139 C 
HETATM   21  C29 UNL     1       0.224  48.297 -15.494  1.00  0.00     0.065 C 
HETATM   22  C30 UNL     1      -0.374  48.525 -16.887  1.00  0.00     0.133 C 
ENDROOT
BRANCH   1  23
HETATM   23  C7  UNL     1      -2.291  50.994 -24.108  1.00  0.00    -0.014 C 
HETATM   24  C8  UNL     1      -2.673  52.390 -24.634  1.00  0.00     0.010 C 
BRANCH  23  25
HETATM   25  C6  UNL     1      -2.102  50.028 -25.296  1.00  0.00     0.008 C 
BRANCH  25  26
HETATM   26  C5  UNL     1      -1.403  50.618 -26.526  1.00  0.00     0.028 C 
BRANCH  26  27
HETATM   27  C4  UNL     1       0.084  50.705 -26.299  1.00  0.00    -0.025 C 
HETATM   28  C2  UNL     1       1.000  51.392 -27.010  1.00  0.00    -0.091 C 
HETATM   29  C1  UNL     1       2.454  51.365 -26.606  1.00  0.00     0.042 C 
HETATM   30  C3  UNL     1       0.716  52.232 -28.222  1.00  0.00     0.042 C 
ENDBRANCH  26  27
ENDBRANCH  25  26
ENDBRANCH  23  25
ENDBRANCH   1  23
BRANCH  22  31
HETATM   31  O5  UNL     1      -1.561  47.731 -16.995  1.00  0.00    -0.394 OA
HETATM   32  H46 UNL     1      -1.291  46.796 -16.980  1.00  0.00     0.210 HD
ENDBRANCH  22  31
BRANCH  18  33
HETATM   33  C27 UNL     1      -0.033  51.936 -14.297  1.00  0.00     0.151 C 
HETATM   34  O2  UNL     1      -1.197  51.996 -13.929  1.00  0.00    -0.649 OA
BRANCH  33  35
HETATM   35  O3  UNL     1       0.794  52.958 -14.037  1.00  0.00    -0.776 OA
HETATM   36  H40 UNL     1       0.240  53.592 -13.532  1.00  0.00     0.167 HD
ENDBRANCH  33  35
ENDBRANCH  18  33
BRANCH  20  37
HETATM   37  O4  UNL     1       0.624  49.066 -13.283  1.00  0.00    -0.394 OA
HETATM   38  H42 UNL     1       0.421  49.746 -12.615  1.00  0.00     0.210 HD
ENDBRANCH  20  37
TORSDOF 8
ENDMDL
MODEL 4
REMARK minimizedAffinity -9.27719116
REMARK  8 active torsions:
REMARK  status: ('A' for Active; 'I' for Inactive)
REMARK    1  A    between atoms: C4_4  and  C5_5 
REMARK    2  A    between atoms: C5_5  and  C6_6 
REMARK    3  A    between atoms: C6_6  and  C7_7 
REMARK    4  A    between atoms: C7_7  and  C9_9 
REMARK    5  A    between atoms: C25_26  and  C27_28 
REMARK    6  A    between atoms: C27_28  and  O3_30 
REMARK    7  A    between atoms: C28_31  and  O4_32 
REMARK    8  A    between atoms: C30_34  and  O5_35 
ROOT
HETATM    1  C9  UNL     1      -5.145  47.626 -20.140  1.00  0.00    -0.002 C 
HETATM    2  C10 UNL     1      -5.807  46.897 -21.346  1.00  0.00     0.007 C 
HETATM    3  C11 UNL     1      -5.153  47.437 -22.629  1.00  0.00     0.015 C 
HETATM    4  C12 UNL     1      -3.886  48.175 -22.157  1.00  0.00    -0.005 C 
HETATM    5  C13 UNL     1      -2.780  47.092 -21.958  1.00  0.00     0.021 C 
HETATM    6  C14 UNL     1      -3.233  49.237 -23.039  1.00  0.00    -0.000 C 
HETATM    7  C15 UNL     1      -2.542  50.275 -22.498  1.00  0.00    -0.058 C 
HETATM    8  C16 UNL     1      -2.473  50.450 -20.972  1.00  0.00     0.036 C 
HETATM    9  C17 UNL     1      -3.230  49.431 -20.095  1.00  0.00     0.015 C 
HETATM   10  C18 UNL     1      -4.434  48.832 -20.828  1.00  0.00    -0.028 C 
HETATM   11  C19 UNL     1      -5.473  49.967 -21.090  1.00  0.00     0.016 C 
HETATM   12  C20 UNL     1      -1.829  51.379 -23.352  1.00  0.00     0.011 C 
HETATM   13  C21 UNL     1      -2.804  52.581 -23.365  1.00  0.00     0.023 C 
HETATM   14  C22 UNL     1      -1.539  50.801 -24.777  1.00  0.00     0.029 C 
HETATM   15  C23 UNL     1      -2.785  50.177 -25.406  1.00  0.00     0.090 C 
HETATM   16  C24 UNL     1      -3.347  49.091 -24.526  1.00  0.00     0.157 C 
HETATM   17  O1  UNL     1      -3.925  48.132 -25.037  1.00  0.00    -0.293 OA
HETATM   18  C25 UNL     1      -0.737  51.728 -25.769  1.00  0.00     0.072 C 
HETATM   19  C26 UNL     1       0.224  50.808 -26.579  1.00  0.00     0.030 C 
HETATM   20  C28 UNL     1       0.067  52.818 -25.018  1.00  0.00     0.139 C 
HETATM   21  C29 UNL     1       0.622  52.304 -23.693  1.00  0.00     0.065 C 
HETATM   22  C30 UNL     1      -0.441  51.774 -22.723  1.00  0.00     0.133 C 
ENDROOT
BRANCH   1  23
HETATM   23  C7  UNL     1      -6.172  47.876 -18.996  1.00  0.00    -0.014 C 
HETATM   24  C8  UNL     1      -5.469  48.456 -17.755  1.00  0.00     0.010 C 
BRANCH  23  25
HETATM   25  C6  UNL     1      -7.377  48.764 -19.370  1.00  0.00     0.008 C 
BRANCH  25  26
HETATM   26  C5  UNL     1      -8.300  49.153 -18.209  1.00  0.00     0.028 C 
BRANCH  26  27
HETATM   27  C4  UNL     1      -9.713  48.710 -18.486  1.00  0.00    -0.025 C 
HETATM   28  C2  UNL     1     -10.184  48.035 -19.553  1.00  0.00    -0.091 C 
HETATM   29  C1  UNL     1     -11.646  47.666 -19.638  1.00  0.00     0.042 C 
HETATM   30  C3  UNL     1      -9.368  47.577 -20.729  1.00  0.00     0.042 C 
ENDBRANCH  26  27
ENDBRANCH  25  26
ENDBRANCH  23  25
ENDBRANCH   1  23
BRANCH  22  31
HETATM   31  O5  UNL     1      -0.617  52.744 -21.684  1.00  0.00    -0.394 OA
HETATM   32  H46 UNL     1       0.209  52.775 -21.169  1.00  0.00     0.210 HD
ENDBRANCH  22  31
BRANCH  18  33
HETATM   33  C27 UNL     1      -1.630  52.427 -26.800  1.00  0.00     0.151 C 
HETATM   34  O2  UNL     1      -2.657  53.046 -26.561  1.00  0.00    -0.649 OA
BRANCH  33  35
HETATM   35  O3  UNL     1      -1.209  52.313 -28.066  1.00  0.00    -0.776 OA
HETATM   36  H40 UNL     1      -1.867  52.824 -28.586  1.00  0.00     0.167 HD
ENDBRANCH  33  35
ENDBRANCH  18  33
BRANCH  20  37
HETATM   37  O4  UNL     1       1.187  53.279 -25.782  1.00  0.00    -0.394 OA
HETATM   38  H42 UNL     1       0.852  53.704 -26.592  1.00  0.00     0.210 HD
ENDBRANCH  20  37
TORSDOF 8
ENDMDL
MODEL 5
REMARK minimizedAffinity -9.25369072
REMARK  8 active torsions:
REMARK  status: ('A' for Active; 'I' for Inactive)
REMARK    1  A    between atoms: C4_4  and  C5_5 
REMARK    2  A    between atoms: C5_5  and  C6_6 
REMARK    3  A    between atoms: C6_6  and  C7_7 
REMARK    4  A    between atoms: C7_7  and  C9_9 
REMARK    5  A    between atoms: C25_26  and  C27_28 
REMARK    6  A    between atoms: C27_28  and  O3_30 
REMARK    7  A    between atoms: C28_31  and  O4_32 
REMARK    8  A    between atoms: C30_34  and  O5_35 
ROOT
HETATM    1  C9  UNL     1       6.910  65.570 -35.359  1.00  0.00    -0.002 C 
HETATM    2  C10 UNL     1       7.862  65.765 -36.575  1.00  0.00     0.007 C 
HETATM    3  C11 UNL     1       7.045  66.411 -37.705  1.00  0.00     0.015 C 
HETATM    4  C12 UNL     1       5.757  66.925 -37.030  1.00  0.00    -0.005 C 
HETATM    5  C13 UNL     1       6.104  68.304 -36.389  1.00  0.00     0.021 C 
HETATM    6  C14 UNL     1       4.500  67.187 -37.856  1.00  0.00    -0.000 C 
HETATM    7  C15 UNL     1       3.261  67.061 -37.312  1.00  0.00    -0.058 C 
HETATM    8  C16 UNL     1       3.094  66.568 -35.865  1.00  0.00     0.036 C 
HETATM    9  C17 UNL     1       4.370  66.202 -35.078  1.00  0.00     0.015 C 
HETATM   10  C18 UNL     1       5.502  65.749 -36.006  1.00  0.00    -0.028 C 
HETATM   11  C19 UNL     1       5.076  64.416 -36.698  1.00  0.00     0.016 C 
HETATM   12  C20 UNL     1       1.936  67.343 -38.101  1.00  0.00     0.011 C 
HETATM   13  C21 UNL     1       1.423  65.953 -38.550  1.00  0.00     0.023 C 
HETATM   14  C22 UNL     1       2.259  68.299 -39.297  1.00  0.00     0.029 C 
HETATM   15  C23 UNL     1       3.435  67.794 -40.134  1.00  0.00     0.090 C 
HETATM   16  C24 UNL     1       4.666  67.618 -39.282  1.00  0.00     0.157 C 
HETATM   17  O1  UNL     1       5.779  67.785 -39.780  1.00  0.00    -0.293 OA
HETATM   18  C25 UNL     1       1.037  68.784 -40.168  1.00  0.00     0.072 C 
HETATM   19  C26 UNL     1       1.308  70.269 -40.550  1.00  0.00     0.030 C 
HETATM   20  C28 UNL     1      -0.303  68.661 -39.402  1.00  0.00     0.139 C 
HETATM   21  C29 UNL     1      -0.138  68.967 -37.916  1.00  0.00     0.065 C 
HETATM   22  C30 UNL     1       0.881  68.079 -37.194  1.00  0.00     0.133 C 
ENDROOT
BRANCH   1  23
HETATM   23  C7  UNL     1       7.249  64.267 -34.577  1.00  0.00    -0.014 C 
HETATM   24  C8  UNL     1       6.261  63.143 -34.942  1.00  0.00     0.010 C 
BRANCH  23  25
HETATM   25  C6  UNL     1       8.696  63.756 -34.736  1.00  0.00     0.008 C 
BRANCH  25  26
HETATM   26  C5  UNL     1       8.851  62.238 -34.882  1.00  0.00     0.028 C 
BRANCH  26  27
HETATM   27  C4  UNL     1       9.320  61.627 -33.587  1.00  0.00    -0.025 C 
HETATM   28  C2  UNL     1      10.356  62.004 -32.812  1.00  0.00    -0.091 C 
HETATM   29  C1  UNL     1      10.656  61.266 -31.529  1.00  0.00     0.042 C 
HETATM   30  C3  UNL     1      11.293  63.144 -33.096  1.00  0.00     0.042 C 
ENDBRANCH  26  27
ENDBRANCH  25  26
ENDBRANCH  23  25
ENDBRANCH   1  23
BRANCH  22  31
HETATM   31  O5  UNL     1       0.160  67.135 -36.394  1.00  0.00    -0.394 OA
HETATM   32  H46 UNL     1      -0.292  67.633 -35.690  1.00  0.00     0.210 HD
ENDBRANCH  22  31
BRANCH  18  33
HETATM   33  C27 UNL     1       0.897  68.021 -41.490  1.00  0.00     0.151 C 
HETATM   34  O2  UNL     1       0.120  68.287 -42.396  1.00  0.00    -0.649 OA
BRANCH  33  35
HETATM   35  O3  UNL     1       1.716  66.968 -41.613  1.00  0.00    -0.776 OA
HETATM   36  H40 UNL     1       1.517  66.612 -42.506  1.00  0.00     0.167 HD
ENDBRANCH  33  35
ENDBRANCH  18  33
BRANCH  20  37
HETATM   37  O4  UNL     1      -1.292  69.567 -39.903  1.00  0.00    -0.394 OA
HETATM   38  H42 UNL     1      -1.488  69.328 -40.827  1.00  0.00     0.210 HD
ENDBRANCH  20  37
TORSDOF 8
ENDMDL
MODEL 6
REMARK minimizedAffinity -9.23714161
REMARK  8 active torsions:
REMARK  status: ('A' for Active; 'I' for Inactive)
REMARK    1  A    between atoms: C4_4  and  C5_5 
REMARK    2  A    between atoms: C5_5  and  C6_6 
REMARK    3  A    between atoms: C6_6  and  C7_7 
REMARK    4  A    between atoms: C7_7  and  C9_9 
REMARK    5  A    between atoms: C25_26  and  C27_28 
REMARK    6  A    between atoms: C27_28  and  O3_30 
REMARK    7  A    between atoms: C28_31  and  O4_32 
REMARK    8  A    between atoms: C30_34  and  O5_35 
ROOT
HETATM    1  C9  UNL     1      -2.152  50.573 -22.033  1.00  0.00    -0.002 C 
HETATM    2  C10 UNL     1      -1.621  52.019 -22.251  1.00  0.00     0.007 C 
HETATM    3  C11 UNL     1      -0.799  52.403 -21.009  1.00  0.00     0.015 C 
HETATM    4  C12 UNL     1      -0.546  51.077 -20.267  1.00  0.00    -0.005 C 
HETATM    5  C13 UNL     1       0.677  50.399 -20.960  1.00  0.00     0.021 C 
HETATM    6  C14 UNL     1      -0.198  51.075 -18.780  1.00  0.00    -0.000 C 
HETATM    7  C15 UNL     1      -0.533  50.028 -17.979  1.00  0.00    -0.058 C 
HETATM    8  C16 UNL     1      -1.348  48.851 -18.540  1.00  0.00     0.036 C 
HETATM    9  C17 UNL     1      -1.787  48.919 -20.018  1.00  0.00     0.015 C 
HETATM   10  C18 UNL     1      -1.936  50.365 -20.502  1.00  0.00    -0.028 C 
HETATM   11  C19 UNL     1      -3.108  51.035 -19.718  1.00  0.00     0.016 C 
HETATM   12  C20 UNL     1      -0.180  49.957 -16.454  1.00  0.00     0.011 C 
HETATM   13  C21 UNL     1      -1.467  50.393 -15.715  1.00  0.00     0.023 C 
HETATM   14  C22 UNL     1       1.041  50.897 -16.178  1.00  0.00     0.029 C 
HETATM   15  C23 UNL     1       0.823  52.300 -16.744  1.00  0.00     0.090 C 
HETATM   16  C24 UNL     1       0.552  52.248 -18.226  1.00  0.00     0.157 C 
HETATM   17  O1  UNL     1       0.907  53.183 -18.942  1.00  0.00    -0.293 OA
HETATM   18  C25 UNL     1       1.618  50.899 -14.710  1.00  0.00     0.072 C 
HETATM   19  C26 UNL     1       3.166  51.012 -14.827  1.00  0.00     0.030 C 
HETATM   20  C28 UNL     1       1.228  49.616 -13.935  1.00  0.00     0.139 C 
HETATM   21  C29 UNL     1       1.206  48.389 -14.842  1.00  0.00     0.065 C 
HETATM   22  C30 UNL     1       0.255  48.502 -16.039  1.00  0.00     0.133 C 
ENDROOT
BRANCH   1  23
HETATM   23  C7  UNL     1      -3.569  50.389 -22.653  1.00  0.00    -0.014 C 
HETATM   24  C8  UNL     1      -3.952  51.615 -23.502  1.00  0.00     0.010 C 
BRANCH  23  25
HETATM   25  C6  UNL     1      -3.768  49.103 -23.483  1.00  0.00     0.008 C 
BRANCH  25  26
HETATM   26  C5  UNL     1      -2.919  48.998 -24.755  1.00  0.00     0.028 C 
BRANCH  26  27
HETATM   27  C4  UNL     1      -3.730  48.416 -25.884  1.00  0.00    -0.025 C 
HETATM   28  C2  UNL     1      -3.873  48.885 -27.139  1.00  0.00    -0.091 C 
HETATM   29  C1  UNL     1      -4.724  48.140 -28.139  1.00  0.00     0.042 C 
HETATM   30  C3  UNL     1      -3.238  50.132 -27.685  1.00  0.00     0.042 C 
ENDBRANCH  26  27
ENDBRANCH  25  26
ENDBRANCH  23  25
ENDBRANCH   1  23
BRANCH  22  31
HETATM   31  O5  UNL     1      -0.894  47.690 -15.773  1.00  0.00    -0.394 OA
HETATM   32  H46 UNL     1      -0.601  46.762 -15.764  1.00  0.00     0.210 HD
ENDBRANCH  22  31
BRANCH  18  33
HETATM   33  C27 UNL     1       1.162  52.106 -13.883  1.00  0.00     0.151 C 
HETATM   34  O2  UNL     1       0.044  52.602 -13.888  1.00  0.00    -0.649 OA
BRANCH  33  35
HETATM   35  O3  UNL     1       2.114  52.637 -13.105  1.00  0.00    -0.776 OA
HETATM   36  H40 UNL     1       1.660  53.371 -12.637  1.00  0.00     0.167 HD
ENDBRANCH  33  35
ENDBRANCH  18  33
BRANCH  20  37
HETATM   37  O4  UNL     1       2.149  49.329 -12.876  1.00  0.00    -0.394 OA
HETATM   38  H42 UNL     1       2.108  50.056 -12.229  1.00  0.00     0.210 HD
ENDBRANCH  20  37
TORSDOF 8
ENDMDL
MODEL 7
REMARK minimizedAffinity -9.00051785
REMARK  8 active torsions:
REMARK  status: ('A' for Active; 'I' for Inactive)
REMARK    1  A    between atoms: C4_4  and  C5_5 
REMARK    2  A    between atoms: C5_5  and  C6_6 
REMARK    3  A    between atoms: C6_6  and  C7_7 
REMARK    4  A    between atoms: C7_7  and  C9_9 
REMARK    5  A    between atoms: C25_26  and  C27_28 
REMARK    6  A    between atoms: C27_28  and  O3_30 
REMARK    7  A    between atoms: C28_31  and  O4_32 
REMARK    8  A    between atoms: C30_34  and  O5_35 
ROOT
HETATM    1  C9  UNL     1      -3.856  47.801 -19.462  1.00  0.00    -0.002 C 
HETATM    2  C10 UNL     1      -4.717  47.002 -20.483  1.00  0.00     0.007 C 
HETATM    3  C11 UNL     1      -4.360  47.510 -21.889  1.00  0.00     0.015 C 
HETATM    4  C12 UNL     1      -3.053  48.309 -21.710  1.00  0.00    -0.005 C 
HETATM    5  C13 UNL     1      -1.888  47.271 -21.705  1.00  0.00     0.021 C 
HETATM    6  C14 UNL     1      -2.637  49.354 -22.742  1.00  0.00    -0.000 C 
HETATM    7  C15 UNL     1      -1.893  50.436 -22.388  1.00  0.00    -0.058 C 
HETATM    8  C16 UNL     1      -1.524  50.676 -20.914  1.00  0.00     0.036 C 
HETATM    9  C17 UNL     1      -2.045  49.668 -19.868  1.00  0.00     0.015 C 
HETATM   10  C18 UNL     1      -3.347  49.000 -20.321  1.00  0.00    -0.028 C 
HETATM   11  C19 UNL     1      -4.464  50.089 -20.403  1.00  0.00     0.016 C 
HETATM   12  C20 UNL     1      -1.414  51.527 -23.405  1.00  0.00     0.011 C 
HETATM   13  C21 UNL     1      -2.419  52.694 -23.260  1.00  0.00     0.023 C 
HETATM   14  C22 UNL     1      -1.394  50.902 -24.840  1.00  0.00     0.029 C 
HETATM   15  C23 UNL     1      -2.716  50.211 -25.181  1.00  0.00     0.090 C 
HETATM   16  C24 UNL     1      -3.044  49.144 -24.169  1.00  0.00     0.157 C 
HETATM   17  O1  UNL     1      -3.674  48.147 -24.519  1.00  0.00    -0.293 OA
HETATM   18  C25 UNL     1      -0.848  51.813 -26.005  1.00  0.00     0.072 C 
HETATM   19  C26 UNL     1      -0.034  50.893 -26.962  1.00  0.00     0.030 C 
HETATM   20  C28 UNL     1       0.047  52.959 -25.470  1.00  0.00     0.139 C 
HETATM   21  C29 UNL     1       0.878  52.517 -24.269  1.00  0.00     0.065 C 
HETATM   22  C30 UNL     1       0.056  51.993 -23.086  1.00  0.00     0.133 C 
ENDROOT
BRANCH   1  23
HETATM   23  C7  UNL     1      -4.638  48.064 -18.142  1.00  0.00    -0.014 C 
HETATM   24  C8  UNL     1      -6.005  47.357 -18.172  1.00  0.00     0.010 C 
BRANCH  23  25
HETATM   25  C6  UNL     1      -3.892  47.690 -16.844  1.00  0.00     0.008 C 
BRANCH  25  26
HETATM   26  C5  UNL     1      -2.540  48.382 -16.634  1.00  0.00     0.028 C 
BRANCH  26  27
HETATM   27  C4  UNL     1      -2.730  49.727 -15.981  1.00  0.00    -0.025 C 
HETATM   28  C2  UNL     1      -2.830  50.012 -14.668  1.00  0.00    -0.091 C 
HETATM   29  C1  UNL     1      -3.002  51.440 -14.209  1.00  0.00     0.042 C 
HETATM   30  C3  UNL     1      -2.778  49.012 -13.548  1.00  0.00     0.042 C 
ENDBRANCH  26  27
ENDBRANCH  25  26
ENDBRANCH  23  25
ENDBRANCH   1  23
BRANCH  22  31
HETATM   31  O5  UNL     1       0.055  52.999 -22.066  1.00  0.00    -0.394 OA
HETATM   32  H46 UNL     1       0.966  53.077 -21.732  1.00  0.00     0.210 HD
ENDBRANCH  22  31
BRANCH  18  33
HETATM   33  C27 UNL     1      -1.959  52.440 -26.854  1.00  0.00     0.151 C 
HETATM   34  O2  UNL     1      -3.090  52.708 -26.477  1.00  0.00    -0.649 OA
BRANCH  33  35
HETATM   35  O3  UNL     1      -1.612  52.690 -28.124  1.00  0.00    -0.776 OA
HETATM   36  H40 UNL     1      -2.413  53.101 -28.515  1.00  0.00     0.167 HD
ENDBRANCH  33  35
ENDBRANCH  18  33
BRANCH  20  37
HETATM   37  O4  UNL     1       0.969  53.425 -26.461  1.00  0.00    -0.394 OA
HETATM   38  H42 UNL     1       0.460  53.805 -27.199  1.00  0.00     0.210 HD
ENDBRANCH  20  37
TORSDOF 8
ENDMDL
MODEL 8
REMARK minimizedAffinity -8.97546577
REMARK  8 active torsions:
REMARK  status: ('A' for Active; 'I' for Inactive)
REMARK    1  A    between atoms: C4_4  and  C5_5 
REMARK    2  A    between atoms: C5_5  and  C6_6 
REMARK    3  A    between atoms: C6_6  and  C7_7 
REMARK    4  A    between atoms: C7_7  and  C9_9 
REMARK    5  A    between atoms: C25_26  and  C27_28 
REMARK    6  A    between atoms: C27_28  and  O3_30 
REMARK    7  A    between atoms: C28_31  and  O4_32 
REMARK    8  A    between atoms: C30_34  and  O5_35 
ROOT
HETATM    1  C9  UNL     1      -0.834  50.712 -22.102  1.00  0.00    -0.002 C 
HETATM    2  C10 UNL     1      -0.796  50.481 -20.563  1.00  0.00     0.007 C 
HETATM    3  C11 UNL     1      -2.063  49.699 -20.180  1.00  0.00     0.015 C 
HETATM    4  C12 UNL     1      -2.624  49.162 -21.511  1.00  0.00    -0.005 C 
HETATM    5  C13 UNL     1      -1.828  47.860 -21.843  1.00  0.00     0.021 C 
HETATM    6  C14 UNL     1      -4.092  48.758 -21.628  1.00  0.00    -0.000 C 
HETATM    7  C15 UNL     1      -4.756  48.849 -22.811  1.00  0.00    -0.058 C 
HETATM    8  C16 UNL     1      -4.061  49.443 -24.047  1.00  0.00     0.036 C 
HETATM    9  C17 UNL     1      -2.612  49.948 -23.886  1.00  0.00     0.015 C 
HETATM   10  C18 UNL     1      -2.321  50.395 -22.450  1.00  0.00    -0.028 C 
HETATM   11  C19 UNL     1      -3.205  51.641 -22.128  1.00  0.00     0.016 C 
HETATM   12  C20 UNL     1      -6.253  48.426 -22.997  1.00  0.00     0.011 C 
HETATM   13  C21 UNL     1      -7.064  49.741 -22.920  1.00  0.00     0.023 C 
HETATM   14  C22 UNL     1      -6.628  47.400 -21.876  1.00  0.00     0.029 C 
HETATM   15  C23 UNL     1      -6.251  47.910 -20.485  1.00  0.00     0.090 C 
HETATM   16  C24 UNL     1      -4.780  48.228 -20.406  1.00  0.00     0.157 C 
HETATM   17  O1  UNL     1      -4.185  48.091 -19.339  1.00  0.00    -0.293 OA
HETATM   18  C25 UNL     1      -8.074  46.774 -21.941  1.00  0.00     0.072 C 
HETATM   19  C26 UNL     1      -7.947  45.283 -21.510  1.00  0.00     0.030 C 
HETATM   20  C28 UNL     1      -8.683  46.874 -23.361  1.00  0.00     0.139 C 
HETATM   21  C29 UNL     1      -7.626  46.695 -24.447  1.00  0.00     0.065 C 
HETATM   22  C30 UNL     1      -6.469  47.699 -24.377  1.00  0.00     0.133 C 
ENDROOT
BRANCH   1  23
HETATM   23  C7  UNL     1      -0.219  52.090 -22.484  1.00  0.00    -0.014 C 
HETATM   24  C8  UNL     1       0.595  52.665 -21.311  1.00  0.00     0.010 C 
BRANCH  23  25
HETATM   25  C6  UNL     1       0.641  52.100 -23.765  1.00  0.00     0.008 C 
BRANCH  25  26
HETATM   26  C5  UNL     1       0.432  53.300 -24.695  1.00  0.00     0.028 C 
BRANCH  26  27
HETATM   27  C4  UNL     1       0.207  52.838 -26.112  1.00  0.00    -0.025 C 
HETATM   28  C2  UNL     1       1.033  52.119 -26.898  1.00  0.00    -0.091 C 
HETATM   29  C1  UNL     1       0.612  51.737 -28.297  1.00  0.00     0.042 C 
HETATM   30  C3  UNL     1       2.397  51.623 -26.512  1.00  0.00     0.042 C 
ENDBRANCH  26  27
ENDBRANCH  25  26
ENDBRANCH  23  25
ENDBRANCH   1  23
BRANCH  22  31
HETATM   31  O5  UNL     1      -6.648  48.656 -25.428  1.00  0.00    -0.394 OA
HETATM   32  H46 UNL     1      -6.532  48.188 -26.273  1.00  0.00     0.210 HD
ENDBRANCH  22  31
BRANCH  18  33
HETATM   33  C27 UNL     1      -9.057  47.421 -20.959  1.00  0.00     0.151 C 
HETATM   34  O2  UNL     1     -10.156  46.985 -20.648  1.00  0.00    -0.649 OA
BRANCH  33  35
HETATM   35  O3  UNL     1      -8.631  48.574 -20.426  1.00  0.00    -0.776 OA
HETATM   36  H40 UNL     1      -9.355  48.839 -19.817  1.00  0.00     0.167 HD
ENDBRANCH  33  35
ENDBRANCH  18  33
BRANCH  20  37
HETATM   37  O4  UNL     1      -9.680  45.871 -23.588  1.00  0.00    -0.394 OA
HETATM   38  H42 UNL     1     -10.416  46.026 -22.969  1.00  0.00     0.210 HD
ENDBRANCH  20  37
TORSDOF 8
ENDMDL
MODEL 9
REMARK minimizedAffinity -8.95872498
REMARK  8 active torsions:
REMARK  status: ('A' for Active; 'I' for Inactive)
REMARK    1  A    between atoms: C4_4  and  C5_5 
REMARK    2  A    between atoms: C5_5  and  C6_6 
REMARK    3  A    between atoms: C6_6  and  C7_7 
REMARK    4  A    between atoms: C7_7  and  C9_9 
REMARK    5  A    between atoms: C25_26  and  C27_28 
REMARK    6  A    between atoms: C27_28  and  O3_30 
REMARK    7  A    between atoms: C28_31  and  O4_32 
REMARK    8  A    between atoms: C30_34  and  O5_35 
ROOT
HETATM    1  C9  UNL     1      -0.661  51.255 -19.838  1.00  0.00    -0.002 C 
HETATM    2  C10 UNL     1      -0.278  50.049 -18.932  1.00  0.00     0.007 C 
HETATM    3  C11 UNL     1      -1.382  48.989 -19.081  1.00  0.00     0.015 C 
HETATM    4  C12 UNL     1      -2.181  49.410 -20.329  1.00  0.00    -0.005 C 
HETATM    5  C13 UNL     1      -1.396  48.878 -21.568  1.00  0.00     0.021 C 
HETATM    6  C14 UNL     1      -3.612  48.918 -20.536  1.00  0.00    -0.000 C 
HETATM    7  C15 UNL     1      -4.519  49.660 -21.225  1.00  0.00    -0.058 C 
HETATM    8  C16 UNL     1      -4.146  51.059 -21.743  1.00  0.00     0.036 C 
HETATM    9  C17 UNL     1      -2.730  51.588 -21.431  1.00  0.00     0.015 C 
HETATM   10  C18 UNL     1      -2.166  50.979 -20.143  1.00  0.00    -0.028 C 
HETATM   11  C19 UNL     1      -3.036  51.462 -18.940  1.00  0.00     0.016 C 
HETATM   12  C20 UNL     1      -5.992  49.196 -21.493  1.00  0.00     0.011 C 
HETATM   13  C21 UNL     1      -6.848  49.909 -20.419  1.00  0.00     0.023 C 
HETATM   14  C22 UNL     1      -6.052  47.635 -21.396  1.00  0.00     0.029 C 
HETATM   15  C23 UNL     1      -5.417  47.117 -20.105  1.00  0.00     0.090 C 
HETATM   16  C24 UNL     1      -3.987  47.576 -19.985  1.00  0.00     0.157 C 
HETATM   17  O1  UNL     1      -3.167  46.867 -19.401  1.00  0.00    -0.293 OA
HETATM   18  C25 UNL     1      -7.435  46.955 -21.727  1.00  0.00     0.072 C 
HETATM   19  C26 UNL     1      -7.125  45.637 -22.496  1.00  0.00     0.030 C 
HETATM   20  C28 UNL     1      -8.341  47.877 -22.581  1.00  0.00     0.139 C 
HETATM   21  C29 UNL     1      -7.533  48.700 -23.580  1.00  0.00     0.065 C 
HETATM   22  C30 UNL     1      -6.454  49.585 -22.946  1.00  0.00     0.133 C 
ENDROOT
BRANCH   1  23
HETATM   23  C7  UNL     1      -0.231  52.607 -19.196  1.00  0.00    -0.014 C 
HETATM   24  C8  UNL     1       0.710  52.364 -18.002  1.00  0.00     0.010 C 
BRANCH  23  25
HETATM   25  C6  UNL     1       0.411  53.625 -20.162  1.00  0.00     0.008 C 
BRANCH  25  26
HETATM   26  C5  UNL     1       1.398  53.042 -21.179  1.00  0.00     0.028 C 
BRANCH  26  27
HETATM   27  C4  UNL     1       0.668  52.231 -22.218  1.00  0.00    -0.025 C 
HETATM   28  C2  UNL     1       0.375  52.569 -23.490  1.00  0.00    -0.091 C 
HETATM   29  C1  UNL     1      -0.356  51.599 -24.387  1.00  0.00     0.042 C 
HETATM   30  C3  UNL     1       0.722  53.872 -24.151  1.00  0.00     0.042 C 
ENDBRANCH  26  27
ENDBRANCH  25  26
ENDBRANCH  23  25
ENDBRANCH   1  23
BRANCH  22  31
HETATM   31  O5  UNL     1      -6.914  50.941 -22.982  1.00  0.00    -0.394 OA
HETATM   32  H46 UNL     1      -6.954  51.212 -23.916  1.00  0.00     0.210 HD
ENDBRANCH  22  31
BRANCH  18  33
HETATM   33  C27 UNL     1      -8.223  46.547 -20.477  1.00  0.00     0.151 C 
HETATM   34  O2  UNL     1      -8.058  45.527 -19.823  1.00  0.00    -0.649 OA
BRANCH  33  35
HETATM   35  O3  UNL     1      -9.174  47.416 -20.112  1.00  0.00    -0.776 OA
HETATM   36  H40 UNL     1      -9.561  47.023 -19.300  1.00  0.00     0.167 HD
ENDBRANCH  33  35
ENDBRANCH  18  33
BRANCH  20  37
HETATM   37  O4  UNL     1      -9.299  47.131 -23.341  1.00  0.00    -0.394 OA
HETATM   38  H42 UNL     1      -9.893  46.672 -22.720  1.00  0.00     0.210 HD
ENDBRANCH  20  37
TORSDOF 8
ENDMDL
