MODEL 1
REMARK minimizedAffinity -9.54109478
REMARK CNNscore 0.618370175
REMARK CNNaffinity 6.98485374
REMARK  14 active torsions:
REMARK  status: ('A' for Active; 'I' for Inactive)
REMARK    1  A    between atoms: C19_21  and  O3_22 
REMARK    2  A    between atoms: C19_21  and  C20_23 
REMARK    3  A    between atoms: C20_23  and  C21_25 
REMARK    4  A    between atoms: C21_25  and  O5_26 
REMARK    5  A    between atoms: O5_26  and  C22_27 
REMARK    6  A    between atoms: C22_27  and  C23_29 
REMARK    7  A    between atoms: C23_29  and  C24_30 
REMARK    8  A    between atoms: C24_30  and  C25_31 
REMARK       I    between atoms: C25_31  and  N1_33 
REMARK    9  A    between atoms: N1_33  and  C26_34 
REMARK   10  A    between atoms: C26_34  and  C27_35 
REMARK   11  A    between atoms: C26_34  and  C30_40 
REMARK   12  A    between atoms: C27_35  and  C28_36 
REMARK   13  A    between atoms: C28_36  and  C29_37 
REMARK       I    between atoms: C29_37  and  N2_38 
REMARK   14  A    between atoms: C30_40  and  O10_42 
ROOT
HETATM    1  C20 UNL     1      -1.064   6.443  14.425  1.00  0.00     0.185 C 
HETATM    2  O4  UNL     1      -1.024   7.112  15.463  1.00  0.00    -0.292 OA
ENDROOT
BRANCH   1   3
HETATM    3  C19 UNL     1      -2.346   6.373  13.544  1.00  0.00     0.128 C 
HETATM    4  C14 UNL     1      -3.683   6.508  14.342  1.00  0.00     0.005 C 
HETATM    5  C13 UNL     1      -4.168   7.935  14.619  1.00  0.00     0.091 C 
HETATM    6  C15 UNL     1      -3.615   5.733  15.687  1.00  0.00     0.019 C 
HETATM    7  C16 UNL     1      -4.674   5.879  13.327  1.00  0.00     0.002 C 
HETATM    8  C12 UNL     1      -5.605   7.905  15.126  1.00  0.00     0.133 C 
HETATM    9  C11 UNL     1      -6.636   7.171  14.245  1.00  0.00     0.072 C 
HETATM   10  O2  UNL     1      -5.898   8.509  16.156  1.00  0.00    -0.297 OA
HETATM   11  C2  UNL     1      -8.110   7.149  14.794  1.00  0.00    -0.009 C 
HETATM   12  C10 UNL     1      -6.105   5.756  13.868  1.00  0.00     0.003 C 
HETATM   13  C1  UNL     1      -8.213   6.480  16.183  1.00  0.00     0.021 C 
HETATM   14  C3  UNL     1      -8.641   8.613  14.877  1.00  0.00     0.022 C 
HETATM   15  C7  UNL     1      -8.993   6.340  13.823  1.00  0.00    -0.067 C 
HETATM   16  C4  UNL     1     -10.152   8.714  15.026  1.00  0.00     0.084 C 
HETATM   17  C5  UNL     1     -10.837   7.982  13.905  1.00  0.00     0.149 C 
HETATM   18  O1  UNL     1     -11.924   8.333  13.453  1.00  0.00    -0.293 OA
HETATM   19  C6  UNL     1     -10.202   6.745  13.395  1.00  0.00     0.053 C 
HETATM   20  C8  UNL     1      -8.460   5.000  13.368  1.00  0.00     0.035 C 
HETATM   21  C9  UNL     1      -7.037   5.105  12.836  1.00  0.00     0.010 C 
HETATM   22  C17 UNL     1      -3.969   4.603  12.883  1.00  0.00     0.009 C 
HETATM   23  C18 UNL     1      -2.473   4.967  12.883  1.00  0.00     0.047 C 
BRANCH   3  24
HETATM   24  O3  UNL     1      -2.345   7.301  12.455  1.00  0.00    -0.381 OA
HETATM   25  H25 UNL     1      -2.116   8.184  12.792  1.00  0.00     0.211 HD
ENDBRANCH   3  24
ENDBRANCH   1   3
BRANCH   1  26
HETATM   26  C21 UNL     1       0.214   5.796  13.887  1.00  0.00     0.260 C 
BRANCH  26  27
HETATM   27  O5  UNL     1       0.732   6.353  12.681  1.00  0.00    -0.314 OA
BRANCH  27  28
HETATM   28  C22 UNL     1       1.507   7.461  12.873  1.00  0.00     0.259 C 
HETATM   29  O6  UNL     1       2.580   7.458  13.458  1.00  0.00    -0.265 OA
BRANCH  28  30
HETATM   30  C23 UNL     1       0.945   8.676  12.170  1.00  0.00     0.120 C 
BRANCH  30  31
HETATM   31  C24 UNL     1      -0.129   8.377  11.131  1.00  0.00     0.112 C 
BRANCH  31  32
HETATM   32  C25 UNL     1       0.447   8.226   9.737  1.00  0.00     0.218 C 
HETATM   33  O7  UNL     1       0.054   8.872   8.773  1.00  0.00    -0.274 OA
HETATM   34  N1  UNL     1       1.436   7.266   9.661  1.00  0.00    -0.347 N 
HETATM   35  H32 UNL     1       1.931   7.082  10.526  1.00  0.00     0.163 HD
BRANCH  34  36
HETATM   36  C26 UNL     1       2.229   7.138   8.433  1.00  0.00     0.182 C 
BRANCH  36  37
HETATM   37  C27 UNL     1       2.945   5.786   8.351  1.00  0.00     0.045 C 
BRANCH  37  38
HETATM   38  C28 UNL     1       2.975   5.166   6.950  1.00  0.00     0.105 C 
BRANCH  38  39
HETATM   39  C29 UNL     1       3.794   3.892   6.919  1.00  0.00     0.215 C 
HETATM   40  N2  UNL     1       3.432   3.022   5.932  1.00  0.00    -0.370 N 
HETATM   41  H38 UNL     1       3.900   2.123   5.925  1.00  0.00     0.159 HD
HETATM   42  H39 UNL     1       2.556   3.101   5.434  1.00  0.00     0.159 HD
HETATM   43  O8  UNL     1       4.710   3.631   7.687  1.00  0.00    -0.274 OA
ENDBRANCH  38  39
ENDBRANCH  37  38
ENDBRANCH  36  37
BRANCH  36  44
HETATM   44  C30 UNL     1       3.226   8.294   8.368  1.00  0.00     0.163 C 
HETATM   45  O9  UNL     1       3.258   9.165   7.509  1.00  0.00    -0.648 OA
BRANCH  44  46
HETATM   46  O10 UNL     1       4.079   8.322   9.410  1.00  0.00    -0.775 OA
HETATM   47  H40 UNL     1       4.670   9.084   9.234  1.00  0.00     0.167 HD
ENDBRANCH  44  46
ENDBRANCH  36  44
ENDBRANCH  34  36
ENDBRANCH  31  32
ENDBRANCH  30  31
ENDBRANCH  28  30
ENDBRANCH  27  28
ENDBRANCH  26  27
ENDBRANCH   1  26
TORSDOF 14
ENDMDL
MODEL 2
REMARK minimizedAffinity -7.373209
REMARK CNNscore 0.563829005
REMARK CNNaffinity 6.22167015
REMARK  14 active torsions:
REMARK  status: ('A' for Active; 'I' for Inactive)
REMARK    1  A    between atoms: C19_21  and  O3_22 
REMARK    2  A    between atoms: C19_21  and  C20_23 
REMARK    3  A    between atoms: C20_23  and  C21_25 
REMARK    4  A    between atoms: C21_25  and  O5_26 
REMARK    5  A    between atoms: O5_26  and  C22_27 
REMARK    6  A    between atoms: C22_27  and  C23_29 
REMARK    7  A    between atoms: C23_29  and  C24_30 
REMARK    8  A    between atoms: C24_30  and  C25_31 
REMARK       I    between atoms: C25_31  and  N1_33 
REMARK    9  A    between atoms: N1_33  and  C26_34 
REMARK   10  A    between atoms: C26_34  and  C27_35 
REMARK   11  A    between atoms: C26_34  and  C30_40 
REMARK   12  A    between atoms: C27_35  and  C28_36 
REMARK   13  A    between atoms: C28_36  and  C29_37 
REMARK       I    between atoms: C29_37  and  N2_38 
REMARK   14  A    between atoms: C30_40  and  O10_42 
ROOT
HETATM    1  C20 UNL     1      -2.250   6.591  12.946  1.00  0.00     0.185 C 
HETATM    2  O4  UNL     1      -3.098   5.693  12.942  1.00  0.00    -0.292 OA
ENDROOT
BRANCH   1   3
HETATM    3  C19 UNL     1      -2.622   8.069  13.262  1.00  0.00     0.128 C 
HETATM    4  C14 UNL     1      -2.259   8.528  14.712  1.00  0.00     0.005 C 
HETATM    5  C13 UNL     1      -0.828   9.030  14.927  1.00  0.00     0.091 C 
HETATM    6  C15 UNL     1      -2.556   7.407  15.746  1.00  0.00     0.019 C 
HETATM    7  C16 UNL     1      -3.199   9.754  14.855  1.00  0.00     0.002 C 
HETATM    8  C12 UNL     1      -0.716   9.712  16.286  1.00  0.00     0.133 C 
HETATM    9  C11 UNL     1      -1.712  10.854  16.572  1.00  0.00     0.072 C 
HETATM   10  O2  UNL     1       0.183   9.385  17.057  1.00  0.00    -0.297 OA
HETATM   11  C2  UNL     1      -1.581  11.537  17.982  1.00  0.00    -0.009 C 
HETATM   12  C10 UNL     1      -3.164  10.388  16.254  1.00  0.00     0.003 C 
HETATM   13  C1  UNL     1      -1.766  10.534  19.143  1.00  0.00     0.021 C 
HETATM   14  C3  UNL     1      -0.177  12.208  18.090  1.00  0.00     0.022 C 
HETATM   15  C7  UNL     1      -2.674  12.614  18.121  1.00  0.00    -0.067 C 
HETATM   16  C4  UNL     1      -0.059  13.211  19.229  1.00  0.00     0.084 C 
HETATM   17  C5  UNL     1      -1.125  14.265  19.109  1.00  0.00     0.149 C 
HETATM   18  O1  UNL     1      -0.957  15.421  19.488  1.00  0.00    -0.293 OA
HETATM   19  C6  UNL     1      -2.450  13.855  18.589  1.00  0.00     0.053 C 
HETATM   20  C8  UNL     1      -4.080  12.216  17.731  1.00  0.00     0.035 C 
HETATM   21  C9  UNL     1      -4.129  11.578  16.350  1.00  0.00     0.010 C 
HETATM   22  C17 UNL     1      -4.537   9.241  14.340  1.00  0.00     0.009 C 
HETATM   23  C18 UNL     1      -4.168   8.261  13.211  1.00  0.00     0.047 C 
BRANCH   3  24
HETATM   24  O3  UNL     1      -2.096   9.008  12.320  1.00  0.00    -0.381 OA
HETATM   25  H25 UNL     1      -1.147   8.833  12.194  1.00  0.00     0.211 HD
ENDBRANCH   3  24
ENDBRANCH   1   3
BRANCH   1  26
HETATM   26  C21 UNL     1      -0.767   6.238  12.803  1.00  0.00     0.260 C 
BRANCH  26  27
HETATM   27  O5  UNL     1      -0.215   6.393  11.498  1.00  0.00    -0.314 OA
BRANCH  27  28
HETATM   28  C22 UNL     1       0.529   5.326  11.082  1.00  0.00     0.259 C 
HETATM   29  O6  UNL     1       0.131   4.170  11.076  1.00  0.00    -0.265 OA
BRANCH  28  30
HETATM   30  C23 UNL     1       1.863   5.750  10.512  1.00  0.00     0.120 C 
BRANCH  30  31
HETATM   31  C24 UNL     1       2.567   6.859  11.285  1.00  0.00     0.112 C 
BRANCH  31  32
HETATM   32  C25 UNL     1       4.069   6.660  11.334  1.00  0.00     0.218 C 
HETATM   33  O7  UNL     1       4.710   6.145  10.426  1.00  0.00    -0.274 OA
HETATM   34  N1  UNL     1       4.633   7.088  12.519  1.00  0.00    -0.347 N 
HETATM   35  H32 UNL     1       4.118   7.811  13.009  1.00  0.00     0.163 HD
BRANCH  34  36
HETATM   36  C26 UNL     1       6.093   7.148  12.647  1.00  0.00     0.182 C 
BRANCH  36  37
HETATM   37  C27 UNL     1       6.533   7.444  14.084  1.00  0.00     0.045 C 
BRANCH  37  38
HETATM   38  C28 UNL     1       8.046   7.596  14.269  1.00  0.00     0.105 C 
BRANCH  38  39
HETATM   39  C29 UNL     1       8.381   8.415  15.498  1.00  0.00     0.215 C 
HETATM   40  N2  UNL     1       8.712   7.668  16.591  1.00  0.00    -0.370 N 
HETATM   41  H38 UNL     1       8.866   8.173  17.456  1.00  0.00     0.159 HD
HETATM   42  H39 UNL     1       8.515   6.678  16.651  1.00  0.00     0.159 HD
HETATM   43  O8  UNL     1       8.374   9.637  15.546  1.00  0.00    -0.274 OA
ENDBRANCH  38  39
ENDBRANCH  37  38
ENDBRANCH  36  37
BRANCH  36  44
HETATM   44  C30 UNL     1       6.629   8.203  11.680  1.00  0.00     0.163 C 
HETATM   45  O9  UNL     1       6.553   9.416  11.829  1.00  0.00    -0.648 OA
BRANCH  44  46
HETATM   46  O10 UNL     1       7.277   7.679  10.622  1.00  0.00    -0.775 OA
HETATM   47  H40 UNL     1       7.542   8.450  10.079  1.00  0.00     0.167 HD
ENDBRANCH  44  46
ENDBRANCH  36  44
ENDBRANCH  34  36
ENDBRANCH  31  32
ENDBRANCH  30  31
ENDBRANCH  28  30
ENDBRANCH  27  28
ENDBRANCH  26  27
ENDBRANCH   1  26
TORSDOF 14
ENDMDL
MODEL 3
REMARK minimizedAffinity -9.07557106
REMARK CNNscore 0.539532185
REMARK CNNaffinity 7.23978806
REMARK  14 active torsions:
REMARK  status: ('A' for Active; 'I' for Inactive)
REMARK    1  A    between atoms: C19_21  and  O3_22 
REMARK    2  A    between atoms: C19_21  and  C20_23 
REMARK    3  A    between atoms: C20_23  and  C21_25 
REMARK    4  A    between atoms: C21_25  and  O5_26 
REMARK    5  A    between atoms: O5_26  and  C22_27 
REMARK    6  A    between atoms: C22_27  and  C23_29 
REMARK    7  A    between atoms: C23_29  and  C24_30 
REMARK    8  A    between atoms: C24_30  and  C25_31 
REMARK       I    between atoms: C25_31  and  N1_33 
REMARK    9  A    between atoms: N1_33  and  C26_34 
REMARK   10  A    between atoms: C26_34  and  C27_35 
REMARK   11  A    between atoms: C26_34  and  C30_40 
REMARK   12  A    between atoms: C27_35  and  C28_36 
REMARK   13  A    between atoms: C28_36  and  C29_37 
REMARK       I    between atoms: C29_37  and  N2_38 
REMARK   14  A    between atoms: C30_40  and  O10_42 
ROOT
HETATM    1  C20 UNL     1       0.405   5.945  12.756  1.00  0.00     0.185 C 
HETATM    2  O4  UNL     1       0.627   6.322  13.911  1.00  0.00    -0.292 OA
ENDROOT
BRANCH   1   3
HETATM    3  C19 UNL     1      -1.044   5.778  12.213  1.00  0.00     0.128 C 
HETATM    4  C14 UNL     1      -2.162   5.997  13.283  1.00  0.00     0.005 C 
HETATM    5  C13 UNL     1      -2.608   7.445  13.514  1.00  0.00     0.091 C 
HETATM    6  C15 UNL     1      -1.762   5.373  14.648  1.00  0.00     0.019 C 
HETATM    7  C16 UNL     1      -3.345   5.260  12.600  1.00  0.00     0.002 C 
HETATM    8  C12 UNL     1      -3.886   7.468  14.345  1.00  0.00     0.133 C 
HETATM    9  C11 UNL     1      -5.074   6.642  13.811  1.00  0.00     0.072 C 
HETATM   10  O2  UNL     1      -3.946   8.180  15.345  1.00  0.00    -0.297 OA
HETATM   11  C2  UNL     1      -6.378   6.677  14.690  1.00  0.00    -0.009 C 
HETATM   12  C10 UNL     1      -4.607   5.195  13.472  1.00  0.00     0.003 C 
HETATM   13  C1  UNL     1      -6.136   6.163  16.127  1.00  0.00     0.021 C 
HETATM   14  C3  UNL     1      -6.913   8.141  14.740  1.00  0.00     0.022 C 
HETATM   15  C7  UNL     1      -7.441   5.766  14.044  1.00  0.00    -0.067 C 
HETATM   16  C4  UNL     1      -8.351   8.255  15.229  1.00  0.00     0.084 C 
HETATM   17  C5  UNL     1      -9.258   7.405  14.382  1.00  0.00     0.149 C 
HETATM   18  O1  UNL     1     -10.429   7.703  14.163  1.00  0.00    -0.293 OA
HETATM   19  C6  UNL     1      -8.726   6.121  13.871  1.00  0.00     0.053 C 
HETATM   20  C8  UNL     1      -6.993   4.386  13.620  1.00  0.00     0.035 C 
HETATM   21  C9  UNL     1      -5.736   4.434  12.761  1.00  0.00     0.010 C 
HETATM   22  C17 UNL     1      -2.729   3.945  12.140  1.00  0.00     0.009 C 
HETATM   23  C18 UNL     1      -1.284   4.309  11.751  1.00  0.00     0.047 C 
BRANCH   3  24
HETATM   24  O3  UNL     1      -1.322   6.582  11.063  1.00  0.00    -0.381 OA
HETATM   25  H25 UNL     1      -1.045   7.497  11.241  1.00  0.00     0.211 HD
ENDBRANCH   3  24
ENDBRANCH   1   3
BRANCH   1  26
HETATM   26  C21 UNL     1       1.565   5.795  11.769  1.00  0.00     0.260 C 
BRANCH  26  27
HETATM   27  O5  UNL     1       1.200   5.490  10.425  1.00  0.00    -0.314 OA
BRANCH  27  28
HETATM   28  C22 UNL     1       2.049   6.011   9.491  1.00  0.00     0.259 C 
HETATM   29  O6  UNL     1       2.687   5.344   8.690  1.00  0.00    -0.265 OA
BRANCH  28  30
HETATM   30  C23 UNL     1       2.017   7.523   9.476  1.00  0.00     0.120 C 
BRANCH  30  31
HETATM   31  C24 UNL     1       3.261   8.185   8.896  1.00  0.00     0.112 C 
BRANCH  31  32
HETATM   32  C25 UNL     1       4.409   8.215   9.886  1.00  0.00     0.218 C 
HETATM   33  O7  UNL     1       5.184   9.159   9.989  1.00  0.00    -0.274 OA
HETATM   34  N1  UNL     1       4.510   7.059  10.632  1.00  0.00    -0.347 N 
HETATM   35  H32 UNL     1       3.648   6.539  10.746  1.00  0.00     0.163 HD
BRANCH  34  36
HETATM   36  C26 UNL     1       5.440   7.007  11.766  1.00  0.00     0.182 C 
BRANCH  36  37
HETATM   37  C27 UNL     1       5.704   8.395  12.357  1.00  0.00     0.045 C 
BRANCH  37  38
HETATM   38  C28 UNL     1       5.947   8.407  13.870  1.00  0.00     0.105 C 
BRANCH  38  39
HETATM   39  C29 UNL     1       4.750   7.879  14.634  1.00  0.00     0.215 C 
HETATM   40  N2  UNL     1       5.047   6.871  15.505  1.00  0.00    -0.370 N 
HETATM   41  H38 UNL     1       4.264   6.435  15.978  1.00  0.00     0.159 HD
HETATM   42  H39 UNL     1       5.919   6.361  15.467  1.00  0.00     0.159 HD
HETATM   43  O8  UNL     1       3.606   8.296  14.515  1.00  0.00    -0.274 OA
ENDBRANCH  38  39
ENDBRANCH  37  38
ENDBRANCH  36  37
BRANCH  36  44
HETATM   44  C30 UNL     1       6.741   6.350  11.304  1.00  0.00     0.163 C 
HETATM   45  O9  UNL     1       7.867   6.806  11.455  1.00  0.00    -0.648 OA
BRANCH  44  46
HETATM   46  O10 UNL     1       6.558   5.142  10.739  1.00  0.00    -0.775 OA
HETATM   47  H40 UNL     1       7.454   4.849  10.470  1.00  0.00     0.167 HD
ENDBRANCH  44  46
ENDBRANCH  36  44
ENDBRANCH  34  36
ENDBRANCH  31  32
ENDBRANCH  30  31
ENDBRANCH  28  30
ENDBRANCH  27  28
ENDBRANCH  26  27
ENDBRANCH   1  26
TORSDOF 14
ENDMDL
MODEL 4
REMARK minimizedAffinity -8.0202961
REMARK CNNscore 0.47005266
REMARK CNNaffinity 6.20073938
REMARK  14 active torsions:
REMARK  status: ('A' for Active; 'I' for Inactive)
REMARK    1  A    between atoms: C19_21  and  O3_22 
REMARK    2  A    between atoms: C19_21  and  C20_23 
REMARK    3  A    between atoms: C20_23  and  C21_25 
REMARK    4  A    between atoms: C21_25  and  O5_26 
REMARK    5  A    between atoms: O5_26  and  C22_27 
REMARK    6  A    between atoms: C22_27  and  C23_29 
REMARK    7  A    between atoms: C23_29  and  C24_30 
REMARK    8  A    between atoms: C24_30  and  C25_31 
REMARK       I    between atoms: C25_31  and  N1_33 
REMARK    9  A    between atoms: N1_33  and  C26_34 
REMARK   10  A    between atoms: C26_34  and  C27_35 
REMARK   11  A    between atoms: C26_34  and  C30_40 
REMARK   12  A    between atoms: C27_35  and  C28_36 
REMARK   13  A    between atoms: C28_36  and  C29_37 
REMARK       I    between atoms: C29_37  and  N2_38 
REMARK   14  A    between atoms: C30_40  and  O10_42 
ROOT
HETATM    1  C20 UNL     1      -0.911  11.542  18.208  1.00  0.00     0.185 C 
HETATM    2  O4  UNL     1      -0.824  12.750  17.966  1.00  0.00    -0.292 OA
ENDROOT
BRANCH   1   3
HETATM    3  C19 UNL     1      -2.205  10.734  17.897  1.00  0.00     0.128 C 
HETATM    4  C14 UNL     1      -2.118   9.848  16.612  1.00  0.00     0.005 C 
HETATM    5  C13 UNL     1      -1.506   8.455  16.788  1.00  0.00     0.091 C 
HETATM    6  C15 UNL     1      -1.364  10.586  15.472  1.00  0.00     0.019 C 
HETATM    7  C16 UNL     1      -3.628   9.648  16.314  1.00  0.00     0.002 C 
HETATM    8  C12 UNL     1      -1.762   7.615  15.542  1.00  0.00     0.133 C 
HETATM    9  C11 UNL     1      -3.230   7.480  15.087  1.00  0.00     0.072 C 
HETATM   10  O2  UNL     1      -0.825   7.034  14.999  1.00  0.00    -0.297 OA
HETATM   11  C2  UNL     1      -3.467   6.614  13.796  1.00  0.00    -0.009 C 
HETATM   12  C10 UNL     1      -3.895   8.886  15.008  1.00  0.00     0.003 C 
HETATM   13  C1  UNL     1      -2.708   7.166  12.568  1.00  0.00     0.021 C 
HETATM   14  C3  UNL     1      -3.011   5.150  14.079  1.00  0.00     0.022 C 
HETATM   15  C7  UNL     1      -4.970   6.624  13.456  1.00  0.00    -0.067 C 
HETATM   16  C4  UNL     1      -3.525   4.137  13.066  1.00  0.00     0.084 C 
HETATM   17  C5  UNL     1      -5.026   4.200  12.981  1.00  0.00     0.149 C 
HETATM   18  O1  UNL     1      -5.715   3.217  12.725  1.00  0.00    -0.293 OA
HETATM   19  C6  UNL     1      -5.673   5.524  13.132  1.00  0.00     0.053 C 
HETATM   20  C8  UNL     1      -5.664   7.967  13.461  1.00  0.00     0.035 C 
HETATM   21  C9  UNL     1      -5.401   8.739  14.747  1.00  0.00     0.010 C 
HETATM   22  C17 UNL     1      -4.209  11.050  16.451  1.00  0.00     0.009 C 
HETATM   23  C18 UNL     1      -3.384  11.702  17.576  1.00  0.00     0.047 C 
BRANCH   3  24
HETATM   24  O3  UNL     1      -2.662   9.938  18.995  1.00  0.00    -0.381 OA
HETATM   25  H25 UNL     1      -1.917   9.418  19.341  1.00  0.00     0.211 HD
ENDBRANCH   3  24
ENDBRANCH   1   3
BRANCH   1  26
HETATM   26  C21 UNL     1       0.327  10.767  18.668  1.00  0.00     0.260 C 
BRANCH  26  27
HETATM   27  O5  UNL     1       0.882  11.170  19.917  1.00  0.00    -0.314 OA
BRANCH  27  28
HETATM   28  C22 UNL     1       1.950  10.418  20.315  1.00  0.00     0.259 C 
HETATM   29  O6  UNL     1       2.690   9.815  19.552  1.00  0.00    -0.265 OA
BRANCH  28  30
HETATM   30  C23 UNL     1       2.188  10.513  21.805  1.00  0.00     0.120 C 
BRANCH  30  31
HETATM   31  C24 UNL     1       3.300   9.616  22.336  1.00  0.00     0.112 C 
BRANCH  31  32
HETATM   32  C25 UNL     1       4.585  10.381  22.585  1.00  0.00     0.218 C 
HETATM   33  O7  UNL     1       5.349  10.132  23.510  1.00  0.00    -0.274 OA
HETATM   34  N1  UNL     1       4.788  11.405  21.682  1.00  0.00    -0.347 N 
HETATM   35  H32 UNL     1       4.338  11.287  20.782  1.00  0.00     0.163 HD
BRANCH  34  36
HETATM   36  C26 UNL     1       6.075  12.111  21.664  1.00  0.00     0.182 C 
BRANCH  36  37
HETATM   37  C27 UNL     1       6.325  12.883  22.963  1.00  0.00     0.045 C 
BRANCH  37  38
HETATM   38  C28 UNL     1       7.766  13.369  23.147  1.00  0.00     0.105 C 
BRANCH  38  39
HETATM   39  C29 UNL     1       8.769  12.266  22.875  1.00  0.00     0.215 C 
HETATM   40  N2  UNL     1       9.676  12.567  21.902  1.00  0.00    -0.370 N 
HETATM   41  H38 UNL     1      10.315  11.828  21.633  1.00  0.00     0.159 HD
HETATM   42  H39 UNL     1       9.546  13.336  21.258  1.00  0.00     0.159 HD
HETATM   43  O8  UNL     1       8.800  11.192  23.459  1.00  0.00    -0.274 OA
ENDBRANCH  38  39
ENDBRANCH  37  38
ENDBRANCH  36  37
BRANCH  36  44
HETATM   44  C30 UNL     1       6.106  13.045  20.454  1.00  0.00     0.163 C 
HETATM   45  O9  UNL     1       6.655  12.814  19.385  1.00  0.00    -0.648 OA
BRANCH  44  46
HETATM   46  O10 UNL     1       5.400  14.177  20.636  1.00  0.00    -0.775 OA
HETATM   47  H40 UNL     1       5.524  14.688  19.808  1.00  0.00     0.167 HD
ENDBRANCH  44  46
ENDBRANCH  36  44
ENDBRANCH  34  36
ENDBRANCH  31  32
ENDBRANCH  30  31
ENDBRANCH  28  30
ENDBRANCH  27  28
ENDBRANCH  26  27
ENDBRANCH   1  26
TORSDOF 14
ENDMDL
MODEL 5
REMARK minimizedAffinity -8.88179016
REMARK CNNscore 0.411437422
REMARK CNNaffinity 7.05461264
REMARK  14 active torsions:
REMARK  status: ('A' for Active; 'I' for Inactive)
REMARK    1  A    between atoms: C19_21  and  O3_22 
REMARK    2  A    between atoms: C19_21  and  C20_23 
REMARK    3  A    between atoms: C20_23  and  C21_25 
REMARK    4  A    between atoms: C21_25  and  O5_26 
REMARK    5  A    between atoms: O5_26  and  C22_27 
REMARK    6  A    between atoms: C22_27  and  C23_29 
REMARK    7  A    between atoms: C23_29  and  C24_30 
REMARK    8  A    between atoms: C24_30  and  C25_31 
REMARK       I    between atoms: C25_31  and  N1_33 
REMARK    9  A    between atoms: N1_33  and  C26_34 
REMARK   10  A    between atoms: C26_34  and  C27_35 
REMARK   11  A    between atoms: C26_34  and  C30_40 
REMARK   12  A    between atoms: C27_35  and  C28_36 
REMARK   13  A    between atoms: C28_36  and  C29_37 
REMARK       I    between atoms: C29_37  and  N2_38 
REMARK   14  A    between atoms: C30_40  and  O10_42 
ROOT
HETATM    1  C20 UNL     1      -0.210   6.236  13.659  1.00  0.00     0.185 C 
HETATM    2  O4  UNL     1      -0.147   6.581  14.843  1.00  0.00    -0.292 OA
ENDROOT
BRANCH   1   3
HETATM    3  C19 UNL     1      -1.570   6.107  12.913  1.00  0.00     0.128 C 
HETATM    4  C14 UNL     1      -2.824   6.212  13.840  1.00  0.00     0.005 C 
HETATM    5  C13 UNL     1      -3.328   7.628  14.142  1.00  0.00     0.091 C 
HETATM    6  C15 UNL     1      -2.594   5.467  15.183  1.00  0.00     0.019 C 
HETATM    7  C16 UNL     1      -3.889   5.531  12.940  1.00  0.00     0.002 C 
HETATM    8  C12 UNL     1      -4.705   7.560  14.793  1.00  0.00     0.133 C 
HETATM    9  C11 UNL     1      -5.794   6.776  14.032  1.00  0.00     0.072 C 
HETATM   10  O2  UNL     1      -4.913   8.174  15.837  1.00  0.00    -0.297 OA
HETATM   11  C2  UNL     1      -7.203   6.715  14.728  1.00  0.00    -0.009 C 
HETATM   12  C10 UNL     1      -5.254   5.372  13.626  1.00  0.00     0.003 C 
HETATM   13  C1  UNL     1      -7.142   6.071  16.131  1.00  0.00     0.021 C 
HETATM   14  C3  UNL     1      -7.773   8.162  14.840  1.00  0.00     0.022 C 
HETATM   15  C7  UNL     1      -8.151   5.859  13.864  1.00  0.00    -0.067 C 
HETATM   16  C4  UNL     1      -9.265   8.216  15.141  1.00  0.00     0.084 C 
HETATM   17  C5  UNL     1     -10.033   7.440  14.106  1.00  0.00     0.149 C 
HETATM   18  O1  UNL     1     -11.171   7.747  13.761  1.00  0.00    -0.293 OA
HETATM   19  C6  UNL     1      -9.410   6.216  13.554  1.00  0.00     0.053 C 
HETATM   20  C8  UNL     1      -7.620   4.529  13.378  1.00  0.00     0.035 C 
HETATM   21  C9  UNL     1      -6.262   4.671  12.704  1.00  0.00     0.010 C 
HETATM   22  C17 UNL     1      -3.189   4.272  12.448  1.00  0.00     0.009 C 
HETATM   23  C18 UNL     1      -1.714   4.685  12.291  1.00  0.00     0.047 C 
BRANCH   3  24
HETATM   24  O3  UNL     1      -1.711   7.013  11.815  1.00  0.00    -0.381 OA
HETATM   25  H25 UNL     1      -1.481   7.909  12.113  1.00  0.00     0.211 HD
ENDBRANCH   3  24
ENDBRANCH   1   3
BRANCH   1  26
HETATM   26  C21 UNL     1       1.075   6.089  12.840  1.00  0.00     0.260 C 
BRANCH  26  27
HETATM   27  O5  UNL     1       0.914   6.103  11.424  1.00  0.00    -0.314 OA
BRANCH  27  28
HETATM   28  C22 UNL     1       1.734   6.987  10.783  1.00  0.00     0.259 C 
HETATM   29  O6  UNL     1       1.851   8.165  11.090  1.00  0.00    -0.265 OA
BRANCH  28  30
HETATM   30  C23 UNL     1       2.578   6.315   9.724  1.00  0.00     0.120 C 
BRANCH  30  31
HETATM   31  C24 UNL     1       3.921   5.787  10.213  1.00  0.00     0.112 C 
BRANCH  31  32
HETATM   32  C25 UNL     1       4.760   6.868  10.864  1.00  0.00     0.218 C 
HETATM   33  O7  UNL     1       5.136   7.875  10.276  1.00  0.00    -0.274 OA
HETATM   34  N1  UNL     1       5.084   6.585  12.176  1.00  0.00    -0.347 N 
HETATM   35  H32 UNL     1       4.442   5.966  12.658  1.00  0.00     0.163 HD
BRANCH  34  36
HETATM   36  C26 UNL     1       5.721   7.615  13.004  1.00  0.00     0.182 C 
BRANCH  36  37
HETATM   37  C27 UNL     1       6.815   7.033  13.904  1.00  0.00     0.045 C 
BRANCH  37  38
HETATM   38  C28 UNL     1       7.812   8.064  14.442  1.00  0.00     0.105 C 
BRANCH  38  39
HETATM   39  C29 UNL     1       7.748   8.171  15.952  1.00  0.00     0.215 C 
HETATM   40  N2  UNL     1       8.842   7.666  16.593  1.00  0.00    -0.370 N 
HETATM   41  H38 UNL     1       8.805   7.645  17.605  1.00  0.00     0.159 HD
HETATM   42  H39 UNL     1       9.509   7.062  16.132  1.00  0.00     0.159 HD
HETATM   43  O8  UNL     1       6.821   8.666  16.578  1.00  0.00    -0.274 OA
ENDBRANCH  38  39
ENDBRANCH  37  38
ENDBRANCH  36  37
BRANCH  36  44
HETATM   44  C30 UNL     1       4.644   8.316  13.831  1.00  0.00     0.163 C 
HETATM   45  O9  UNL     1       4.488   9.527  13.925  1.00  0.00    -0.648 OA
BRANCH  44  46
HETATM   46  O10 UNL     1       3.795   7.463  14.437  1.00  0.00    -0.775 OA
HETATM   47  H40 UNL     1       3.182   8.034  14.945  1.00  0.00     0.167 HD
ENDBRANCH  44  46
ENDBRANCH  36  44
ENDBRANCH  34  36
ENDBRANCH  31  32
ENDBRANCH  30  31
ENDBRANCH  28  30
ENDBRANCH  27  28
ENDBRANCH  26  27
ENDBRANCH   1  26
TORSDOF 14
ENDMDL
MODEL 6
REMARK minimizedAffinity -7.93713951
REMARK CNNscore 0.390272439
REMARK CNNaffinity 6.75848913
REMARK  14 active torsions:
REMARK  status: ('A' for Active; 'I' for Inactive)
REMARK    1  A    between atoms: C19_21  and  O3_22 
REMARK    2  A    between atoms: C19_21  and  C20_23 
REMARK    3  A    between atoms: C20_23  and  C21_25 
REMARK    4  A    between atoms: C21_25  and  O5_26 
REMARK    5  A    between atoms: O5_26  and  C22_27 
REMARK    6  A    between atoms: C22_27  and  C23_29 
REMARK    7  A    between atoms: C23_29  and  C24_30 
REMARK    8  A    between atoms: C24_30  and  C25_31 
REMARK       I    between atoms: C25_31  and  N1_33 
REMARK    9  A    between atoms: N1_33  and  C26_34 
REMARK   10  A    between atoms: C26_34  and  C27_35 
REMARK   11  A    between atoms: C26_34  and  C30_40 
REMARK   12  A    between atoms: C27_35  and  C28_36 
REMARK   13  A    between atoms: C28_36  and  C29_37 
REMARK       I    between atoms: C29_37  and  N2_38 
REMARK   14  A    between atoms: C30_40  and  O10_42 
ROOT
HETATM    1  C20 UNL     1      -7.063   5.898  15.139  1.00  0.00     0.185 C 
HETATM    2  O4  UNL     1      -7.192   4.677  15.006  1.00  0.00    -0.292 OA
ENDROOT
BRANCH   1   3
HETATM    3  C19 UNL     1      -6.262   6.755  14.116  1.00  0.00     0.128 C 
HETATM    4  C14 UNL     1      -4.732   6.438  14.069  1.00  0.00     0.005 C 
HETATM    5  C13 UNL     1      -4.305   5.279  13.162  1.00  0.00     0.091 C 
HETATM    6  C15 UNL     1      -4.166   6.191  15.495  1.00  0.00     0.019 C 
HETATM    7  C16 UNL     1      -4.200   7.744  13.421  1.00  0.00     0.002 C 
HETATM    8  C12 UNL     1      -2.791   5.286  12.989  1.00  0.00     0.133 C 
HETATM    9  C11 UNL     1      -2.158   6.598  12.482  1.00  0.00     0.072 C 
HETATM   10  O2  UNL     1      -2.152   4.255  13.187  1.00  0.00    -0.297 OA
HETATM   11  C2  UNL     1      -0.593   6.582  12.319  1.00  0.00    -0.009 C 
HETATM   12  C10 UNL     1      -2.668   7.800  13.332  1.00  0.00     0.003 C 
HETATM   13  C1  UNL     1       0.136   6.262  13.643  1.00  0.00     0.021 C 
HETATM   14  C3  UNL     1      -0.210   5.523  11.240  1.00  0.00     0.022 C 
HETATM   15  C7  UNL     1      -0.125   7.975  11.855  1.00  0.00    -0.067 C 
HETATM   16  C4  UNL     1       1.212   5.665  10.715  1.00  0.00     0.084 C 
HETATM   17  C5  UNL     1       1.432   7.051  10.174  1.00  0.00     0.149 C 
HETATM   18  O1  UNL     1       2.197   7.283   9.242  1.00  0.00    -0.293 OA
HETATM   19  C6  UNL     1       0.756   8.177  10.858  1.00  0.00     0.053 C 
HETATM   20  C8  UNL     1      -0.677   9.167  12.604  1.00  0.00     0.035 C 
HETATM   21  C9  UNL     1      -2.195   9.120  12.708  1.00  0.00     0.010 C 
HETATM   22  C17 UNL     1      -4.908   8.844  14.200  1.00  0.00     0.009 C 
HETATM   23  C18 UNL     1      -6.296   8.259  14.523  1.00  0.00     0.047 C 
BRANCH   3  24
HETATM   24  O3  UNL     1      -6.797   6.713  12.790  1.00  0.00    -0.381 OA
HETATM   25  H25 UNL     1      -6.944   5.786  12.536  1.00  0.00     0.211 HD
ENDBRANCH   3  24
ENDBRANCH   1   3
BRANCH   1  26
HETATM   26  C21 UNL     1      -7.839   6.630  16.237  1.00  0.00     0.260 C 
BRANCH  26  27
HETATM   27  O5  UNL     1      -9.259   6.618  16.105  1.00  0.00    -0.314 OA
BRANCH  27  28
HETATM   28  C22 UNL     1      -9.744   7.580  15.266  1.00  0.00     0.259 C 
HETATM   29  O6  UNL     1      -9.688   8.781  15.490  1.00  0.00    -0.265 OA
BRANCH  28  30
HETATM   30  C23 UNL     1     -10.249   6.998  13.966  1.00  0.00     0.120 C 
BRANCH  30  31
HETATM   31  C24 UNL     1     -11.743   6.698  13.934  1.00  0.00     0.112 C 
BRANCH  31  32
HETATM   32  C25 UNL     1     -12.539   7.811  13.283  1.00  0.00     0.218 C 
HETATM   33  O7  UNL     1     -12.065   8.584  12.459  1.00  0.00    -0.274 OA
HETATM   34  N1  UNL     1     -13.840   7.883  13.738  1.00  0.00    -0.347 N 
HETATM   35  H32 UNL     1     -14.224   7.017  14.097  1.00  0.00     0.163 HD
BRANCH  34  36
HETATM   36  C26 UNL     1     -14.793   8.774  13.068  1.00  0.00     0.182 C 
BRANCH  36  37
HETATM   37  C27 UNL     1     -15.432   9.769  14.041  1.00  0.00     0.045 C 
BRANCH  37  38
HETATM   38  C28 UNL     1     -14.674  11.093  14.188  1.00  0.00     0.105 C 
BRANCH  38  39
HETATM   39  C29 UNL     1     -14.385  11.725  12.842  1.00  0.00     0.215 C 
HETATM   40  N2  UNL     1     -13.147  11.436  12.346  1.00  0.00    -0.370 N 
HETATM   41  H38 UNL     1     -12.883  11.903  11.486  1.00  0.00     0.159 HD
HETATM   42  H39 UNL     1     -12.409  11.050  12.920  1.00  0.00     0.159 HD
HETATM   43  O8  UNL     1     -15.167  12.432  12.220  1.00  0.00    -0.274 OA
ENDBRANCH  38  39
ENDBRANCH  37  38
ENDBRANCH  36  37
BRANCH  36  44
HETATM   44  C30 UNL     1     -15.857   7.924  12.374  1.00  0.00     0.163 C 
HETATM   45  O9  UNL     1     -16.712   7.250  12.934  1.00  0.00    -0.648 OA
BRANCH  44  46
HETATM   46  O10 UNL     1     -15.824   8.016  11.031  1.00  0.00    -0.775 OA
HETATM   47  H40 UNL     1     -16.529   7.413  10.717  1.00  0.00     0.167 HD
ENDBRANCH  44  46
ENDBRANCH  36  44
ENDBRANCH  34  36
ENDBRANCH  31  32
ENDBRANCH  30  31
ENDBRANCH  28  30
ENDBRANCH  27  28
ENDBRANCH  26  27
ENDBRANCH   1  26
TORSDOF 14
ENDMDL
MODEL 7
REMARK minimizedAffinity -7.62902212
REMARK CNNscore 0.34467417
REMARK CNNaffinity 6.74230814
REMARK  14 active torsions:
REMARK  status: ('A' for Active; 'I' for Inactive)
REMARK    1  A    between atoms: C19_21  and  O3_22 
REMARK    2  A    between atoms: C19_21  and  C20_23 
REMARK    3  A    between atoms: C20_23  and  C21_25 
REMARK    4  A    between atoms: C21_25  and  O5_26 
REMARK    5  A    between atoms: O5_26  and  C22_27 
REMARK    6  A    between atoms: C22_27  and  C23_29 
REMARK    7  A    between atoms: C23_29  and  C24_30 
REMARK    8  A    between atoms: C24_30  and  C25_31 
REMARK       I    between atoms: C25_31  and  N1_33 
REMARK    9  A    between atoms: N1_33  and  C26_34 
REMARK   10  A    between atoms: C26_34  and  C27_35 
REMARK   11  A    between atoms: C26_34  and  C30_40 
REMARK   12  A    between atoms: C27_35  and  C28_36 
REMARK   13  A    between atoms: C28_36  and  C29_37 
REMARK       I    between atoms: C29_37  and  N2_38 
REMARK   14  A    between atoms: C30_40  and  O10_42 
ROOT
HETATM    1  C20 UNL     1      -1.181   8.981  15.613  1.00  0.00     0.185 C 
HETATM    2  O4  UNL     1      -0.232   8.709  14.870  1.00  0.00    -0.292 OA
ENDROOT
BRANCH   1   3
HETATM    3  C19 UNL     1      -2.454   8.088  15.677  1.00  0.00     0.128 C 
HETATM    4  C14 UNL     1      -2.670   7.184  14.421  1.00  0.00     0.005 C 
HETATM    5  C13 UNL     1      -1.942   5.835  14.422  1.00  0.00     0.091 C 
HETATM    6  C15 UNL     1      -2.312   7.944  13.114  1.00  0.00     0.019 C 
HETATM    7  C16 UNL     1      -4.186   6.884  14.555  1.00  0.00     0.002 C 
HETATM    8  C12 UNL     1      -2.479   4.956  13.298  1.00  0.00     0.133 C 
HETATM    9  C11 UNL     1      -4.003   4.720  13.270  1.00  0.00     0.072 C 
HETATM   10  O2  UNL     1      -1.693   4.423  12.517  1.00  0.00    -0.297 OA
HETATM   11  C2  UNL     1      -4.531   3.815  12.098  1.00  0.00    -0.009 C 
HETATM   12  C10 UNL     1      -4.755   6.080  13.377  1.00  0.00     0.003 C 
HETATM   13  C1  UNL     1      -4.182   4.388  10.706  1.00  0.00     0.021 C 
HETATM   14  C3  UNL     1      -3.920   2.388  12.245  1.00  0.00     0.022 C 
HETATM   15  C7  UNL     1      -6.068   3.724  12.190  1.00  0.00    -0.067 C 
HETATM   16  C4  UNL     1      -4.628   1.324  11.418  1.00  0.00     0.084 C 
HETATM   17  C5  UNL     1      -6.094   1.293  11.754  1.00  0.00     0.149 C 
HETATM   18  O1  UNL     1      -6.761   0.263  11.702  1.00  0.00    -0.293 OA
HETATM   19  C6  UNL     1      -6.759   2.575  12.077  1.00  0.00     0.053 C 
HETATM   20  C8  UNL     1      -6.820   5.021  12.385  1.00  0.00     0.035 C 
HETATM   21  C9  UNL     1      -6.261   5.833  13.546  1.00  0.00     0.010 C 
HETATM   22  C17 UNL     1      -4.797   8.248  14.845  1.00  0.00     0.009 C 
HETATM   23  C18 UNL     1      -3.737   8.974  15.695  1.00  0.00     0.047 C 
BRANCH   3  24
HETATM   24  O3  UNL     1      -2.535   7.288  16.860  1.00  0.00    -0.381 OA
HETATM   25  H25 UNL     1      -1.690   6.822  16.986  1.00  0.00     0.211 HD
ENDBRANCH   3  24
ENDBRANCH   1   3
BRANCH   1  26
HETATM   26  C21 UNL     1      -1.052  10.123  16.624  1.00  0.00     0.260 C 
BRANCH  26  27
HETATM   27  O5  UNL     1       0.174  10.850  16.586  1.00  0.00    -0.314 OA
BRANCH  27  28
HETATM   28  C22 UNL     1       1.105  10.410  17.482  1.00  0.00     0.259 C 
HETATM   29  O6  UNL     1       1.571   9.280  17.493  1.00  0.00    -0.265 OA
BRANCH  28  30
HETATM   30  C23 UNL     1       1.591  11.519  18.388  1.00  0.00     0.120 C 
BRANCH  30  31
HETATM   31  C24 UNL     1       0.832  11.652  19.703  1.00  0.00     0.112 C 
BRANCH  31  32
HETATM   32  C25 UNL     1       1.735  12.063  20.848  1.00  0.00     0.218 C 
HETATM   33  O7  UNL     1       1.631  13.133  21.438  1.00  0.00    -0.274 OA
HETATM   34  N1  UNL     1       2.705  11.125  21.136  1.00  0.00    -0.347 N 
HETATM   35  H32 UNL     1       2.478  10.172  20.878  1.00  0.00     0.163 HD
BRANCH  34  36
HETATM   36  C26 UNL     1       3.531  11.281  22.339  1.00  0.00     0.182 C 
BRANCH  36  37
HETATM   37  C27 UNL     1       4.978  11.651  21.999  1.00  0.00     0.045 C 
BRANCH  37  38
HETATM   38  C28 UNL     1       5.957  11.538  23.172  1.00  0.00     0.105 C 
BRANCH  38  39
HETATM   39  C29 UNL     1       7.000  12.636  23.140  1.00  0.00     0.215 C 
HETATM   40  N2  UNL     1       6.522  13.846  22.728  1.00  0.00    -0.370 N 
HETATM   41  H38 UNL     1       7.202  14.588  22.616  1.00  0.00     0.159 HD
HETATM   42  H39 UNL     1       5.632  13.946  22.258  1.00  0.00     0.159 HD
HETATM   43  O8  UNL     1       8.174  12.493  23.454  1.00  0.00    -0.274 OA
ENDBRANCH  38  39
ENDBRANCH  37  38
ENDBRANCH  36  37
BRANCH  36  44
HETATM   44  C30 UNL     1       3.470   9.986  23.148  1.00  0.00     0.163 C 
HETATM   45  O9  UNL     1       3.113   9.887  24.315  1.00  0.00    -0.648 OA
BRANCH  44  46
HETATM   46  O10 UNL     1       3.798   8.893  22.433  1.00  0.00    -0.775 OA
HETATM   47  H40 UNL     1       3.744   8.149  23.068  1.00  0.00     0.167 HD
ENDBRANCH  44  46
ENDBRANCH  36  44
ENDBRANCH  34  36
ENDBRANCH  31  32
ENDBRANCH  30  31
ENDBRANCH  28  30
ENDBRANCH  27  28
ENDBRANCH  26  27
ENDBRANCH   1  26
TORSDOF 14
ENDMDL
MODEL 8
REMARK minimizedAffinity -7.57515144
REMARK CNNscore 0.342474192
REMARK CNNaffinity 6.70042658
REMARK  14 active torsions:
REMARK  status: ('A' for Active; 'I' for Inactive)
REMARK    1  A    between atoms: C19_21  and  O3_22 
REMARK    2  A    between atoms: C19_21  and  C20_23 
REMARK    3  A    between atoms: C20_23  and  C21_25 
REMARK    4  A    between atoms: C21_25  and  O5_26 
REMARK    5  A    between atoms: O5_26  and  C22_27 
REMARK    6  A    between atoms: C22_27  and  C23_29 
REMARK    7  A    between atoms: C23_29  and  C24_30 
REMARK    8  A    between atoms: C24_30  and  C25_31 
REMARK       I    between atoms: C25_31  and  N1_33 
REMARK    9  A    between atoms: N1_33  and  C26_34 
REMARK   10  A    between atoms: C26_34  and  C27_35 
REMARK   11  A    between atoms: C26_34  and  C30_40 
REMARK   12  A    between atoms: C27_35  and  C28_36 
REMARK   13  A    between atoms: C28_36  and  C29_37 
REMARK       I    between atoms: C29_37  and  N2_38 
REMARK   14  A    between atoms: C30_40  and  O10_42 
ROOT
HETATM    1  C20 UNL     1      -1.137   9.007  15.912  1.00  0.00     0.185 C 
HETATM    2  O4  UNL     1      -0.152   8.753  15.211  1.00  0.00    -0.292 OA
ENDROOT
BRANCH   1   3
HETATM    3  C19 UNL     1      -2.413   8.115  15.887  1.00  0.00     0.128 C 
HETATM    4  C14 UNL     1      -2.547   7.220  14.612  1.00  0.00     0.005 C 
HETATM    5  C13 UNL     1      -1.822   5.871  14.650  1.00  0.00     0.091 C 
HETATM    6  C15 UNL     1      -2.105   7.990  13.337  1.00  0.00     0.019 C 
HETATM    7  C16 UNL     1      -4.069   6.921  14.646  1.00  0.00     0.002 C 
HETATM    8  C12 UNL     1      -2.285   5.001  13.487  1.00  0.00     0.133 C 
HETATM    9  C11 UNL     1      -3.804   4.767  13.359  1.00  0.00     0.072 C 
HETATM   10  O2  UNL     1      -1.451   4.473  12.754  1.00  0.00    -0.297 OA
HETATM   11  C2  UNL     1      -4.257   3.871  12.148  1.00  0.00    -0.009 C 
HETATM   12  C10 UNL     1      -4.561   6.126  13.427  1.00  0.00     0.003 C 
HETATM   13  C1  UNL     1      -3.818   4.454  10.786  1.00  0.00     0.021 C 
HETATM   14  C3  UNL     1      -3.656   2.443  12.324  1.00  0.00     0.022 C 
HETATM   15  C7  UNL     1      -5.795   3.781  12.140  1.00  0.00    -0.067 C 
HETATM   16  C4  UNL     1      -4.310   1.386  11.444  1.00  0.00     0.084 C 
HETATM   17  C5  UNL     1      -5.794   1.353  11.685  1.00  0.00     0.149 C 
HETATM   18  O1  UNL     1      -6.458   0.324  11.583  1.00  0.00    -0.293 OA
HETATM   19  C6  UNL     1      -6.478   2.634  11.974  1.00  0.00     0.053 C 
HETATM   20  C8  UNL     1      -6.558   5.077  12.297  1.00  0.00     0.035 C 
HETATM   21  C9  UNL     1      -6.075   5.880  13.497  1.00  0.00     0.010 C 
HETATM   22  C17 UNL     1      -4.697   8.284  14.907  1.00  0.00     0.009 C 
HETATM   23  C18 UNL     1      -3.693   9.002  15.828  1.00  0.00     0.047 C 
BRANCH   3  24
HETATM   24  O3  UNL     1      -2.570   7.306  17.055  1.00  0.00    -0.381 OA
HETATM   25  H25 UNL     1      -1.735   6.838  17.232  1.00  0.00     0.211 HD
ENDBRANCH   3  24
ENDBRANCH   1   3
BRANCH   1  26
HETATM   26  C21 UNL     1      -1.060  10.122  16.958  1.00  0.00     0.260 C 
BRANCH  26  27
HETATM   27  O5  UNL     1      -0.931  11.446  16.446  1.00  0.00    -0.314 OA
BRANCH  27  28
HETATM   28  C22 UNL     1       0.072  12.167  17.027  1.00  0.00     0.259 C 
HETATM   29  O6  UNL     1       1.263  11.981  16.822  1.00  0.00    -0.265 OA
BRANCH  28  30
HETATM   30  C23 UNL     1      -0.460  13.309  17.863  1.00  0.00     0.120 C 
BRANCH  30  31
HETATM   31  C24 UNL     1      -0.514  13.036  19.362  1.00  0.00     0.112 C 
BRANCH  31  32
HETATM   32  C25 UNL     1       0.813  12.543  19.903  1.00  0.00     0.218 C 
HETATM   33  O7  UNL     1       1.833  13.222  19.909  1.00  0.00    -0.274 OA
HETATM   34  N1  UNL     1       0.761  11.240  20.357  1.00  0.00    -0.347 N 
HETATM   35  H32 UNL     1      -0.153  10.920  20.656  1.00  0.00     0.163 HD
BRANCH  34  36
HETATM   36  C26 UNL     1       1.904  10.682  21.090  1.00  0.00     0.182 C 
BRANCH  36  37
HETATM   37  C27 UNL     1       2.460  11.666  22.124  1.00  0.00     0.045 C 
BRANCH  37  38
HETATM   38  C28 UNL     1       3.549  11.087  23.032  1.00  0.00     0.105 C 
BRANCH  38  39
HETATM   39  C29 UNL     1       3.065   9.860  23.777  1.00  0.00     0.215 C 
HETATM   40  N2  UNL     1       3.323   8.683  23.136  1.00  0.00    -0.370 N 
HETATM   41  H38 UNL     1       2.946   7.843  23.561  1.00  0.00     0.159 HD
HETATM   42  H39 UNL     1       3.583   8.642  22.160  1.00  0.00     0.159 HD
HETATM   43  O8  UNL     1       2.496   9.879  24.860  1.00  0.00    -0.274 OA
ENDBRANCH  38  39
ENDBRANCH  37  38
ENDBRANCH  36  37
BRANCH  36  44
HETATM   44  C30 UNL     1       2.981  10.274  20.084  1.00  0.00     0.163 C 
HETATM   45  O9  UNL     1       4.184  10.225  20.304  1.00  0.00    -0.648 OA
BRANCH  44  46
HETATM   46  O10 UNL     1       2.482   9.897  18.891  1.00  0.00    -0.775 OA
HETATM   47  H40 UNL     1       3.267   9.690  18.343  1.00  0.00     0.167 HD
ENDBRANCH  44  46
ENDBRANCH  36  44
ENDBRANCH  34  36
ENDBRANCH  31  32
ENDBRANCH  30  31
ENDBRANCH  28  30
ENDBRANCH  27  28
ENDBRANCH  26  27
ENDBRANCH   1  26
TORSDOF 14
ENDMDL
MODEL 9
REMARK minimizedAffinity -7.60004425
REMARK CNNscore 0.339810282
REMARK CNNaffinity 6.73279333
REMARK  14 active torsions:
REMARK  status: ('A' for Active; 'I' for Inactive)
REMARK    1  A    between atoms: C19_21  and  O3_22 
REMARK    2  A    between atoms: C19_21  and  C20_23 
REMARK    3  A    between atoms: C20_23  and  C21_25 
REMARK    4  A    between atoms: C21_25  and  O5_26 
REMARK    5  A    between atoms: O5_26  and  C22_27 
REMARK    6  A    between atoms: C22_27  and  C23_29 
REMARK    7  A    between atoms: C23_29  and  C24_30 
REMARK    8  A    between atoms: C24_30  and  C25_31 
REMARK       I    between atoms: C25_31  and  N1_33 
REMARK    9  A    between atoms: N1_33  and  C26_34 
REMARK   10  A    between atoms: C26_34  and  C27_35 
REMARK   11  A    between atoms: C26_34  and  C30_40 
REMARK   12  A    between atoms: C27_35  and  C28_36 
REMARK   13  A    between atoms: C28_36  and  C29_37 
REMARK       I    between atoms: C29_37  and  N2_38 
REMARK   14  A    between atoms: C30_40  and  O10_42 
ROOT
HETATM    1  C20 UNL     1       0.521   7.413  13.696  1.00  0.00     0.185 C 
HETATM    2  O4  UNL     1       1.450   6.622  13.891  1.00  0.00    -0.292 OA
ENDROOT
BRANCH   1   3
HETATM    3  C19 UNL     1      -0.757   6.998  12.910  1.00  0.00     0.128 C 
HETATM    4  C14 UNL     1      -2.037   6.851  13.795  1.00  0.00     0.005 C 
HETATM    5  C13 UNL     1      -2.832   8.135  14.058  1.00  0.00     0.091 C 
HETATM    6  C15 UNL     1      -1.704   6.182  15.157  1.00  0.00     0.019 C 
HETATM    7  C16 UNL     1      -2.908   5.956  12.874  1.00  0.00     0.002 C 
HETATM    8  C12 UNL     1      -4.187   7.790  14.666  1.00  0.00     0.133 C 
HETATM    9  C11 UNL     1      -5.064   6.791  13.884  1.00  0.00     0.072 C 
HETATM   10  O2  UNL     1      -4.553   8.358  15.693  1.00  0.00    -0.297 OA
HETATM   11  C2  UNL     1      -6.453   6.447  14.536  1.00  0.00    -0.009 C 
HETATM   12  C10 UNL     1      -4.233   5.525  13.519  1.00  0.00     0.003 C 
HETATM   13  C1  UNL     1      -6.308   5.842  15.951  1.00  0.00     0.021 C 
HETATM   14  C3  UNL     1      -7.313   7.746  14.607  1.00  0.00     0.022 C 
HETATM   15  C7  UNL     1      -7.174   5.405  13.658  1.00  0.00    -0.067 C 
HETATM   16  C4  UNL     1      -8.793   7.493  14.859  1.00  0.00     0.084 C 
HETATM   17  C5  UNL     1      -9.349   6.566  13.814  1.00  0.00     0.149 C 
HETATM   18  O1  UNL     1     -10.513   6.627  13.428  1.00  0.00    -0.293 OA
HETATM   19  C6  UNL     1      -8.468   5.491  13.302  1.00  0.00     0.053 C 
HETATM   20  C8  UNL     1      -6.364   4.209  13.211  1.00  0.00     0.035 C 
HETATM   21  C9  UNL     1      -5.042   4.622  12.577  1.00  0.00     0.010 C 
HETATM   22  C17 UNL     1      -1.947   4.864  12.424  1.00  0.00     0.009 C 
HETATM   23  C18 UNL     1      -0.583   5.571  12.307  1.00  0.00     0.047 C 
BRANCH   3  24
HETATM   24  O3  UNL     1      -1.045   7.845  11.794  1.00  0.00    -0.381 OA
HETATM   25  H25 UNL     1      -1.014   8.773  12.083  1.00  0.00     0.211 HD
ENDBRANCH   3  24
ENDBRANCH   1   3
BRANCH   1  26
HETATM   26  C21 UNL     1       0.533   8.784  14.377  1.00  0.00     0.260 C 
BRANCH  26  27
HETATM   27  O5  UNL     1       1.519   9.700  13.909  1.00  0.00    -0.314 OA
BRANCH  27  28
HETATM   28  C22 UNL     1       2.419  10.079  14.864  1.00  0.00     0.259 C 
HETATM   29  O6  UNL     1       2.194  10.066  16.066  1.00  0.00    -0.265 OA
BRANCH  28  30
HETATM   30  C23 UNL     1       3.773  10.401  14.274  1.00  0.00     0.120 C 
BRANCH  30  31
HETATM   31  C24 UNL     1       4.939   9.633  14.886  1.00  0.00     0.112 C 
BRANCH  31  32
HETATM   32  C25 UNL     1       6.281  10.182  14.446  1.00  0.00     0.218 C 
HETATM   33  O7  UNL     1       6.713  11.272  14.803  1.00  0.00    -0.274 OA
HETATM   34  N1  UNL     1       6.950   9.344  13.578  1.00  0.00    -0.347 N 
HETATM   35  H32 UNL     1       6.710   8.362  13.650  1.00  0.00     0.163 HD
BRANCH  34  36
HETATM   36  C26 UNL     1       8.342   9.635  13.216  1.00  0.00     0.182 C 
BRANCH  36  37
HETATM   37  C27 UNL     1       9.196   9.973  14.442  1.00  0.00     0.045 C 
BRANCH  37  38
HETATM   38  C28 UNL     1       9.721   8.754  15.207  1.00  0.00     0.105 C 
BRANCH  38  39
HETATM   39  C29 UNL     1       9.085   8.635  16.576  1.00  0.00     0.215 C 
HETATM   40  N2  UNL     1       8.008   7.798  16.619  1.00  0.00    -0.370 N 
HETATM   41  H38 UNL     1       7.505   7.751  17.497  1.00  0.00     0.159 HD
HETATM   42  H39 UNL     1       7.531   7.485  15.784  1.00  0.00     0.159 HD
HETATM   43  O8  UNL     1       9.476   9.214  17.581  1.00  0.00    -0.274 OA
ENDBRANCH  38  39
ENDBRANCH  37  38
ENDBRANCH  36  37
BRANCH  36  44
HETATM   44  C30 UNL     1       8.357  10.780  12.203  1.00  0.00     0.163 C 
HETATM   45  O9  UNL     1       8.859  11.883  12.376  1.00  0.00    -0.648 OA
BRANCH  44  46
HETATM   46  O10 UNL     1       7.800  10.454  11.020  1.00  0.00    -0.775 OA
HETATM   47  H40 UNL     1       7.852  11.271  10.482  1.00  0.00     0.167 HD
ENDBRANCH  44  46
ENDBRANCH  36  44
ENDBRANCH  34  36
ENDBRANCH  31  32
ENDBRANCH  30  31
ENDBRANCH  28  30
ENDBRANCH  27  28
ENDBRANCH  26  27
ENDBRANCH   1  26
TORSDOF 14
ENDMDL
