MODEL 1
REMARK minimizedAffinity -9.84048653
REMARK  4 active torsions:
REMARK  status: ('A' for Active; 'I' for Inactive)
REMARK    1  A    between atoms: C14_16  and  C15_17 
REMARK    2  A    between atoms: C15_17  and  C17_19 
REMARK    3  A    between atoms: C17_19  and  C18_20 
REMARK    4  A    between atoms: C18_20  and  C19_22 
ROOT
HETATM    1  C1  UNL     1      -0.072   6.007  10.691  1.00  0.00     0.017 C 
HETATM    2  C2  UNL     1      -0.571   5.131  11.587  1.00  0.00    -0.060 C 
HETATM    3  C3  UNL     1       0.101   3.793  11.790  1.00  0.00     0.212 C 
HETATM    4  O1  UNL     1      -0.769   2.660  11.962  1.00  0.00    -0.317 OA
HETATM    5  C4  UNL     1      -1.641   2.237  11.017  1.00  0.00     0.259 C 
HETATM    6  O2  UNL     1      -1.981   1.059  10.951  1.00  0.00    -0.265 OA
HETATM    7  C5  UNL     1      -2.251   3.277  10.118  1.00  0.00     0.112 C 
HETATM    8  C6  UNL     1      -3.323   4.112  10.825  1.00  0.00     0.020 C 
HETATM    9  C7  UNL     1      -3.010   4.540  12.263  1.00  0.00    -0.024 A 
HETATM   10  C8  UNL     1      -3.305   3.531  13.353  1.00  0.00     0.022 A 
HETATM   11  C9  UNL     1      -4.170   4.773  13.276  1.00  0.00    -0.027 A 
HETATM   12  C10 UNL     1      -5.643   4.402  12.970  1.00  0.00     0.011 C 
HETATM   13  C11 UNL     1      -6.681   5.529  13.068  1.00  0.00     0.011 C 
HETATM   14  C12 UNL     1      -6.499   6.355  14.346  1.00  0.00    -0.032 C 
HETATM   15  C13 UNL     1      -6.768   5.435  15.568  1.00  0.00     0.016 C 
HETATM   16  C14 UNL     1      -7.359   7.652  14.468  1.00  0.00    -0.002 C 
HETATM   17  C23 UNL     1      -6.498   8.573  15.382  1.00  0.00     0.006 C 
HETATM   18  C24 UNL     1      -5.090   7.957  15.455  1.00  0.00     0.011 C 
HETATM   19  C25 UNL     1      -5.036   6.949  14.295  1.00  0.00    -0.032 C 
HETATM   20  C26 UNL     1      -4.730   7.766  12.989  1.00  0.00     0.016 C 
HETATM   21  C27 UNL     1      -3.978   5.806  14.429  1.00  0.00     0.004 C 
HETATM   22  C28 UNL     1      -2.548   6.368  14.641  1.00  0.00     0.007 C 
HETATM   23  C29 UNL     1      -1.415   5.721  13.859  1.00  0.00     0.010 C 
HETATM   24  C30 UNL     1      -1.809   5.490  12.396  1.00  0.00     0.025 C 
ENDROOT
BRANCH  16  25
HETATM   25  C15 UNL     1      -8.872   7.648  14.843  1.00  0.00    -0.007 C 
HETATM   26  C16 UNL     1      -9.233   7.585  16.334  1.00  0.00     0.011 C 
BRANCH  25  27
HETATM   27  C17 UNL     1      -9.649   6.566  14.067  1.00  0.00     0.087 C 
BRANCH  27  28
HETATM   28  C18 UNL     1     -11.015   7.055  13.609  1.00  0.00     0.149 C 
HETATM   29  O3  UNL     1     -11.154   7.830  12.667  1.00  0.00    -0.293 OA
BRANCH  28  30
HETATM   30  C19 UNL     1     -12.193   6.508  14.345  1.00  0.00     0.052 C 
HETATM   31  C20 UNL     1     -13.476   6.823  14.084  1.00  0.00    -0.084 C 
HETATM   32  C21 UNL     1     -13.937   7.806  13.037  1.00  0.00     0.043 C 
HETATM   33  C22 UNL     1     -14.593   6.193  14.875  1.00  0.00     0.043 C 
ENDBRANCH  28  30
ENDBRANCH  27  28
ENDBRANCH  25  27
ENDBRANCH  16  25
TORSDOF 4
ENDMDL
MODEL 2
REMARK minimizedAffinity -9.12652969
REMARK  4 active torsions:
REMARK  status: ('A' for Active; 'I' for Inactive)
REMARK    1  A    between atoms: C14_16  and  C15_17 
REMARK    2  A    between atoms: C15_17  and  C17_19 
REMARK    3  A    between atoms: C17_19  and  C18_20 
REMARK    4  A    between atoms: C18_20  and  C19_22 
ROOT
HETATM    1  C1  UNL     1      -5.625   4.888  13.372  1.00  0.00     0.017 C 
HETATM    2  C2  UNL     1      -4.791   5.660  14.097  1.00  0.00    -0.060 C 
HETATM    3  C3  UNL     1      -5.246   6.225  15.424  1.00  0.00     0.212 C 
HETATM    4  O1  UNL     1      -4.855   7.580  15.709  1.00  0.00    -0.317 OA
HETATM    5  C4  UNL     1      -5.242   8.642  14.965  1.00  0.00     0.259 C 
HETATM    6  O2  UNL     1      -5.341   9.761  15.461  1.00  0.00    -0.265 OA
HETATM    7  C5  UNL     1      -5.448   8.421  13.492  1.00  0.00     0.112 C 
HETATM    8  C6  UNL     1      -4.129   8.282  12.726  1.00  0.00     0.020 C 
HETATM    9  C7  UNL     1      -3.036   7.448  13.402  1.00  0.00    -0.024 A 
HETATM   10  C8  UNL     1      -2.179   8.155  14.430  1.00  0.00     0.022 A 
HETATM   11  C9  UNL     1      -1.535   7.753  13.119  1.00  0.00    -0.027 A 
HETATM   12  C10 UNL     1      -1.064   9.001  12.331  1.00  0.00     0.011 C 
HETATM   13  C11 UNL     1      -0.206   8.754  11.082  1.00  0.00     0.011 C 
HETATM   14  C12 UNL     1       0.903   7.731  11.352  1.00  0.00    -0.032 C 
HETATM   15  C13 UNL     1       1.872   8.326  12.410  1.00  0.00     0.016 C 
HETATM   16  C14 UNL     1       1.718   7.241  10.113  1.00  0.00    -0.002 C 
HETATM   17  C23 UNL     1       2.181   5.813  10.527  1.00  0.00     0.006 C 
HETATM   18  C24 UNL     1       1.363   5.408  11.766  1.00  0.00     0.011 C 
HETATM   19  C25 UNL     1       0.187   6.398  11.808  1.00  0.00    -0.032 C 
HETATM   20  C26 UNL     1      -0.890   5.879  10.790  1.00  0.00     0.016 C 
HETATM   21  C27 UNL     1      -0.495   6.595  13.201  1.00  0.00     0.004 C 
HETATM   22  C28 UNL     1      -0.983   5.249  13.797  1.00  0.00     0.007 C 
HETATM   23  C29 UNL     1      -2.359   5.223  14.443  1.00  0.00     0.010 C 
HETATM   24  C30 UNL     1      -3.391   5.963  13.584  1.00  0.00     0.025 C 
ENDROOT
BRANCH  16  25
HETATM   25  C15 UNL     1       2.840   8.083   9.435  1.00  0.00    -0.007 C 
HETATM   26  C16 UNL     1       2.737   8.313   7.920  1.00  0.00     0.011 C 
BRANCH  25  27
HETATM   27  C17 UNL     1       4.244   7.559   9.794  1.00  0.00     0.087 C 
BRANCH  27  28
HETATM   28  C18 UNL     1       5.075   8.598  10.532  1.00  0.00     0.149 C 
HETATM   29  O3  UNL     1       5.359   9.685  10.037  1.00  0.00    -0.293 OA
BRANCH  28  30
HETATM   30  C19 UNL     1       5.498   8.242  11.918  1.00  0.00     0.052 C 
HETATM   31  C20 UNL     1       6.360   7.255  12.229  1.00  0.00    -0.084 C 
HETATM   32  C21 UNL     1       7.009   6.321  11.240  1.00  0.00     0.043 C 
HETATM   33  C22 UNL     1       6.737   6.995  13.665  1.00  0.00     0.043 C 
ENDBRANCH  28  30
ENDBRANCH  27  28
ENDBRANCH  25  27
ENDBRANCH  16  25
TORSDOF 4
ENDMDL
MODEL 3
REMARK minimizedAffinity -9.11564541
REMARK  4 active torsions:
REMARK  status: ('A' for Active; 'I' for Inactive)
REMARK    1  A    between atoms: C14_16  and  C15_17 
REMARK    2  A    between atoms: C15_17  and  C17_19 
REMARK    3  A    between atoms: C17_19  and  C18_20 
REMARK    4  A    between atoms: C18_20  and  C19_22 
ROOT
HETATM    1  C1  UNL     1       2.551   9.176  11.874  1.00  0.00     0.017 C 
HETATM    2  C2  UNL     1       2.548   7.830  11.950  1.00  0.00    -0.060 C 
HETATM    3  C3  UNL     1       3.819   7.056  11.683  1.00  0.00     0.212 C 
HETATM    4  O1  UNL     1       3.679   5.840  10.927  1.00  0.00    -0.317 OA
HETATM    5  C4  UNL     1       3.220   5.800   9.654  1.00  0.00     0.259 C 
HETATM    6  O2  UNL     1       3.565   4.907   8.884  1.00  0.00    -0.265 OA
HETATM    7  C5  UNL     1       2.199   6.827   9.250  1.00  0.00     0.112 C 
HETATM    8  C6  UNL     1       0.810   6.537   9.828  1.00  0.00     0.020 C 
HETATM    9  C7  UNL     1       0.768   6.057  11.283  1.00  0.00    -0.024 A 
HETATM   10  C8  UNL     1       0.998   4.580  11.518  1.00  0.00     0.022 A 
HETATM   11  C9  UNL     1      -0.390   5.134  11.765  1.00  0.00    -0.027 A 
HETATM   12  C10 UNL     1      -1.418   4.497  10.797  1.00  0.00     0.011 C 
HETATM   13  C11 UNL     1      -2.902   4.798  11.058  1.00  0.00     0.011 C 
HETATM   14  C12 UNL     1      -3.258   4.637  12.541  1.00  0.00    -0.032 C 
HETATM   15  C13 UNL     1      -3.060   3.147  12.933  1.00  0.00     0.016 C 
HETATM   16  C14 UNL     1      -4.683   5.108  12.972  1.00  0.00    -0.002 C 
HETATM   17  C23 UNL     1      -4.496   5.502  14.467  1.00  0.00     0.006 C 
HETATM   18  C24 UNL     1      -2.983   5.586  14.733  1.00  0.00     0.011 C 
HETATM   19  C25 UNL     1      -2.337   5.643  13.338  1.00  0.00    -0.032 C 
HETATM   20  C26 UNL     1      -2.444   7.129  12.841  1.00  0.00     0.016 C 
HETATM   21  C27 UNL     1      -0.841   5.195  13.257  1.00  0.00     0.004 C 
HETATM   22  C28 UNL     1       0.055   6.002  14.232  1.00  0.00     0.007 C 
HETATM   23  C29 UNL     1       1.399   6.490  13.713  1.00  0.00     0.010 C 
HETATM   24  C30 UNL     1       1.268   7.088  12.308  1.00  0.00     0.025 C 
ENDROOT
BRANCH  16  25
HETATM   25  C15 UNL     1      -5.977   4.282  12.706  1.00  0.00    -0.007 C 
HETATM   26  C16 UNL     1      -5.861   3.058  11.785  1.00  0.00     0.011 C 
BRANCH  25  27
HETATM   27  C17 UNL     1      -7.142   5.179  12.245  1.00  0.00     0.087 C 
BRANCH  27  28
HETATM   28  C18 UNL     1      -8.428   4.889  13.004  1.00  0.00     0.149 C 
HETATM   29  O3  UNL     1      -8.879   3.752  13.123  1.00  0.00    -0.293 OA
BRANCH  28  30
HETATM   30  C19 UNL     1      -9.101   6.061  13.638  1.00  0.00     0.052 C 
HETATM   31  C20 UNL     1      -8.842   6.517  14.879  1.00  0.00    -0.084 C 
HETATM   32  C21 UNL     1      -7.864   5.901  15.847  1.00  0.00     0.043 C 
HETATM   33  C22 UNL     1      -9.565   7.726  15.413  1.00  0.00     0.043 C 
ENDBRANCH  28  30
ENDBRANCH  27  28
ENDBRANCH  25  27
ENDBRANCH  16  25
TORSDOF 4
ENDMDL
MODEL 4
REMARK minimizedAffinity -9.01772308
REMARK  4 active torsions:
REMARK  status: ('A' for Active; 'I' for Inactive)
REMARK    1  A    between atoms: C14_16  and  C15_17 
REMARK    2  A    between atoms: C15_17  and  C17_19 
REMARK    3  A    between atoms: C17_19  and  C18_20 
REMARK    4  A    between atoms: C18_20  and  C19_22 
ROOT
HETATM    1  C1  UNL     1       4.613   9.201  10.772  1.00  0.00     0.017 C 
HETATM    2  C2  UNL     1       4.222   7.955  11.110  1.00  0.00    -0.060 C 
HETATM    3  C3  UNL     1       5.060   6.764  10.705  1.00  0.00     0.212 C 
HETATM    4  O1  UNL     1       4.342   5.600  10.258  1.00  0.00    -0.317 OA
HETATM    5  C4  UNL     1       3.545   5.588   9.164  1.00  0.00     0.259 C 
HETATM    6  O2  UNL     1       3.362   4.555   8.526  1.00  0.00    -0.265 OA
HETATM    7  C5  UNL     1       2.816   6.857   8.821  1.00  0.00     0.112 C 
HETATM    8  C6  UNL     1       1.635   7.131   9.758  1.00  0.00     0.020 C 
HETATM    9  C7  UNL     1       1.872   6.852  11.247  1.00  0.00    -0.024 A 
HETATM   10  C8  UNL     1       1.697   5.420  11.706  1.00  0.00     0.022 A 
HETATM   11  C9  UNL     1       0.679   6.445  12.162  1.00  0.00    -0.027 A 
HETATM   12  C10 UNL     1      -0.728   6.108  11.611  1.00  0.00     0.011 C 
HETATM   13  C11 UNL     1      -1.906   6.931  12.153  1.00  0.00     0.011 C 
HETATM   14  C12 UNL     1      -1.848   7.062  13.680  1.00  0.00    -0.032 C 
HETATM   15  C13 UNL     1      -2.011   5.646  14.299  1.00  0.00     0.016 C 
HETATM   16  C14 UNL     1      -2.872   8.041  14.336  1.00  0.00    -0.002 C 
HETATM   17  C23 UNL     1      -2.149   8.501  15.637  1.00  0.00     0.006 C 
HETATM   18  C24 UNL     1      -0.673   8.081  15.513  1.00  0.00     0.011 C 
HETATM   19  C25 UNL     1      -0.474   7.763  14.022  1.00  0.00    -0.032 C 
HETATM   20  C26 UNL     1      -0.262   9.132  13.282  1.00  0.00     0.016 C 
HETATM   21  C27 UNL     1       0.722   6.817  13.676  1.00  0.00     0.004 C 
HETATM   22  C28 UNL     1       2.064   7.361  14.232  1.00  0.00     0.007 C 
HETATM   23  C29 UNL     1       3.281   7.293  13.323  1.00  0.00     0.010 C 
HETATM   24  C30 UNL     1       2.938   7.747  11.900  1.00  0.00     0.025 C 
ENDROOT
BRANCH  16  25
HETATM   25  C15 UNL     1      -4.375   7.694  14.553  1.00  0.00    -0.007 C 
HETATM   26  C16 UNL     1      -5.159   8.538  15.568  1.00  0.00     0.011 C 
BRANCH  25  27
HETATM   27  C17 UNL     1      -4.578   6.194  14.848  1.00  0.00     0.087 C 
BRANCH  27  28
HETATM   28  C18 UNL     1      -5.703   5.592  14.019  1.00  0.00     0.149 C 
HETATM   29  O3  UNL     1      -6.885   5.848  14.231  1.00  0.00    -0.293 OA
BRANCH  28  30
HETATM   30  C19 UNL     1      -5.291   4.697  12.897  1.00  0.00     0.052 C 
HETATM   31  C20 UNL     1      -5.981   3.617  12.483  1.00  0.00    -0.084 C 
HETATM   32  C21 UNL     1      -7.257   3.107  13.104  1.00  0.00     0.043 C 
HETATM   33  C22 UNL     1      -5.484   2.794  11.323  1.00  0.00     0.043 C 
ENDBRANCH  28  30
ENDBRANCH  27  28
ENDBRANCH  25  27
ENDBRANCH  16  25
TORSDOF 4
ENDMDL
MODEL 5
REMARK minimizedAffinity -8.58678722
REMARK  4 active torsions:
REMARK  status: ('A' for Active; 'I' for Inactive)
REMARK    1  A    between atoms: C14_16  and  C15_17 
REMARK    2  A    between atoms: C15_17  and  C17_19 
REMARK    3  A    between atoms: C17_19  and  C18_20 
REMARK    4  A    between atoms: C18_20  and  C19_22 
ROOT
HETATM    1  C1  UNL     1      -7.597   6.768  17.097  1.00  0.00     0.017 C 
HETATM    2  C2  UNL     1      -7.406   7.133  15.813  1.00  0.00    -0.060 C 
HETATM    3  C3  UNL     1      -8.583   7.213  14.868  1.00  0.00     0.212 C 
HETATM    4  O1  UNL     1      -8.363   6.726  13.532  1.00  0.00    -0.317 OA
HETATM    5  C4  UNL     1      -8.043   5.442  13.247  1.00  0.00     0.259 C 
HETATM    6  O2  UNL     1      -8.346   4.937  12.169  1.00  0.00    -0.265 OA
HETATM    7  C5  UNL     1      -7.218   4.692  14.256  1.00  0.00     0.112 C 
HETATM    8  C6  UNL     1      -5.748   5.126  14.257  1.00  0.00     0.020 C 
HETATM    9  C7  UNL     1      -5.487   6.632  14.133  1.00  0.00    -0.024 A 
HETATM   10  C8  UNL     1      -5.490   7.210  12.735  1.00  0.00     0.022 A 
HETATM   11  C9  UNL     1      -4.170   7.141  13.475  1.00  0.00    -0.027 A 
HETATM   12  C10 UNL     1      -3.176   6.205  12.745  1.00  0.00     0.011 C 
HETATM   13  C11 UNL     1      -1.727   6.192  13.254  1.00  0.00     0.011 C 
HETATM   14  C12 UNL     1      -1.195   7.613  13.479  1.00  0.00    -0.032 C 
HETATM   15  C13 UNL     1      -1.149   8.341  12.108  1.00  0.00     0.016 C 
HETATM   16  C14 UNL     1       0.191   7.736  14.185  1.00  0.00    -0.002 C 
HETATM   17  C23 UNL     1       0.116   9.121  14.892  1.00  0.00     0.006 C 
HETATM   18  C24 UNL     1      -1.358   9.564  14.874  1.00  0.00     0.011 C 
HETATM   19  C25 UNL     1      -2.152   8.290  14.538  1.00  0.00    -0.032 C 
HETATM   20  C26 UNL     1      -2.299   7.473  15.871  1.00  0.00     0.016 C 
HETATM   21  C27 UNL     1      -3.574   8.510  13.927  1.00  0.00     0.004 C 
HETATM   22  C28 UNL     1      -4.461   9.399  14.838  1.00  0.00     0.007 C 
HETATM   23  C29 UNL     1      -5.905   8.972  15.047  1.00  0.00     0.010 C 
HETATM   24  C30 UNL     1      -6.008   7.467  15.315  1.00  0.00     0.025 C 
ENDROOT
BRANCH  16  25
HETATM   25  C15 UNL     1       1.549   7.483  13.463  1.00  0.00    -0.007 C 
HETATM   26  C16 UNL     1       2.834   7.860  14.214  1.00  0.00     0.011 C 
BRANCH  25  27
HETATM   27  C17 UNL     1       1.566   8.096  12.049  1.00  0.00     0.087 C 
BRANCH  27  28
HETATM   28  C18 UNL     1       1.892   7.066  10.978  1.00  0.00     0.149 C 
HETATM   29  O3  UNL     1       2.268   5.930  11.252  1.00  0.00    -0.293 OA
BRANCH  28  30
HETATM   30  C19 UNL     1       1.688   7.497   9.563  1.00  0.00     0.052 C 
HETATM   31  C20 UNL     1       2.193   6.864   8.487  1.00  0.00    -0.084 C 
HETATM   32  C21 UNL     1       3.076   5.643   8.529  1.00  0.00     0.043 C 
HETATM   33  C22 UNL     1       1.906   7.374   7.098  1.00  0.00     0.043 C 
ENDBRANCH  28  30
ENDBRANCH  27  28
ENDBRANCH  25  27
ENDBRANCH  16  25
TORSDOF 4
ENDMDL
MODEL 6
REMARK minimizedAffinity -8.51274681
REMARK  4 active torsions:
REMARK  status: ('A' for Active; 'I' for Inactive)
REMARK    1  A    between atoms: C14_16  and  C15_17 
REMARK    2  A    between atoms: C15_17  and  C17_19 
REMARK    3  A    between atoms: C17_19  and  C18_20 
REMARK    4  A    between atoms: C18_20  and  C19_22 
ROOT
HETATM    1  C1  UNL     1       2.586   6.570  11.908  1.00  0.00     0.017 C 
HETATM    2  C2  UNL     1       2.209   7.715  12.512  1.00  0.00    -0.060 C 
HETATM    3  C3  UNL     1       3.233   8.789  12.803  1.00  0.00     0.212 C 
HETATM    4  O1  UNL     1       3.111   9.461  14.069  1.00  0.00    -0.317 OA
HETATM    5  C4  UNL     1       3.224   8.833  15.262  1.00  0.00     0.259 C 
HETATM    6  O2  UNL     1       3.615   9.434  16.260  1.00  0.00    -0.265 OA
HETATM    7  C5  UNL     1       2.759   7.405  15.343  1.00  0.00     0.112 C 
HETATM    8  C6  UNL     1       1.232   7.281  15.349  1.00  0.00     0.020 C 
HETATM    9  C7  UNL     1       0.474   8.200  14.385  1.00  0.00    -0.024 A 
HETATM   10  C8  UNL     1       0.201   9.610  14.863  1.00  0.00     0.022 A 
HETATM   11  C9  UNL     1      -0.974   8.663  14.727  1.00  0.00    -0.027 A 
HETATM   12  C10 UNL     1      -1.637   8.406  16.103  1.00  0.00     0.011 C 
HETATM   13  C11 UNL     1      -2.965   7.635  16.105  1.00  0.00     0.011 C 
HETATM   14  C12 UNL     1      -3.929   8.168  15.037  1.00  0.00    -0.032 C 
HETATM   15  C13 UNL     1      -4.298   9.633  15.399  1.00  0.00     0.016 C 
HETATM   16  C14 UNL     1      -5.232   7.343  14.798  1.00  0.00    -0.002 C 
HETATM   17  C23 UNL     1      -5.584   7.646  13.312  1.00  0.00     0.006 C 
HETATM   18  C24 UNL     1      -4.348   8.304  12.674  1.00  0.00     0.011 C 
HETATM   19  C25 UNL     1      -3.194   8.011  13.647  1.00  0.00    -0.032 C 
HETATM   20  C26 UNL     1      -2.704   6.548  13.353  1.00  0.00     0.016 C 
HETATM   21  C27 UNL     1      -1.967   8.976  13.566  1.00  0.00     0.004 C 
HETATM   22  C28 UNL     1      -1.378   9.038  12.133  1.00  0.00     0.007 C 
HETATM   23  C29 UNL     1       0.135   9.001  11.991  1.00  0.00     0.010 C 
HETATM   24  C30 UNL     1       0.753   7.930  12.898  1.00  0.00     0.025 C 
ENDROOT
BRANCH  16  25
HETATM   25  C15 UNL     1      -6.466   7.392  15.749  1.00  0.00    -0.007 C 
HETATM   26  C16 UNL     1      -6.777   6.134  16.573  1.00  0.00     0.011 C 
BRANCH  25  27
HETATM   27  C17 UNL     1      -7.735   7.867  15.015  1.00  0.00     0.087 C 
BRANCH  27  28
HETATM   28  C18 UNL     1      -8.725   6.736  14.785  1.00  0.00     0.149 C 
HETATM   29  O3  UNL     1      -9.935   6.881  14.936  1.00  0.00    -0.293 OA
BRANCH  28  30
HETATM   30  C19 UNL     1      -8.150   5.438  14.323  1.00  0.00     0.052 C 
HETATM   31  C20 UNL     1      -8.135   5.015  13.045  1.00  0.00    -0.084 C 
HETATM   32  C21 UNL     1      -8.729   5.758  11.875  1.00  0.00     0.043 C 
HETATM   33  C22 UNL     1      -7.507   3.694  12.685  1.00  0.00     0.043 C 
ENDBRANCH  28  30
ENDBRANCH  27  28
ENDBRANCH  25  27
ENDBRANCH  16  25
TORSDOF 4
ENDMDL
MODEL 7
REMARK minimizedAffinity -8.46242237
REMARK  4 active torsions:
REMARK  status: ('A' for Active; 'I' for Inactive)
REMARK    1  A    between atoms: C14_16  and  C15_17 
REMARK    2  A    between atoms: C15_17  and  C17_19 
REMARK    3  A    between atoms: C17_19  and  C18_20 
REMARK    4  A    between atoms: C18_20  and  C19_22 
ROOT
HETATM    1  C1  UNL     1       2.058   7.715  15.785  1.00  0.00     0.017 C 
HETATM    2  C2  UNL     1       1.212   8.505  15.093  1.00  0.00    -0.060 C 
HETATM    3  C3  UNL     1       1.602   9.929  14.769  1.00  0.00     0.212 C 
HETATM    4  O1  UNL     1       0.564  10.918  14.884  1.00  0.00    -0.317 OA
HETATM    5  C4  UNL     1      -0.067  11.207  16.046  1.00  0.00     0.259 C 
HETATM    6  O2  UNL     1      -0.542  12.321  16.249  1.00  0.00    -0.265 OA
HETATM    7  C5  UNL     1      -0.251  10.089  17.034  1.00  0.00     0.112 C 
HETATM    8  C6  UNL     1      -1.344   9.102  16.612  1.00  0.00     0.020 C 
HETATM    9  C7  UNL     1      -1.378   8.723  15.127  1.00  0.00    -0.024 A 
HETATM   10  C8  UNL     1      -2.102   9.675  14.199  1.00  0.00     0.022 A 
HETATM   11  C9  UNL     1      -2.725   8.318  14.457  1.00  0.00    -0.027 A 
HETATM   12  C10 UNL     1      -4.095   8.465  15.164  1.00  0.00     0.011 C 
HETATM   13  C11 UNL     1      -4.947   7.195  15.307  1.00  0.00     0.011 C 
HETATM   14  C12 UNL     1      -5.004   6.404  13.995  1.00  0.00    -0.032 C 
HETATM   15  C13 UNL     1      -5.727   7.272  12.930  1.00  0.00     0.016 C 
HETATM   16  C14 UNL     1      -5.668   4.992  14.059  1.00  0.00    -0.002 C 
HETATM   17  C23 UNL     1      -4.966   4.209  12.911  1.00  0.00     0.006 C 
HETATM   18  C24 UNL     1      -3.736   5.030  12.483  1.00  0.00     0.011 C 
HETATM   19  C25 UNL     1      -3.512   6.035  13.625  1.00  0.00    -0.032 C 
HETATM   20  C26 UNL     1      -2.746   5.276  14.766  1.00  0.00     0.016 C 
HETATM   21  C27 UNL     1      -2.708   7.324  13.255  1.00  0.00     0.004 C 
HETATM   22  C28 UNL     1      -1.325   6.983  12.642  1.00  0.00     0.007 C 
HETATM   23  C29 UNL     1      -0.127   7.793  13.112  1.00  0.00     0.010 C 
HETATM   24  C30 UNL     1      -0.135   7.964  14.635  1.00  0.00     0.025 C 
ENDROOT
BRANCH  16  25
HETATM   25  C15 UNL     1      -7.209   4.770  14.108  1.00  0.00    -0.007 C 
HETATM   26  C16 UNL     1      -7.789   3.628  13.261  1.00  0.00     0.011 C 
BRANCH  25  27
HETATM   27  C17 UNL     1      -7.984   6.074  13.833  1.00  0.00     0.087 C 
BRANCH  27  28
HETATM   28  C18 UNL     1      -8.593   6.660  15.098  1.00  0.00     0.149 C 
HETATM   29  O3  UNL     1      -8.567   6.070  16.175  1.00  0.00    -0.293 OA
BRANCH  28  30
HETATM   30  C19 UNL     1      -9.197   8.020  14.972  1.00  0.00     0.052 C 
HETATM   31  C20 UNL     1     -10.454   8.267  14.558  1.00  0.00    -0.084 C 
HETATM   32  C21 UNL     1     -11.447   7.223  14.116  1.00  0.00     0.043 C 
HETATM   33  C22 UNL     1     -10.970   9.681  14.491  1.00  0.00     0.043 C 
ENDBRANCH  28  30
ENDBRANCH  27  28
ENDBRANCH  25  27
ENDBRANCH  16  25
TORSDOF 4
ENDMDL
MODEL 8
REMARK minimizedAffinity -8.42374611
REMARK  4 active torsions:
REMARK  status: ('A' for Active; 'I' for Inactive)
REMARK    1  A    between atoms: C14_16  and  C15_17 
REMARK    2  A    between atoms: C15_17  and  C17_19 
REMARK    3  A    between atoms: C17_19  and  C18_20 
REMARK    4  A    between atoms: C18_20  and  C19_22 
ROOT
HETATM    1  C1  UNL     1      -7.161   4.727  11.771  1.00  0.00     0.017 C 
HETATM    2  C2  UNL     1      -6.474   4.777  12.930  1.00  0.00    -0.060 C 
HETATM    3  C3  UNL     1      -7.204   4.629  14.246  1.00  0.00     0.212 C 
HETATM    4  O1  UNL     1      -6.772   5.489  15.316  1.00  0.00    -0.317 OA
HETATM    5  C4  UNL     1      -6.846   6.839  15.266  1.00  0.00     0.259 C 
HETATM    6  O2  UNL     1      -6.963   7.506  16.291  1.00  0.00    -0.265 OA
HETATM    7  C5  UNL     1      -6.681   7.495  13.923  1.00  0.00     0.112 C 
HETATM    8  C6  UNL     1      -5.227   7.493  13.441  1.00  0.00     0.020 C 
HETATM    9  C7  UNL     1      -4.435   6.203  13.681  1.00  0.00    -0.024 A 
HETATM   10  C8  UNL     1      -3.812   6.032  15.050  1.00  0.00     0.022 A 
HETATM   11  C9  UNL     1      -2.890   6.261  13.870  1.00  0.00    -0.027 A 
HETATM   12  C10 UNL     1      -2.111   7.591  14.029  1.00  0.00     0.011 C 
HETATM   13  C11 UNL     1      -0.984   7.864  13.022  1.00  0.00     0.011 C 
HETATM   14  C12 UNL     1      -0.088   6.635  12.830  1.00  0.00    -0.032 C 
HETATM   15  C13 UNL     1       0.623   6.331  14.178  1.00  0.00     0.016 C 
HETATM   16  C14 UNL     1       0.971   6.714  11.686  1.00  0.00    -0.002 C 
HETATM   17  C23 UNL     1       1.169   5.226  11.273  1.00  0.00     0.006 C 
HETATM   18  C24 UNL     1       0.020   4.419  11.904  1.00  0.00     0.011 C 
HETATM   19  C25 UNL     1      -1.024   5.470  12.316  1.00  0.00    -0.032 C 
HETATM   20  C26 UNL     1      -1.842   5.838  11.028  1.00  0.00     0.016 C 
HETATM   21  C27 UNL     1      -2.024   5.038  13.438  1.00  0.00     0.004 C 
HETATM   22  C28 UNL     1      -2.779   3.736  13.066  1.00  0.00     0.007 C 
HETATM   23  C29 UNL     1      -4.272   3.683  13.348  1.00  0.00     0.010 C 
HETATM   24  C30 UNL     1      -4.966   4.979  12.917  1.00  0.00     0.025 C 
ENDROOT
BRANCH  16  25
HETATM   25  C15 UNL     1       2.307   7.507  11.805  1.00  0.00    -0.007 C 
HETATM   26  C16 UNL     1       2.390   8.599  12.882  1.00  0.00     0.011 C 
BRANCH  25  27
HETATM   27  C17 UNL     1       2.759   8.074  10.445  1.00  0.00     0.087 C 
BRANCH  27  28
HETATM   28  C18 UNL     1       3.434   7.022   9.578  1.00  0.00     0.149 C 
HETATM   29  O3  UNL     1       4.286   6.255  10.020  1.00  0.00    -0.293 OA
BRANCH  28  30
HETATM   30  C19 UNL     1       2.976   6.941   8.160  1.00  0.00     0.052 C 
HETATM   31  C20 UNL     1       1.813   7.438   7.698  1.00  0.00    -0.084 C 
HETATM   32  C21 UNL     1       0.763   8.121   8.537  1.00  0.00     0.043 C 
HETATM   33  C22 UNL     1       1.459   7.320   6.238  1.00  0.00     0.043 C 
ENDBRANCH  28  30
ENDBRANCH  27  28
ENDBRANCH  25  27
ENDBRANCH  16  25
TORSDOF 4
ENDMDL
MODEL 9
REMARK minimizedAffinity -8.41116428
REMARK  4 active torsions:
REMARK  status: ('A' for Active; 'I' for Inactive)
REMARK    1  A    between atoms: C14_16  and  C15_17 
REMARK    2  A    between atoms: C15_17  and  C17_19 
REMARK    3  A    between atoms: C17_19  and  C18_20 
REMARK    4  A    between atoms: C18_20  and  C19_22 
ROOT
HETATM    1  C1  UNL     1       6.574   6.036  11.469  1.00  0.00     0.017 C 
HETATM    2  C2  UNL     1       5.846   7.157  11.294  1.00  0.00    -0.060 C 
HETATM    3  C3  UNL     1       6.535   8.461  10.963  1.00  0.00     0.212 C 
HETATM    4  O1  UNL     1       6.020   9.638  11.612  1.00  0.00    -0.317 OA
HETATM    5  C4  UNL     1       6.026   9.814  12.954  1.00  0.00     0.259 C 
HETATM    6  O2  UNL     1       6.071  10.938  13.446  1.00  0.00    -0.265 OA
HETATM    7  C5  UNL     1       5.875   8.591  13.816  1.00  0.00     0.112 C 
HETATM    8  C6  UNL     1       4.441   8.051  13.828  1.00  0.00     0.020 C 
HETATM    9  C7  UNL     1       3.709   8.041  12.481  1.00  0.00    -0.024 A 
HETATM   10  C8  UNL     1       3.048   9.335  12.057  1.00  0.00     0.022 A 
HETATM   11  C9  UNL     1       2.157   8.170  12.437  1.00  0.00    -0.027 A 
HETATM   12  C10 UNL     1       1.305   8.512  13.684  1.00  0.00     0.011 C 
HETATM   13  C11 UNL     1       0.202   7.515  14.070  1.00  0.00     0.011 C 
HETATM   14  C12 UNL     1      -0.621   7.085  12.850  1.00  0.00    -0.032 C 
HETATM   15  C13 UNL     1      -1.363   8.332  12.294  1.00  0.00     0.016 C 
HETATM   16  C14 UNL     1      -1.642   5.923  13.070  1.00  0.00    -0.002 C 
HETATM   17  C23 UNL     1      -1.748   5.263  11.664  1.00  0.00     0.006 C 
HETATM   18  C24 UNL     1      -0.581   5.803  10.816  1.00  0.00     0.011 C 
HETATM   19  C25 UNL     1       0.391   6.428  11.830  1.00  0.00    -0.032 C 
HETATM   20  C26 UNL     1       1.235   5.254  12.444  1.00  0.00     0.016 C 
HETATM   21  C27 UNL     1       1.372   7.506  11.264  1.00  0.00     0.004 C 
HETATM   22  C28 UNL     1       2.207   6.958  10.078  1.00  0.00     0.007 C 
HETATM   23  C29 UNL     1       3.690   7.293  10.046  1.00  0.00     0.010 C 
HETATM   24  C30 UNL     1       4.330   7.111  11.427  1.00  0.00     0.025 C 
ENDROOT
BRANCH  16  25
HETATM   25  C15 UNL     1      -3.021   6.113  13.770  1.00  0.00    -0.007 C 
HETATM   26  C16 UNL     1      -3.075   5.924  15.293  1.00  0.00     0.011 C 
BRANCH  25  27
HETATM   27  C17 UNL     1      -4.124   5.274  13.096  1.00  0.00     0.087 C 
BRANCH  27  28
HETATM   28  C18 UNL     1      -5.512   5.848  13.337  1.00  0.00     0.149 C 
HETATM   29  O3  UNL     1      -5.733   7.056  13.336  1.00  0.00    -0.293 OA
BRANCH  28  30
HETATM   30  C19 UNL     1      -6.611   4.858  13.536  1.00  0.00     0.052 C 
HETATM   31  C20 UNL     1      -6.798   3.755  12.785  1.00  0.00    -0.084 C 
HETATM   32  C21 UNL     1      -5.957   3.357  11.598  1.00  0.00     0.043 C 
HETATM   33  C22 UNL     1      -7.930   2.809  13.088  1.00  0.00     0.043 C 
ENDBRANCH  28  30
ENDBRANCH  27  28
ENDBRANCH  25  27
ENDBRANCH  16  25
TORSDOF 4
ENDMDL
