MODEL 1
REMARK minimizedAffinity -8.23335457
REMARK CNNscore 0.613106608
REMARK CNNaffinity 6.95325613
REMARK  12 active torsions:
REMARK  status: ('A' for Active; 'I' for Inactive)
REMARK    1  A    between atoms: C12_13  and  O2_14 
REMARK    2  A    between atoms: C19_21  and  O3_22 
REMARK    3  A    between atoms: C19_21  and  C20_23 
REMARK    4  A    between atoms: C20_23  and  C21_25 
REMARK    5  A    between atoms: C21_25  and  O5_26 
REMARK    6  A    between atoms: O5_26  and  C22_27 
REMARK    7  A    between atoms: C22_27  and  C23_29 
REMARK    8  A    between atoms: C23_29  and  C24_30 
REMARK    9  A    between atoms: C24_30  and  C25_31 
REMARK       I    between atoms: C25_31  and  N1_33 
REMARK   10  A    between atoms: N1_33  and  C26_34 
REMARK   11  A    between atoms: C26_34  and  C27_35 
REMARK   12  A    between atoms: C27_35  and  C28_36 
ROOT
HETATM    1  C1  UNL     1       2.359  57.875  -6.339  1.00  0.00     0.020 C 
HETATM    2  C2  UNL     1       3.210  56.590  -6.514  1.00  0.00    -0.014 C 
HETATM    3  C3  UNL     1       3.677  56.205  -5.081  1.00  0.00     0.022 C 
HETATM    4  C4  UNL     1       4.860  55.253  -5.057  1.00  0.00     0.084 C 
HETATM    5  C5  UNL     1       6.011  55.853  -5.821  1.00  0.00     0.149 C 
HETATM    6  O1  UNL     1       7.181  55.650  -5.513  1.00  0.00    -0.293 OA
HETATM    7  C6  UNL     1       5.699  56.615  -7.054  1.00  0.00     0.053 C 
HETATM    8  C7  UNL     1       4.429  56.896  -7.396  1.00  0.00    -0.068 C 
HETATM    9  C8  UNL     1       4.107  57.398  -8.780  1.00  0.00     0.035 C 
HETATM   10  C9  UNL     1       3.301  56.328  -9.518  1.00  0.00     0.010 C 
HETATM   11  C10 UNL     1       2.068  55.837  -8.727  1.00  0.00    -0.002 C 
HETATM   12  C11 UNL     1       2.448  55.429  -7.257  1.00  0.00     0.031 C 
HETATM   13  C12 UNL     1       1.249  54.802  -6.493  1.00  0.00     0.124 C 
HETATM   14  C13 UNL     1       0.518  53.704  -7.295  1.00  0.00     0.045 C 
HETATM   15  C14 UNL     1       0.123  54.137  -8.726  1.00  0.00     0.001 C 
HETATM   16  C15 UNL     1      -0.994  55.217  -8.683  1.00  0.00     0.019 C 
HETATM   17  C16 UNL     1       1.418  54.629  -9.417  1.00  0.00     0.002 C 
HETATM   18  C17 UNL     1       1.020  54.760 -10.880  1.00  0.00     0.009 C 
HETATM   19  C18 UNL     1       0.014  53.616 -11.109  1.00  0.00     0.047 C 
HETATM   20  C19 UNL     1      -0.291  52.995  -9.713  1.00  0.00     0.128 C 
ENDROOT
BRANCH  20  21
HETATM   21  O3  UNL     1       0.594  51.874  -9.593  1.00  0.00    -0.381 OA
HETATM   22  H27 UNL     1       0.308  51.348  -8.824  1.00  0.00     0.211 HD
ENDBRANCH  20  21
BRANCH  20  23
HETATM   23  C20 UNL     1      -1.772  52.530  -9.608  1.00  0.00     0.185 C 
HETATM   24  O4  UNL     1      -2.215  51.957  -8.608  1.00  0.00    -0.292 OA
BRANCH  23  25
HETATM   25  C21 UNL     1      -2.666  52.721 -10.828  1.00  0.00     0.260 C 
BRANCH  25  26
HETATM   26  O5  UNL     1      -3.786  51.833 -10.810  1.00  0.00    -0.314 OA
BRANCH  26  27
HETATM   27  C22 UNL     1      -3.716  50.827 -11.727  1.00  0.00     0.259 C 
HETATM   28  O6  UNL     1      -4.292  49.753 -11.621  1.00  0.00    -0.265 OA
BRANCH  27  29
HETATM   29  C23 UNL     1      -2.728  51.140 -12.827  1.00  0.00     0.120 C 
BRANCH  29  30
HETATM   30  C24 UNL     1      -2.494  50.002 -13.815  1.00  0.00     0.112 C 
BRANCH  30  31
HETATM   31  C25 UNL     1      -2.682  50.444 -15.251  1.00  0.00     0.218 C 
HETATM   32  O7  UNL     1      -3.329  51.434 -15.568  1.00  0.00    -0.274 OA
HETATM   33  N1  UNL     1      -2.044  49.628 -16.155  1.00  0.00    -0.361 N 
HETATM   34  H34 UNL     1      -1.575  48.791 -15.833  1.00  0.00     0.162 HD
BRANCH  33  35
HETATM   35  C26 UNL     1      -2.127  49.861 -17.587  1.00  0.00     0.127 C 
BRANCH  35  36
HETATM   36  C27 UNL     1      -0.769  49.721 -18.280  1.00  0.00     0.060 C 
BRANCH  36  37
HETATM   37  C28 UNL     1      -0.103  51.044 -18.480  1.00  0.00    -0.029 A 
HETATM   38  C29 UNL     1       0.382  51.873 -17.487  1.00  0.00     0.096 A 
HETATM   39  N2  UNL     1       0.925  52.981 -18.078  1.00  0.00    -0.365 N 
HETATM   40  C30 UNL     1       0.811  52.895 -19.446  1.00  0.00     0.042 A 
HETATM   41  H40 UNL     1       1.355  53.751 -17.588  1.00  0.00     0.165 HD
HETATM   42  C31 UNL     1       1.227  53.784 -20.443  1.00  0.00     0.030 A 
HETATM   43  C35 UNL     1       0.163  51.693 -19.729  1.00  0.00    -0.002 A 
HETATM   44  C32 UNL     1       0.972  53.432 -21.772  1.00  0.00     0.002 A 
HETATM   45  C33 UNL     1       0.325  52.241 -22.089  1.00  0.00     0.001 A 
HETATM   46  C34 UNL     1      -0.084  51.364 -21.078  1.00  0.00     0.014 A 
ENDBRANCH  36  37
ENDBRANCH  35  36
ENDBRANCH  33  35
ENDBRANCH  30  31
ENDBRANCH  29  30
ENDBRANCH  27  29
ENDBRANCH  26  27
ENDBRANCH  25  26
ENDBRANCH  23  25
ENDBRANCH  20  23
BRANCH  13  47
HETATM   47  O2  UNL     1       0.317  55.794  -6.090  1.00  0.00    -0.395 OA
HETATM   48  H16 UNL     1      -0.325  55.378  -5.489  1.00  0.00     0.210 HD
ENDBRANCH  13  47
TORSDOF 12
ENDMDL
MODEL 2
REMARK minimizedAffinity -9.42092991
REMARK CNNscore 0.494555175
REMARK CNNaffinity 6.22596598
REMARK  12 active torsions:
REMARK  status: ('A' for Active; 'I' for Inactive)
REMARK    1  A    between atoms: C12_13  and  O2_14 
REMARK    2  A    between atoms: C19_21  and  O3_22 
REMARK    3  A    between atoms: C19_21  and  C20_23 
REMARK    4  A    between atoms: C20_23  and  C21_25 
REMARK    5  A    between atoms: C21_25  and  O5_26 
REMARK    6  A    between atoms: O5_26  and  C22_27 
REMARK    7  A    between atoms: C22_27  and  C23_29 
REMARK    8  A    between atoms: C23_29  and  C24_30 
REMARK    9  A    between atoms: C24_30  and  C25_31 
REMARK       I    between atoms: C25_31  and  N1_33 
REMARK   10  A    between atoms: N1_33  and  C26_34 
REMARK   11  A    between atoms: C26_34  and  C27_35 
REMARK   12  A    between atoms: C27_35  and  C28_36 
ROOT
HETATM    1  C1  UNL     1     -16.220  43.357 -24.897  1.00  0.00     0.020 C 
HETATM    2  C2  UNL     1     -16.757  44.770 -25.245  1.00  0.00    -0.014 C 
HETATM    3  C3  UNL     1     -17.476  45.268 -23.959  1.00  0.00     0.022 C 
HETATM    4  C4  UNL     1     -18.438  46.417 -24.199  1.00  0.00     0.084 C 
HETATM    5  C5  UNL     1     -19.462  46.017 -25.229  1.00  0.00     0.149 C 
HETATM    6  O1  UNL     1     -20.615  46.435 -25.206  1.00  0.00    -0.293 OA
HETATM    7  C6  UNL     1     -19.007  45.181 -26.366  1.00  0.00     0.053 C 
HETATM    8  C7  UNL     1     -17.765  44.668 -26.400  1.00  0.00    -0.068 C 
HETATM    9  C8  UNL     1     -17.217  44.083 -27.676  1.00  0.00     0.035 C 
HETATM   10  C9  UNL     1     -16.078  44.971 -28.179  1.00  0.00     0.010 C 
HETATM   11  C10 UNL     1     -15.002  45.250 -27.105  1.00  0.00    -0.002 C 
HETATM   12  C11 UNL     1     -15.642  45.756 -25.761  1.00  0.00     0.031 C 
HETATM   13  C12 UNL     1     -14.568  46.175 -24.720  1.00  0.00     0.124 C 
HETATM   14  C13 UNL     1     -13.480  47.104 -25.301  1.00  0.00     0.045 C 
HETATM   15  C14 UNL     1     -12.839  46.571 -26.604  1.00  0.00     0.001 C 
HETATM   16  C15 UNL     1     -11.980  45.309 -26.317  1.00  0.00     0.019 C 
HETATM   17  C16 UNL     1     -13.999  46.304 -27.595  1.00  0.00     0.002 C 
HETATM   18  C17 UNL     1     -13.292  46.068 -28.923  1.00  0.00     0.009 C 
HETATM   19  C18 UNL     1     -12.071  47.006 -28.881  1.00  0.00     0.047 C 
HETATM   20  C19 UNL     1     -12.001  47.596 -27.440  1.00  0.00     0.128 C 
ENDROOT
BRANCH  20  21
HETATM   21  O3  UNL     1     -12.672  48.861 -27.514  1.00  0.00    -0.381 OA
HETATM   22  H27 UNL     1     -12.488  49.345 -26.688  1.00  0.00     0.211 HD
ENDBRANCH  20  21
BRANCH  20  23
HETATM   23  C20 UNL     1     -10.530  47.788 -26.974  1.00  0.00     0.185 C 
HETATM   24  O4  UNL     1     -10.206  48.646 -26.149  1.00  0.00    -0.292 OA
BRANCH  23  25
HETATM   25  C21 UNL     1      -9.455  46.935 -27.639  1.00  0.00     0.260 C 
BRANCH  25  26
HETATM   26  O5  UNL     1      -9.369  47.189 -29.043  1.00  0.00    -0.314 OA
BRANCH  26  27
HETATM   27  C22 UNL     1      -8.417  48.102 -29.387  1.00  0.00     0.259 C 
HETATM   28  O6  UNL     1      -8.572  49.314 -29.337  1.00  0.00    -0.265 OA
BRANCH  27  29
HETATM   29  C23 UNL     1      -7.191  47.440 -29.973  1.00  0.00     0.120 C 
BRANCH  29  30
HETATM   30  C24 UNL     1      -6.148  47.013 -28.946  1.00  0.00     0.112 C 
BRANCH  30  31
HETATM   31  C25 UNL     1      -5.160  48.119 -28.642  1.00  0.00     0.218 C 
HETATM   32  O7  UNL     1      -4.651  48.821 -29.507  1.00  0.00    -0.274 OA
HETATM   33  N1  UNL     1      -4.906  48.262 -27.297  1.00  0.00    -0.361 N 
HETATM   34  H34 UNL     1      -5.313  47.612 -26.637  1.00  0.00     0.162 HD
BRANCH  33  35
HETATM   35  C26 UNL     1      -3.961  49.247 -26.797  1.00  0.00     0.127 C 
BRANCH  35  36
HETATM   36  C27 UNL     1      -3.189  48.745 -25.574  1.00  0.00     0.060 C 
BRANCH  36  37
HETATM   37  C28 UNL     1      -2.447  49.847 -24.889  1.00  0.00    -0.029 A 
HETATM   38  C29 UNL     1      -2.753  50.397 -23.660  1.00  0.00     0.096 A 
HETATM   39  N2  UNL     1      -1.832  51.370 -23.382  1.00  0.00    -0.365 N 
HETATM   40  C30 UNL     1      -0.920  51.468 -24.406  1.00  0.00     0.042 A 
HETATM   41  H40 UNL     1      -1.816  51.934 -22.545  1.00  0.00     0.165 HD
HETATM   42  C31 UNL     1       0.189  52.310 -24.548  1.00  0.00     0.030 A 
HETATM   43  C35 UNL     1      -1.283  50.529 -25.371  1.00  0.00    -0.002 A 
HETATM   44  C32 UNL     1       0.949  52.189 -25.715  1.00  0.00     0.002 A 
HETATM   45  C33 UNL     1       0.611  51.263 -26.700  1.00  0.00     0.001 A 
HETATM   46  C34 UNL     1      -0.500  50.429 -26.539  1.00  0.00     0.014 A 
ENDBRANCH  36  37
ENDBRANCH  35  36
ENDBRANCH  33  35
ENDBRANCH  30  31
ENDBRANCH  29  30
ENDBRANCH  27  29
ENDBRANCH  26  27
ENDBRANCH  25  26
ENDBRANCH  23  25
ENDBRANCH  20  23
BRANCH  13  47
HETATM   47  O2  UNL     1     -13.955  45.041 -24.125  1.00  0.00    -0.395 OA
HETATM   48  H16 UNL     1     -13.410  45.349 -23.380  1.00  0.00     0.210 HD
ENDBRANCH  13  47
TORSDOF 12
ENDMDL
MODEL 3
REMARK minimizedAffinity -8.54445934
REMARK CNNscore 0.473237723
REMARK CNNaffinity 5.66390467
REMARK  12 active torsions:
REMARK  status: ('A' for Active; 'I' for Inactive)
REMARK    1  A    between atoms: C12_13  and  O2_14 
REMARK    2  A    between atoms: C19_21  and  O3_22 
REMARK    3  A    between atoms: C19_21  and  C20_23 
REMARK    4  A    between atoms: C20_23  and  C21_25 
REMARK    5  A    between atoms: C21_25  and  O5_26 
REMARK    6  A    between atoms: O5_26  and  C22_27 
REMARK    7  A    between atoms: C22_27  and  C23_29 
REMARK    8  A    between atoms: C23_29  and  C24_30 
REMARK    9  A    between atoms: C24_30  and  C25_31 
REMARK       I    between atoms: C25_31  and  N1_33 
REMARK   10  A    between atoms: N1_33  and  C26_34 
REMARK   11  A    between atoms: C26_34  and  C27_35 
REMARK   12  A    between atoms: C27_35  and  C28_36 
ROOT
HETATM    1  C1  UNL     1      -3.072  48.570 -24.954  1.00  0.00     0.020 C 
HETATM    2  C2  UNL     1      -3.392  49.407 -23.688  1.00  0.00    -0.014 C 
HETATM    3  C3  UNL     1      -3.249  50.892 -24.127  1.00  0.00     0.022 C 
HETATM    4  C4  UNL     1      -3.087  51.861 -22.969  1.00  0.00     0.084 C 
HETATM    5  C5  UNL     1      -1.899  51.462 -22.134  1.00  0.00     0.149 C 
HETATM    6  O1  UNL     1      -1.199  52.285 -21.551  1.00  0.00    -0.293 OA
HETATM    7  C6  UNL     1      -1.654  50.015 -21.928  1.00  0.00     0.053 C 
HETATM    8  C7  UNL     1      -2.370  49.087 -22.587  1.00  0.00    -0.068 C 
HETATM    9  C8  UNL     1      -2.326  47.643 -22.156  1.00  0.00     0.035 C 
HETATM   10  C9  UNL     1      -3.695  47.252 -21.598  1.00  0.00     0.010 C 
HETATM   11  C10 UNL     1      -4.862  47.585 -22.553  1.00  0.00    -0.002 C 
HETATM   12  C11 UNL     1      -4.795  49.074 -23.054  1.00  0.00     0.031 C 
HETATM   13  C12 UNL     1      -6.036  49.466 -23.902  1.00  0.00     0.124 C 
HETATM   14  C13 UNL     1      -7.377  49.070 -23.245  1.00  0.00     0.045 C 
HETATM   15  C14 UNL     1      -7.435  47.593 -22.791  1.00  0.00     0.001 C 
HETATM   16  C15 UNL     1      -7.455  46.642 -24.020  1.00  0.00     0.019 C 
HETATM   17  C16 UNL     1      -6.216  47.362 -21.864  1.00  0.00     0.002 C 
HETATM   18  C17 UNL     1      -6.493  46.004 -21.234  1.00  0.00     0.009 C 
HETATM   19  C18 UNL     1      -8.024  45.958 -21.075  1.00  0.00     0.047 C 
HETATM   20  C19 UNL     1      -8.594  47.208 -21.812  1.00  0.00     0.128 C 
ENDROOT
BRANCH  20  21
HETATM   21  O3  UNL     1      -8.757  48.208 -20.798  1.00  0.00    -0.381 OA
HETATM   22  H27 UNL     1      -9.283  48.935 -21.176  1.00  0.00     0.211 HD
ENDBRANCH  20  21
BRANCH  20  23
HETATM   23  C20 UNL     1      -9.959  46.896 -22.489  1.00  0.00     0.185 C 
HETATM   24  O4  UNL     1     -11.008  46.794 -21.845  1.00  0.00    -0.292 OA
BRANCH  23  25
HETATM   25  C21 UNL     1      -9.964  46.624 -23.989  1.00  0.00     0.260 C 
BRANCH  25  26
HETATM   26  O5  UNL     1     -10.669  47.637 -24.710  1.00  0.00    -0.314 OA
BRANCH  26  27
HETATM   27  C22 UNL     1     -11.549  47.156 -25.633  1.00  0.00     0.259 C 
HETATM   28  O6  UNL     1     -11.590  47.515 -26.802  1.00  0.00    -0.265 OA
BRANCH  27  29
HETATM   29  C23 UNL     1     -12.563  46.225 -25.008  1.00  0.00     0.120 C 
BRANCH  29  30
HETATM   30  C24 UNL     1     -13.825  46.911 -24.497  1.00  0.00     0.112 C 
BRANCH  30  31
HETATM   31  C25 UNL     1     -15.055  46.501 -25.279  1.00  0.00     0.218 C 
HETATM   32  O7  UNL     1     -15.017  46.148 -26.451  1.00  0.00    -0.274 OA
HETATM   33  N1  UNL     1     -16.211  46.553 -24.535  1.00  0.00    -0.361 N 
HETATM   34  H34 UNL     1     -16.183  46.910 -23.588  1.00  0.00     0.162 HD
BRANCH  33  35
HETATM   35  C26 UNL     1     -17.506  46.230 -25.109  1.00  0.00     0.127 C 
BRANCH  35  36
HETATM   36  C27 UNL     1     -18.666  46.797 -24.287  1.00  0.00     0.060 C 
BRANCH  36  37
HETATM   37  C28 UNL     1     -19.167  45.817 -23.275  1.00  0.00    -0.029 A 
HETATM   38  C29 UNL     1     -19.973  44.724 -23.524  1.00  0.00     0.096 A 
HETATM   39  N2  UNL     1     -20.199  44.077 -22.341  1.00  0.00    -0.365 N 
HETATM   40  C30 UNL     1     -19.552  44.723 -21.313  1.00  0.00     0.042 A 
HETATM   41  H40 UNL     1     -20.755  43.241 -22.231  1.00  0.00     0.165 HD
HETATM   42  C31 UNL     1     -19.496  44.417 -19.949  1.00  0.00     0.030 A 
HETATM   43  C35 UNL     1     -18.900  45.824 -21.868  1.00  0.00    -0.002 A 
HETATM   44  C32 UNL     1     -18.751  45.265 -19.125  1.00  0.00     0.002 A 
HETATM   45  C33 UNL     1     -18.091  46.375 -19.646  1.00  0.00     0.001 A 
HETATM   46  C34 UNL     1     -18.157  46.665 -21.013  1.00  0.00     0.014 A 
ENDBRANCH  36  37
ENDBRANCH  35  36
ENDBRANCH  33  35
ENDBRANCH  30  31
ENDBRANCH  29  30
ENDBRANCH  27  29
ENDBRANCH  26  27
ENDBRANCH  25  26
ENDBRANCH  23  25
ENDBRANCH  20  23
BRANCH  13  47
HETATM   47  O2  UNL     1      -5.967  48.912 -25.206  1.00  0.00    -0.395 OA
HETATM   48  H16 UNL     1      -6.678  49.308 -25.741  1.00  0.00     0.210 HD
ENDBRANCH  13  47
TORSDOF 12
ENDMDL
MODEL 4
REMARK minimizedAffinity -10.0991087
REMARK CNNscore 0.457838595
REMARK CNNaffinity 7.8907485
REMARK  12 active torsions:
REMARK  status: ('A' for Active; 'I' for Inactive)
REMARK    1  A    between atoms: C12_13  and  O2_14 
REMARK    2  A    between atoms: C19_21  and  O3_22 
REMARK    3  A    between atoms: C19_21  and  C20_23 
REMARK    4  A    between atoms: C20_23  and  C21_25 
REMARK    5  A    between atoms: C21_25  and  O5_26 
REMARK    6  A    between atoms: O5_26  and  C22_27 
REMARK    7  A    between atoms: C22_27  and  C23_29 
REMARK    8  A    between atoms: C23_29  and  C24_30 
REMARK    9  A    between atoms: C24_30  and  C25_31 
REMARK       I    between atoms: C25_31  and  N1_33 
REMARK   10  A    between atoms: N1_33  and  C26_34 
REMARK   11  A    between atoms: C26_34  and  C27_35 
REMARK   12  A    between atoms: C27_35  and  C28_36 
ROOT
HETATM    1  C1  UNL     1      -5.377  51.155 -24.089  1.00  0.00     0.020 C 
HETATM    2  C2  UNL     1      -4.398  50.005 -24.445  1.00  0.00    -0.014 C 
HETATM    3  C3  UNL     1      -3.428  50.601 -25.504  1.00  0.00     0.022 C 
HETATM    4  C4  UNL     1      -2.677  49.553 -26.306  1.00  0.00     0.084 C 
HETATM    5  C5  UNL     1      -3.657  48.629 -26.980  1.00  0.00     0.149 C 
HETATM    6  O1  UNL     1      -3.431  48.113 -28.070  1.00  0.00    -0.293 OA
HETATM    7  C6  UNL     1      -4.879  48.252 -26.229  1.00  0.00     0.053 C 
HETATM    8  C7  UNL     1      -5.181  48.833 -25.055  1.00  0.00    -0.068 C 
HETATM    9  C8  UNL     1      -6.244  48.242 -24.165  1.00  0.00     0.035 C 
HETATM   10  C9  UNL     1      -5.582  47.702 -22.896  1.00  0.00     0.010 C 
HETATM   11  C10 UNL     1      -4.678  48.737 -22.190  1.00  0.00    -0.002 C 
HETATM   12  C11 UNL     1      -3.662  49.398 -23.192  1.00  0.00     0.031 C 
HETATM   13  C12 UNL     1      -2.654  50.336 -22.473  1.00  0.00     0.124 C 
HETATM   14  C13 UNL     1      -2.003  49.697 -21.227  1.00  0.00     0.045 C 
HETATM   15  C14 UNL     1      -3.021  49.084 -20.238  1.00  0.00     0.001 C 
HETATM   16  C15 UNL     1      -3.859  50.198 -19.553  1.00  0.00     0.019 C 
HETATM   17  C16 UNL     1      -3.885  48.085 -21.048  1.00  0.00     0.002 C 
HETATM   18  C17 UNL     1      -4.652  47.320 -19.979  1.00  0.00     0.009 C 
HETATM   19  C18 UNL     1      -3.670  47.222 -18.797  1.00  0.00     0.047 C 
HETATM   20  C19 UNL     1      -2.444  48.118 -19.150  1.00  0.00     0.128 C 
ENDROOT
BRANCH  20  21
HETATM   21  O3  UNL     1      -1.474  47.229 -19.721  1.00  0.00    -0.381 OA
HETATM   22  H27 UNL     1      -0.629  47.709 -19.781  1.00  0.00     0.211 HD
ENDBRANCH  20  21
BRANCH  20  23
HETATM   23  C20 UNL     1      -1.864  48.813 -17.885  1.00  0.00     0.185 C 
HETATM   24  O4  UNL     1      -2.523  48.962 -16.852  1.00  0.00    -0.292 OA
BRANCH  23  25
HETATM   25  C21 UNL     1      -0.459  49.400 -17.977  1.00  0.00     0.260 C 
BRANCH  25  26
HETATM   26  O5  UNL     1      -0.005  49.889 -16.714  1.00  0.00    -0.314 OA
BRANCH  26  27
HETATM   27  C22 UNL     1       0.736  51.031 -16.791  1.00  0.00     0.259 C 
HETATM   28  O6  UNL     1       1.563  51.375 -15.958  1.00  0.00    -0.265 OA
BRANCH  27  29
HETATM   29  C23 UNL     1       0.315  51.895 -17.957  1.00  0.00     0.120 C 
BRANCH  29  30
HETATM   30  C24 UNL     1       1.403  52.822 -18.487  1.00  0.00     0.112 C 
BRANCH  30  31
HETATM   31  C25 UNL     1       1.093  53.330 -19.879  1.00  0.00     0.218 C 
HETATM   32  O7  UNL     1       1.563  54.365 -20.336  1.00  0.00    -0.274 OA
HETATM   33  N1  UNL     1       0.243  52.505 -20.578  1.00  0.00    -0.361 N 
HETATM   34  H34 UNL     1      -0.158  51.695 -20.124  1.00  0.00     0.162 HD
BRANCH  33  35
HETATM   35  C26 UNL     1      -0.205  52.829 -21.923  1.00  0.00     0.127 C 
BRANCH  35  36
HETATM   36  C27 UNL     1       0.721  52.256 -22.999  1.00  0.00     0.060 C 
BRANCH  36  37
HETATM   37  C28 UNL     1       0.213  52.528 -24.378  1.00  0.00    -0.029 A 
HETATM   38  C29 UNL     1      -0.978  53.148 -24.703  1.00  0.00     0.096 A 
HETATM   39  N2  UNL     1      -1.070  53.215 -26.066  1.00  0.00    -0.365 N 
HETATM   40  C30 UNL     1       0.042  52.653 -26.647  1.00  0.00     0.042 A 
HETATM   41  H40 UNL     1      -1.839  53.624 -26.578  1.00  0.00     0.165 HD
HETATM   42  C31 UNL     1       0.377  52.508 -27.998  1.00  0.00     0.030 A 
HETATM   43  C35 UNL     1       0.863  52.205 -25.613  1.00  0.00    -0.002 A 
HETATM   44  C32 UNL     1       1.591  51.884 -28.300  1.00  0.00     0.002 A 
HETATM   45  C33 UNL     1       2.433  51.423 -27.292  1.00  0.00     0.001 A 
HETATM   46  C34 UNL     1       2.081  51.578 -25.947  1.00  0.00     0.014 A 
ENDBRANCH  36  37
ENDBRANCH  35  36
ENDBRANCH  33  35
ENDBRANCH  30  31
ENDBRANCH  29  30
ENDBRANCH  27  29
ENDBRANCH  26  27
ENDBRANCH  25  26
ENDBRANCH  23  25
ENDBRANCH  20  23
BRANCH  13  47
HETATM   47  O2  UNL     1      -3.261  51.567 -22.111  1.00  0.00    -0.395 OA
HETATM   48  H16 UNL     1      -2.561  52.172 -21.809  1.00  0.00     0.210 HD
ENDBRANCH  13  47
TORSDOF 12
ENDMDL
MODEL 5
REMARK minimizedAffinity -9.35838223
REMARK CNNscore 0.368304998
REMARK CNNaffinity 6.51481962
REMARK  12 active torsions:
REMARK  status: ('A' for Active; 'I' for Inactive)
REMARK    1  A    between atoms: C12_13  and  O2_14 
REMARK    2  A    between atoms: C19_21  and  O3_22 
REMARK    3  A    between atoms: C19_21  and  C20_23 
REMARK    4  A    between atoms: C20_23  and  C21_25 
REMARK    5  A    between atoms: C21_25  and  O5_26 
REMARK    6  A    between atoms: O5_26  and  C22_27 
REMARK    7  A    between atoms: C22_27  and  C23_29 
REMARK    8  A    between atoms: C23_29  and  C24_30 
REMARK    9  A    between atoms: C24_30  and  C25_31 
REMARK       I    between atoms: C25_31  and  N1_33 
REMARK   10  A    between atoms: N1_33  and  C26_34 
REMARK   11  A    between atoms: C26_34  and  C27_35 
REMARK   12  A    between atoms: C27_35  and  C28_36 
ROOT
HETATM    1  C1  UNL     1       0.763  50.817 -25.904  1.00  0.00     0.020 C 
HETATM    2  C2  UNL     1      -0.255  51.984 -25.993  1.00  0.00    -0.014 C 
HETATM    3  C3  UNL     1      -0.184  52.482 -27.465  1.00  0.00     0.022 C 
HETATM    4  C4  UNL     1      -0.757  53.873 -27.670  1.00  0.00     0.084 C 
HETATM    5  C5  UNL     1      -0.051  54.852 -26.769  1.00  0.00     0.149 C 
HETATM    6  O1  UNL     1       0.137  56.022 -27.089  1.00  0.00    -0.293 OA
HETATM    7  C6  UNL     1       0.317  54.396 -25.408  1.00  0.00     0.053 C 
HETATM    8  C7  UNL     1       0.169  53.112 -25.040  1.00  0.00    -0.068 C 
HETATM    9  C8  UNL     1       0.258  52.721 -23.587  1.00  0.00     0.035 C 
HETATM   10  C9  UNL     1      -1.121  52.255 -23.115  1.00  0.00     0.010 C 
HETATM   11  C10 UNL     1      -1.741  51.168 -24.021  1.00  0.00    -0.002 C 
HETATM   12  C11 UNL     1      -1.708  51.586 -25.535  1.00  0.00     0.031 C 
HETATM   13  C12 UNL     1      -2.453  50.569 -26.443  1.00  0.00     0.124 C 
HETATM   14  C13 UNL     1      -3.852  50.185 -25.913  1.00  0.00     0.045 C 
HETATM   15  C14 UNL     1      -3.858  49.744 -24.432  1.00  0.00     0.001 C 
HETATM   16  C15 UNL     1      -3.132  48.380 -24.262  1.00  0.00     0.019 C 
HETATM   17  C16 UNL     1      -3.198  50.888 -23.622  1.00  0.00     0.002 C 
HETATM   18  C17 UNL     1      -3.495  50.525 -22.174  1.00  0.00     0.009 C 
HETATM   19  C18 UNL     1      -4.887  49.867 -22.220  1.00  0.00     0.047 C 
HETATM   20  C19 UNL     1      -5.253  49.685 -23.724  1.00  0.00     0.128 C 
ENDROOT
BRANCH  20  21
HETATM   21  O3  UNL     1      -6.044  50.831 -24.066  1.00  0.00    -0.381 OA
HETATM   22  H27 UNL     1      -6.449  50.666 -24.936  1.00  0.00     0.211 HD
ENDBRANCH  20  21
BRANCH  20  23
HETATM   23  C20 UNL     1      -6.062  48.378 -23.959  1.00  0.00     0.185 C 
HETATM   24  O4  UNL     1      -6.347  47.603 -23.041  1.00  0.00    -0.292 OA
BRANCH  23  25
HETATM   25  C21 UNL     1      -6.431  48.017 -25.395  1.00  0.00     0.260 C 
BRANCH  25  26
HETATM   26  O5  UNL     1      -7.709  47.382 -25.471  1.00  0.00    -0.314 OA
BRANCH  26  27
HETATM   27  C22 UNL     1      -8.278  47.419 -26.709  1.00  0.00     0.259 C 
HETATM   28  O6  UNL     1      -7.845  48.071 -27.649  1.00  0.00    -0.265 OA
BRANCH  27  29
HETATM   29  C23 UNL     1      -9.589  46.668 -26.745  1.00  0.00     0.120 C 
BRANCH  29  30
HETATM   30  C24 UNL     1     -10.556  47.129 -27.830  1.00  0.00     0.112 C 
BRANCH  30  31
HETATM   31  C25 UNL     1     -11.926  47.456 -27.272  1.00  0.00     0.218 C 
HETATM   32  O7  UNL     1     -12.165  48.474 -26.635  1.00  0.00    -0.274 OA
HETATM   33  N1  UNL     1     -12.871  46.501 -27.566  1.00  0.00    -0.361 N 
HETATM   34  H34 UNL     1     -12.596  45.653 -28.046  1.00  0.00     0.162 HD
BRANCH  33  35
HETATM   35  C26 UNL     1     -14.241  46.610 -27.095  1.00  0.00     0.127 C 
BRANCH  35  36
HETATM   36  C27 UNL     1     -14.777  45.284 -26.548  1.00  0.00     0.060 C 
BRANCH  36  37
HETATM   37  C28 UNL     1     -16.262  45.180 -26.685  1.00  0.00    -0.029 A 
HETATM   38  C29 UNL     1     -16.948  44.628 -27.748  1.00  0.00     0.096 A 
HETATM   39  N2  UNL     1     -18.288  44.717 -27.489  1.00  0.00    -0.365 N 
HETATM   40  C30 UNL     1     -18.498  45.314 -26.268  1.00  0.00     0.042 A 
HETATM   41  H40 UNL     1     -19.023  44.387 -28.098  1.00  0.00     0.165 HD
HETATM   42  C31 UNL     1     -19.693  45.602 -25.599  1.00  0.00     0.030 A 
HETATM   43  C35 UNL     1     -17.244  45.624 -25.742  1.00  0.00    -0.002 A 
HETATM   44  C32 UNL     1     -19.602  46.227 -24.351  1.00  0.00     0.002 A 
HETATM   45  C33 UNL     1     -18.366  46.552 -23.799  1.00  0.00     0.001 A 
HETATM   46  C34 UNL     1     -17.182  46.256 -24.483  1.00  0.00     0.014 A 
ENDBRANCH  36  37
ENDBRANCH  35  36
ENDBRANCH  33  35
ENDBRANCH  30  31
ENDBRANCH  29  30
ENDBRANCH  27  29
ENDBRANCH  26  27
ENDBRANCH  25  26
ENDBRANCH  23  25
ENDBRANCH  20  23
BRANCH  13  47
HETATM   47  O2  UNL     1      -1.684  49.392 -26.641  1.00  0.00    -0.395 OA
HETATM   48  H16 UNL     1      -2.117  48.861 -27.331  1.00  0.00     0.210 HD
ENDBRANCH  13  47
TORSDOF 12
ENDMDL
MODEL 6
REMARK minimizedAffinity -9.59108257
REMARK CNNscore 0.367845714
REMARK CNNaffinity 7.26702833
REMARK  12 active torsions:
REMARK  status: ('A' for Active; 'I' for Inactive)
REMARK    1  A    between atoms: C12_13  and  O2_14 
REMARK    2  A    between atoms: C19_21  and  O3_22 
REMARK    3  A    between atoms: C19_21  and  C20_23 
REMARK    4  A    between atoms: C20_23  and  C21_25 
REMARK    5  A    between atoms: C21_25  and  O5_26 
REMARK    6  A    between atoms: O5_26  and  C22_27 
REMARK    7  A    between atoms: C22_27  and  C23_29 
REMARK    8  A    between atoms: C23_29  and  C24_30 
REMARK    9  A    between atoms: C24_30  and  C25_31 
REMARK       I    between atoms: C25_31  and  N1_33 
REMARK   10  A    between atoms: N1_33  and  C26_34 
REMARK   11  A    between atoms: C26_34  and  C27_35 
REMARK   12  A    between atoms: C27_35  and  C28_36 
ROOT
HETATM    1  C1  UNL     1      -6.734  46.212 -19.660  1.00  0.00     0.020 C 
HETATM    2  C2  UNL     1      -7.792  47.168 -20.271  1.00  0.00    -0.014 C 
HETATM    3  C3  UNL     1      -8.532  47.796 -19.056  1.00  0.00     0.022 C 
HETATM    4  C4  UNL     1      -9.874  48.415 -19.407  1.00  0.00     0.084 C 
HETATM    5  C5  UNL     1     -10.755  47.382 -20.058  1.00  0.00     0.149 C 
HETATM    6  O1  UNL     1     -11.975  47.378 -19.921  1.00  0.00    -0.293 OA
HETATM    7  C6  UNL     1     -10.119  46.417 -20.986  1.00  0.00     0.053 C 
HETATM    8  C7  UNL     1      -8.782  46.363 -21.125  1.00  0.00    -0.068 C 
HETATM    9  C8  UNL     1      -8.167  45.604 -22.273  1.00  0.00     0.035 C 
HETATM   10  C9  UNL     1      -7.494  46.599 -23.219  1.00  0.00     0.010 C 
HETATM   11  C10 UNL     1      -6.515  47.557 -22.504  1.00  0.00    -0.002 C 
HETATM   12  C11 UNL     1      -7.180  48.237 -21.252  1.00  0.00     0.031 C 
HETATM   13  C12 UNL     1      -6.258  49.307 -20.605  1.00  0.00     0.124 C 
HETATM   14  C13 UNL     1      -5.654  50.295 -21.628  1.00  0.00     0.045 C 
HETATM   15  C14 UNL     1      -4.975  49.605 -22.833  1.00  0.00     0.001 C 
HETATM   16  C15 UNL     1      -3.682  48.868 -22.387  1.00  0.00     0.019 C 
HETATM   17  C16 UNL     1      -6.029  48.657 -23.458  1.00  0.00     0.002 C 
HETATM   18  C17 UNL     1      -5.403  48.243 -24.782  1.00  0.00     0.009 C 
HETATM   19  C18 UNL     1      -4.626  49.489 -25.247  1.00  0.00     0.047 C 
HETATM   20  C19 UNL     1      -4.660  50.510 -24.071  1.00  0.00     0.128 C 
ENDROOT
BRANCH  20  21
HETATM   21  O3  UNL     1      -5.762  51.383 -24.355  1.00  0.00    -0.381 OA
HETATM   22  H27 UNL     1      -5.704  52.144 -23.750  1.00  0.00     0.211 HD
ENDBRANCH  20  21
BRANCH  20  23
HETATM   23  C20 UNL     1      -3.336  51.321 -23.982  1.00  0.00     0.185 C 
HETATM   24  O4  UNL     1      -3.138  52.169 -23.107  1.00  0.00    -0.292 OA
BRANCH  23  25
HETATM   25  C21 UNL     1      -2.295  51.106 -25.075  1.00  0.00     0.260 C 
BRANCH  25  26
HETATM   26  O5  UNL     1      -2.448  52.041 -26.145  1.00  0.00    -0.314 OA
BRANCH  26  27
HETATM   27  C22 UNL     1      -2.226  51.515 -27.383  1.00  0.00     0.259 C 
HETATM   28  O6  UNL     1      -3.108  51.131 -28.138  1.00  0.00    -0.265 OA
BRANCH  27  29
HETATM   29  C23 UNL     1      -0.752  51.332 -27.658  1.00  0.00     0.120 C 
BRANCH  29  30
HETATM   30  C24 UNL     1       0.065  52.619 -27.632  1.00  0.00     0.112 C 
BRANCH  30  31
HETATM   31  C25 UNL     1       0.880  52.753 -26.363  1.00  0.00     0.218 C 
HETATM   32  O7  UNL     1       2.048  52.395 -26.276  1.00  0.00    -0.274 OA
HETATM   33  N1  UNL     1       0.180  53.326 -25.328  1.00  0.00    -0.361 N 
HETATM   34  H34 UNL     1      -0.801  53.546 -25.446  1.00  0.00     0.162 HD
BRANCH  33  35
HETATM   35  C26 UNL     1       0.772  53.515 -24.014  1.00  0.00     0.127 C 
BRANCH  35  36
HETATM   36  C27 UNL     1       0.268  52.489 -22.995  1.00  0.00     0.060 C 
BRANCH  36  37
HETATM   37  C28 UNL     1       0.620  52.872 -21.593  1.00  0.00    -0.029 A 
HETATM   38  C29 UNL     1       1.278  54.021 -21.201  1.00  0.00     0.096 A 
HETATM   39  N2  UNL     1       1.400  54.003 -19.839  1.00  0.00    -0.365 N 
HETATM   40  C30 UNL     1       0.829  52.863 -19.324  1.00  0.00     0.042 A 
HETATM   41  H40 UNL     1       1.839  54.723 -19.284  1.00  0.00     0.165 HD
HETATM   42  C31 UNL     1       0.714  52.431 -17.998  1.00  0.00     0.030 A 
HETATM   43  C35 UNL     1       0.337  52.128 -20.403  1.00  0.00    -0.002 A 
HETATM   44  C32 UNL     1       0.075  51.209 -17.768  1.00  0.00     0.002 A 
HETATM   45  C33 UNL     1      -0.425  50.450 -18.822  1.00  0.00     0.001 A 
HETATM   46  C34 UNL     1      -0.301  50.898 -20.142  1.00  0.00     0.014 A 
ENDBRANCH  36  37
ENDBRANCH  35  36
ENDBRANCH  33  35
ENDBRANCH  30  31
ENDBRANCH  29  30
ENDBRANCH  27  29
ENDBRANCH  26  27
ENDBRANCH  25  26
ENDBRANCH  23  25
ENDBRANCH  20  23
BRANCH  13  47
HETATM   47  O2  UNL     1      -5.214  48.704 -19.856  1.00  0.00    -0.395 OA
HETATM   48  H16 UNL     1      -4.763  49.403 -19.350  1.00  0.00     0.210 HD
ENDBRANCH  13  47
TORSDOF 12
ENDMDL
MODEL 7
REMARK minimizedAffinity -8.26375675
REMARK CNNscore 0.338607401
REMARK CNNaffinity 6.32737112
REMARK  12 active torsions:
REMARK  status: ('A' for Active; 'I' for Inactive)
REMARK    1  A    between atoms: C12_13  and  O2_14 
REMARK    2  A    between atoms: C19_21  and  O3_22 
REMARK    3  A    between atoms: C19_21  and  C20_23 
REMARK    4  A    between atoms: C20_23  and  C21_25 
REMARK    5  A    between atoms: C21_25  and  O5_26 
REMARK    6  A    between atoms: O5_26  and  C22_27 
REMARK    7  A    between atoms: C22_27  and  C23_29 
REMARK    8  A    between atoms: C23_29  and  C24_30 
REMARK    9  A    between atoms: C24_30  and  C25_31 
REMARK       I    between atoms: C25_31  and  N1_33 
REMARK   10  A    between atoms: N1_33  and  C26_34 
REMARK   11  A    between atoms: C26_34  and  C27_35 
REMARK   12  A    between atoms: C27_35  and  C28_36 
ROOT
HETATM    1  C1  UNL     1     -10.368  45.320 -38.572  1.00  0.00     0.020 C 
HETATM    2  C2  UNL     1     -10.852  46.660 -37.958  1.00  0.00    -0.014 C 
HETATM    3  C3  UNL     1     -12.396  46.666 -38.144  1.00  0.00     0.022 C 
HETATM    4  C4  UNL     1     -13.024  48.043 -38.020  1.00  0.00     0.084 C 
HETATM    5  C5  UNL     1     -12.391  48.982 -39.012  1.00  0.00     0.149 C 
HETATM    6  O1  UNL     1     -13.014  49.896 -39.542  1.00  0.00    -0.293 OA
HETATM    7  C6  UNL     1     -10.934  48.851 -39.255  1.00  0.00     0.053 C 
HETATM    8  C7  UNL     1     -10.230  47.833 -38.729  1.00  0.00    -0.068 C 
HETATM    9  C8  UNL     1      -8.723  47.872 -38.727  1.00  0.00     0.035 C 
HETATM   10  C9  UNL     1      -8.233  47.997 -37.283  1.00  0.00     0.010 C 
HETATM   11  C10 UNL     1      -8.834  46.933 -36.339  1.00  0.00    -0.002 C 
HETATM   12  C11 UNL     1     -10.400  46.865 -36.464  1.00  0.00     0.031 C 
HETATM   13  C12 UNL     1     -11.032  45.900 -35.423  1.00  0.00     0.124 C 
HETATM   14  C13 UNL     1     -10.511  46.124 -33.986  1.00  0.00     0.045 C 
HETATM   15  C14 UNL     1      -8.969  46.153 -33.880  1.00  0.00     0.001 C 
HETATM   16  C15 UNL     1      -8.374  44.745 -34.157  1.00  0.00     0.019 C 
HETATM   17  C16 UNL     1      -8.473  47.229 -34.876  1.00  0.00     0.002 C 
HETATM   18  C17 UNL     1      -7.005  47.407 -34.515  1.00  0.00     0.009 C 
HETATM   19  C18 UNL     1      -6.958  47.213 -32.989  1.00  0.00     0.047 C 
HETATM   20  C19 UNL     1      -8.370  46.722 -32.550  1.00  0.00     0.128 C 
ENDROOT
BRANCH  20  21
HETATM   21  O3  UNL     1      -9.074  47.901 -32.139  1.00  0.00    -0.381 OA
HETATM   22  H27 UNL     1      -9.888  47.621 -31.683  1.00  0.00     0.211 HD
ENDBRANCH  20  21
BRANCH  20  23
HETATM   23  C20 UNL     1      -8.281  45.707 -31.374  1.00  0.00     0.185 C 
HETATM   24  O4  UNL     1      -8.896  44.637 -31.376  1.00  0.00    -0.292 OA
BRANCH  23  25
HETATM   25  C21 UNL     1      -7.468  46.109 -30.148  1.00  0.00     0.260 C 
BRANCH  25  26
HETATM   26  O5  UNL     1      -7.575  47.507 -29.874  1.00  0.00    -0.314 OA
BRANCH  26  27
HETATM   27  C22 UNL     1      -7.829  47.803 -28.568  1.00  0.00     0.259 C 
HETATM   28  O6  UNL     1      -8.815  48.413 -28.176  1.00  0.00    -0.265 OA
BRANCH  27  29
HETATM   29  C23 UNL     1      -6.679  47.410 -27.670  1.00  0.00     0.120 C 
BRANCH  29  30
HETATM   30  C24 UNL     1      -7.044  47.258 -26.198  1.00  0.00     0.112 C 
BRANCH  30  31
HETATM   31  C25 UNL     1      -6.283  48.228 -25.318  1.00  0.00     0.218 C 
HETATM   32  O7  UNL     1      -6.747  48.708 -24.292  1.00  0.00    -0.274 OA
HETATM   33  N1  UNL     1      -5.017  48.501 -25.784  1.00  0.00    -0.361 N 
HETATM   34  H34 UNL     1      -4.714  48.118 -26.670  1.00  0.00     0.162 HD
BRANCH  33  35
HETATM   35  C26 UNL     1      -4.135  49.433 -25.101  1.00  0.00     0.127 C 
BRANCH  35  36
HETATM   36  C27 UNL     1      -3.084  48.720 -24.246  1.00  0.00     0.060 C 
BRANCH  36  37
HETATM   37  C28 UNL     1      -2.212  49.686 -23.510  1.00  0.00    -0.029 A 
HETATM   38  C29 UNL     1      -1.752  50.898 -23.986  1.00  0.00     0.096 A 
HETATM   39  N2  UNL     1      -0.994  51.484 -23.010  1.00  0.00    -0.365 N 
HETATM   40  C30 UNL     1      -0.949  50.681 -21.895  1.00  0.00     0.042 A 
HETATM   41  H40 UNL     1      -0.536  52.381 -23.088  1.00  0.00     0.165 HD
HETATM   42  C31 UNL     1      -0.306  50.877 -20.668  1.00  0.00     0.030 A 
HETATM   43  C35 UNL     1      -1.698  49.540 -22.181  1.00  0.00    -0.002 A 
HETATM   44  C32 UNL     1      -0.432  49.873 -19.703  1.00  0.00     0.002 A 
HETATM   45  C33 UNL     1      -1.171  48.721 -19.957  1.00  0.00     0.001 A 
HETATM   46  C34 UNL     1      -1.808  48.543 -21.190  1.00  0.00     0.014 A 
ENDBRANCH  36  37
ENDBRANCH  35  36
ENDBRANCH  33  35
ENDBRANCH  30  31
ENDBRANCH  29  30
ENDBRANCH  27  29
ENDBRANCH  26  27
ENDBRANCH  25  26
ENDBRANCH  23  25
ENDBRANCH  20  23
BRANCH  13  47
HETATM   47  O2  UNL     1     -10.837  44.543 -35.790  1.00  0.00    -0.395 OA
HETATM   48  H16 UNL     1     -11.377  43.990 -35.199  1.00  0.00     0.210 HD
ENDBRANCH  13  47
TORSDOF 12
ENDMDL
MODEL 8
REMARK minimizedAffinity -8.8426075
REMARK CNNscore 0.328336447
REMARK CNNaffinity 6.54575682
REMARK  12 active torsions:
REMARK  status: ('A' for Active; 'I' for Inactive)
REMARK    1  A    between atoms: C12_13  and  O2_14 
REMARK    2  A    between atoms: C19_21  and  O3_22 
REMARK    3  A    between atoms: C19_21  and  C20_23 
REMARK    4  A    between atoms: C20_23  and  C21_25 
REMARK    5  A    between atoms: C21_25  and  O5_26 
REMARK    6  A    between atoms: O5_26  and  C22_27 
REMARK    7  A    between atoms: C22_27  and  C23_29 
REMARK    8  A    between atoms: C23_29  and  C24_30 
REMARK    9  A    between atoms: C24_30  and  C25_31 
REMARK       I    between atoms: C25_31  and  N1_33 
REMARK   10  A    between atoms: N1_33  and  C26_34 
REMARK   11  A    between atoms: C26_34  and  C27_35 
REMARK   12  A    between atoms: C27_35  and  C28_36 
ROOT
HETATM    1  C1  UNL     1      -4.952  51.600 -24.283  1.00  0.00     0.020 C 
HETATM    2  C2  UNL     1      -3.979  50.431 -24.590  1.00  0.00    -0.014 C 
HETATM    3  C3  UNL     1      -3.166  50.887 -25.835  1.00  0.00     0.022 C 
HETATM    4  C4  UNL     1      -2.476  49.750 -26.567  1.00  0.00     0.084 C 
HETATM    5  C5  UNL     1      -3.493  48.717 -26.976  1.00  0.00     0.149 C 
HETATM    6  O1  UNL     1      -3.379  48.053 -28.002  1.00  0.00    -0.293 OA
HETATM    7  C6  UNL     1      -4.601  48.428 -26.035  1.00  0.00     0.053 C 
HETATM    8  C7  UNL     1      -4.783  49.167 -24.926  1.00  0.00    -0.068 C 
HETATM    9  C8  UNL     1      -5.708  48.689 -23.837  1.00  0.00     0.035 C 
HETATM   10  C9  UNL     1      -4.879  48.353 -22.596  1.00  0.00     0.010 C 
HETATM   11  C10 UNL     1      -3.938  49.499 -22.162  1.00  0.00    -0.002 C 
HETATM   12  C11 UNL     1      -3.076  50.028 -23.365  1.00  0.00     0.031 C 
HETATM   13  C12 UNL     1      -2.026  51.082 -22.917  1.00  0.00     0.124 C 
HETATM   14  C13 UNL     1      -1.206  50.645 -21.683  1.00  0.00     0.045 C 
HETATM   15  C14 UNL     1      -2.075  50.160 -20.499  1.00  0.00     0.001 C 
HETATM   16  C15 UNL     1      -2.868  51.344 -19.879  1.00  0.00     0.019 C 
HETATM   17  C16 UNL     1      -2.989  49.037 -21.046  1.00  0.00     0.002 C 
HETATM   18  C17 UNL     1      -3.593  48.419 -19.793  1.00  0.00     0.009 C 
HETATM   19  C18 UNL     1      -2.474  48.515 -18.739  1.00  0.00     0.047 C 
HETATM   20  C19 UNL     1      -1.334  49.375 -19.364  1.00  0.00     0.128 C 
ENDROOT
BRANCH  20  21
HETATM   21  O3  UNL     1      -0.407  48.434 -19.919  1.00  0.00    -0.381 OA
HETATM   22  H27 UNL     1       0.407  48.918 -20.151  1.00  0.00     0.211 HD
ENDBRANCH  20  21
BRANCH  20  23
HETATM   23  C20 UNL     1      -0.635  50.259 -18.293  1.00  0.00     0.185 C 
HETATM   24  O4  UNL     1       0.135  51.176 -18.593  1.00  0.00    -0.292 OA
BRANCH  23  25
HETATM   25  C21 UNL     1      -0.854  49.906 -16.825  1.00  0.00     0.260 C 
BRANCH  25  26
HETATM   26  O5  UNL     1      -1.422  50.996 -16.096  1.00  0.00    -0.314 OA
BRANCH  26  27
HETATM   27  C22 UNL     1      -2.179  50.618 -15.027  1.00  0.00     0.259 C 
HETATM   28  O6  UNL     1      -3.055  49.766 -15.066  1.00  0.00    -0.265 OA
BRANCH  27  29
HETATM   29  C23 UNL     1      -1.902  51.477 -13.814  1.00  0.00     0.120 C 
BRANCH  29  30
HETATM   30  C24 UNL     1      -2.967  51.401 -12.725  1.00  0.00     0.112 C 
BRANCH  30  31
HETATM   31  C25 UNL     1      -3.118  52.711 -11.981  1.00  0.00     0.218 C 
HETATM   32  O7  UNL     1      -4.182  53.310 -11.889  1.00  0.00    -0.274 OA
HETATM   33  N1  UNL     1      -1.944  53.148 -11.413  1.00  0.00    -0.361 N 
HETATM   34  H34 UNL     1      -1.086  52.637 -11.576  1.00  0.00     0.162 HD
BRANCH  33  35
HETATM   35  C26 UNL     1      -1.868  54.402 -10.682  1.00  0.00     0.127 C 
BRANCH  35  36
HETATM   36  C27 UNL     1      -0.930  54.317  -9.475  1.00  0.00     0.060 C 
BRANCH  36  37
HETATM   37  C28 UNL     1       0.456  54.766  -9.811  1.00  0.00    -0.029 A 
HETATM   38  C29 UNL     1       1.158  54.463 -10.960  1.00  0.00     0.096 A 
HETATM   39  N2  UNL     1       2.381  55.069 -10.891  1.00  0.00    -0.365 N 
HETATM   40  C30 UNL     1       2.498  55.773  -9.715  1.00  0.00     0.042 A 
HETATM   41  H40 UNL     1       3.099  55.018 -11.600  1.00  0.00     0.165 HD
HETATM   42  C31 UNL     1       3.559  56.544  -9.227  1.00  0.00     0.030 A 
HETATM   43  C35 UNL     1       1.307  55.596  -9.011  1.00  0.00    -0.002 A 
HETATM   44  C32 UNL     1       3.397  57.152  -7.979  1.00  0.00     0.002 A 
HETATM   45  C33 UNL     1       2.222  56.993  -7.249  1.00  0.00     0.001 A 
HETATM   46  C34 UNL     1       1.171  56.219  -7.754  1.00  0.00     0.014 A 
ENDBRANCH  36  37
ENDBRANCH  35  36
ENDBRANCH  33  35
ENDBRANCH  30  31
ENDBRANCH  29  30
ENDBRANCH  27  29
ENDBRANCH  26  27
ENDBRANCH  25  26
ENDBRANCH  23  25
ENDBRANCH  20  23
BRANCH  13  47
HETATM   47  O2  UNL     1      -2.632  52.339 -22.660  1.00  0.00    -0.395 OA
HETATM   48  H16 UNL     1      -1.925  52.996 -22.536  1.00  0.00     0.210 HD
ENDBRANCH  13  47
TORSDOF 12
ENDMDL
MODEL 9
REMARK minimizedAffinity -9.57081795
REMARK CNNscore 0.315531194
REMARK CNNaffinity 5.94980001
REMARK  12 active torsions:
REMARK  status: ('A' for Active; 'I' for Inactive)
REMARK    1  A    between atoms: C12_13  and  O2_14 
REMARK    2  A    between atoms: C19_21  and  O3_22 
REMARK    3  A    between atoms: C19_21  and  C20_23 
REMARK    4  A    between atoms: C20_23  and  C21_25 
REMARK    5  A    between atoms: C21_25  and  O5_26 
REMARK    6  A    between atoms: O5_26  and  C22_27 
REMARK    7  A    between atoms: C22_27  and  C23_29 
REMARK    8  A    between atoms: C23_29  and  C24_30 
REMARK    9  A    between atoms: C24_30  and  C25_31 
REMARK       I    between atoms: C25_31  and  N1_33 
REMARK   10  A    between atoms: N1_33  and  C26_34 
REMARK   11  A    between atoms: C26_34  and  C27_35 
REMARK   12  A    between atoms: C27_35  and  C28_36 
ROOT
HETATM    1  C1  UNL     1      -0.598  49.177 -19.935  1.00  0.00     0.020 C 
HETATM    2  C2  UNL     1      -0.876  50.548 -20.605  1.00  0.00    -0.014 C 
HETATM    3  C3  UNL     1       0.419  50.894 -21.394  1.00  0.00     0.022 C 
HETATM    4  C4  UNL     1       0.541  52.362 -21.760  1.00  0.00     0.084 C 
HETATM    5  C5  UNL     1       0.466  53.205 -20.514  1.00  0.00     0.149 C 
HETATM    6  O1  UNL     1       1.077  54.263 -20.398  1.00  0.00    -0.293 OA
HETATM    7  C6  UNL     1      -0.477  52.783 -19.451  1.00  0.00     0.053 C 
HETATM    8  C7  UNL     1      -1.127  51.608 -19.523  1.00  0.00    -0.068 C 
HETATM    9  C8  UNL     1      -2.291  51.325 -18.608  1.00  0.00     0.035 C 
HETATM   10  C9  UNL     1      -3.570  51.254 -19.444  1.00  0.00     0.010 C 
HETATM   11  C10 UNL     1      -3.464  50.284 -20.642  1.00  0.00    -0.002 C 
HETATM   12  C11 UNL     1      -2.174  50.559 -21.497  1.00  0.00     0.031 C 
HETATM   13  C12 UNL     1      -2.124  49.688 -22.783  1.00  0.00     0.124 C 
HETATM   14  C13 UNL     1      -3.443  49.706 -23.587  1.00  0.00     0.045 C 
HETATM   15  C14 UNL     1      -4.696  49.399 -22.734  1.00  0.00     0.001 C 
HETATM   16  C15 UNL     1      -4.694  47.917 -22.268  1.00  0.00     0.019 C 
HETATM   17  C16 UNL     1      -4.692  50.406 -21.556  1.00  0.00     0.002 C 
HETATM   18  C17 UNL     1      -6.073  50.245 -20.938  1.00  0.00     0.009 C 
HETATM   19  C18 UNL     1      -6.998  49.950 -22.134  1.00  0.00     0.047 C 
HETATM   20  C19 UNL     1      -6.081  49.744 -23.377  1.00  0.00     0.128 C 
ENDROOT
BRANCH  20  21
HETATM   21  O3  UNL     1      -6.034  51.018 -24.032  1.00  0.00    -0.381 OA
HETATM   22  H27 UNL     1      -5.630  50.889 -24.909  1.00  0.00     0.211 HD
ENDBRANCH  20  21
BRANCH  20  23
HETATM   23  C20 UNL     1      -6.656  48.662 -24.336  1.00  0.00     0.185 C 
HETATM   24  O4  UNL     1      -5.971  48.126 -25.212  1.00  0.00    -0.292 OA
BRANCH  23  25
HETATM   25  C21 UNL     1      -8.141  48.333 -24.229  1.00  0.00     0.260 C 
BRANCH  25  26
HETATM   26  O5  UNL     1      -8.564  47.449 -25.269  1.00  0.00    -0.314 OA
BRANCH  26  27
HETATM   27  C22 UNL     1      -9.623  47.909 -25.995  1.00  0.00     0.259 C 
HETATM   28  O6  UNL     1     -10.130  49.013 -25.855  1.00  0.00    -0.265 OA
BRANCH  27  29
HETATM   29  C23 UNL     1     -10.190  46.838 -26.898  1.00  0.00     0.120 C 
BRANCH  29  30
HETATM   30  C24 UNL     1     -10.997  47.364 -28.080  1.00  0.00     0.112 C 
BRANCH  30  31
HETATM   31  C25 UNL     1     -12.485  47.362 -27.802  1.00  0.00     0.218 C 
HETATM   32  O7  UNL     1     -13.060  48.273 -27.219  1.00  0.00    -0.274 OA
HETATM   33  N1  UNL     1     -13.122  46.241 -28.281  1.00  0.00    -0.361 N 
HETATM   34  H34 UNL     1     -12.581  45.496 -28.701  1.00  0.00     0.162 HD
BRANCH  33  35
HETATM   35  C26 UNL     1     -14.547  46.029 -28.089  1.00  0.00     0.127 C 
BRANCH  35  36
HETATM   36  C27 UNL     1     -14.848  45.167 -26.860  1.00  0.00     0.060 C 
BRANCH  36  37
HETATM   37  C28 UNL     1     -15.682  45.896 -25.855  1.00  0.00    -0.029 A 
HETATM   38  C29 UNL     1     -15.222  46.781 -24.899  1.00  0.00     0.096 A 
HETATM   39  N2  UNL     1     -16.295  47.238 -24.185  1.00  0.00    -0.365 N 
HETATM   40  C30 UNL     1     -17.457  46.673 -24.655  1.00  0.00     0.042 A 
HETATM   41  H40 UNL     1     -16.248  47.901 -23.424  1.00  0.00     0.165 HD
HETATM   42  C31 UNL     1     -18.780  46.851 -24.238  1.00  0.00     0.030 A 
HETATM   43  C35 UNL     1     -17.103  45.819 -25.700  1.00  0.00    -0.002 A 
HETATM   44  C32 UNL     1     -19.774  46.133 -24.909  1.00  0.00     0.002 A 
HETATM   45  C33 UNL     1     -19.455  45.270 -25.954  1.00  0.00     0.001 A 
HETATM   46  C34 UNL     1     -18.126  45.105 -26.359  1.00  0.00     0.014 A 
ENDBRANCH  36  37
ENDBRANCH  35  36
ENDBRANCH  33  35
ENDBRANCH  30  31
ENDBRANCH  29  30
ENDBRANCH  27  29
ENDBRANCH  26  27
ENDBRANCH  25  26
ENDBRANCH  23  25
ENDBRANCH  20  23
BRANCH  13  47
HETATM   47  O2  UNL     1      -1.770  48.346 -22.484  1.00  0.00    -0.395 OA
HETATM   48  H16 UNL     1      -1.602  47.884 -23.324  1.00  0.00     0.210 HD
ENDBRANCH  13  47
TORSDOF 12
ENDMDL
