MODEL 1
REMARK minimizedAffinity -6.9252882
REMARK CNNscore 0.530907452
REMARK CNNaffinity 5.27221823
REMARK  11 active torsions:
REMARK  status: ('A' for Active; 'I' for Inactive)
REMARK    1  A    between atoms: C2_2  and  O1_3 
REMARK    2  A    between atoms: C2_2  and  C3_4 
REMARK    3  A    between atoms: C4_5  and  C5_6 
REMARK    4  A    between atoms: C5_6  and  O2_7 
REMARK    5  A    between atoms: C9_11  and  O3_12 
REMARK    6  A    between atoms: O3_12  and  C10_13 
REMARK    7  A    between atoms: C11_15  and  C12_16 
REMARK    8  A    between atoms: C12_16  and  O5_17 
REMARK    9  A    between atoms: C13_18  and  O6_19 
REMARK   10  A    between atoms: C14_20  and  O7_21 
REMARK   11  A    between atoms: C15_22  and  O8_23 
ROOT
HETATM    1  C5  UNL     1      -4.748  48.837 -24.344  1.00  0.00     0.086 C 
HETATM    2  C6  UNL     1      -4.668  48.132 -25.751  1.00  0.00     0.023 C 
HETATM    3  C7  UNL     1      -3.574  48.700 -26.669  1.00  0.00     0.013 C 
HETATM    4  C8  UNL     1      -6.014  48.200 -26.483  1.00  0.00     0.039 C 
HETATM    5  C9  UNL     1      -7.098  47.409 -25.747  1.00  0.00     0.126 C 
HETATM    6  C16 UNL     1      -6.834  47.316 -24.235  1.00  0.00     0.044 C 
HETATM    7  C17 UNL     1      -6.156  48.571 -23.625  1.00  0.00    -0.010 C 
HETATM    8  C18 UNL     1      -7.115  49.784 -23.746  1.00  0.00     0.018 C 
HETATM    9  C19 UNL     1      -6.026  48.309 -22.101  1.00  0.00     0.018 C 
ENDROOT
BRANCH   5  10
HETATM   10  O3  UNL     1      -8.395  47.986 -25.938  1.00  0.00    -0.353 OA
BRANCH  10  11
HETATM   11  C10 UNL     1      -9.360  47.094 -26.506  1.00  0.00     0.292 C 
HETATM   12  O4  UNL     1      -8.894  46.411 -27.668  1.00  0.00    -0.348 OA
HETATM   13  C11 UNL     1      -9.180  47.022 -28.942  1.00  0.00     0.179 C 
HETATM   14  C13 UNL     1     -10.696  47.266 -29.135  1.00  0.00     0.180 C 
HETATM   15  C14 UNL     1     -11.470  47.205 -27.814  1.00  0.00     0.183 C 
HETATM   16  C15 UNL     1     -10.655  47.897 -26.733  1.00  0.00     0.204 C 
BRANCH  13  17
HETATM   17  C12 UNL     1      -8.288  48.247 -29.212  1.00  0.00     0.198 C 
BRANCH  17  18
HETATM   18  O5  UNL     1      -8.762  49.365 -28.457  1.00  0.00    -0.398 OA
HETATM   19  H20 UNL     1      -8.375  50.162 -28.857  1.00  0.00     0.209 HD
ENDBRANCH  17  18
ENDBRANCH  13  17
BRANCH  14  20
HETATM   20  O6  UNL     1     -10.959  48.528 -29.764  1.00  0.00    -0.390 OA
HETATM   21  H22 UNL     1     -11.910  48.699 -29.587  1.00  0.00     0.210 HD
ENDBRANCH  14  20
BRANCH  15  22
HETATM   22  O7  UNL     1     -12.739  47.863 -27.977  1.00  0.00    -0.390 OA
HETATM   23  H24 UNL     1     -13.060  48.010 -27.064  1.00  0.00     0.210 HD
ENDBRANCH  15  22
BRANCH  16  24
HETATM   24  O8  UNL     1     -11.438  47.986 -25.528  1.00  0.00    -0.388 OA
HETATM   25  H26 UNL     1     -10.869  48.443 -24.879  1.00  0.00     0.210 HD
ENDBRANCH  16  24
ENDBRANCH  10  11
ENDBRANCH   5  10
BRANCH   1  26
HETATM   26  C4  UNL     1      -3.557  48.514 -23.445  1.00  0.00     0.010 C 
HETATM   27  C3  UNL     1      -2.704  49.351 -22.825  1.00  0.00     0.003 C 
BRANCH  27  28
HETATM   28  C2  UNL     1      -1.548  48.958 -21.939  1.00  0.00     0.136 C 
HETATM   29  C1  UNL     1      -1.665  47.511 -21.477  1.00  0.00     0.043 C 
BRANCH  28  30
HETATM   30  O1  UNL     1      -1.468  49.800 -20.797  1.00  0.00    -0.392 OA
HETATM   31  H5  UNL     1      -2.265  49.637 -20.265  1.00  0.00     0.210 HD
ENDBRANCH  28  30
ENDBRANCH  27  28
ENDBRANCH   1  26
BRANCH   1  32
HETATM   32  O2  UNL     1      -4.638  50.254 -24.560  1.00  0.00    -0.385 OA
HETATM   33  H8  UNL     1      -3.714  50.449 -24.796  1.00  0.00     0.211 HD
ENDBRANCH   1  32
TORSDOF 11
ENDMDL
MODEL 2
REMARK minimizedAffinity -7.20722008
REMARK CNNscore 0.5157758
REMARK CNNaffinity 4.99395895
REMARK  11 active torsions:
REMARK  status: ('A' for Active; 'I' for Inactive)
REMARK    1  A    between atoms: C2_2  and  O1_3 
REMARK    2  A    between atoms: C2_2  and  C3_4 
REMARK    3  A    between atoms: C4_5  and  C5_6 
REMARK    4  A    between atoms: C5_6  and  O2_7 
REMARK    5  A    between atoms: C9_11  and  O3_12 
REMARK    6  A    between atoms: O3_12  and  C10_13 
REMARK    7  A    between atoms: C11_15  and  C12_16 
REMARK    8  A    between atoms: C12_16  and  O5_17 
REMARK    9  A    between atoms: C13_18  and  O6_19 
REMARK   10  A    between atoms: C14_20  and  O7_21 
REMARK   11  A    between atoms: C15_22  and  O8_23 
ROOT
HETATM    1  C5  UNL     1      -2.321  50.745 -24.818  1.00  0.00     0.086 C 
HETATM    2  C6  UNL     1      -2.615  49.230 -25.133  1.00  0.00     0.023 C 
HETATM    3  C7  UNL     1      -3.217  48.990 -26.527  1.00  0.00     0.013 C 
HETATM    4  C8  UNL     1      -3.543  48.614 -24.079  1.00  0.00     0.039 C 
HETATM    5  C9  UNL     1      -2.883  48.572 -22.700  1.00  0.00     0.126 C 
HETATM    6  C16 UNL     1      -1.828  49.676 -22.519  1.00  0.00     0.044 C 
HETATM    7  C17 UNL     1      -2.162  51.006 -23.244  1.00  0.00    -0.010 C 
HETATM    8  C18 UNL     1      -3.439  51.627 -22.621  1.00  0.00     0.018 C 
HETATM    9  C19 UNL     1      -1.019  51.999 -22.901  1.00  0.00     0.018 C 
ENDROOT
BRANCH   5  10
HETATM   10  O3  UNL     1      -3.847  48.701 -21.648  1.00  0.00    -0.353 OA
BRANCH  10  11
HETATM   11  C10 UNL     1      -3.421  48.168 -20.389  1.00  0.00     0.292 C 
HETATM   12  O4  UNL     1      -3.996  46.901 -20.078  1.00  0.00    -0.348 OA
HETATM   13  C11 UNL     1      -5.211  46.910 -19.302  1.00  0.00     0.179 C 
HETATM   14  C13 UNL     1      -5.034  47.670 -17.965  1.00  0.00     0.180 C 
HETATM   15  C14 UNL     1      -3.794  48.568 -17.964  1.00  0.00     0.183 C 
HETATM   16  C15 UNL     1      -3.677  49.248 -19.320  1.00  0.00     0.204 C 
BRANCH  13  17
HETATM   17  C12 UNL     1      -6.430  47.344 -20.135  1.00  0.00     0.198 C 
BRANCH  17  18
HETATM   18  O5  UNL     1      -6.410  48.762 -20.318  1.00  0.00    -0.398 OA
HETATM   19  H20 UNL     1      -7.308  49.027 -20.584  1.00  0.00     0.209 HD
ENDBRANCH  17  18
ENDBRANCH  13  17
BRANCH  14  20
HETATM   20  O6  UNL     1      -6.182  48.469 -17.648  1.00  0.00    -0.390 OA
HETATM   21  H22 UNL     1      -5.863  49.097 -16.962  1.00  0.00     0.210 HD
ENDBRANCH  14  20
BRANCH  15  22
HETATM   22  O7  UNL     1      -3.923  49.555 -16.924  1.00  0.00    -0.390 OA
HETATM   23  H24 UNL     1      -3.246  50.229 -17.139  1.00  0.00     0.210 HD
ENDBRANCH  15  22
BRANCH  16  24
HETATM   24  O8  UNL     1      -2.610  50.214 -19.280  1.00  0.00    -0.388 OA
HETATM   25  H26 UNL     1      -2.590  50.619 -20.168  1.00  0.00     0.210 HD
ENDBRANCH  16  24
ENDBRANCH  10  11
ENDBRANCH   5  10
BRANCH   1  26
HETATM   26  C4  UNL     1      -1.157  51.309 -25.630  1.00  0.00     0.010 C 
HETATM   27  C3  UNL     1      -1.155  52.288 -26.554  1.00  0.00     0.003 C 
BRANCH  27  28
HETATM   28  C2  UNL     1       0.042  52.802 -27.314  1.00  0.00     0.136 C 
HETATM   29  C1  UNL     1       0.689  51.702 -28.146  1.00  0.00     0.043 C 
BRANCH  28  30
HETATM   30  O1  UNL     1       1.016  53.343 -26.431  1.00  0.00    -0.392 OA
HETATM   31  H5  UNL     1       1.352  52.608 -25.891  1.00  0.00     0.210 HD
ENDBRANCH  28  30
ENDBRANCH  27  28
ENDBRANCH   1  26
BRANCH   1  32
HETATM   32  O2  UNL     1      -3.452  51.511 -25.268  1.00  0.00    -0.385 OA
HETATM   33  H8  UNL     1      -3.431  51.532 -26.241  1.00  0.00     0.211 HD
ENDBRANCH   1  32
TORSDOF 11
ENDMDL
MODEL 3
REMARK minimizedAffinity -7.66758204
REMARK CNNscore 0.501681089
REMARK CNNaffinity 5.26439619
REMARK  11 active torsions:
REMARK  status: ('A' for Active; 'I' for Inactive)
REMARK    1  A    between atoms: C2_2  and  O1_3 
REMARK    2  A    between atoms: C2_2  and  C3_4 
REMARK    3  A    between atoms: C4_5  and  C5_6 
REMARK    4  A    between atoms: C5_6  and  O2_7 
REMARK    5  A    between atoms: C9_11  and  O3_12 
REMARK    6  A    between atoms: O3_12  and  C10_13 
REMARK    7  A    between atoms: C11_15  and  C12_16 
REMARK    8  A    between atoms: C12_16  and  O5_17 
REMARK    9  A    between atoms: C13_18  and  O6_19 
REMARK   10  A    between atoms: C14_20  and  O7_21 
REMARK   11  A    between atoms: C15_22  and  O8_23 
ROOT
HETATM    1  C5  UNL     1      -2.457  50.302 -25.895  1.00  0.00     0.086 C 
HETATM    2  C6  UNL     1      -2.906  48.793 -25.892  1.00  0.00     0.023 C 
HETATM    3  C7  UNL     1      -3.490  48.314 -27.232  1.00  0.00     0.013 C 
HETATM    4  C8  UNL     1      -3.926  48.519 -24.781  1.00  0.00     0.039 C 
HETATM    5  C9  UNL     1      -3.316  48.714 -23.392  1.00  0.00     0.126 C 
HETATM    6  C16 UNL     1      -2.153  49.720 -23.397  1.00  0.00     0.044 C 
HETATM    7  C17 UNL     1      -2.317  50.885 -24.408  1.00  0.00    -0.010 C 
HETATM    8  C18 UNL     1      -3.537  51.752 -24.001  1.00  0.00     0.018 C 
HETATM    9  C19 UNL     1      -1.084  51.809 -24.226  1.00  0.00     0.018 C 
ENDROOT
BRANCH   5  10
HETATM   10  O3  UNL     1      -4.291  49.166 -22.444  1.00  0.00    -0.353 OA
BRANCH  10  11
HETATM   11  C10 UNL     1      -4.402  48.346 -21.277  1.00  0.00     0.292 C 
HETATM   12  O4  UNL     1      -5.180  48.933 -20.236  1.00  0.00    -0.348 OA
HETATM   13  C11 UNL     1      -4.469  49.698 -19.242  1.00  0.00     0.179 C 
HETATM   14  C13 UNL     1      -3.356  48.864 -18.562  1.00  0.00     0.180 C 
HETATM   15  C14 UNL     1      -2.994  47.610 -19.365  1.00  0.00     0.183 C 
HETATM   16  C15 UNL     1      -2.973  47.961 -20.844  1.00  0.00     0.204 C 
BRANCH  13  17
HETATM   17  C12 UNL     1      -4.015  51.067 -19.778  1.00  0.00     0.198 C 
BRANCH  17  18
HETATM   18  O5  UNL     1      -4.933  51.524 -20.774  1.00  0.00    -0.398 OA
HETATM   19  H20 UNL     1      -4.480  52.220 -21.280  1.00  0.00     0.209 HD
ENDBRANCH  17  18
ENDBRANCH  13  17
BRANCH  14  20
HETATM   20  O6  UNL     1      -2.165  49.635 -18.349  1.00  0.00    -0.390 OA
HETATM   21  H22 UNL     1      -1.465  48.965 -18.184  1.00  0.00     0.210 HD
ENDBRANCH  14  20
BRANCH  15  22
HETATM   22  O7  UNL     1      -1.699  47.139 -18.949  1.00  0.00    -0.390 OA
HETATM   23  H24 UNL     1      -1.426  46.515 -19.652  1.00  0.00     0.210 HD
ENDBRANCH  15  22
BRANCH  16  24
HETATM   24  O8  UNL     1      -2.481  46.836 -21.595  1.00  0.00    -0.388 OA
HETATM   25  H26 UNL     1      -2.483  47.122 -22.529  1.00  0.00     0.210 HD
ENDBRANCH  16  24
ENDBRANCH  10  11
ENDBRANCH   5  10
BRANCH   1  26
HETATM   26  C4  UNL     1      -1.216  50.556 -26.747  1.00  0.00     0.010 C 
HETATM   27  C3  UNL     1      -0.837  51.674 -27.395  1.00  0.00     0.003 C 
BRANCH  27  28
HETATM   28  C2  UNL     1       0.416  51.855 -28.215  1.00  0.00     0.136 C 
HETATM   29  C1  UNL     1       1.651  51.962 -27.329  1.00  0.00     0.043 C 
BRANCH  28  30
HETATM   30  O1  UNL     1       0.332  53.017 -29.029  1.00  0.00    -0.392 OA
HETATM   31  H5  UNL     1       0.304  53.783 -28.432  1.00  0.00     0.210 HD
ENDBRANCH  28  30
ENDBRANCH  27  28
ENDBRANCH   1  26
BRANCH   1  32
HETATM   32  O2  UNL     1      -3.485  51.061 -26.558  1.00  0.00    -0.385 OA
HETATM   33  H8  UNL     1      -3.433  50.866 -27.510  1.00  0.00     0.211 HD
ENDBRANCH   1  32
TORSDOF 11
ENDMDL
MODEL 4
REMARK minimizedAffinity -7.68497515
REMARK CNNscore 0.501576841
REMARK CNNaffinity 4.92313576
REMARK  11 active torsions:
REMARK  status: ('A' for Active; 'I' for Inactive)
REMARK    1  A    between atoms: C2_2  and  O1_3 
REMARK    2  A    between atoms: C2_2  and  C3_4 
REMARK    3  A    between atoms: C4_5  and  C5_6 
REMARK    4  A    between atoms: C5_6  and  O2_7 
REMARK    5  A    between atoms: C9_11  and  O3_12 
REMARK    6  A    between atoms: O3_12  and  C10_13 
REMARK    7  A    between atoms: C11_15  and  C12_16 
REMARK    8  A    between atoms: C12_16  and  O5_17 
REMARK    9  A    between atoms: C13_18  and  O6_19 
REMARK   10  A    between atoms: C14_20  and  O7_21 
REMARK   11  A    between atoms: C15_22  and  O8_23 
ROOT
HETATM    1  C5  UNL     1      -2.679  50.706 -25.145  1.00  0.00     0.086 C 
HETATM    2  C6  UNL     1      -2.664  49.133 -25.064  1.00  0.00     0.023 C 
HETATM    3  C7  UNL     1      -3.461  48.445 -26.185  1.00  0.00     0.013 C 
HETATM    4  C8  UNL     1      -3.190  48.642 -23.710  1.00  0.00     0.039 C 
HETATM    5  C9  UNL     1      -2.275  49.069 -22.560  1.00  0.00     0.126 C 
HETATM    6  C16 UNL     1      -1.496  50.356 -22.875  1.00  0.00     0.044 C 
HETATM    7  C17 UNL     1      -2.272  51.378 -23.747  1.00  0.00    -0.010 C 
HETATM    8  C18 UNL     1      -3.508  51.891 -22.962  1.00  0.00     0.018 C 
HETATM    9  C19 UNL     1      -1.351  52.617 -23.908  1.00  0.00     0.018 C 
ENDROOT
BRANCH   5  10
HETATM   10  O3  UNL     1      -3.010  49.279 -21.348  1.00  0.00    -0.353 OA
BRANCH  10  11
HETATM   11  C10 UNL     1      -2.192  49.467 -20.188  1.00  0.00     0.292 C 
HETATM   12  O4  UNL     1      -1.744  48.247 -19.599  1.00  0.00    -0.348 OA
HETATM   13  C11 UNL     1      -2.557  47.694 -18.545  1.00  0.00     0.179 C 
HETATM   14  C13 UNL     1      -2.770  48.705 -17.393  1.00  0.00     0.180 C 
HETATM   15  C14 UNL     1      -2.446  50.143 -17.810  1.00  0.00     0.183 C 
HETATM   16  C15 UNL     1      -2.969  50.378 -19.218  1.00  0.00     0.204 C 
BRANCH  13  17
HETATM   17  C12 UNL     1      -3.846  47.048 -19.084  1.00  0.00     0.198 C 
BRANCH  17  18
HETATM   18  O5  UNL     1      -3.579  46.410 -20.336  1.00  0.00    -0.398 OA
HETATM   19  H20 UNL     1      -4.437  46.273 -20.773  1.00  0.00     0.209 HD
ENDBRANCH  17  18
ENDBRANCH  13  17
BRANCH  14  20
HETATM   20  O6  UNL     1      -4.111  48.664 -16.886  1.00  0.00    -0.390 OA
HETATM   21  H22 UNL     1      -4.209  49.500 -16.380  1.00  0.00     0.210 HD
ENDBRANCH  14  20
BRANCH  15  22
HETATM   22  O7  UNL     1      -3.071  51.056 -16.889  1.00  0.00    -0.390 OA
HETATM   23  H24 UNL     1      -3.041  51.923 -17.344  1.00  0.00     0.210 HD
ENDBRANCH  15  22
BRANCH  16  24
HETATM   24  O8  UNL     1      -2.814  51.767 -19.560  1.00  0.00    -0.388 OA
HETATM   25  H26 UNL     1      -3.172  51.856 -20.465  1.00  0.00     0.210 HD
ENDBRANCH  16  24
ENDBRANCH  10  11
ENDBRANCH   5  10
BRANCH   1  26
HETATM   26  C4  UNL     1      -1.869  51.251 -26.318  1.00  0.00     0.010 C 
HETATM   27  C3  UNL     1      -0.631  50.918 -26.731  1.00  0.00     0.003 C 
BRANCH  27  28
HETATM   28  C2  UNL     1       0.107  51.497 -27.912  1.00  0.00     0.136 C 
HETATM   29  C1  UNL     1       1.555  51.816 -27.561  1.00  0.00     0.043 C 
BRANCH  28  30
HETATM   30  O1  UNL     1      -0.524  52.681 -28.381  1.00  0.00    -0.392 OA
HETATM   31  H5  UNL     1      -0.443  53.346 -27.677  1.00  0.00     0.210 HD
ENDBRANCH  28  30
ENDBRANCH  27  28
ENDBRANCH   1  26
BRANCH   1  32
HETATM   32  O2  UNL     1      -4.025  51.114 -25.442  1.00  0.00    -0.385 OA
HETATM   33  H8  UNL     1      -4.206  50.894 -26.372  1.00  0.00     0.211 HD
ENDBRANCH   1  32
TORSDOF 11
ENDMDL
MODEL 5
REMARK minimizedAffinity -6.74278593
REMARK CNNscore 0.420222402
REMARK CNNaffinity 4.59057951
REMARK  11 active torsions:
REMARK  status: ('A' for Active; 'I' for Inactive)
REMARK    1  A    between atoms: C2_2  and  O1_3 
REMARK    2  A    between atoms: C2_2  and  C3_4 
REMARK    3  A    between atoms: C4_5  and  C5_6 
REMARK    4  A    between atoms: C5_6  and  O2_7 
REMARK    5  A    between atoms: C9_11  and  O3_12 
REMARK    6  A    between atoms: O3_12  and  C10_13 
REMARK    7  A    between atoms: C11_15  and  C12_16 
REMARK    8  A    between atoms: C12_16  and  O5_17 
REMARK    9  A    between atoms: C13_18  and  O6_19 
REMARK   10  A    between atoms: C14_20  and  O7_21 
REMARK   11  A    between atoms: C15_22  and  O8_23 
ROOT
HETATM    1  C5  UNL     1       5.860  65.680 -34.703  1.00  0.00     0.086 C 
HETATM    2  C6  UNL     1       4.413  65.421 -34.139  1.00  0.00     0.023 C 
HETATM    3  C7  UNL     1       4.331  64.248 -33.149  1.00  0.00     0.013 C 
HETATM    4  C8  UNL     1       3.409  65.183 -35.273  1.00  0.00     0.039 C 
HETATM    5  C9  UNL     1       3.236  66.428 -36.146  1.00  0.00     0.126 C 
HETATM    6  C16 UNL     1       4.485  67.325 -36.145  1.00  0.00     0.044 C 
HETATM    7  C17 UNL     1       5.828  66.554 -36.047  1.00  0.00    -0.010 C 
HETATM    8  C18 UNL     1       6.014  65.682 -37.317  1.00  0.00     0.018 C 
HETATM    9  C19 UNL     1       6.957  67.616 -36.115  1.00  0.00     0.018 C 
ENDROOT
BRANCH   5  10
HETATM   10  O3  UNL     1       2.936  66.085 -37.504  1.00  0.00    -0.353 OA
BRANCH  10  11
HETATM   11  C10 UNL     1       1.631  66.484 -37.937  1.00  0.00     0.292 C 
HETATM   12  O4  UNL     1       1.589  66.930 -39.291  1.00  0.00    -0.348 OA
HETATM   13  C11 UNL     1       1.748  68.346 -39.516  1.00  0.00     0.179 C 
HETATM   14  C13 UNL     1       0.702  69.174 -38.731  1.00  0.00     0.180 C 
HETATM   15  C14 UNL     1       0.043  68.368 -37.608  1.00  0.00     0.183 C 
HETATM   16  C15 UNL     1       1.102  67.518 -36.924  1.00  0.00     0.204 C 
BRANCH  13  17
HETATM   17  C12 UNL     1       3.206  68.803 -39.332  1.00  0.00     0.198 C 
BRANCH  17  18
HETATM   18  O5  UNL     1       4.094  67.784 -39.801  1.00  0.00    -0.398 OA
HETATM   19  H20 UNL     1       4.968  67.971 -39.417  1.00  0.00     0.209 HD
ENDBRANCH  17  18
ENDBRANCH  13  17
BRANCH  14  20
HETATM   20  O6  UNL     1       1.275  70.364 -38.170  1.00  0.00    -0.390 OA
HETATM   21  H22 UNL     1       0.627  70.651 -37.489  1.00  0.00     0.210 HD
ENDBRANCH  14  20
BRANCH  15  22
HETATM   22  O7  UNL     1      -0.553  69.274 -36.662  1.00  0.00    -0.390 OA
HETATM   23  H24 UNL     1      -0.724  68.725 -35.869  1.00  0.00     0.210 HD
ENDBRANCH  15  22
BRANCH  16  24
HETATM   24  O8  UNL     1       0.530  66.879 -35.769  1.00  0.00    -0.388 OA
HETATM   25  H26 UNL     1       1.254  66.358 -35.371  1.00  0.00     0.210 HD
ENDBRANCH  16  24
ENDBRANCH  10  11
ENDBRANCH   5  10
BRANCH   1  26
HETATM   26  C4  UNL     1       6.817  66.246 -33.657  1.00  0.00     0.010 C 
HETATM   27  C3  UNL     1       6.552  67.003 -32.575  1.00  0.00     0.003 C 
BRANCH  27  28
HETATM   28  C2  UNL     1       7.553  67.521 -31.574  1.00  0.00     0.136 C 
HETATM   29  C1  UNL     1       8.261  68.768 -32.089  1.00  0.00     0.043 C 
BRANCH  28  30
HETATM   30  O1  UNL     1       8.529  66.534 -31.266  1.00  0.00    -0.392 OA
HETATM   31  H5  UNL     1       9.038  66.371 -32.078  1.00  0.00     0.210 HD
ENDBRANCH  28  30
ENDBRANCH  27  28
ENDBRANCH   1  26
BRANCH   1  32
HETATM   32  O2  UNL     1       6.433  64.404 -35.034  1.00  0.00    -0.385 OA
HETATM   33  H8  UNL     1       6.653  63.950 -34.202  1.00  0.00     0.211 HD
ENDBRANCH   1  32
TORSDOF 11
ENDMDL
MODEL 6
REMARK minimizedAffinity -6.70408535
REMARK CNNscore 0.409758985
REMARK CNNaffinity 4.67892694
REMARK  11 active torsions:
REMARK  status: ('A' for Active; 'I' for Inactive)
REMARK    1  A    between atoms: C2_2  and  O1_3 
REMARK    2  A    between atoms: C2_2  and  C3_4 
REMARK    3  A    between atoms: C4_5  and  C5_6 
REMARK    4  A    between atoms: C5_6  and  O2_7 
REMARK    5  A    between atoms: C9_11  and  O3_12 
REMARK    6  A    between atoms: O3_12  and  C10_13 
REMARK    7  A    between atoms: C11_15  and  C12_16 
REMARK    8  A    between atoms: C12_16  and  O5_17 
REMARK    9  A    between atoms: C13_18  and  O6_19 
REMARK   10  A    between atoms: C14_20  and  O7_21 
REMARK   11  A    between atoms: C15_22  and  O8_23 
ROOT
HETATM    1  C5  UNL     1      -6.929  47.321 -30.701  1.00  0.00     0.086 C 
HETATM    2  C6  UNL     1      -6.863  48.006 -29.285  1.00  0.00     0.023 C 
HETATM    3  C7  UNL     1      -5.502  47.858 -28.585  1.00  0.00     0.013 C 
HETATM    4  C8  UNL     1      -7.959  47.469 -28.357  1.00  0.00     0.039 C 
HETATM    5  C9  UNL     1      -9.356  47.829 -28.864  1.00  0.00     0.126 C 
HETATM    6  C16 UNL     1      -9.399  48.012 -30.390  1.00  0.00     0.044 C 
HETATM    7  C17 UNL     1      -8.442  47.076 -31.174  1.00  0.00    -0.010 C 
HETATM    8  C18 UNL     1      -8.886  45.603 -30.977  1.00  0.00     0.018 C 
HETATM    9  C19 UNL     1      -8.668  47.370 -32.681  1.00  0.00     0.018 C 
ENDROOT
BRANCH   5  10
HETATM   10  O3  UNL     1     -10.322  46.833 -28.507  1.00  0.00    -0.353 OA
BRANCH  10  11
HETATM   11  C10 UNL     1     -11.678  47.201 -28.782  1.00  0.00     0.292 C 
HETATM   12  O4  UNL     1     -12.220  48.131 -27.847  1.00  0.00    -0.348 OA
HETATM   13  C11 UNL     1     -12.932  47.583 -26.720  1.00  0.00     0.179 C 
HETATM   14  C13 UNL     1     -14.091  46.659 -27.167  1.00  0.00     0.180 C 
HETATM   15  C14 UNL     1     -13.954  46.214 -28.626  1.00  0.00     0.183 C 
HETATM   16  C15 UNL     1     -12.493  45.899 -28.910  1.00  0.00     0.204 C 
BRANCH  13  17
HETATM   17  C12 UNL     1     -11.983  46.970 -25.675  1.00  0.00     0.198 C 
BRANCH  17  18
HETATM   18  O5  UNL     1     -12.565  47.077 -24.373  1.00  0.00    -0.398 OA
HETATM   19  H20 UNL     1     -11.845  46.955 -23.730  1.00  0.00     0.209 HD
ENDBRANCH  17  18
ENDBRANCH  13  17
BRANCH  14  20
HETATM   20  O6  UNL     1     -14.195  45.493 -26.337  1.00  0.00    -0.390 OA
HETATM   21  H22 UNL     1     -14.749  44.870 -26.857  1.00  0.00     0.210 HD
ENDBRANCH  14  20
BRANCH  15  22
HETATM   22  O7  UNL     1     -14.764  45.045 -28.843  1.00  0.00    -0.390 OA
HETATM   23  H24 UNL     1     -14.442  44.675 -29.691  1.00  0.00     0.210 HD
ENDBRANCH  15  22
BRANCH  16  24
HETATM   24  O8  UNL     1     -12.374  45.330 -30.226  1.00  0.00    -0.388 OA
HETATM   25  H26 UNL     1     -11.423  45.143 -30.347  1.00  0.00     0.210 HD
ENDBRANCH  16  24
ENDBRANCH  10  11
ENDBRANCH   5  10
BRANCH   1  26
HETATM   26  C4  UNL     1      -6.093  48.043 -31.755  1.00  0.00     0.010 C 
HETATM   27  C3  UNL     1      -4.982  47.630 -32.394  1.00  0.00     0.003 C 
BRANCH  27  28
HETATM   28  C2  UNL     1      -4.208  48.398 -33.436  1.00  0.00     0.136 C 
HETATM   29  C1  UNL     1      -4.864  48.292 -34.808  1.00  0.00     0.043 C 
BRANCH  28  30
HETATM   30  O1  UNL     1      -2.869  47.930 -33.530  1.00  0.00    -0.392 OA
HETATM   31  H5  UNL     1      -2.908  47.017 -33.861  1.00  0.00     0.210 HD
ENDBRANCH  28  30
ENDBRANCH  27  28
ENDBRANCH   1  26
BRANCH   1  32
HETATM   32  O2  UNL     1      -6.300  46.032 -30.592  1.00  0.00    -0.385 OA
HETATM   33  H8  UNL     1      -5.340  46.174 -30.516  1.00  0.00     0.211 HD
ENDBRANCH   1  32
TORSDOF 11
ENDMDL
MODEL 7
REMARK minimizedAffinity -7.91388607
REMARK CNNscore 0.406586498
REMARK CNNaffinity 5.11856556
REMARK  11 active torsions:
REMARK  status: ('A' for Active; 'I' for Inactive)
REMARK    1  A    between atoms: C2_2  and  O1_3 
REMARK    2  A    between atoms: C2_2  and  C3_4 
REMARK    3  A    between atoms: C4_5  and  C5_6 
REMARK    4  A    between atoms: C5_6  and  O2_7 
REMARK    5  A    between atoms: C9_11  and  O3_12 
REMARK    6  A    between atoms: O3_12  and  C10_13 
REMARK    7  A    between atoms: C11_15  and  C12_16 
REMARK    8  A    between atoms: C12_16  and  O5_17 
REMARK    9  A    between atoms: C13_18  and  O6_19 
REMARK   10  A    between atoms: C14_20  and  O7_21 
REMARK   11  A    between atoms: C15_22  and  O8_23 
ROOT
HETATM    1  C5  UNL     1      -2.626  50.786 -25.608  1.00  0.00     0.086 C 
HETATM    2  C6  UNL     1      -2.544  49.215 -25.524  1.00  0.00     0.023 C 
HETATM    3  C7  UNL     1      -3.270  48.493 -26.670  1.00  0.00     0.013 C 
HETATM    4  C8  UNL     1      -3.093  48.702 -24.187  1.00  0.00     0.039 C 
HETATM    5  C9  UNL     1      -2.238  49.169 -23.008  1.00  0.00     0.126 C 
HETATM    6  C16 UNL     1      -1.507  50.490 -23.298  1.00  0.00     0.044 C 
HETATM    7  C17 UNL     1      -2.298  51.475 -24.197  1.00  0.00    -0.010 C 
HETATM    8  C18 UNL     1      -3.582  51.932 -23.456  1.00  0.00     0.018 C 
HETATM    9  C19 UNL     1      -1.429  52.754 -24.328  1.00  0.00     0.018 C 
ENDROOT
BRANCH   5  10
HETATM   10  O3  UNL     1      -3.023  49.345 -21.822  1.00  0.00    -0.353 OA
BRANCH  10  11
HETATM   11  C10 UNL     1      -3.327  48.129 -21.130  1.00  0.00     0.292 C 
HETATM   12  O4  UNL     1      -4.724  47.901 -20.960  1.00  0.00    -0.348 OA
HETATM   13  C11 UNL     1      -5.318  48.374 -19.734  1.00  0.00     0.179 C 
HETATM   14  C13 UNL     1      -4.607  47.791 -18.489  1.00  0.00     0.180 C 
HETATM   15  C14 UNL     1      -3.227  47.215 -18.821  1.00  0.00     0.183 C 
HETATM   16  C15 UNL     1      -2.532  48.138 -19.810  1.00  0.00     0.204 C 
BRANCH  13  17
HETATM   17  C12 UNL     1      -5.490  49.903 -19.724  1.00  0.00     0.198 C 
BRANCH  17  18
HETATM   18  O5  UNL     1      -6.428  50.290 -20.732  1.00  0.00    -0.398 OA
HETATM   19  H20 UNL     1      -6.299  51.240 -20.891  1.00  0.00     0.209 HD
ENDBRANCH  17  18
ENDBRANCH  13  17
BRANCH  14  20
HETATM   20  O6  UNL     1      -4.459  48.770 -17.451  1.00  0.00    -0.390 OA
HETATM   21  H22 UNL     1      -3.777  48.393 -16.852  1.00  0.00     0.210 HD
ENDBRANCH  14  20
BRANCH  15  22
HETATM   22  O7  UNL     1      -2.453  47.111 -17.612  1.00  0.00    -0.390 OA
HETATM   23  H24 UNL     1      -1.531  46.985 -17.919  1.00  0.00     0.210 HD
ENDBRANCH  15  22
BRANCH  16  24
HETATM   24  O8  UNL     1      -1.177  47.694 -20.007  1.00  0.00    -0.388 OA
HETATM   25  H26 UNL     1      -0.784  48.326 -20.640  1.00  0.00     0.210 HD
ENDBRANCH  16  24
ENDBRANCH  10  11
ENDBRANCH   5  10
BRANCH   1  26
HETATM   26  C4  UNL     1      -1.801  51.368 -26.753  1.00  0.00     0.010 C 
HETATM   27  C3  UNL     1      -0.531  51.102 -27.112  1.00  0.00     0.003 C 
BRANCH  27  28
HETATM   28  C2  UNL     1       0.221  51.713 -28.268  1.00  0.00     0.136 C 
HETATM   29  C1  UNL     1       1.719  51.770 -27.991  1.00  0.00     0.043 C 
BRANCH  28  30
HETATM   30  O1  UNL     1      -0.245  53.027 -28.547  1.00  0.00    -0.392 OA
HETATM   31  H5  UNL     1      -0.024  53.578 -27.777  1.00  0.00     0.210 HD
ENDBRANCH  28  30
ENDBRANCH  27  28
ENDBRANCH   1  26
BRANCH   1  32
HETATM   32  O2  UNL     1      -3.978  51.134 -25.951  1.00  0.00    -0.385 OA
HETATM   33  H8  UNL     1      -4.117  50.906 -26.887  1.00  0.00     0.211 HD
ENDBRANCH   1  32
TORSDOF 11
ENDMDL
MODEL 8
REMARK minimizedAffinity -8.3497057
REMARK CNNscore 0.375509501
REMARK CNNaffinity 5.08631945
REMARK  11 active torsions:
REMARK  status: ('A' for Active; 'I' for Inactive)
REMARK    1  A    between atoms: C2_2  and  O1_3 
REMARK    2  A    between atoms: C2_2  and  C3_4 
REMARK    3  A    between atoms: C4_5  and  C5_6 
REMARK    4  A    between atoms: C5_6  and  O2_7 
REMARK    5  A    between atoms: C9_11  and  O3_12 
REMARK    6  A    between atoms: O3_12  and  C10_13 
REMARK    7  A    between atoms: C11_15  and  C12_16 
REMARK    8  A    between atoms: C12_16  and  O5_17 
REMARK    9  A    between atoms: C13_18  and  O6_19 
REMARK   10  A    between atoms: C14_20  and  O7_21 
REMARK   11  A    between atoms: C15_22  and  O8_23 
ROOT
HETATM    1  C5  UNL     1       0.392  52.702 -19.143  1.00  0.00     0.086 C 
HETATM    2  C6  UNL     1       1.038  52.702 -20.580  1.00  0.00     0.023 C 
HETATM    3  C7  UNL     1       1.643  54.055 -20.990  1.00  0.00     0.013 C 
HETATM    4  C8  UNL     1       0.023  52.271 -21.645  1.00  0.00     0.039 C 
HETATM    5  C9  UNL     1      -0.418  50.818 -21.450  1.00  0.00     0.126 C 
HETATM    6  C16 UNL     1      -0.316  50.365 -19.985  1.00  0.00     0.044 C 
HETATM    7  C17 UNL     1      -0.622  51.476 -18.947  1.00  0.00    -0.010 C 
HETATM    8  C18 UNL     1      -2.104  51.914 -19.083  1.00  0.00     0.018 C 
HETATM    9  C19 UNL     1      -0.522  50.816 -17.546  1.00  0.00     0.018 C 
ENDROOT
BRANCH   5  10
HETATM   10  O3  UNL     1      -1.766  50.611 -21.887  1.00  0.00    -0.353 OA
BRANCH  10  11
HETATM   11  C10 UNL     1      -2.231  51.573 -22.841  1.00  0.00     0.292 C 
HETATM   12  O4  UNL     1      -3.304  52.381 -22.364  1.00  0.00    -0.348 OA
HETATM   13  C11 UNL     1      -4.642  51.925 -22.649  1.00  0.00     0.179 C 
HETATM   14  C13 UNL     1      -4.867  51.718 -24.166  1.00  0.00     0.180 C 
HETATM   15  C14 UNL     1      -3.552  51.633 -24.946  1.00  0.00     0.183 C 
HETATM   16  C15 UNL     1      -2.555  50.813 -24.143  1.00  0.00     0.204 C 
BRANCH  13  17
HETATM   17  C12 UNL     1      -5.049  50.731 -21.766  1.00  0.00     0.198 C 
BRANCH  17  18
HETATM   18  O5  UNL     1      -6.468  50.720 -21.594  1.00  0.00    -0.398 OA
HETATM   19  H20 UNL     1      -6.656  50.154 -20.826  1.00  0.00     0.209 HD
ENDBRANCH  17  18
ENDBRANCH  13  17
BRANCH  14  20
HETATM   20  O6  UNL     1      -5.640  50.540 -24.436  1.00  0.00    -0.390 OA
HETATM   21  H22 UNL     1      -5.487  50.359 -25.390  1.00  0.00     0.210 HD
ENDBRANCH  14  20
BRANCH  15  22
HETATM   22  O7  UNL     1      -3.795  51.009 -26.220  1.00  0.00    -0.390 OA
HETATM   23  H24 UNL     1      -2.906  50.761 -26.547  1.00  0.00     0.210 HD
ENDBRANCH  15  22
BRANCH  16  24
HETATM   24  O8  UNL     1      -1.372  50.592 -24.932  1.00  0.00    -0.388 OA
HETATM   25  H26 UNL     1      -0.778  50.058 -24.371  1.00  0.00     0.210 HD
ENDBRANCH  16  24
ENDBRANCH  10  11
ENDBRANCH   5  10
BRANCH   1  26
HETATM   26  C4  UNL     1       1.426  52.797 -18.024  1.00  0.00     0.010 C 
HETATM   27  C3  UNL     1       1.527  52.075 -16.891  1.00  0.00     0.003 C 
BRANCH  27  28
HETATM   28  C2  UNL     1       2.586  52.219 -15.827  1.00  0.00     0.136 C 
HETATM   29  C1  UNL     1       3.979  52.318 -16.437  1.00  0.00     0.043 C 
BRANCH  28  30
HETATM   30  O1  UNL     1       2.557  51.123 -14.922  1.00  0.00    -0.392 OA
HETATM   31  H5  UNL     1       2.806  50.330 -15.426  1.00  0.00     0.210 HD
ENDBRANCH  28  30
ENDBRANCH  27  28
ENDBRANCH   1  26
BRANCH   1  32
HETATM   32  O2  UNL     1      -0.369  53.915 -19.008  1.00  0.00    -0.385 OA
HETATM   33  H8  UNL     1       0.259  54.652 -18.912  1.00  0.00     0.211 HD
ENDBRANCH   1  32
TORSDOF 11
ENDMDL
MODEL 9
REMARK minimizedAffinity -7.84004259
REMARK CNNscore 0.368445337
REMARK CNNaffinity 5.26030397
REMARK  11 active torsions:
REMARK  status: ('A' for Active; 'I' for Inactive)
REMARK    1  A    between atoms: C2_2  and  O1_3 
REMARK    2  A    between atoms: C2_2  and  C3_4 
REMARK    3  A    between atoms: C4_5  and  C5_6 
REMARK    4  A    between atoms: C5_6  and  O2_7 
REMARK    5  A    between atoms: C9_11  and  O3_12 
REMARK    6  A    between atoms: O3_12  and  C10_13 
REMARK    7  A    between atoms: C11_15  and  C12_16 
REMARK    8  A    between atoms: C12_16  and  O5_17 
REMARK    9  A    between atoms: C13_18  and  O6_19 
REMARK   10  A    between atoms: C14_20  and  O7_21 
REMARK   11  A    between atoms: C15_22  and  O8_23 
ROOT
HETATM    1  C5  UNL     1       6.479  64.447 -34.848  1.00  0.00     0.086 C 
HETATM    2  C6  UNL     1       5.266  64.941 -33.973  1.00  0.00     0.023 C 
HETATM    3  C7  UNL     1       4.851  63.953 -32.871  1.00  0.00     0.013 C 
HETATM    4  C8  UNL     1       4.044  65.254 -34.845  1.00  0.00     0.039 C 
HETATM    5  C9  UNL     1       4.308  66.429 -35.788  1.00  0.00     0.126 C 
HETATM    6  C16 UNL     1       5.797  66.579 -36.139  1.00  0.00     0.044 C 
HETATM    7  C17 UNL     1       6.569  65.237 -36.241  1.00  0.00    -0.010 C 
HETATM    8  C18 UNL     1       6.005  64.407 -37.423  1.00  0.00     0.018 C 
HETATM    9  C19 UNL     1       8.024  65.591 -36.651  1.00  0.00     0.018 C 
ENDROOT
BRANCH   5  10
HETATM   10  O3  UNL     1       3.573  66.301 -37.011  1.00  0.00    -0.353 OA
BRANCH  10  11
HETATM   11  C10 UNL     1       3.399  67.529 -37.726  1.00  0.00     0.292 C 
HETATM   12  O4  UNL     1       2.037  67.938 -37.841  1.00  0.00    -0.348 OA
HETATM   13  C11 UNL     1       1.329  67.518 -39.025  1.00  0.00     0.179 C 
HETATM   14  C13 UNL     1       2.050  67.971 -40.317  1.00  0.00     0.180 C 
HETATM   15  C14 UNL     1       3.508  68.366 -40.064  1.00  0.00     0.183 C 
HETATM   16  C15 UNL     1       4.122  67.383 -39.079  1.00  0.00     0.204 C 
BRANCH  13  17
HETATM   17  C12 UNL     1       0.956  66.026 -38.980  1.00  0.00     0.198 C 
BRANCH  17  18
HETATM   18  O5  UNL     1      -0.227  65.800 -39.752  1.00  0.00    -0.398 OA
HETATM   19  H20 UNL     1      -0.587  64.940 -39.475  1.00  0.00     0.209 HD
ENDBRANCH  17  18
ENDBRANCH  13  17
BRANCH  14  20
HETATM   20  O6  UNL     1       2.017  66.957 -41.331  1.00  0.00    -0.390 OA
HETATM   21  H22 UNL     1       2.714  67.224 -41.970  1.00  0.00     0.210 HD
ENDBRANCH  14  20
BRANCH  15  22
HETATM   22  O7  UNL     1       4.230  68.338 -41.308  1.00  0.00    -0.390 OA
HETATM   23  H24 UNL     1       5.174  68.347 -41.046  1.00  0.00     0.210 HD
ENDBRANCH  15  22
BRANCH  16  24
HETATM   24  O8  UNL     1       5.531  67.647 -38.955  1.00  0.00    -0.388 OA
HETATM   25  H26 UNL     1       5.868  66.985 -38.322  1.00  0.00     0.210 HD
ENDBRANCH  16  24
ENDBRANCH  10  11
ENDBRANCH   5  10
BRANCH   1  26
HETATM   26  C4  UNL     1       7.803  64.443 -34.087  1.00  0.00     0.010 C 
HETATM   27  C3  UNL     1       8.718  63.462 -33.970  1.00  0.00     0.003 C 
BRANCH  27  28
HETATM   28  C2  UNL     1      10.015  63.531 -33.204  1.00  0.00     0.136 C 
HETATM   29  C1  UNL     1      10.429  62.161 -32.683  1.00  0.00     0.043 C 
BRANCH  28  30
HETATM   30  O1  UNL     1       9.915  64.429 -32.106  1.00  0.00    -0.392 OA
HETATM   31  H5  UNL     1       9.270  64.051 -31.485  1.00  0.00     0.210 HD
ENDBRANCH  28  30
ENDBRANCH  27  28
ENDBRANCH   1  26
BRANCH   1  32
HETATM   32  O2  UNL     1       6.258  63.060 -35.156  1.00  0.00    -0.385 OA
HETATM   33  H8  UNL     1       6.413  62.546 -34.344  1.00  0.00     0.211 HD
ENDBRANCH   1  32
TORSDOF 11
ENDMDL
