MODEL 1
REMARK minimizedAffinity -10.6616058
REMARK  7 active torsions:
REMARK  status: ('A' for Active; 'I' for Inactive)
REMARK    1  A    between atoms: C4_4  and  C5_5 
REMARK    2  A    between atoms: C5_5  and  C6_6 
REMARK    3  A    between atoms: C6_6  and  C7_7 
REMARK    4  A    between atoms: C7_7  and  C9_9 
REMARK    5  A    between atoms: C18_18  and  O1_19 
REMARK    6  A    between atoms: O1_19  and  C19_20 
REMARK    7  A    between atoms: C19_20  and  C20_22 
ROOT
HETATM    1  C9  UNL     1      -0.690  51.874 -25.438  1.00  0.00    -0.002 C 
HETATM    2  C10 UNL     1       0.210  53.138 -25.380  1.00  0.00     0.006 C 
HETATM    3  C11 UNL     1       0.593  53.368 -23.914  1.00  0.00     0.010 C 
HETATM    4  C12 UNL     1       0.108  52.111 -23.200  1.00  0.00     0.023 C 
HETATM    5  C13 UNL     1      -0.032  52.083 -21.697  1.00  0.00    -0.070 C 
HETATM    6  C14 UNL     1       0.455  53.037 -20.889  1.00  0.00     0.004 C 
HETATM    7  C15 UNL     1       0.519  52.869 -19.462  1.00  0.00     0.004 C 
HETATM    8  C16 UNL     1      -0.115  51.874 -18.819  1.00  0.00    -0.069 C 
HETATM    9  C17 UNL     1      -0.042  51.758 -17.313  1.00  0.00     0.067 C 
HETATM   10  C18 UNL     1       0.216  50.325 -16.842  1.00  0.00     0.136 C 
HETATM   11  C26 UNL     1      -0.811  49.372 -17.455  1.00  0.00     0.034 C 
HETATM   12  C27 UNL     1      -0.770  49.433 -18.980  1.00  0.00     0.017 C 
HETATM   13  C28 UNL     1      -0.983  50.858 -19.574  1.00  0.00    -0.013 C 
HETATM   14  C29 UNL     1      -2.452  51.295 -19.346  1.00  0.00     0.021 C 
HETATM   15  C30 UNL     1      -0.615  50.790 -21.127  1.00  0.00     0.027 C 
HETATM   16  C31 UNL     1      -1.771  50.219 -21.995  1.00  0.00     0.011 C 
HETATM   17  C32 UNL     1      -1.540  50.302 -23.511  1.00  0.00     0.011 C 
HETATM   18  C33 UNL     1      -1.189  51.737 -23.960  1.00  0.00    -0.033 C 
HETATM   19  C34 UNL     1      -2.354  52.714 -23.667  1.00  0.00     0.016 C 
ENDROOT
BRANCH  10  20
HETATM   20  O1  UNL     1       0.090  50.308 -15.406  1.00  0.00    -0.312 OA
BRANCH  20  21
HETATM   21  C19 UNL     1       0.597  51.385 -14.754  1.00  0.00     0.293 C 
HETATM   22  O2  UNL     1      -0.032  52.164 -14.056  1.00  0.00    -0.259 OA
BRANCH  21  23
HETATM   23  C20 UNL     1       2.062  51.500 -14.996  1.00  0.00     0.039 A 
HETATM   24  C21 UNL     1       2.914  50.616 -14.318  1.00  0.00     0.017 A 
HETATM   25  C22 UNL     1       4.295  50.682 -14.510  1.00  0.00     0.001 A 
HETATM   26  C23 UNL     1       4.834  51.632 -15.378  1.00  0.00     0.000 A 
HETATM   27  C24 UNL     1       3.993  52.517 -16.054  1.00  0.00     0.001 A 
HETATM   28  C25 UNL     1       2.610  52.453 -15.866  1.00  0.00     0.017 A 
ENDBRANCH  21  23
ENDBRANCH  20  21
ENDBRANCH  10  20
BRANCH   1  29
HETATM   29  C7  UNL     1      -1.729  51.929 -26.599  1.00  0.00    -0.014 C 
HETATM   30  C8  UNL     1      -3.151  52.199 -26.089  1.00  0.00     0.010 C 
BRANCH  29  31
HETATM   31  C6  UNL     1      -1.775  50.609 -27.423  1.00  0.00     0.008 C 
BRANCH  31  32
HETATM   32  C5  UNL     1      -2.258  49.379 -26.643  1.00  0.00     0.028 C 
BRANCH  32  33
HETATM   33  C4  UNL     1      -3.443  48.746 -27.322  1.00  0.00    -0.025 C 
HETATM   34  C2  UNL     1      -4.602  48.341 -26.766  1.00  0.00    -0.091 C 
HETATM   35  C1  UNL     1      -5.692  47.744 -27.619  1.00  0.00     0.042 C 
HETATM   36  C3  UNL     1      -4.942  48.419 -25.303  1.00  0.00     0.042 C 
ENDBRANCH  32  33
ENDBRANCH  31  32
ENDBRANCH  29  31
ENDBRANCH   1  29
TORSDOF 7
ENDMDL
MODEL 2
REMARK minimizedAffinity -10.4944887
REMARK  7 active torsions:
REMARK  status: ('A' for Active; 'I' for Inactive)
REMARK    1  A    between atoms: C4_4  and  C5_5 
REMARK    2  A    between atoms: C5_5  and  C6_6 
REMARK    3  A    between atoms: C6_6  and  C7_7 
REMARK    4  A    between atoms: C7_7  and  C9_9 
REMARK    5  A    between atoms: C18_18  and  O1_19 
REMARK    6  A    between atoms: O1_19  and  C19_20 
REMARK    7  A    between atoms: C19_20  and  C20_22 
ROOT
HETATM    1  C9  UNL     1      -1.057  51.416 -25.444  1.00  0.00    -0.002 C 
HETATM    2  C10 UNL     1      -0.080  52.576 -25.780  1.00  0.00     0.006 C 
HETATM    3  C11 UNL     1       0.568  53.030 -24.468  1.00  0.00     0.010 C 
HETATM    4  C12 UNL     1       0.135  51.978 -23.454  1.00  0.00     0.023 C 
HETATM    5  C13 UNL     1       0.259  52.237 -21.972  1.00  0.00    -0.070 C 
HETATM    6  C14 UNL     1       0.942  53.271 -21.454  1.00  0.00     0.004 C 
HETATM    7  C15 UNL     1       1.244  53.359 -20.050  1.00  0.00     0.004 C 
HETATM    8  C16 UNL     1       0.670  52.563 -19.132  1.00  0.00    -0.069 C 
HETATM    9  C17 UNL     1       0.998  52.717 -17.665  1.00  0.00     0.067 C 
HETATM   10  C18 UNL     1       1.240  51.375 -16.970  1.00  0.00     0.136 C 
HETATM   11  C26 UNL     1       0.061  50.431 -17.212  1.00  0.00     0.034 C 
HETATM   12  C27 UNL     1      -0.162  50.210 -18.706  1.00  0.00     0.017 C 
HETATM   13  C28 UNL     1      -0.382  51.517 -19.525  1.00  0.00    -0.013 C 
HETATM   14  C29 UNL     1      -1.756  52.129 -19.155  1.00  0.00     0.021 C 
HETATM   15  C30 UNL     1      -0.298  51.133 -21.074  1.00  0.00     0.027 C 
HETATM   16  C31 UNL     1      -1.623  50.528 -21.617  1.00  0.00     0.011 C 
HETATM   17  C32 UNL     1      -1.656  50.312 -23.137  1.00  0.00     0.011 C 
HETATM   18  C33 UNL     1      -1.297  51.599 -23.909  1.00  0.00    -0.033 C 
HETATM   19  C34 UNL     1      -2.326  52.722 -23.630  1.00  0.00     0.016 C 
ENDROOT
BRANCH  10  20
HETATM   20  O1  UNL     1       1.367  51.632 -15.556  1.00  0.00    -0.312 OA
BRANCH  20  21
HETATM   21  C19 UNL     1       2.624  51.887 -15.111  1.00  0.00     0.293 C 
HETATM   22  O2  UNL     1       3.489  52.499 -15.716  1.00  0.00    -0.259 OA
BRANCH  21  23
HETATM   23  C20 UNL     1       2.821  51.317 -13.750  1.00  0.00     0.039 A 
HETATM   24  C21 UNL     1       3.536  50.115 -13.636  1.00  0.00     0.017 A 
HETATM   25  C22 UNL     1       3.750  49.538 -12.383  1.00  0.00     0.001 A 
HETATM   26  C23 UNL     1       3.250  50.156 -11.237  1.00  0.00     0.000 A 
HETATM   27  C24 UNL     1       2.535  51.351 -11.342  1.00  0.00     0.001 A 
HETATM   28  C25 UNL     1       2.321  51.932 -12.594  1.00  0.00     0.017 A 
ENDBRANCH  21  23
ENDBRANCH  20  21
ENDBRANCH  10  20
BRANCH   1  29
HETATM   29  C7  UNL     1      -2.277  51.361 -26.414  1.00  0.00    -0.014 C 
HETATM   30  C8  UNL     1      -3.595  51.697 -25.701  1.00  0.00     0.010 C 
BRANCH  29  31
HETATM   31  C6  UNL     1      -2.452  49.962 -27.074  1.00  0.00     0.008 C 
BRANCH  31  32
HETATM   32  C5  UNL     1      -2.527  48.788 -26.089  1.00  0.00     0.028 C 
BRANCH  32  33
HETATM   33  C4  UNL     1      -3.956  48.374 -25.857  1.00  0.00    -0.025 C 
HETATM   34  C2  UNL     1      -4.913  48.138 -26.776  1.00  0.00    -0.091 C 
HETATM   35  C1  UNL     1      -6.293  47.707 -26.349  1.00  0.00     0.042 C 
HETATM   36  C3  UNL     1      -4.745  48.273 -28.265  1.00  0.00     0.042 C 
ENDBRANCH  32  33
ENDBRANCH  31  32
ENDBRANCH  29  31
ENDBRANCH   1  29
TORSDOF 7
ENDMDL
MODEL 3
REMARK minimizedAffinity -10.4196281
REMARK  7 active torsions:
REMARK  status: ('A' for Active; 'I' for Inactive)
REMARK    1  A    between atoms: C4_4  and  C5_5 
REMARK    2  A    between atoms: C5_5  and  C6_6 
REMARK    3  A    between atoms: C6_6  and  C7_7 
REMARK    4  A    between atoms: C7_7  and  C9_9 
REMARK    5  A    between atoms: C18_18  and  O1_19 
REMARK    6  A    between atoms: O1_19  and  C19_20 
REMARK    7  A    between atoms: C19_20  and  C20_22 
ROOT
HETATM    1  C9  UNL     1      -1.006  51.004 -25.119  1.00  0.00    -0.002 C 
HETATM    2  C10 UNL     1      -0.080  52.200 -25.470  1.00  0.00     0.006 C 
HETATM    3  C11 UNL     1       0.517  52.724 -24.158  1.00  0.00     0.010 C 
HETATM    4  C12 UNL     1       0.114  51.681 -23.122  1.00  0.00     0.023 C 
HETATM    5  C13 UNL     1       0.192  51.990 -21.647  1.00  0.00    -0.070 C 
HETATM    6  C14 UNL     1       0.812  53.070 -21.147  1.00  0.00     0.004 C 
HETATM    7  C15 UNL     1       1.079  53.214 -19.740  1.00  0.00     0.004 C 
HETATM    8  C16 UNL     1       0.524  52.418 -18.811  1.00  0.00    -0.069 C 
HETATM    9  C17 UNL     1       0.812  52.631 -17.342  1.00  0.00     0.067 C 
HETATM   10  C18 UNL     1       1.105  51.323 -16.602  1.00  0.00     0.136 C 
HETATM   11  C26 UNL     1      -0.021  50.315 -16.840  1.00  0.00     0.034 C 
HETATM   12  C27 UNL     1      -0.200  50.040 -18.331  1.00  0.00     0.017 C 
HETATM   13  C28 UNL     1      -0.466  51.310 -19.193  1.00  0.00    -0.013 C 
HETATM   14  C29 UNL     1      -1.876  51.864 -18.870  1.00  0.00     0.021 C 
HETATM   15  C30 UNL     1      -0.330  50.885 -20.727  1.00  0.00     0.027 C 
HETATM   16  C31 UNL     1      -1.611  50.200 -21.279  1.00  0.00     0.011 C 
HETATM   17  C32 UNL     1      -1.601  49.938 -22.792  1.00  0.00     0.011 C 
HETATM   18  C33 UNL     1      -1.288  51.219 -23.595  1.00  0.00    -0.033 C 
HETATM   19  C34 UNL     1      -2.376  52.298 -23.371  1.00  0.00     0.016 C 
ENDROOT
BRANCH  10  20
HETATM   20  O1  UNL     1       1.188  51.627 -15.195  1.00  0.00    -0.312 OA
BRANCH  20  21
HETATM   21  C19 UNL     1       0.644  50.708 -14.357  1.00  0.00     0.293 C 
HETATM   22  O2  UNL     1       1.018  49.555 -14.217  1.00  0.00    -0.259 OA
BRANCH  21  23
HETATM   23  C20 UNL     1      -0.495  51.299 -13.602  1.00  0.00     0.039 A 
HETATM   24  C21 UNL     1      -1.794  51.072 -14.082  1.00  0.00     0.017 A 
HETATM   25  C22 UNL     1      -2.896  51.604 -13.410  1.00  0.00     0.001 A 
HETATM   26  C23 UNL     1      -2.709  52.366 -12.258  1.00  0.00     0.000 A 
HETATM   27  C24 UNL     1      -1.420  52.599 -11.775  1.00  0.00     0.001 A 
HETATM   28  C25 UNL     1      -0.314  52.067 -12.443  1.00  0.00     0.017 A 
ENDBRANCH  21  23
ENDBRANCH  20  21
ENDBRANCH  10  20
BRANCH   1  29
HETATM   29  C7  UNL     1      -2.201  50.859 -26.111  1.00  0.00    -0.014 C 
HETATM   30  C8  UNL     1      -2.768  52.223 -26.531  1.00  0.00     0.010 C 
BRANCH  29  31
HETATM   31  C6  UNL     1      -3.377  50.033 -25.513  1.00  0.00     0.008 C 
BRANCH  31  32
HETATM   32  C5  UNL     1      -3.405  48.556 -25.931  1.00  0.00     0.028 C 
BRANCH  32  33
HETATM   33  C4  UNL     1      -3.799  48.417 -27.377  1.00  0.00    -0.025 C 
HETATM   34  C2  UNL     1      -4.997  48.062 -27.882  1.00  0.00    -0.091 C 
HETATM   35  C1  UNL     1      -5.210  47.997 -29.373  1.00  0.00     0.042 C 
HETATM   36  C3  UNL     1      -6.211  47.695 -27.073  1.00  0.00     0.042 C 
ENDBRANCH  32  33
ENDBRANCH  31  32
ENDBRANCH  29  31
ENDBRANCH   1  29
TORSDOF 7
ENDMDL
MODEL 4
REMARK minimizedAffinity -10.3135347
REMARK  7 active torsions:
REMARK  status: ('A' for Active; 'I' for Inactive)
REMARK    1  A    between atoms: C4_4  and  C5_5 
REMARK    2  A    between atoms: C5_5  and  C6_6 
REMARK    3  A    between atoms: C6_6  and  C7_7 
REMARK    4  A    between atoms: C7_7  and  C9_9 
REMARK    5  A    between atoms: C18_18  and  O1_19 
REMARK    6  A    between atoms: O1_19  and  C19_20 
REMARK    7  A    between atoms: C19_20  and  C20_22 
ROOT
HETATM    1  C9  UNL     1      -1.041  51.413 -25.374  1.00  0.00    -0.002 C 
HETATM    2  C10 UNL     1      -0.001  52.531 -25.653  1.00  0.00     0.006 C 
HETATM    3  C11 UNL     1       0.625  52.926 -24.310  1.00  0.00     0.010 C 
HETATM    4  C12 UNL     1       0.109  51.874 -23.334  1.00  0.00     0.023 C 
HETATM    5  C13 UNL     1       0.196  52.097 -21.844  1.00  0.00    -0.070 C 
HETATM    6  C14 UNL     1       0.910  53.085 -21.282  1.00  0.00     0.004 C 
HETATM    7  C15 UNL     1       1.169  53.129 -19.867  1.00  0.00     0.004 C 
HETATM    8  C16 UNL     1       0.528  52.343 -18.986  1.00  0.00    -0.069 C 
HETATM    9  C17 UNL     1       0.814  52.451 -17.506  1.00  0.00     0.067 C 
HETATM   10  C18 UNL     1       0.969  51.084 -16.833  1.00  0.00     0.136 C 
HETATM   11  C26 UNL     1      -0.244  50.203 -17.135  1.00  0.00     0.034 C 
HETATM   12  C27 UNL     1      -0.428  50.024 -18.640  1.00  0.00     0.017 C 
HETATM   13  C28 UNL     1      -0.559  51.357 -19.436  1.00  0.00    -0.013 C 
HETATM   14  C29 UNL     1      -1.914  52.026 -19.097  1.00  0.00     0.021 C 
HETATM   15  C30 UNL     1      -0.442  51.002 -20.989  1.00  0.00     0.027 C 
HETATM   16  C31 UNL     1      -1.775  50.473 -21.588  1.00  0.00     0.011 C 
HETATM   17  C32 UNL     1      -1.769  50.290 -23.113  1.00  0.00     0.011 C 
HETATM   18  C33 UNL     1      -1.323  51.575 -23.843  1.00  0.00    -0.033 C 
HETATM   19  C34 UNL     1      -2.306  52.740 -23.573  1.00  0.00     0.016 C 
ENDROOT
BRANCH  10  20
HETATM   20  O1  UNL     1       1.061  51.305 -15.411  1.00  0.00    -0.312 OA
BRANCH  20  21
HETATM   21  C19 UNL     1       0.411  50.407 -14.629  1.00  0.00     0.293 C 
HETATM   22  O2  UNL     1       0.683  49.223 -14.517  1.00  0.00    -0.259 OA
BRANCH  21  23
HETATM   23  C20 UNL     1      -0.707  51.064 -13.897  1.00  0.00     0.039 A 
HETATM   24  C21 UNL     1      -0.389  51.867 -12.791  1.00  0.00     0.017 A 
HETATM   25  C22 UNL     1      -1.400  52.506 -12.070  1.00  0.00     0.001 A 
HETATM   26  C23 UNL     1      -2.733  52.346 -12.448  1.00  0.00     0.000 A 
HETATM   27  C24 UNL     1      -3.058  51.547 -13.545  1.00  0.00     0.001 A 
HETATM   28  C25 UNL     1      -2.049  50.907 -14.270  1.00  0.00     0.017 A 
ENDBRANCH  21  23
ENDBRANCH  20  21
ENDBRANCH  10  20
BRANCH   1  29
HETATM   29  C7  UNL     1      -2.230  51.436 -26.383  1.00  0.00    -0.014 C 
HETATM   30  C8  UNL     1      -3.562  51.773 -25.697  1.00  0.00     0.010 C 
BRANCH  29  31
HETATM   31  C6  UNL     1      -2.418  50.075 -27.117  1.00  0.00     0.008 C 
BRANCH  31  32
HETATM   32  C5  UNL     1      -2.455  48.847 -26.198  1.00  0.00     0.028 C 
BRANCH  32  33
HETATM   33  C4  UNL     1      -3.875  48.442 -25.903  1.00  0.00    -0.025 C 
HETATM   34  C2  UNL     1      -4.869  48.195 -26.779  1.00  0.00    -0.091 C 
HETATM   35  C1  UNL     1      -6.232  47.776 -26.291  1.00  0.00     0.042 C 
HETATM   36  C3  UNL     1      -4.760  48.304 -28.275  1.00  0.00     0.042 C 
ENDBRANCH  32  33
ENDBRANCH  31  32
ENDBRANCH  29  31
ENDBRANCH   1  29
TORSDOF 7
ENDMDL
MODEL 5
REMARK minimizedAffinity -10.2183208
REMARK  7 active torsions:
REMARK  status: ('A' for Active; 'I' for Inactive)
REMARK    1  A    between atoms: C4_4  and  C5_5 
REMARK    2  A    between atoms: C5_5  and  C6_6 
REMARK    3  A    between atoms: C6_6  and  C7_7 
REMARK    4  A    between atoms: C7_7  and  C9_9 
REMARK    5  A    between atoms: C18_18  and  O1_19 
REMARK    6  A    between atoms: O1_19  and  C19_20 
REMARK    7  A    between atoms: C19_20  and  C20_22 
ROOT
HETATM    1  C9  UNL     1      -0.955  51.722 -25.420  1.00  0.00    -0.002 C 
HETATM    2  C10 UNL     1       0.036  52.907 -25.579  1.00  0.00     0.006 C 
HETATM    3  C11 UNL     1       0.599  53.230 -24.190  1.00  0.00     0.010 C 
HETATM    4  C12 UNL     1       0.107  52.085 -23.312  1.00  0.00     0.023 C 
HETATM    5  C13 UNL     1       0.136  52.199 -21.808  1.00  0.00    -0.070 C 
HETATM    6  C14 UNL     1       0.781  53.175 -21.150  1.00  0.00     0.004 C 
HETATM    7  C15 UNL     1       0.993  53.126 -19.728  1.00  0.00     0.004 C 
HETATM    8  C16 UNL     1       0.365  52.246 -18.930  1.00  0.00    -0.069 C 
HETATM    9  C17 UNL     1       0.599  52.256 -17.436  1.00  0.00     0.067 C 
HETATM   10  C18 UNL     1       0.803  50.852 -16.861  1.00  0.00     0.136 C 
HETATM   11  C26 UNL     1      -0.355  49.939 -17.268  1.00  0.00     0.034 C 
HETATM   12  C27 UNL     1      -0.482  49.865 -18.788  1.00  0.00     0.017 C 
HETATM   13  C28 UNL     1      -0.656  51.245 -19.488  1.00  0.00    -0.013 C 
HETATM   14  C29 UNL     1      -2.053  51.821 -19.148  1.00  0.00     0.021 C 
HETATM   15  C30 UNL     1      -0.473  51.013 -21.058  1.00  0.00     0.027 C 
HETATM   16  C31 UNL     1      -1.758  50.467 -21.740  1.00  0.00     0.011 C 
HETATM   17  C32 UNL     1      -1.695  50.400 -23.273  1.00  0.00     0.011 C 
HETATM   18  C33 UNL     1      -1.292  51.756 -23.892  1.00  0.00    -0.033 C 
HETATM   19  C34 UNL     1      -2.341  52.849 -23.571  1.00  0.00     0.016 C 
ENDROOT
BRANCH  10  20
HETATM   20  O1  UNL     1       0.839  50.970 -15.424  1.00  0.00    -0.312 OA
BRANCH  20  21
HETATM   21  C19 UNL     1       0.193  49.997 -14.733  1.00  0.00     0.293 C 
HETATM   22  O2  UNL     1      -0.996  49.979 -14.461  1.00  0.00    -0.259 OA
BRANCH  21  23
HETATM   23  C20 UNL     1       1.141  48.917 -14.342  1.00  0.00     0.039 A 
HETATM   24  C21 UNL     1       1.067  47.694 -15.025  1.00  0.00     0.017 A 
HETATM   25  C22 UNL     1       1.934  46.650 -14.696  1.00  0.00     0.001 A 
HETATM   26  C23 UNL     1       2.877  46.820 -13.683  1.00  0.00     0.000 A 
HETATM   27  C24 UNL     1       2.956  48.032 -12.997  1.00  0.00     0.001 A 
HETATM   28  C25 UNL     1       2.091  49.081 -13.324  1.00  0.00     0.017 A 
ENDBRANCH  21  23
ENDBRANCH  20  21
ENDBRANCH  10  20
BRANCH   1  29
HETATM   29  C7  UNL     1      -2.112  51.764 -26.465  1.00  0.00    -0.014 C 
HETATM   30  C8  UNL     1      -3.480  51.982 -25.802  1.00  0.00     0.010 C 
BRANCH  29  31
HETATM   31  C6  UNL     1      -2.207  50.455 -27.303  1.00  0.00     0.008 C 
BRANCH  31  32
HETATM   32  C5  UNL     1      -2.426  49.178 -26.482  1.00  0.00     0.028 C 
BRANCH  32  33
HETATM   33  C4  UNL     1      -3.777  48.580 -26.774  1.00  0.00    -0.025 C 
HETATM   34  C2  UNL     1      -4.796  48.369 -25.918  1.00  0.00    -0.091 C 
HETATM   35  C1  UNL     1      -6.092  47.774 -26.403  1.00  0.00     0.042 C 
HETATM   36  C3  UNL     1      -4.775  48.675 -24.445  1.00  0.00     0.042 C 
ENDBRANCH  32  33
ENDBRANCH  31  32
ENDBRANCH  29  31
ENDBRANCH   1  29
TORSDOF 7
ENDMDL
MODEL 6
REMARK minimizedAffinity -9.93080139
REMARK  7 active torsions:
REMARK  status: ('A' for Active; 'I' for Inactive)
REMARK    1  A    between atoms: C4_4  and  C5_5 
REMARK    2  A    between atoms: C5_5  and  C6_6 
REMARK    3  A    between atoms: C6_6  and  C7_7 
REMARK    4  A    between atoms: C7_7  and  C9_9 
REMARK    5  A    between atoms: C18_18  and  O1_19 
REMARK    6  A    between atoms: O1_19  and  C19_20 
REMARK    7  A    between atoms: C19_20  and  C20_22 
ROOT
HETATM    1  C9  UNL     1      -2.222  49.801 -24.890  1.00  0.00    -0.002 C 
HETATM    2  C10 UNL     1      -1.373  50.850 -25.657  1.00  0.00     0.006 C 
HETATM    3  C11 UNL     1      -0.542  51.620 -24.624  1.00  0.00     0.010 C 
HETATM    4  C12 UNL     1      -0.750  50.847 -23.327  1.00  0.00     0.023 C 
HETATM    5  C13 UNL     1      -0.399  51.466 -21.996  1.00  0.00    -0.070 C 
HETATM    6  C14 UNL     1       0.306  52.601 -21.868  1.00  0.00     0.004 C 
HETATM    7  C15 UNL     1       0.829  53.035 -20.600  1.00  0.00     0.004 C 
HETATM    8  C16 UNL     1       0.453  52.486 -19.433  1.00  0.00    -0.069 C 
HETATM    9  C17 UNL     1       1.008  53.001 -18.124  1.00  0.00     0.067 C 
HETATM   10  C18 UNL     1       1.428  51.874 -17.177  1.00  0.00     0.136 C 
HETATM   11  C26 UNL     1       0.274  50.889 -16.979  1.00  0.00     0.034 C 
HETATM   12  C27 UNL     1      -0.179  50.304 -18.315  1.00  0.00     0.017 C 
HETATM   13  C28 UNL     1      -0.595  51.366 -19.375  1.00  0.00    -0.013 C 
HETATM   14  C29 UNL     1      -1.920  52.039 -18.936  1.00  0.00     0.021 C 
HETATM   15  C30 UNL     1      -0.746  50.612 -20.776  1.00  0.00     0.027 C 
HETATM   16  C31 UNL     1      -2.110  49.881 -20.922  1.00  0.00     0.011 C 
HETATM   17  C32 UNL     1      -2.380  49.296 -22.316  1.00  0.00     0.011 C 
HETATM   18  C33 UNL     1      -2.216  50.356 -23.426  1.00  0.00    -0.033 C 
HETATM   19  C34 UNL     1      -3.241  51.504 -23.256  1.00  0.00     0.016 C 
ENDROOT
BRANCH  10  20
HETATM   20  O1  UNL     1       1.771  52.473 -15.911  1.00  0.00    -0.312 OA
BRANCH  20  21
HETATM   21  C19 UNL     1       1.120  51.980 -14.826  1.00  0.00     0.293 C 
HETATM   22  O2  UNL     1       0.040  52.360 -14.403  1.00  0.00    -0.259 OA
BRANCH  21  23
HETATM   23  C20 UNL     1       1.906  50.881 -14.201  1.00  0.00     0.039 A 
HETATM   24  C21 UNL     1       1.203  49.854 -13.551  1.00  0.00     0.017 A 
HETATM   25  C22 UNL     1       1.893  48.801 -12.949  1.00  0.00     0.001 A 
HETATM   26  C23 UNL     1       3.287  48.767 -12.988  1.00  0.00     0.000 A 
HETATM   27  C24 UNL     1       3.993  49.785 -13.629  1.00  0.00     0.001 A 
HETATM   28  C25 UNL     1       3.306  50.841 -14.235  1.00  0.00     0.017 A 
ENDBRANCH  21  23
ENDBRANCH  20  21
ENDBRANCH  10  20
BRANCH   1  29
HETATM   29  C7  UNL     1      -3.580  49.498 -25.593  1.00  0.00    -0.014 C 
HETATM   30  C8  UNL     1      -4.544  48.729 -24.679  1.00  0.00     0.010 C 
BRANCH  29  31
HETATM   31  C6  UNL     1      -3.405  48.658 -26.893  1.00  0.00     0.008 C 
BRANCH  31  32
HETATM   32  C5  UNL     1      -4.693  48.015 -27.424  1.00  0.00     0.028 C 
BRANCH  32  33
HETATM   33  C4  UNL     1      -4.875  48.313 -28.888  1.00  0.00    -0.025 C 
HETATM   34  C2  UNL     1      -5.685  47.691 -29.768  1.00  0.00    -0.091 C 
HETATM   35  C1  UNL     1      -5.749  48.149 -31.203  1.00  0.00     0.042 C 
HETATM   36  C3  UNL     1      -6.577  46.520 -29.458  1.00  0.00     0.042 C 
ENDBRANCH  32  33
ENDBRANCH  31  32
ENDBRANCH  29  31
ENDBRANCH   1  29
TORSDOF 7
ENDMDL
MODEL 7
REMARK minimizedAffinity -9.56907654
REMARK  7 active torsions:
REMARK  status: ('A' for Active; 'I' for Inactive)
REMARK    1  A    between atoms: C4_4  and  C5_5 
REMARK    2  A    between atoms: C5_5  and  C6_6 
REMARK    3  A    between atoms: C6_6  and  C7_7 
REMARK    4  A    between atoms: C7_7  and  C9_9 
REMARK    5  A    between atoms: C18_18  and  O1_19 
REMARK    6  A    between atoms: O1_19  and  C19_20 
REMARK    7  A    between atoms: C19_20  and  C20_22 
ROOT
HETATM    1  C9  UNL     1      -0.772  51.198 -16.093  1.00  0.00    -0.002 C 
HETATM    2  C10 UNL     1       0.712  51.655 -16.097  1.00  0.00     0.006 C 
HETATM    3  C11 UNL     1       1.089  51.996 -17.543  1.00  0.00     0.010 C 
HETATM    4  C12 UNL     1      -0.238  51.957 -18.293  1.00  0.00     0.023 C 
HETATM    5  C13 UNL     1      -0.270  51.885 -19.800  1.00  0.00    -0.070 C 
HETATM    6  C14 UNL     1       0.810  52.074 -20.575  1.00  0.00     0.004 C 
HETATM    7  C15 UNL     1       0.706  52.237 -22.001  1.00  0.00     0.004 C 
HETATM    8  C16 UNL     1      -0.421  51.972 -22.682  1.00  0.00    -0.069 C 
HETATM    9  C17 UNL     1      -0.468  52.129 -24.185  1.00  0.00     0.067 C 
HETATM   10  C18 UNL     1      -1.735  52.842 -24.665  1.00  0.00     0.136 C 
HETATM   11  C26 UNL     1      -2.979  52.148 -24.107  1.00  0.00     0.034 C 
HETATM   12  C27 UNL     1      -2.947  52.114 -22.581  1.00  0.00     0.017 C 
HETATM   13  C28 UNL     1      -1.677  51.443 -21.978  1.00  0.00    -0.013 C 
HETATM   14  C29 UNL     1      -1.719  49.920 -22.259  1.00  0.00     0.021 C 
HETATM   15  C30 UNL     1      -1.665  51.759 -20.411  1.00  0.00     0.027 C 
HETATM   16  C31 UNL     1      -2.594  50.813 -19.599  1.00  0.00     0.011 C 
HETATM   17  C32 UNL     1      -2.481  50.954 -18.074  1.00  0.00     0.011 C 
HETATM   18  C33 UNL     1      -1.021  50.819 -17.591  1.00  0.00    -0.033 C 
HETATM   19  C34 UNL     1      -0.452  49.416 -17.918  1.00  0.00     0.016 C 
ENDROOT
BRANCH  10  20
HETATM   20  O1  UNL     1      -1.754  52.777 -26.105  1.00  0.00    -0.312 OA
BRANCH  20  21
HETATM   21  C19 UNL     1      -1.110  51.718 -26.659  1.00  0.00     0.293 C 
HETATM   22  O2  UNL     1       0.079  51.663 -26.928  1.00  0.00    -0.259 OA
BRANCH  21  23
HETATM   23  C20 UNL     1      -2.059  50.597 -26.900  1.00  0.00     0.039 A 
HETATM   24  C21 UNL     1      -1.984  49.477 -26.058  1.00  0.00     0.017 A 
HETATM   25  C22 UNL     1      -2.851  48.398 -26.241  1.00  0.00     0.001 A 
HETATM   26  C23 UNL     1      -3.796  48.430 -27.266  1.00  0.00     0.000 A 
HETATM   27  C24 UNL     1      -3.876  49.539 -28.110  1.00  0.00     0.001 A 
HETATM   28  C25 UNL     1      -3.010  50.621 -27.929  1.00  0.00     0.017 A 
ENDBRANCH  21  23
ENDBRANCH  20  21
ENDBRANCH  10  20
BRANCH   1  29
HETATM   29  C7  UNL     1      -1.076  50.156 -14.974  1.00  0.00    -0.014 C 
HETATM   30  C8  UNL     1      -2.571  49.817 -14.893  1.00  0.00     0.010 C 
BRANCH  29  31
HETATM   31  C6  UNL     1      -0.635  50.647 -13.564  1.00  0.00     0.008 C 
BRANCH  31  32
HETATM   32  C5  UNL     1      -1.141  52.044 -13.181  1.00  0.00     0.028 C 
BRANCH  32  33
HETATM   33  C4  UNL     1      -1.324  52.157 -11.690  1.00  0.00    -0.025 C 
HETATM   34  C2  UNL     1      -2.477  52.173 -10.993  1.00  0.00    -0.091 C 
HETATM   35  C1  UNL     1      -2.459  52.271  -9.489  1.00  0.00     0.042 C 
HETATM   36  C3  UNL     1      -3.857  52.106 -11.587  1.00  0.00     0.042 C 
ENDBRANCH  32  33
ENDBRANCH  31  32
ENDBRANCH  29  31
ENDBRANCH   1  29
TORSDOF 7
ENDMDL
MODEL 8
REMARK minimizedAffinity -9.5487051
REMARK  7 active torsions:
REMARK  status: ('A' for Active; 'I' for Inactive)
REMARK    1  A    between atoms: C4_4  and  C5_5 
REMARK    2  A    between atoms: C5_5  and  C6_6 
REMARK    3  A    between atoms: C6_6  and  C7_7 
REMARK    4  A    between atoms: C7_7  and  C9_9 
REMARK    5  A    between atoms: C18_18  and  O1_19 
REMARK    6  A    between atoms: O1_19  and  C19_20 
REMARK    7  A    between atoms: C19_20  and  C20_22 
ROOT
HETATM    1  C9  UNL     1      -1.220  50.870 -23.594  1.00  0.00    -0.002 C 
HETATM    2  C10 UNL     1      -0.457  52.206 -23.810  1.00  0.00     0.006 C 
HETATM    3  C11 UNL     1       0.143  52.620 -22.462  1.00  0.00     0.010 C 
HETATM    4  C12 UNL     1      -0.084  51.408 -21.565  1.00  0.00     0.023 C 
HETATM    5  C13 UNL     1       0.035  51.526 -20.065  1.00  0.00    -0.070 C 
HETATM    6  C14 UNL     1       0.552  52.598 -19.443  1.00  0.00     0.004 C 
HETATM    7  C15 UNL     1       0.873  52.586 -18.041  1.00  0.00     0.004 C 
HETATM    8  C16 UNL     1       0.462  51.613 -17.210  1.00  0.00    -0.069 C 
HETATM    9  C17 UNL     1       0.799  51.663 -15.737  1.00  0.00     0.067 C 
HETATM   10  C18 UNL     1       1.278  50.314 -15.195  1.00  0.00     0.136 C 
HETATM   11  C26 UNL     1       0.265  49.217 -15.529  1.00  0.00     0.034 C 
HETATM   12  C27 UNL     1       0.041  49.122 -17.036  1.00  0.00     0.017 C 
HETATM   13  C28 UNL     1      -0.413  50.453 -17.705  1.00  0.00    -0.013 C 
HETATM   14  C29 UNL     1      -1.859  50.785 -17.259  1.00  0.00     0.021 C 
HETATM   15  C30 UNL     1      -0.308  50.255 -19.288  1.00  0.00     0.027 C 
HETATM   16  C31 UNL     1      -1.529  49.499 -19.882  1.00  0.00     0.011 C 
HETATM   17  C32 UNL     1      -1.567  49.443 -21.417  1.00  0.00     0.011 C 
HETATM   18  C33 UNL     1      -1.445  50.847 -22.046  1.00  0.00    -0.033 C 
HETATM   19  C34 UNL     1      -2.638  51.747 -21.638  1.00  0.00     0.016 C 
ENDROOT
BRANCH  10  20
HETATM   20  O1  UNL     1       1.398  50.437 -13.763  1.00  0.00    -0.312 OA
BRANCH  20  21
HETATM   21  C19 UNL     1       2.623  50.164 -13.246  1.00  0.00     0.293 C 
HETATM   22  O2  UNL     1       3.407  49.327 -13.662  1.00  0.00    -0.259 OA
BRANCH  21  23
HETATM   23  C20 UNL     1       2.904  51.042 -12.077  1.00  0.00     0.039 A 
HETATM   24  C21 UNL     1       3.372  50.442 -10.898  1.00  0.00     0.017 A 
HETATM   25  C22 UNL     1       3.651  51.221  -9.774  1.00  0.00     0.001 A 
HETATM   26  C23 UNL     1       3.463  52.602  -9.818  1.00  0.00     0.000 A 
HETATM   27  C24 UNL     1       2.995  53.207 -10.986  1.00  0.00     0.001 A 
HETATM   28  C25 UNL     1       2.716  52.431 -12.114  1.00  0.00     0.017 A 
ENDBRANCH  21  23
ENDBRANCH  20  21
ENDBRANCH  10  20
BRANCH   1  29
HETATM   29  C7  UNL     1      -2.440  50.715 -24.553  1.00  0.00    -0.014 C 
HETATM   30  C8  UNL     1      -2.712  49.246 -24.906  1.00  0.00     0.010 C 
BRANCH  29  31
HETATM   31  C6  UNL     1      -2.249  51.486 -25.893  1.00  0.00     0.008 C 
BRANCH  31  32
HETATM   32  C5  UNL     1      -1.597  50.671 -27.018  1.00  0.00     0.028 C 
BRANCH  32  33
HETATM   33  C4  UNL     1      -0.096  50.787 -26.962  1.00  0.00    -0.025 C 
HETATM   34  C2  UNL     1       0.681  51.766 -27.464  1.00  0.00    -0.091 C 
HETATM   35  C1  UNL     1       2.177  51.720 -27.288  1.00  0.00     0.042 C 
HETATM   36  C3  UNL     1       0.190  52.965 -28.229  1.00  0.00     0.042 C 
ENDBRANCH  32  33
ENDBRANCH  31  32
ENDBRANCH  29  31
ENDBRANCH   1  29
TORSDOF 7
ENDMDL
MODEL 9
REMARK minimizedAffinity -9.53764534
REMARK  7 active torsions:
REMARK  status: ('A' for Active; 'I' for Inactive)
REMARK    1  A    between atoms: C4_4  and  C5_5 
REMARK    2  A    between atoms: C5_5  and  C6_6 
REMARK    3  A    between atoms: C6_6  and  C7_7 
REMARK    4  A    between atoms: C7_7  and  C9_9 
REMARK    5  A    between atoms: C18_18  and  O1_19 
REMARK    6  A    between atoms: O1_19  and  C19_20 
REMARK    7  A    between atoms: C19_20  and  C20_22 
ROOT
HETATM    1  C9  UNL     1      -1.215  51.979 -22.581  1.00  0.00    -0.002 C 
HETATM    2  C10 UNL     1      -0.397  51.680 -23.867  1.00  0.00     0.006 C 
HETATM    3  C11 UNL     1      -1.284  50.845 -24.797  1.00  0.00     0.010 C 
HETATM    4  C12 UNL     1      -2.657  50.883 -24.137  1.00  0.00     0.023 C 
HETATM    5  C13 UNL     1      -3.731  49.900 -24.533  1.00  0.00    -0.070 C 
HETATM    6  C14 UNL     1      -3.646  49.102 -25.609  1.00  0.00     0.004 C 
HETATM    7  C15 UNL     1      -4.775  48.355 -26.097  1.00  0.00     0.004 C 
HETATM    8  C16 UNL     1      -5.907  48.205 -25.389  1.00  0.00    -0.069 C 
HETATM    9  C17 UNL     1      -7.054  47.384 -25.933  1.00  0.00     0.067 C 
HETATM   10  C18 UNL     1      -8.411  48.067 -25.747  1.00  0.00     0.136 C 
HETATM   11  C26 UNL     1      -8.612  48.460 -24.282  1.00  0.00     0.034 C 
HETATM   12  C27 UNL     1      -7.494  49.385 -23.807  1.00  0.00     0.017 C 
HETATM   13  C28 UNL     1      -6.059  48.805 -23.984  1.00  0.00    -0.013 C 
HETATM   14  C29 UNL     1      -5.852  47.634 -22.992  1.00  0.00     0.021 C 
HETATM   15  C30 UNL     1      -5.025  49.996 -23.725  1.00  0.00     0.027 C 
HETATM   16  C31 UNL     1      -4.771  50.254 -22.213  1.00  0.00     0.011 C 
HETATM   17  C32 UNL     1      -3.652  51.261 -21.911  1.00  0.00     0.011 C 
HETATM   18  C33 UNL     1      -2.334  50.885 -22.621  1.00  0.00    -0.033 C 
HETATM   19  C34 UNL     1      -1.803  49.518 -22.125  1.00  0.00     0.016 C 
ENDROOT
BRANCH  10  20
HETATM   20  O1  UNL     1      -9.431  47.126 -26.136  1.00  0.00    -0.312 OA
BRANCH  20  21
HETATM   21  C19 UNL     1     -10.570  47.662 -26.644  1.00  0.00     0.293 C 
HETATM   22  O2  UNL     1     -11.401  48.303 -26.021  1.00  0.00    -0.259 OA
BRANCH  21  23
HETATM   23  C20 UNL     1     -10.682  47.370 -28.099  1.00  0.00     0.039 A 
HETATM   24  C21 UNL     1      -9.620  46.694 -28.721  1.00  0.00     0.017 A 
HETATM   25  C22 UNL     1      -9.676  46.396 -30.083  1.00  0.00     0.001 A 
HETATM   26  C23 UNL     1     -10.790  46.771 -30.834  1.00  0.00     0.000 A 
HETATM   27  C24 UNL     1     -11.849  47.446 -30.225  1.00  0.00     0.001 A 
HETATM   28  C25 UNL     1     -11.798  47.745 -28.860  1.00  0.00     0.017 A 
ENDBRANCH  21  23
ENDBRANCH  20  21
ENDBRANCH  10  20
BRANCH   1  29
HETATM   29  C7  UNL     1      -0.314  52.113 -21.315  1.00  0.00    -0.014 C 
HETATM   30  C8  UNL     1       1.046  52.747 -21.641  1.00  0.00     0.010 C 
BRANCH  29  31
HETATM   31  C6  UNL     1      -0.035  50.742 -20.632  1.00  0.00     0.008 C 
BRANCH  31  32
HETATM   32  C5  UNL     1      -0.522  50.635 -19.181  1.00  0.00     0.028 C 
BRANCH  32  33
HETATM   33  C4  UNL     1       0.258  51.560 -18.284  1.00  0.00    -0.025 C 
HETATM   34  C2  UNL     1       0.693  51.330 -17.030  1.00  0.00    -0.091 C 
HETATM   35  C1  UNL     1       1.486  52.379 -16.292  1.00  0.00     0.042 C 
HETATM   36  C3  UNL     1       0.455  50.073 -16.240  1.00  0.00     0.042 C 
ENDBRANCH  32  33
ENDBRANCH  31  32
ENDBRANCH  29  31
ENDBRANCH   1  29
TORSDOF 7
ENDMDL
