MODEL 1
REMARK minimizedAffinity -9.28156948
REMARK  6 active torsions:
REMARK  status: ('A' for Active; 'I' for Inactive)
REMARK    1  A    between atoms: C4_4  and  C5_5 
REMARK    2  A    between atoms: C5_5  and  C6_6 
REMARK    3  A    between atoms: C6_6  and  C7_7 
REMARK    4  A    between atoms: C7_7  and  C9_9 
REMARK    5  A    between atoms: C24_24  and  O1_25 
REMARK    6  A    between atoms: C27_28  and  O2_29 
ROOT
HETATM    1  C9  UNL     1       1.300   7.000  12.708  1.00  0.00    -0.002 C 
HETATM    2  C10 UNL     1       0.530   8.132  13.438  1.00  0.00     0.007 C 
HETATM    3  C11 UNL     1      -0.942   7.672  13.549  1.00  0.00     0.015 C 
HETATM    4  C12 UNL     1      -0.914   6.167  13.217  1.00  0.00    -0.013 C 
HETATM    5  C13 UNL     1      -0.514   5.421  14.529  1.00  0.00     0.021 C 
HETATM    6  C14 UNL     1      -2.185   5.463  12.751  1.00  0.00    -0.065 C 
HETATM    7  C15 UNL     1      -2.097   4.362  11.958  1.00  0.00    -0.068 C 
HETATM    8  C16 UNL     1      -0.749   3.888  11.387  1.00  0.00     0.036 C 
HETATM    9  C17 UNL     1       0.511   4.700  11.756  1.00  0.00     0.015 C 
HETATM   10  C18 UNL     1       0.159   6.159  12.064  1.00  0.00    -0.029 C 
HETATM   11  C19 UNL     1      -0.370   6.821  10.758  1.00  0.00     0.016 C 
HETATM   12  C20 UNL     1      -3.359   3.577  11.506  1.00  0.00    -0.014 C 
HETATM   13  C21 UNL     1      -3.628   4.021  10.044  1.00  0.00     0.020 C 
HETATM   14  C22 UNL     1      -3.126   2.033  11.566  1.00  0.00     0.016 C 
HETATM   15  C23 UNL     1      -4.331   1.193  12.021  1.00  0.00     0.033 C 
HETATM   16  C24 UNL     1      -5.671   1.744  11.563  1.00  0.00     0.118 C 
HETATM   17  C25 UNL     1      -5.875   3.203  11.988  1.00  0.00     0.039 C 
HETATM   18  C26 UNL     1      -4.568   3.900  12.433  1.00  0.00     0.029 C 
HETATM   19  C27 UNL     1      -4.752   5.408  12.620  1.00  0.00     0.127 C 
HETATM   20  C28 UNL     1      -3.497   6.028  13.245  1.00  0.00     0.067 C 
ENDROOT
BRANCH   1  21
HETATM   21  C7  UNL     1       2.547   7.443  11.891  1.00  0.00    -0.014 C 
HETATM   22  C8  UNL     1       3.642   8.186  12.668  1.00  0.00     0.010 C 
BRANCH  21  23
HETATM   23  C6  UNL     1       3.236   6.237  11.191  1.00  0.00     0.008 C 
BRANCH  23  24
HETATM   24  C5  UNL     1       3.931   6.570   9.864  1.00  0.00     0.028 C 
BRANCH  24  25
HETATM   25  C4  UNL     1       2.963   6.457   8.716  1.00  0.00    -0.025 C 
HETATM   26  C2  UNL     1       2.596   7.413   7.838  1.00  0.00    -0.091 C 
HETATM   27  C1  UNL     1       1.631   7.098   6.725  1.00  0.00     0.042 C 
HETATM   28  C3  UNL     1       3.080   8.835   7.853  1.00  0.00     0.042 C 
ENDBRANCH  24  25
ENDBRANCH  23  24
ENDBRANCH  21  23
ENDBRANCH   1  21
BRANCH  19  29
HETATM   29  O2  UNL     1      -5.874   5.677  13.465  1.00  0.00    -0.395 OA
HETATM   30  H44 UNL     1      -5.706   5.258  14.326  1.00  0.00     0.210 HD
ENDBRANCH  19  29
BRANCH  16  31
HETATM   31  O1  UNL     1      -5.767   1.635  10.147  1.00  0.00    -0.396 OA
HETATM   32  H39 UNL     1      -5.700   0.692   9.918  1.00  0.00     0.210 HD
ENDBRANCH  16  31
TORSDOF 6
ENDMDL
MODEL 2
REMARK minimizedAffinity -9.23287392
REMARK  6 active torsions:
REMARK  status: ('A' for Active; 'I' for Inactive)
REMARK    1  A    between atoms: C4_4  and  C5_5 
REMARK    2  A    between atoms: C5_5  and  C6_6 
REMARK    3  A    between atoms: C6_6  and  C7_7 
REMARK    4  A    between atoms: C7_7  and  C9_9 
REMARK    5  A    between atoms: C24_24  and  O1_25 
REMARK    6  A    between atoms: C27_28  and  O2_29 
ROOT
HETATM    1  C9  UNL     1      -5.503   6.810  14.589  1.00  0.00    -0.002 C 
HETATM    2  C10 UNL     1      -5.371   8.131  15.392  1.00  0.00     0.007 C 
HETATM    3  C11 UNL     1      -3.971   8.709  15.076  1.00  0.00     0.015 C 
HETATM    4  C12 UNL     1      -3.484   7.919  13.845  1.00  0.00    -0.013 C 
HETATM    5  C13 UNL     1      -4.119   8.596  12.591  1.00  0.00     0.021 C 
HETATM    6  C14 UNL     1      -1.994   7.844  13.525  1.00  0.00    -0.065 C 
HETATM    7  C15 UNL     1      -1.501   6.775  12.844  1.00  0.00    -0.068 C 
HETATM    8  C16 UNL     1      -2.380   5.556  12.515  1.00  0.00     0.036 C 
HETATM    9  C17 UNL     1      -3.854   5.590  12.974  1.00  0.00     0.015 C 
HETATM   10  C18 UNL     1      -4.030   6.485  14.205  1.00  0.00    -0.029 C 
HETATM   11  C19 UNL     1      -3.260   5.839  15.394  1.00  0.00     0.016 C 
HETATM   12  C20 UNL     1      -0.003   6.681  12.443  1.00  0.00    -0.014 C 
HETATM   13  C21 UNL     1       0.647   5.720  13.473  1.00  0.00     0.020 C 
HETATM   14  C22 UNL     1       0.170   6.118  10.997  1.00  0.00     0.016 C 
HETATM   15  C23 UNL     1       1.306   6.741  10.168  1.00  0.00     0.033 C 
HETATM   16  C24 UNL     1       2.526   7.120  10.989  1.00  0.00     0.118 C 
HETATM   17  C25 UNL     1       2.176   8.050  12.157  1.00  0.00     0.039 C 
HETATM   18  C26 UNL     1       0.663   8.089  12.476  1.00  0.00     0.029 C 
HETATM   19  C27 UNL     1       0.366   8.826  13.784  1.00  0.00     0.127 C 
HETATM   20  C28 UNL     1      -1.144   9.013  13.964  1.00  0.00     0.067 C 
ENDROOT
BRANCH   1  21
HETATM   21  C7  UNL     1      -6.443   5.733  15.202  1.00  0.00    -0.014 C 
HETATM   22  C8  UNL     1      -7.228   6.147  16.454  1.00  0.00     0.010 C 
BRANCH  21  23
HETATM   23  C6  UNL     1      -7.487   5.223  14.168  1.00  0.00     0.008 C 
BRANCH  23  24
HETATM   24  C5  UNL     1      -7.222   3.815  13.622  1.00  0.00     0.028 C 
BRANCH  24  25
HETATM   25  C4  UNL     1      -6.379   3.879  12.376  1.00  0.00    -0.025 C 
HETATM   26  C2  UNL     1      -6.021   2.868  11.558  1.00  0.00    -0.091 C 
HETATM   27  C1  UNL     1      -5.194   3.137  10.328  1.00  0.00     0.042 C 
HETATM   28  C3  UNL     1      -6.386   1.424  11.754  1.00  0.00     0.042 C 
ENDBRANCH  24  25
ENDBRANCH  23  24
ENDBRANCH  21  23
ENDBRANCH   1  21
BRANCH  19  29
HETATM   29  O2  UNL     1       0.999  10.110  13.793  1.00  0.00    -0.395 OA
HETATM   30  H44 UNL     1       0.648  10.618  13.043  1.00  0.00     0.210 HD
ENDBRANCH  19  29
BRANCH  16  31
HETATM   31  O1  UNL     1       3.150   5.939  11.481  1.00  0.00    -0.396 OA
HETATM   32  H39 UNL     1       3.417   5.405  10.714  1.00  0.00     0.210 HD
ENDBRANCH  16  31
TORSDOF 6
ENDMDL
MODEL 3
REMARK minimizedAffinity -8.8141098
REMARK  6 active torsions:
REMARK  status: ('A' for Active; 'I' for Inactive)
REMARK    1  A    between atoms: C4_4  and  C5_5 
REMARK    2  A    between atoms: C5_5  and  C6_6 
REMARK    3  A    between atoms: C6_6  and  C7_7 
REMARK    4  A    between atoms: C7_7  and  C9_9 
REMARK    5  A    between atoms: C24_24  and  O1_25 
REMARK    6  A    between atoms: C27_28  and  O2_29 
ROOT
HETATM    1  C9  UNL     1      -5.620   6.929  14.951  1.00  0.00    -0.002 C 
HETATM    2  C10 UNL     1      -5.447   8.343  15.567  1.00  0.00     0.007 C 
HETATM    3  C11 UNL     1      -4.068   8.867  15.102  1.00  0.00     0.015 C 
HETATM    4  C12 UNL     1      -3.648   7.921  13.960  1.00  0.00    -0.013 C 
HETATM    5  C13 UNL     1      -4.352   8.433  12.664  1.00  0.00     0.021 C 
HETATM    6  C14 UNL     1      -2.178   7.798  13.571  1.00  0.00    -0.065 C 
HETATM    7  C15 UNL     1      -1.720   6.647  13.008  1.00  0.00    -0.068 C 
HETATM    8  C16 UNL     1      -2.613   5.400  12.889  1.00  0.00     0.036 C 
HETATM    9  C17 UNL     1      -4.059   5.501  13.420  1.00  0.00     0.015 C 
HETATM   10  C18 UNL     1      -4.170   6.549  14.532  1.00  0.00    -0.029 C 
HETATM   11  C19 UNL     1      -3.334   6.059  15.751  1.00  0.00     0.016 C 
HETATM   12  C20 UNL     1      -0.247   6.495  12.542  1.00  0.00    -0.014 C 
HETATM   13  C21 UNL     1       0.461   5.672  13.651  1.00  0.00     0.020 C 
HETATM   14  C22 UNL     1      -0.152   5.747  11.174  1.00  0.00     0.016 C 
HETATM   15  C23 UNL     1       0.935   6.252  10.210  1.00  0.00     0.033 C 
HETATM   16  C24 UNL     1       2.198   6.728  10.906  1.00  0.00     0.118 C 
HETATM   17  C25 UNL     1       1.911   7.804  11.961  1.00  0.00     0.039 C 
HETATM   18  C26 UNL     1       0.418   7.891  12.355  1.00  0.00     0.029 C 
HETATM   19  C27 UNL     1       0.192   8.794  13.570  1.00  0.00     0.127 C 
HETATM   20  C28 UNL     1      -1.307   9.010  13.807  1.00  0.00     0.067 C 
ENDROOT
BRANCH   1  21
HETATM   21  C7  UNL     1      -6.523   5.946  15.749  1.00  0.00    -0.014 C 
HETATM   22  C8  UNL     1      -7.265   6.530  16.959  1.00  0.00     0.010 C 
BRANCH  21  23
HETATM   23  C6  UNL     1      -7.599   5.284  14.842  1.00  0.00     0.008 C 
BRANCH  23  24
HETATM   24  C5  UNL     1      -7.046   4.531  13.625  1.00  0.00     0.028 C 
BRANCH  24  25
HETATM   25  C4  UNL     1      -7.733   4.985  12.364  1.00  0.00    -0.025 C 
HETATM   26  C2  UNL     1      -8.810   5.787  12.244  1.00  0.00    -0.091 C 
HETATM   27  C1  UNL     1      -9.337   6.159  10.883  1.00  0.00     0.042 C 
HETATM   28  C3  UNL     1      -9.578   6.384  13.389  1.00  0.00     0.042 C 
ENDBRANCH  24  25
ENDBRANCH  23  24
ENDBRANCH  21  23
ENDBRANCH   1  21
BRANCH  19  29
HETATM   29  O2  UNL     1       0.821  10.064  13.377  1.00  0.00    -0.395 OA
HETATM   30  H44 UNL     1       0.429  10.473  12.588  1.00  0.00     0.210 HD
ENDBRANCH  19  29
BRANCH  16  31
HETATM   31  O1  UNL     1       2.851   5.618  11.513  1.00  0.00    -0.396 OA
HETATM   32  H39 UNL     1       3.077   4.987  10.809  1.00  0.00     0.210 HD
ENDBRANCH  16  31
TORSDOF 6
ENDMDL
MODEL 4
REMARK minimizedAffinity -8.63144493
REMARK  6 active torsions:
REMARK  status: ('A' for Active; 'I' for Inactive)
REMARK    1  A    between atoms: C4_4  and  C5_5 
REMARK    2  A    between atoms: C5_5  and  C6_6 
REMARK    3  A    between atoms: C6_6  and  C7_7 
REMARK    4  A    between atoms: C7_7  and  C9_9 
REMARK    5  A    between atoms: C24_24  and  O1_25 
REMARK    6  A    between atoms: C27_28  and  O2_29 
ROOT
HETATM    1  C9  UNL     1      -1.775   6.635  12.993  1.00  0.00    -0.002 C 
HETATM    2  C10 UNL     1      -1.981   5.675  11.791  1.00  0.00     0.007 C 
HETATM    3  C11 UNL     1      -0.584   5.421  11.177  1.00  0.00     0.015 C 
HETATM    4  C12 UNL     1       0.414   5.933  12.234  1.00  0.00    -0.013 C 
HETATM    5  C13 UNL     1       0.593   4.788  13.281  1.00  0.00     0.021 C 
HETATM    6  C14 UNL     1       1.837   6.303  11.827  1.00  0.00    -0.065 C 
HETATM    7  C15 UNL     1       2.528   7.229  12.546  1.00  0.00    -0.068 C 
HETATM    8  C16 UNL     1       1.860   8.031  13.676  1.00  0.00     0.036 C 
HETATM    9  C17 UNL     1       0.375   7.741  13.980  1.00  0.00     0.015 C 
HETATM   10  C18 UNL     1      -0.352   7.214  12.739  1.00  0.00    -0.029 C 
HETATM   11  C19 UNL     1      -0.381   8.346  11.670  1.00  0.00     0.016 C 
HETATM   12  C20 UNL     1       3.998   7.596  12.206  1.00  0.00    -0.014 C 
HETATM   13  C21 UNL     1       3.927   8.943  11.439  1.00  0.00     0.020 C 
HETATM   14  C22 UNL     1       4.863   7.755  13.497  1.00  0.00     0.016 C 
HETATM   15  C23 UNL     1       6.310   7.246  13.399  1.00  0.00     0.033 C 
HETATM   16  C24 UNL     1       6.940   7.447  12.032  1.00  0.00     0.118 C 
HETATM   17  C25 UNL     1       6.101   6.824  10.908  1.00  0.00     0.039 C 
HETATM   18  C26 UNL     1       4.657   6.481  11.341  1.00  0.00     0.029 C 
HETATM   19  C27 UNL     1       3.775   6.089  10.153  1.00  0.00     0.127 C 
HETATM   20  C28 UNL     1       2.418   5.570  10.640  1.00  0.00     0.067 C 
ENDROOT
BRANCH   1  21
HETATM   21  C7  UNL     1      -2.980   7.554  13.343  1.00  0.00    -0.014 C 
HETATM   22  C8  UNL     1      -3.039   8.906  12.620  1.00  0.00     0.010 C 
BRANCH  21  23
HETATM   23  C6  UNL     1      -4.340   6.847  13.081  1.00  0.00     0.008 C 
BRANCH  23  24
HETATM   24  C5  UNL     1      -4.475   5.452  13.705  1.00  0.00     0.028 C 
BRANCH  24  25
HETATM   25  C4  UNL     1      -5.898   4.967  13.615  1.00  0.00    -0.025 C 
HETATM   26  C2  UNL     1      -6.386   3.949  12.878  1.00  0.00    -0.091 C 
HETATM   27  C1  UNL     1      -7.847   3.589  12.946  1.00  0.00     0.042 C 
HETATM   28  C3  UNL     1      -5.579   3.085  11.949  1.00  0.00     0.042 C 
ENDBRANCH  24  25
ENDBRANCH  23  24
ENDBRANCH  21  23
ENDBRANCH   1  21
BRANCH  19  29
HETATM   29  O2  UNL     1       4.408   5.073   9.370  1.00  0.00    -0.395 OA
HETATM   30  H44 UNL     1       4.548   4.300   9.942  1.00  0.00     0.210 HD
ENDBRANCH  19  29
BRANCH  16  31
HETATM   31  O1  UNL     1       7.113   8.839  11.791  1.00  0.00    -0.396 OA
HETATM   32  H39 UNL     1       7.701   9.187  12.483  1.00  0.00     0.210 HD
ENDBRANCH  16  31
TORSDOF 6
ENDMDL
MODEL 5
REMARK minimizedAffinity -8.56264877
REMARK  6 active torsions:
REMARK  status: ('A' for Active; 'I' for Inactive)
REMARK    1  A    between atoms: C4_4  and  C5_5 
REMARK    2  A    between atoms: C5_5  and  C6_6 
REMARK    3  A    between atoms: C6_6  and  C7_7 
REMARK    4  A    between atoms: C7_7  and  C9_9 
REMARK    5  A    between atoms: C24_24  and  O1_25 
REMARK    6  A    between atoms: C27_28  and  O2_29 
ROOT
HETATM    1  C9  UNL     1      -3.217   7.867  15.395  1.00  0.00    -0.002 C 
HETATM    2  C10 UNL     1      -3.505   6.347  15.505  1.00  0.00     0.007 C 
HETATM    3  C11 UNL     1      -2.489   5.632  14.583  1.00  0.00     0.015 C 
HETATM    4  C12 UNL     1      -1.428   6.702  14.256  1.00  0.00    -0.013 C 
HETATM    5  C13 UNL     1      -0.425   6.726  15.451  1.00  0.00     0.021 C 
HETATM    6  C14 UNL     1      -0.545   6.551  13.020  1.00  0.00    -0.065 C 
HETATM    7  C15 UNL     1      -0.034   7.656  12.415  1.00  0.00    -0.068 C 
HETATM    8  C16 UNL     1      -0.443   9.074  12.850  1.00  0.00     0.036 C 
HETATM    9  C17 UNL     1      -1.450   9.203  14.013  1.00  0.00     0.015 C 
HETATM   10  C18 UNL     1      -2.353   7.969  14.104  1.00  0.00    -0.029 C 
HETATM   11  C19 UNL     1      -3.234   7.910  12.822  1.00  0.00     0.016 C 
HETATM   12  C20 UNL     1       0.917   7.551  11.191  1.00  0.00    -0.014 C 
HETATM   13  C21 UNL     1       0.039   7.863   9.950  1.00  0.00     0.020 C 
HETATM   14  C22 UNL     1       2.094   8.574  11.289  1.00  0.00     0.016 C 
HETATM   15  C23 UNL     1       3.456   8.077  10.776  1.00  0.00     0.033 C 
HETATM   16  C24 UNL     1       3.357   7.141   9.584  1.00  0.00     0.118 C 
HETATM   17  C25 UNL     1       2.446   5.939   9.861  1.00  0.00     0.039 C 
HETATM   18  C26 UNL     1       1.545   6.128  11.103  1.00  0.00     0.029 C 
HETATM   19  C27 UNL     1       0.483   5.032  11.220  1.00  0.00     0.127 C 
HETATM   20  C28 UNL     1      -0.257   5.141  12.558  1.00  0.00     0.067 C 
ENDROOT
BRANCH   1  21
HETATM   21  C7  UNL     1      -4.431   8.808  15.640  1.00  0.00    -0.014 C 
HETATM   22  C8  UNL     1      -4.172  10.312  15.476  1.00  0.00     0.010 C 
BRANCH  21  23
HETATM   23  C6  UNL     1      -5.629   8.457  14.714  1.00  0.00     0.008 C 
BRANCH  23  24
HETATM   24  C5  UNL     1      -6.641   7.470  15.310  1.00  0.00     0.028 C 
BRANCH  24  25
HETATM   25  C4  UNL     1      -7.550   6.930  14.237  1.00  0.00    -0.025 C 
HETATM   26  C2  UNL     1      -7.316   5.915  13.381  1.00  0.00    -0.091 C 
HETATM   27  C1  UNL     1      -8.370   5.493  12.391  1.00  0.00     0.042 C 
HETATM   28  C3  UNL     1      -6.046   5.114  13.310  1.00  0.00     0.042 C 
ENDBRANCH  24  25
ENDBRANCH  23  24
ENDBRANCH  21  23
ENDBRANCH   1  21
BRANCH  19  29
HETATM   29  O2  UNL     1       1.084   3.737  11.125  1.00  0.00    -0.395 OA
HETATM   30  H44 UNL     1       1.724   3.652  11.852  1.00  0.00     0.210 HD
ENDBRANCH  19  29
BRANCH  16  31
HETATM   31  O1  UNL     1       2.876   7.863   8.455  1.00  0.00    -0.396 OA
HETATM   32  H39 UNL     1       3.511   8.575   8.268  1.00  0.00     0.210 HD
ENDBRANCH  16  31
TORSDOF 6
ENDMDL
MODEL 6
REMARK minimizedAffinity -8.43667221
REMARK  6 active torsions:
REMARK  status: ('A' for Active; 'I' for Inactive)
REMARK    1  A    between atoms: C4_4  and  C5_5 
REMARK    2  A    between atoms: C5_5  and  C6_6 
REMARK    3  A    between atoms: C6_6  and  C7_7 
REMARK    4  A    between atoms: C7_7  and  C9_9 
REMARK    5  A    between atoms: C24_24  and  O1_25 
REMARK    6  A    between atoms: C27_28  and  O2_29 
ROOT
HETATM    1  C9  UNL     1      -3.206   8.313  15.289  1.00  0.00    -0.002 C 
HETATM    2  C10 UNL     1      -2.271   8.687  16.470  1.00  0.00     0.007 C 
HETATM    3  C11 UNL     1      -0.820   8.516  15.963  1.00  0.00     0.015 C 
HETATM    4  C12 UNL     1      -0.945   8.406  14.431  1.00  0.00    -0.013 C 
HETATM    5  C13 UNL     1      -1.037   9.863  13.877  1.00  0.00     0.021 C 
HETATM    6  C14 UNL     1       0.172   7.759  13.617  1.00  0.00    -0.065 C 
HETATM    7  C15 UNL     1      -0.115   7.163  12.428  1.00  0.00    -0.068 C 
HETATM    8  C16 UNL     1      -1.566   6.988  11.945  1.00  0.00     0.036 C 
HETATM    9  C17 UNL     1      -2.692   7.525  12.854  1.00  0.00     0.015 C 
HETATM   10  C18 UNL     1      -2.259   7.543  14.323  1.00  0.00    -0.029 C 
HETATM   11  C19 UNL     1      -2.043   6.073  14.788  1.00  0.00     0.016 C 
HETATM   12  C20 UNL     1       0.995   6.542  11.536  1.00  0.00    -0.014 C 
HETATM   13  C21 UNL     1       0.920   5.011  11.778  1.00  0.00     0.020 C 
HETATM   14  C22 UNL     1       0.762   6.862  10.025  1.00  0.00     0.016 C 
HETATM   15  C23 UNL     1       2.029   7.135   9.197  1.00  0.00     0.033 C 
HETATM   16  C24 UNL     1       3.231   6.311   9.625  1.00  0.00     0.118 C 
HETATM   17  C25 UNL     1       3.549   6.477  11.116  1.00  0.00     0.039 C 
HETATM   18  C26 UNL     1       2.392   7.113  11.921  1.00  0.00     0.029 C 
HETATM   19  C27 UNL     1       2.635   7.048  13.432  1.00  0.00     0.127 C 
HETATM   20  C28 UNL     1       1.570   7.856  14.181  1.00  0.00     0.067 C 
ENDROOT
BRANCH   1  21
HETATM   21  C7  UNL     1      -4.604   7.755  15.679  1.00  0.00    -0.014 C 
HETATM   22  C8  UNL     1      -5.819   8.520  15.138  1.00  0.00     0.010 C 
BRANCH  21  23
HETATM   23  C6  UNL     1      -4.777   6.273  15.239  1.00  0.00     0.008 C 
BRANCH  23  24
HETATM   24  C5  UNL     1      -5.891   6.028  14.215  1.00  0.00     0.028 C 
BRANCH  24  25
HETATM   25  C4  UNL     1      -5.455   5.015  13.189  1.00  0.00    -0.025 C 
HETATM   26  C2  UNL     1      -6.077   3.875  12.825  1.00  0.00    -0.091 C 
HETATM   27  C1  UNL     1      -5.498   3.000  11.745  1.00  0.00     0.042 C 
HETATM   28  C3  UNL     1      -7.361   3.362  13.415  1.00  0.00     0.042 C 
ENDBRANCH  24  25
ENDBRANCH  23  24
ENDBRANCH  21  23
ENDBRANCH   1  21
BRANCH  19  29
HETATM   29  O2  UNL     1       3.928   7.567  13.757  1.00  0.00    -0.395 OA
HETATM   30  H44 UNL     1       3.960   8.491  13.459  1.00  0.00     0.210 HD
ENDBRANCH  19  29
BRANCH  16  31
HETATM   31  O1  UNL     1       2.991   4.939   9.331  1.00  0.00    -0.396 OA
HETATM   32  H39 UNL     1       2.859   4.861   8.371  1.00  0.00     0.210 HD
ENDBRANCH  16  31
TORSDOF 6
ENDMDL
MODEL 7
REMARK minimizedAffinity -8.41587257
REMARK  6 active torsions:
REMARK  status: ('A' for Active; 'I' for Inactive)
REMARK    1  A    between atoms: C4_4  and  C5_5 
REMARK    2  A    between atoms: C5_5  and  C6_6 
REMARK    3  A    between atoms: C6_6  and  C7_7 
REMARK    4  A    between atoms: C7_7  and  C9_9 
REMARK    5  A    between atoms: C24_24  and  O1_25 
REMARK    6  A    between atoms: C27_28  and  O2_29 
ROOT
HETATM    1  C9  UNL     1      -1.609   9.940  14.908  1.00  0.00    -0.002 C 
HETATM    2  C10 UNL     1      -0.384   9.080  14.501  1.00  0.00     0.007 C 
HETATM    3  C11 UNL     1      -0.938   7.749  13.942  1.00  0.00     0.015 C 
HETATM    4  C12 UNL     1      -2.438   8.012  13.704  1.00  0.00    -0.013 C 
HETATM    5  C13 UNL     1      -2.561   8.721  12.319  1.00  0.00     0.021 C 
HETATM    6  C14 UNL     1      -3.416   6.844  13.622  1.00  0.00    -0.065 C 
HETATM    7  C15 UNL     1      -4.720   7.027  13.964  1.00  0.00    -0.068 C 
HETATM    8  C16 UNL     1      -5.212   8.348  14.578  1.00  0.00     0.036 C 
HETATM    9  C17 UNL     1      -4.175   9.472  14.786  1.00  0.00     0.015 C 
HETATM   10  C18 UNL     1      -2.765   8.900  14.965  1.00  0.00    -0.029 C 
HETATM   11  C19 UNL     1      -2.733   8.083  16.289  1.00  0.00     0.016 C 
HETATM   12  C20 UNL     1      -5.765   5.884  13.841  1.00  0.00    -0.014 C 
HETATM   13  C21 UNL     1      -5.961   5.339  15.280  1.00  0.00     0.020 C 
HETATM   14  C22 UNL     1      -7.123   6.407  13.273  1.00  0.00     0.016 C 
HETATM   15  C23 UNL     1      -7.859   5.454  12.317  1.00  0.00     0.033 C 
HETATM   16  C24 UNL     1      -7.695   3.986  12.668  1.00  0.00     0.118 C 
HETATM   17  C25 UNL     1      -6.222   3.572  12.769  1.00  0.00     0.039 C 
HETATM   18  C26 UNL     1      -5.255   4.774  12.874  1.00  0.00     0.029 C 
HETATM   19  C27 UNL     1      -3.827   4.339  13.214  1.00  0.00     0.127 C 
HETATM   20  C28 UNL     1      -2.866   5.530  13.117  1.00  0.00     0.067 C 
ENDROOT
BRANCH   1  21
HETATM   21  C7  UNL     1      -1.372  10.960  16.059  1.00  0.00    -0.014 C 
HETATM   22  C8  UNL     1      -2.620  11.642  16.633  1.00  0.00     0.010 C 
BRANCH  21  23
HETATM   23  C6  UNL     1      -0.625  10.311  17.259  1.00  0.00     0.008 C 
BRANCH  23  24
HETATM   24  C5  UNL     1      -1.109  10.761  18.643  1.00  0.00     0.028 C 
BRANCH  24  25
HETATM   25  C4  UNL     1       0.061  11.083  19.535  1.00  0.00    -0.025 C 
HETATM   26  C2  UNL     1       0.497  12.295  19.934  1.00  0.00    -0.091 C 
HETATM   27  C1  UNL     1       1.676  12.415  20.864  1.00  0.00     0.042 C 
HETATM   28  C3  UNL     1      -0.107  13.610  19.529  1.00  0.00     0.042 C 
ENDBRANCH  24  25
ENDBRANCH  23  24
ENDBRANCH  21  23
ENDBRANCH   1  21
BRANCH  19  29
HETATM   29  O2  UNL     1      -3.387   3.313  12.320  1.00  0.00    -0.395 OA
HETATM   30  H44 UNL     1      -3.415   3.673  11.418  1.00  0.00     0.210 HD
ENDBRANCH  19  29
BRANCH  16  31
HETATM   31  O1  UNL     1      -8.358   3.718  13.899  1.00  0.00    -0.396 OA
HETATM   32  H39 UNL     1      -9.300   3.929  13.779  1.00  0.00     0.210 HD
ENDBRANCH  16  31
TORSDOF 6
ENDMDL
MODEL 8
REMARK minimizedAffinity -8.39921188
REMARK  6 active torsions:
REMARK  status: ('A' for Active; 'I' for Inactive)
REMARK    1  A    between atoms: C4_4  and  C5_5 
REMARK    2  A    between atoms: C5_5  and  C6_6 
REMARK    3  A    between atoms: C6_6  and  C7_7 
REMARK    4  A    between atoms: C7_7  and  C9_9 
REMARK    5  A    between atoms: C24_24  and  O1_25 
REMARK    6  A    between atoms: C27_28  and  O2_29 
ROOT
HETATM    1  C9  UNL     1      -1.566   6.039  12.482  1.00  0.00    -0.002 C 
HETATM    2  C10 UNL     1      -1.475   6.173  14.025  1.00  0.00     0.007 C 
HETATM    3  C11 UNL     1      -0.073   6.743  14.342  1.00  0.00     0.015 C 
HETATM    4  C12 UNL     1       0.462   7.256  12.990  1.00  0.00    -0.013 C 
HETATM    5  C13 UNL     1      -0.140   8.680  12.775  1.00  0.00     0.021 C 
HETATM    6  C14 UNL     1       1.962   7.441  12.782  1.00  0.00    -0.065 C 
HETATM    7  C15 UNL     1       2.489   7.346  11.532  1.00  0.00    -0.068 C 
HETATM    8  C16 UNL     1       1.635   6.906  10.330  1.00  0.00     0.036 C 
HETATM    9  C17 UNL     1       0.147   6.584  10.589  1.00  0.00     0.015 C 
HETATM   10  C18 UNL     1      -0.078   6.127  12.033  1.00  0.00    -0.029 C 
HETATM   11  C19 UNL     1       0.660   4.772  12.239  1.00  0.00     0.016 C 
HETATM   12  C20 UNL     1       4.000   7.585  11.261  1.00  0.00    -0.014 C 
HETATM   13  C21 UNL     1       4.628   6.174  11.115  1.00  0.00     0.020 C 
HETATM   14  C22 UNL     1       4.226   8.412   9.955  1.00  0.00     0.016 C 
HETATM   15  C23 UNL     1       5.380   9.427   9.999  1.00  0.00     0.033 C 
HETATM   16  C24 UNL     1       6.569   8.968  10.824  1.00  0.00     0.118 C 
HETATM   17  C25 UNL     1       6.171   8.585  12.255  1.00  0.00     0.039 C 
HETATM   18  C26 UNL     1       4.649   8.380  12.432  1.00  0.00     0.029 C 
HETATM   19  C27 UNL     1       4.302   7.770  13.793  1.00  0.00     0.127 C 
HETATM   20  C28 UNL     1       2.785   7.764  14.008  1.00  0.00     0.067 C 
ENDROOT
BRANCH   1  21
HETATM   21  C7  UNL     1      -2.514   4.925  11.951  1.00  0.00    -0.014 C 
HETATM   22  C8  UNL     1      -1.839   3.665  11.391  1.00  0.00     0.010 C 
BRANCH  21  23
HETATM   23  C6  UNL     1      -3.512   4.448  13.044  1.00  0.00     0.008 C 
BRANCH  23  24
HETATM   24  C5  UNL     1      -4.868   5.165  13.039  1.00  0.00     0.028 C 
BRANCH  24  25
HETATM   25  C4  UNL     1      -5.993   4.174  13.182  1.00  0.00    -0.025 C 
HETATM   26  C2  UNL     1      -6.338   3.178  12.341  1.00  0.00    -0.091 C 
HETATM   27  C1  UNL     1      -7.484   2.259  12.675  1.00  0.00     0.042 C 
HETATM   28  C3  UNL     1      -5.659   2.871  11.036  1.00  0.00     0.042 C 
ENDBRANCH  24  25
ENDBRANCH  23  24
ENDBRANCH  21  23
ENDBRANCH   1  21
BRANCH  19  29
HETATM   29  O2  UNL     1       4.920   8.512  14.849  1.00  0.00    -0.395 OA
HETATM   30  H44 UNL     1       4.588   9.424  14.805  1.00  0.00     0.210 HD
ENDBRANCH  19  29
BRANCH  16  31
HETATM   31  O1  UNL     1       7.191   7.860  10.182  1.00  0.00    -0.396 OA
HETATM   32  H39 UNL     1       7.488   8.155   9.305  1.00  0.00     0.210 HD
ENDBRANCH  16  31
TORSDOF 6
ENDMDL
MODEL 9
REMARK minimizedAffinity -8.39410019
REMARK  6 active torsions:
REMARK  status: ('A' for Active; 'I' for Inactive)
REMARK    1  A    between atoms: C4_4  and  C5_5 
REMARK    2  A    between atoms: C5_5  and  C6_6 
REMARK    3  A    between atoms: C6_6  and  C7_7 
REMARK    4  A    between atoms: C7_7  and  C9_9 
REMARK    5  A    between atoms: C24_24  and  O1_25 
REMARK    6  A    between atoms: C27_28  and  O2_29 
ROOT
HETATM    1  C9  UNL     1       2.336   7.411  11.798  1.00  0.00    -0.002 C 
HETATM    2  C10 UNL     1       2.449   5.898  11.474  1.00  0.00     0.007 C 
HETATM    3  C11 UNL     1       1.070   5.270  11.786  1.00  0.00     0.015 C 
HETATM    4  C12 UNL     1       0.111   6.468  11.930  1.00  0.00    -0.013 C 
HETATM    5  C13 UNL     1      -0.327   6.874  10.487  1.00  0.00     0.021 C 
HETATM    6  C14 UNL     1      -1.199   6.312  12.696  1.00  0.00    -0.065 C 
HETATM    7  C15 UNL     1      -1.764   7.393  13.299  1.00  0.00    -0.068 C 
HETATM    8  C16 UNL     1      -1.041   8.749  13.360  1.00  0.00     0.036 C 
HETATM    9  C17 UNL     1       0.351   8.849  12.700  1.00  0.00     0.015 C 
HETATM   10  C18 UNL     1       1.053   7.487  12.677  1.00  0.00    -0.029 C 
HETATM   11  C19 UNL     1       1.341   7.060  14.146  1.00  0.00     0.016 C 
HETATM   12  C20 UNL     1      -3.126   7.296  14.040  1.00  0.00    -0.014 C 
HETATM   13  C21 UNL     1      -2.777   7.235  15.550  1.00  0.00     0.020 C 
HETATM   14  C22 UNL     1      -4.029   8.536  13.745  1.00  0.00     0.016 C 
HETATM   15  C23 UNL     1      -5.533   8.250  13.608  1.00  0.00     0.033 C 
HETATM   16  C24 UNL     1      -6.033   7.144  14.522  1.00  0.00     0.118 C 
HETATM   17  C25 UNL     1      -5.245   5.841  14.341  1.00  0.00     0.039 C 
HETATM   18  C26 UNL     1      -3.912   6.031  13.583  1.00  0.00     0.029 C 
HETATM   19  C27 UNL     1      -3.037   4.775  13.625  1.00  0.00     0.127 C 
HETATM   20  C28 UNL     1      -1.822   4.936  12.705  1.00  0.00     0.067 C 
ENDROOT
BRANCH   1  21
HETATM   21  C7  UNL     1       3.657   8.116  12.221  1.00  0.00    -0.014 C 
HETATM   22  C8  UNL     1       4.772   7.210  12.758  1.00  0.00     0.010 C 
BRANCH  21  23
HETATM   23  C6  UNL     1       4.272   8.936  11.051  1.00  0.00     0.008 C 
BRANCH  23  24
HETATM   24  C5  UNL     1       4.491   8.149   9.753  1.00  0.00     0.028 C 
BRANCH  24  25
HETATM   25  C4  UNL     1       3.333   8.349   8.811  1.00  0.00    -0.025 C 
HETATM   26  C2  UNL     1       2.632   7.412   8.141  1.00  0.00    -0.091 C 
HETATM   27  C1  UNL     1       1.474   7.807   7.262  1.00  0.00     0.042 C 
HETATM   28  C3  UNL     1       2.898   5.933   8.185  1.00  0.00     0.042 C 
ENDBRANCH  24  25
ENDBRANCH  23  24
ENDBRANCH  21  23
ENDBRANCH   1  21
BRANCH  19  29
HETATM   29  O2  UNL     1      -3.786   3.627  13.212  1.00  0.00    -0.395 OA
HETATM   30  H44 UNL     1      -4.092   3.784  12.304  1.00  0.00     0.210 HD
ENDBRANCH  19  29
BRANCH  16  31
HETATM   31  O1  UNL     1      -5.949   7.576  15.876  1.00  0.00    -0.396 OA
HETATM   32  H39 UNL     1      -6.510   8.365  15.970  1.00  0.00     0.210 HD
ENDBRANCH  16  31
TORSDOF 6
ENDMDL
