MODEL 1
REMARK minimizedAffinity -8.71605587
REMARK CNNscore 0.404247075
REMARK CNNaffinity 7.27256584
REMARK  11 active torsions:
REMARK  status: ('A' for Active; 'I' for Inactive)
REMARK    1  A    between atoms: C2_2  and  O1_4 
REMARK    2  A    between atoms: C2_2  and  C4_5 
REMARK    3  A    between atoms: C5_6  and  C6_7 
REMARK    4  A    between atoms: C6_7  and  C7_8 
REMARK    5  A    between atoms: C7_8  and  C8_9 
REMARK    6  A    between atoms: C7_8  and  C14_21 
REMARK    7  A    between atoms: C8_9  and  O3_11 
REMARK    8  A    between atoms: O3_11  and  C9_12 
REMARK    9  A    between atoms: C11_15  and  O5_16 
REMARK   10  A    between atoms: C12_17  and  O6_18 
REMARK   11  A    between atoms: C13_19  and  O7_20 
ROOT
HETATM    1  C7  UNL     1       1.559   8.318  13.927  1.00  0.00     0.094 C 
ENDROOT
BRANCH   1   2
HETATM    2  C6  UNL     1       1.713   9.355  12.796  1.00  0.00     0.042 C 
BRANCH   2   3
HETATM    3  C5  UNL     1       1.252   8.824  11.457  1.00  0.00    -0.027 C 
HETATM    4  C4  UNL     1       2.004   8.028  10.676  1.00  0.00     0.006 C 
BRANCH   4   5
HETATM    5  C2  UNL     1       1.630   7.419   9.343  1.00  0.00     0.068 C 
HETATM    6  C1  UNL     1       0.219   7.868   8.954  1.00  0.00     0.050 C 
HETATM    7  C3  UNL     1       2.606   7.711   8.201  1.00  0.00     0.050 C 
BRANCH   5   8
HETATM    8  O1  UNL     1       1.596   6.007   9.543  1.00  0.00    -0.387 OA
HETATM    9  H7  UNL     1       2.489   5.750   9.827  1.00  0.00     0.211 HD
ENDBRANCH   5   8
ENDBRANCH   4   5
ENDBRANCH   2   3
ENDBRANCH   1   2
BRANCH   1  10
HETATM   10  C8  UNL     1       2.889   8.210  14.664  1.00  0.00     0.266 C 
HETATM   11  O2  UNL     1       3.132   8.805  15.708  1.00  0.00    -0.265 OA
BRANCH  10  12
HETATM   12  O3  UNL     1       3.750   7.366  14.034  1.00  0.00    -0.287 OA
BRANCH  12  13
HETATM   13  C9  UNL     1       4.762   8.027  13.266  1.00  0.00     0.300 C 
HETATM   14  O4  UNL     1       4.628   7.674  11.872  1.00  0.00    -0.355 OA
HETATM   15  C10 UNL     1       5.379   6.509  11.524  1.00  0.00     0.205 C 
HETATM   16  C11 UNL     1       6.878   6.830  11.594  1.00  0.00     0.173 C 
HETATM   17  C12 UNL     1       7.191   7.867  12.694  1.00  0.00     0.182 C 
HETATM   18  C13 UNL     1       6.186   7.745  13.833  1.00  0.00     0.205 C 
BRANCH  16  19
HETATM   19  O5  UNL     1       7.341   7.379  10.346  1.00  0.00    -0.391 OA
HETATM   20  H17 UNL     1       6.684   8.042  10.061  1.00  0.00     0.210 HD
ENDBRANCH  16  19
BRANCH  17  21
HETATM   21  O6  UNL     1       8.518   7.644  13.199  1.00  0.00    -0.390 OA
HETATM   22  H19 UNL     1       9.104   7.642  12.418  1.00  0.00     0.210 HD
ENDBRANCH  17  21
BRANCH  18  23
HETATM   23  O7  UNL     1       6.302   6.412  14.381  1.00  0.00    -0.388 OA
HETATM   24  H21 UNL     1       7.227   6.350  14.687  1.00  0.00     0.210 HD
ENDBRANCH  18  23
ENDBRANCH  12  13
ENDBRANCH  10  12
ENDBRANCH   1  10
BRANCH   1  25
HETATM   25  C14 UNL     1       0.403   8.536  14.943  1.00  0.00     0.009 C 
HETATM   26  C15 UNL     1       0.185   9.978  15.474  1.00  0.00     0.007 C 
HETATM   27  C16 UNL     1      -1.330  10.136  15.743  1.00  0.00     0.015 C 
HETATM   28  C17 UNL     1      -1.898   8.704  15.681  1.00  0.00    -0.013 C 
HETATM   29  C18 UNL     1      -1.666   8.066  17.090  1.00  0.00     0.021 C 
HETATM   30  C19 UNL     1      -3.381   8.483  15.393  1.00  0.00    -0.068 C 
HETATM   31  C23 UNL     1      -1.032   8.104  14.515  1.00  0.00    -0.028 C 
HETATM   32  C20 UNL     1      -3.796   7.342  14.782  1.00  0.00    -0.068 C 
HETATM   33  C35 UNL     1      -4.321   9.550  15.893  1.00  0.00     0.036 C 
HETATM   34  C21 UNL     1      -2.791   6.293  14.285  1.00  0.00     0.036 C 
HETATM   35  C25 UNL     1      -5.300   7.059  14.512  1.00  0.00    -0.015 C 
HETATM   36  C22 UNL     1      -1.287   6.596  14.461  1.00  0.00     0.015 C 
HETATM   37  C26 UNL     1      -5.586   7.459  13.047  1.00  0.00     0.020 C 
HETATM   38  C27 UNL     1      -5.630   5.567  14.740  1.00  0.00     0.021 C 
HETATM   39  C33 UNL     1      -6.180   7.847  15.538  1.00  0.00     0.013 C 
HETATM   40  C28 UNL     1      -7.089   5.191  14.560  1.00  0.00     0.080 C 
HETATM   41  C29 UNL     1      -8.082   6.325  14.654  1.00  0.00     0.135 C 
HETATM   42  O8  UNL     1      -9.198   6.175  14.148  1.00  0.00    -0.297 OA
HETATM   43  C30 UNL     1      -7.726   7.592  15.442  1.00  0.00     0.018 C 
HETATM   44  C31 UNL     1      -8.294   7.375  16.862  1.00  0.00     0.023 C 
HETATM   45  C32 UNL     1      -8.498   8.770  14.804  1.00  0.00     0.023 C 
HETATM   46  C34 UNL     1      -5.794   9.335  15.545  1.00  0.00     0.011 C 
HETATM   47  C24 UNL     1      -1.376   8.701  13.114  1.00  0.00     0.016 C 
ENDBRANCH   1  25
TORSDOF 11
ENDMDL
MODEL 2
REMARK minimizedAffinity -9.92330933
REMARK CNNscore 0.366367131
REMARK CNNaffinity 7.71654558
REMARK  11 active torsions:
REMARK  status: ('A' for Active; 'I' for Inactive)
REMARK    1  A    between atoms: C2_2  and  O1_4 
REMARK    2  A    between atoms: C2_2  and  C4_5 
REMARK    3  A    between atoms: C5_6  and  C6_7 
REMARK    4  A    between atoms: C6_7  and  C7_8 
REMARK    5  A    between atoms: C7_8  and  C8_9 
REMARK    6  A    between atoms: C7_8  and  C14_21 
REMARK    7  A    between atoms: C8_9  and  O3_11 
REMARK    8  A    between atoms: O3_11  and  C9_12 
REMARK    9  A    between atoms: C11_15  and  O5_16 
REMARK   10  A    between atoms: C12_17  and  O6_18 
REMARK   11  A    between atoms: C13_19  and  O7_20 
ROOT
HETATM    1  C7  UNL     1      -4.336   5.594  14.137  1.00  0.00     0.094 C 
ENDROOT
BRANCH   1   2
HETATM    2  C6  UNL     1      -4.899   4.782  12.954  1.00  0.00     0.042 C 
BRANCH   2   3
HETATM    3  C5  UNL     1      -4.007   3.622  12.571  1.00  0.00    -0.027 C 
HETATM    4  C4  UNL     1      -3.136   3.662  11.547  1.00  0.00     0.006 C 
BRANCH   4   5
HETATM    5  C2  UNL     1      -2.181   2.578  11.101  1.00  0.00     0.068 C 
HETATM    6  C1  UNL     1      -0.777   2.886  11.630  1.00  0.00     0.050 C 
HETATM    7  C3  UNL     1      -2.587   1.156  11.491  1.00  0.00     0.050 C 
BRANCH   5   8
HETATM    8  O1  UNL     1      -2.131   2.648   9.677  1.00  0.00    -0.387 OA
HETATM    9  H7  UNL     1      -3.038   2.490   9.364  1.00  0.00     0.211 HD
ENDBRANCH   5   8
ENDBRANCH   4   5
ENDBRANCH   2   3
ENDBRANCH   1   2
BRANCH   1  10
HETATM   10  C8  UNL     1      -3.231   6.503  13.615  1.00  0.00     0.266 C 
HETATM   11  O2  UNL     1      -3.408   7.353  12.749  1.00  0.00    -0.265 OA
BRANCH  10  12
HETATM   12  O3  UNL     1      -2.043   6.265  14.237  1.00  0.00    -0.287 OA
BRANCH  12  13
HETATM   13  C9  UNL     1      -0.996   7.168  13.865  1.00  0.00     0.300 C 
HETATM   14  O4  UNL     1      -0.143   6.548  12.877  1.00  0.00    -0.355 OA
HETATM   15  C10 UNL     1       0.938   5.819  13.463  1.00  0.00     0.205 C 
HETATM   16  C11 UNL     1       1.922   6.802  14.113  1.00  0.00     0.173 C 
HETATM   17  C12 UNL     1       1.200   8.045  14.677  1.00  0.00     0.182 C 
HETATM   18  C13 UNL     1      -0.214   7.681  15.112  1.00  0.00     0.205 C 
BRANCH  16  19
HETATM   19  O5  UNL     1       2.888   7.267  13.152  1.00  0.00    -0.391 OA
HETATM   20  H17 UNL     1       2.399   7.489  12.337  1.00  0.00     0.210 HD
ENDBRANCH  16  19
BRANCH  17  21
HETATM   21  O6  UNL     1       1.933   8.554  15.803  1.00  0.00    -0.390 OA
HETATM   22  H19 UNL     1       2.849   8.682  15.491  1.00  0.00     0.210 HD
ENDBRANCH  17  21
BRANCH  18  23
HETATM   23  O7  UNL     1      -0.112   6.676  16.145  1.00  0.00    -0.388 OA
HETATM   24  H21 UNL     1       0.403   7.103  16.856  1.00  0.00     0.210 HD
ENDBRANCH  18  23
ENDBRANCH  12  13
ENDBRANCH  10  12
ENDBRANCH   1  10
BRANCH   1  25
HETATM   25  C14 UNL     1      -5.348   6.418  14.983  1.00  0.00     0.009 C 
HETATM   26  C15 UNL     1      -4.944   7.867  15.363  1.00  0.00     0.007 C 
HETATM   27  C16 UNL     1      -6.247   8.698  15.429  1.00  0.00     0.015 C 
HETATM   28  C17 UNL     1      -7.384   7.656  15.416  1.00  0.00    -0.013 C 
HETATM   29  C18 UNL     1      -7.564   7.168  16.891  1.00  0.00     0.021 C 
HETATM   30  C19 UNL     1      -8.785   8.063  14.967  1.00  0.00    -0.068 C 
HETATM   31  C23 UNL     1      -6.790   6.598  14.418  1.00  0.00    -0.028 C 
HETATM   32  C20 UNL     1      -9.616   7.146  14.406  1.00  0.00    -0.068 C 
HETATM   33  C35 UNL     1      -9.190   9.486  15.258  1.00  0.00     0.036 C 
HETATM   34  C21 UNL     1      -9.147   5.711  14.125  1.00  0.00     0.036 C 
HETATM   35  C25 UNL     1     -11.066   7.508  13.977  1.00  0.00    -0.015 C 
HETATM   36  C22 UNL     1      -7.682   5.354  14.458  1.00  0.00     0.015 C 
HETATM   37  C26 UNL     1     -11.036   7.802  12.460  1.00  0.00     0.020 C 
HETATM   38  C27 UNL     1     -12.039   6.348  14.286  1.00  0.00     0.021 C 
HETATM   39  C33 UNL     1     -11.579   8.724  14.819  1.00  0.00     0.013 C 
HETATM   40  C28 UNL     1     -13.496   6.620  13.959  1.00  0.00     0.080 C 
HETATM   41  C29 UNL     1     -13.887   8.074  13.837  1.00  0.00     0.135 C 
HETATM   42  O8  UNL     1     -14.913   8.357  13.212  1.00  0.00    -0.297 OA
HETATM   43  C30 UNL     1     -13.066   9.152  14.556  1.00  0.00     0.018 C 
HETATM   44  C31 UNL     1     -13.775   9.385  15.908  1.00  0.00     0.023 C 
HETATM   45  C32 UNL     1     -13.186  10.455  13.733  1.00  0.00     0.023 C 
HETATM   46  C34 UNL     1     -10.575   9.885  14.751  1.00  0.00     0.011 C 
HETATM   47  C24 UNL     1      -6.728   7.100  12.942  1.00  0.00     0.016 C 
ENDBRANCH   1  25
TORSDOF 11
ENDMDL
MODEL 3
REMARK minimizedAffinity -7.95138597
REMARK CNNscore 0.299597919
REMARK CNNaffinity 5.75202322
REMARK  11 active torsions:
REMARK  status: ('A' for Active; 'I' for Inactive)
REMARK    1  A    between atoms: C2_2  and  O1_4 
REMARK    2  A    between atoms: C2_2  and  C4_5 
REMARK    3  A    between atoms: C5_6  and  C6_7 
REMARK    4  A    between atoms: C6_7  and  C7_8 
REMARK    5  A    between atoms: C7_8  and  C8_9 
REMARK    6  A    between atoms: C7_8  and  C14_21 
REMARK    7  A    between atoms: C8_9  and  O3_11 
REMARK    8  A    between atoms: O3_11  and  C9_12 
REMARK    9  A    between atoms: C11_15  and  O5_16 
REMARK   10  A    between atoms: C12_17  and  O6_18 
REMARK   11  A    between atoms: C13_19  and  O7_20 
ROOT
HETATM    1  C7  UNL     1      -0.017  11.542  18.465  1.00  0.00     0.094 C 
ENDROOT
BRANCH   1   2
HETATM    2  C6  UNL     1       0.225  10.884  19.838  1.00  0.00     0.042 C 
BRANCH   2   3
HETATM    3  C5  UNL     1       1.662  11.003  20.293  1.00  0.00    -0.027 C 
HETATM    4  C4  UNL     1       2.155  10.364  21.369  1.00  0.00     0.006 C 
BRANCH   4   5
HETATM    5  C2  UNL     1       3.574  10.388  21.890  1.00  0.00     0.068 C 
HETATM    6  C1  UNL     1       3.842  11.727  22.581  1.00  0.00     0.050 C 
HETATM    7  C3  UNL     1       3.940   9.234  22.825  1.00  0.00     0.050 C 
BRANCH   5   8
HETATM    8  O1  UNL     1       4.423  10.313  20.746  1.00  0.00    -0.387 OA
HETATM    9  H7  UNL     1       4.210   9.476  20.301  1.00  0.00     0.211 HD
ENDBRANCH   5   8
ENDBRANCH   4   5
ENDBRANCH   2   3
ENDBRANCH   1   2
BRANCH   1  10
HETATM   10  C8  UNL     1       0.941  10.917  17.457  1.00  0.00     0.266 C 
HETATM   11  O2  UNL     1       1.826  11.545  16.887  1.00  0.00    -0.265 OA
BRANCH  10  12
HETATM   12  O3  UNL     1       0.701   9.588  17.289  1.00  0.00    -0.287 OA
BRANCH  12  13
HETATM   13  C9  UNL     1       0.561   9.186  15.922  1.00  0.00     0.300 C 
HETATM   14  O4  UNL     1      -0.837   8.989  15.611  1.00  0.00    -0.355 OA
HETATM   15  C10 UNL     1      -1.273   7.652  15.861  1.00  0.00     0.205 C 
HETATM   16  C11 UNL     1      -0.619   6.704  14.846  1.00  0.00     0.173 C 
HETATM   17  C12 UNL     1       0.794   7.182  14.446  1.00  0.00     0.182 C 
HETATM   18  C13 UNL     1       1.439   7.941  15.599  1.00  0.00     0.205 C 
BRANCH  16  19
HETATM   19  O5  UNL     1      -1.403   6.628  13.641  1.00  0.00    -0.391 OA
HETATM   20  H17 UNL     1      -1.658   7.540  13.405  1.00  0.00     0.210 HD
ENDBRANCH  16  19
BRANCH  17  21
HETATM   21  O6  UNL     1       1.605   6.045  14.105  1.00  0.00    -0.390 OA
HETATM   22  H19 UNL     1       1.101   5.550  13.431  1.00  0.00     0.210 HD
ENDBRANCH  17  21
BRANCH  18  23
HETATM   23  O7  UNL     1       1.539   7.035  16.721  1.00  0.00    -0.388 OA
HETATM   24  H21 UNL     1       2.093   6.299  16.397  1.00  0.00     0.210 HD
ENDBRANCH  18  23
ENDBRANCH  12  13
ENDBRANCH  10  12
ENDBRANCH   1  10
BRANCH   1  25
HETATM   25  C14 UNL     1      -1.467  11.518  17.907  1.00  0.00     0.009 C 
HETATM   26  C15 UNL     1      -2.568  10.904  18.811  1.00  0.00     0.007 C 
HETATM   27  C16 UNL     1      -3.882  11.661  18.503  1.00  0.00     0.015 C 
HETATM   28  C17 UNL     1      -3.591  12.453  17.212  1.00  0.00    -0.013 C 
HETATM   29  C18 UNL     1      -3.822  11.469  16.019  1.00  0.00     0.021 C 
HETATM   30  C19 UNL     1      -4.426  13.684  16.869  1.00  0.00    -0.068 C 
HETATM   31  C23 UNL     1      -2.099  12.873  17.465  1.00  0.00    -0.028 C 
HETATM   32  C20 UNL     1      -3.889  14.689  16.129  1.00  0.00    -0.068 C 
HETATM   33  C35 UNL     1      -5.862  13.662  17.327  1.00  0.00     0.036 C 
HETATM   34  C21 UNL     1      -2.416  14.662  15.697  1.00  0.00     0.036 C 
HETATM   35  C25 UNL     1      -4.719  15.938  15.719  1.00  0.00    -0.015 C 
HETATM   36  C22 UNL     1      -1.549  13.475  16.170  1.00  0.00     0.015 C 
HETATM   37  C26 UNL     1      -4.389  17.059  16.730  1.00  0.00     0.020 C 
HETATM   38  C27 UNL     1      -4.372  16.384  14.282  1.00  0.00     0.021 C 
HETATM   39  C33 UNL     1      -6.242  15.576  15.692  1.00  0.00     0.013 C 
HETATM   40  C28 UNL     1      -5.170  17.564  13.759  1.00  0.00     0.080 C 
HETATM   41  C29 UNL     1      -6.475  17.847  14.466  1.00  0.00     0.135 C 
HETATM   42  O8  UNL     1      -6.967  18.974  14.365  1.00  0.00    -0.297 OA
HETATM   43  C30 UNL     1      -7.202  16.721  15.211  1.00  0.00     0.018 C 
HETATM   44  C31 UNL     1      -8.220  16.141  14.204  1.00  0.00     0.023 C 
HETATM   45  C32 UNL     1      -8.002  17.368  16.365  1.00  0.00     0.023 C 
HETATM   46  C34 UNL     1      -6.663  14.927  17.020  1.00  0.00     0.011 C 
HETATM   47  C24 UNL     1      -1.935  13.935  18.598  1.00  0.00     0.016 C 
ENDBRANCH   1  25
TORSDOF 11
ENDMDL
MODEL 4
REMARK minimizedAffinity -10.130599
REMARK CNNscore 0.276475906
REMARK CNNaffinity 7.06477737
REMARK  11 active torsions:
REMARK  status: ('A' for Active; 'I' for Inactive)
REMARK    1  A    between atoms: C2_2  and  O1_4 
REMARK    2  A    between atoms: C2_2  and  C4_5 
REMARK    3  A    between atoms: C5_6  and  C6_7 
REMARK    4  A    between atoms: C6_7  and  C7_8 
REMARK    5  A    between atoms: C7_8  and  C8_9 
REMARK    6  A    between atoms: C7_8  and  C14_21 
REMARK    7  A    between atoms: C8_9  and  O3_11 
REMARK    8  A    between atoms: O3_11  and  C9_12 
REMARK    9  A    between atoms: C11_15  and  O5_16 
REMARK   10  A    between atoms: C12_17  and  O6_18 
REMARK   11  A    between atoms: C13_19  and  O7_20 
ROOT
HETATM    1  C7  UNL     1      -1.293   4.812  12.496  1.00  0.00     0.094 C 
ENDROOT
BRANCH   1   2
HETATM    2  C6  UNL     1      -1.588   3.822  11.352  1.00  0.00     0.042 C 
BRANCH   2   3
HETATM    3  C5  UNL     1      -3.055   3.773  10.991  1.00  0.00    -0.027 C 
HETATM    4  C4  UNL     1      -3.876   2.772  11.356  1.00  0.00     0.006 C 
BRANCH   4   5
HETATM    5  C2  UNL     1      -5.357   2.641  11.078  1.00  0.00     0.068 C 
HETATM    6  C1  UNL     1      -5.780   1.179  11.246  1.00  0.00     0.050 C 
HETATM    7  C3  UNL     1      -6.257   3.547  11.920  1.00  0.00     0.050 C 
BRANCH   5   8
HETATM    8  O1  UNL     1      -5.540   2.990   9.707  1.00  0.00    -0.387 OA
HETATM    9  H7  UNL     1      -5.229   3.905   9.614  1.00  0.00     0.211 HD
ENDBRANCH   5   8
ENDBRANCH   4   5
ENDBRANCH   2   3
ENDBRANCH   1   2
BRANCH   1  10
HETATM   10  C8  UNL     1       0.020   5.523  12.191  1.00  0.00     0.266 C 
HETATM   11  O2  UNL     1       0.940   5.617  12.996  1.00  0.00    -0.265 OA
BRANCH  10  12
HETATM   12  O3  UNL     1       0.046   6.017  10.923  1.00  0.00    -0.287 OA
BRANCH  12  13
HETATM   13  C9  UNL     1       1.037   7.027  10.707  1.00  0.00     0.300 C 
HETATM   14  O4  UNL     1       0.653   7.858   9.589  1.00  0.00    -0.355 OA
HETATM   15  C10 UNL     1       1.144   7.364   8.342  1.00  0.00     0.205 C 
HETATM   16  C11 UNL     1       2.671   7.516   8.300  1.00  0.00     0.173 C 
HETATM   17  C12 UNL     1       3.301   7.352   9.699  1.00  0.00     0.182 C 
HETATM   18  C13 UNL     1       2.458   6.409  10.549  1.00  0.00     0.205 C 
BRANCH  16  19
HETATM   19  O5  UNL     1       3.040   8.820   7.814  1.00  0.00    -0.391 OA
HETATM   20  H17 UNL     1       2.469   9.469   8.268  1.00  0.00     0.210 HD
ENDBRANCH  16  19
BRANCH  17  21
HETATM   21  O6  UNL     1       4.630   6.821   9.566  1.00  0.00    -0.390 OA
HETATM   22  H19 UNL     1       5.093   7.412   8.943  1.00  0.00     0.210 HD
ENDBRANCH  17  21
BRANCH  18  23
HETATM   23  O7  UNL     1       2.426   5.127   9.883  1.00  0.00    -0.388 OA
HETATM   24  H21 UNL     1       3.362   4.851   9.830  1.00  0.00     0.210 HD
ENDBRANCH  18  23
ENDBRANCH  12  13
ENDBRANCH  10  12
ENDBRANCH   1  10
BRANCH   1  25
HETATM   25  C14 UNL     1      -2.395   5.854  12.841  1.00  0.00     0.009 C 
HETATM   26  C15 UNL     1      -3.646   5.342  13.601  1.00  0.00     0.007 C 
HETATM   27  C16 UNL     1      -4.138   6.503  14.498  1.00  0.00     0.015 C 
HETATM   28  C17 UNL     1      -3.375   7.745  13.994  1.00  0.00    -0.013 C 
HETATM   29  C18 UNL     1      -4.170   8.294  12.765  1.00  0.00     0.021 C 
HETATM   30  C19 UNL     1      -3.194   8.952  14.911  1.00  0.00    -0.068 C 
HETATM   31  C23 UNL     1      -1.977   7.107  13.668  1.00  0.00    -0.028 C 
HETATM   32  C20 UNL     1      -2.116   9.766  14.765  1.00  0.00    -0.068 C 
HETATM   33  C35 UNL     1      -4.302   9.208  15.900  1.00  0.00     0.036 C 
HETATM   34  C21 UNL     1      -1.012   9.451  13.745  1.00  0.00     0.036 C 
HETATM   35  C25 UNL     1      -1.918  11.029  15.648  1.00  0.00    -0.015 C 
HETATM   36  C22 UNL     1      -1.142   8.151  12.921  1.00  0.00     0.015 C 
HETATM   37  C26 UNL     1      -0.954  10.643  16.792  1.00  0.00     0.020 C 
HETATM   38  C27 UNL     1      -1.336  12.196  14.819  1.00  0.00     0.021 C 
HETATM   39  C33 UNL     1      -3.305  11.534  16.169  1.00  0.00     0.013 C 
HETATM   40  C28 UNL     1      -1.157  13.501  15.573  1.00  0.00     0.080 C 
HETATM   41  C29 UNL     1      -1.972  13.653  16.836  1.00  0.00     0.135 C 
HETATM   42  O8  UNL     1      -1.604  14.477  17.678  1.00  0.00    -0.297 OA
HETATM   43  C30 UNL     1      -3.273  12.860  17.009  1.00  0.00     0.018 C 
HETATM   44  C31 UNL     1      -4.402  13.796  16.524  1.00  0.00     0.023 C 
HETATM   45  C32 UNL     1      -3.476  12.624  18.523  1.00  0.00     0.023 C 
HETATM   46  C34 UNL     1      -4.074  10.387  16.844  1.00  0.00     0.011 C 
HETATM   47  C24 UNL     1      -1.180   6.670  14.937  1.00  0.00     0.016 C 
ENDBRANCH   1  25
TORSDOF 11
ENDMDL
MODEL 5
REMARK minimizedAffinity -7.70442247
REMARK CNNscore 0.262494296
REMARK CNNaffinity 6.45982361
REMARK  11 active torsions:
REMARK  status: ('A' for Active; 'I' for Inactive)
REMARK    1  A    between atoms: C2_2  and  O1_4 
REMARK    2  A    between atoms: C2_2  and  C4_5 
REMARK    3  A    between atoms: C5_6  and  C6_7 
REMARK    4  A    between atoms: C6_7  and  C7_8 
REMARK    5  A    between atoms: C7_8  and  C8_9 
REMARK    6  A    between atoms: C7_8  and  C14_21 
REMARK    7  A    between atoms: C8_9  and  O3_11 
REMARK    8  A    between atoms: O3_11  and  C9_12 
REMARK    9  A    between atoms: C11_15  and  O5_16 
REMARK   10  A    between atoms: C12_17  and  O6_18 
REMARK   11  A    between atoms: C13_19  and  O7_20 
ROOT
HETATM    1  C7  UNL     1       0.719  12.215  16.050  1.00  0.00     0.094 C 
ENDROOT
BRANCH   1   2
HETATM    2  C6  UNL     1       0.816  13.752  16.104  1.00  0.00     0.042 C 
BRANCH   2   3
HETATM    3  C5  UNL     1       0.505  14.399  14.773  1.00  0.00    -0.027 C 
HETATM    4  C4  UNL     1      -0.717  14.844  14.432  1.00  0.00     0.006 C 
BRANCH   4   5
HETATM    5  C2  UNL     1      -1.128  15.530  13.149  1.00  0.00     0.068 C 
HETATM    6  C1  UNL     1      -1.725  16.903  13.472  1.00  0.00     0.050 C 
HETATM    7  C3  UNL     1      -0.017  15.675  12.107  1.00  0.00     0.050 C 
BRANCH   5   8
HETATM    8  O1  UNL     1      -2.164  14.731  12.580  1.00  0.00    -0.387 OA
HETATM    9  H7  UNL     1      -1.776  13.855  12.419  1.00  0.00     0.211 HD
ENDBRANCH   5   8
ENDBRANCH   4   5
ENDBRANCH   2   3
ENDBRANCH   1   2
BRANCH   1  10
HETATM   10  C8  UNL     1       1.955  11.631  16.725  1.00  0.00     0.266 C 
HETATM   11  O2  UNL     1       2.091  11.560  17.941  1.00  0.00    -0.265 OA
BRANCH  10  12
HETATM   12  O3  UNL     1       2.868  11.191  15.815  1.00  0.00    -0.287 OA
BRANCH  12  13
HETATM   13  C9  UNL     1       3.082   9.775  15.838  1.00  0.00     0.300 C 
HETATM   14  O4  UNL     1       4.416   9.490  16.315  1.00  0.00    -0.355 OA
HETATM   15  C10 UNL     1       5.377   9.437  15.260  1.00  0.00     0.205 C 
HETATM   16  C11 UNL     1       5.113   8.198  14.392  1.00  0.00     0.173 C 
HETATM   17  C12 UNL     1       3.609   7.859  14.322  1.00  0.00     0.182 C 
HETATM   18  C13 UNL     1       2.776   9.128  14.454  1.00  0.00     0.205 C 
BRANCH  16  19
HETATM   19  O5  UNL     1       5.788   7.046  14.929  1.00  0.00    -0.391 OA
HETATM   20  H17 UNL     1       5.631   7.043  15.893  1.00  0.00     0.210 HD
ENDBRANCH  16  19
BRANCH  17  21
HETATM   21  O6  UNL     1       3.319   7.223  13.066  1.00  0.00    -0.390 OA
HETATM   22  H19 UNL     1       3.942   6.475  12.995  1.00  0.00     0.210 HD
ENDBRANCH  17  21
BRANCH  18  23
HETATM   23  O7  UNL     1       3.123   9.999  13.355  1.00  0.00    -0.388 OA
HETATM   24  H21 UNL     1       2.903   9.486  12.553  1.00  0.00     0.210 HD
ENDBRANCH  18  23
ENDBRANCH  12  13
ENDBRANCH  10  12
ENDBRANCH   1  10
BRANCH   1  25
HETATM   25  C14 UNL     1      -0.564  11.559  16.633  1.00  0.00     0.009 C 
HETATM   26  C15 UNL     1      -1.714  12.506  17.067  1.00  0.00     0.007 C 
HETATM   27  C16 UNL     1      -3.041  11.748  16.826  1.00  0.00     0.015 C 
HETATM   28  C17 UNL     1      -2.623  10.284  16.578  1.00  0.00    -0.013 C 
HETATM   29  C18 UNL     1      -2.445   9.623  17.985  1.00  0.00     0.021 C 
HETATM   30  C19 UNL     1      -3.556   9.342  15.821  1.00  0.00    -0.068 C 
HETATM   31  C23 UNL     1      -1.300  10.499  15.758  1.00  0.00    -0.028 C 
HETATM   32  C20 UNL     1      -3.047   8.306  15.106  1.00  0.00    -0.068 C 
HETATM   33  C35 UNL     1      -5.033   9.594  15.988  1.00  0.00     0.036 C 
HETATM   34  C21 UNL     1      -1.532   8.103  14.963  1.00  0.00     0.036 C 
HETATM   35  C25 UNL     1      -3.965   7.298  14.358  1.00  0.00    -0.015 C 
HETATM   36  C22 UNL     1      -0.601   9.144  15.621  1.00  0.00     0.015 C 
HETATM   37  C26 UNL     1      -4.031   7.748  12.881  1.00  0.00     0.020 C 
HETATM   38  C27 UNL     1      -3.408   5.861  14.463  1.00  0.00     0.021 C 
HETATM   39  C33 UNL     1      -5.372   7.255  15.042  1.00  0.00     0.013 C 
HETATM   40  C28 UNL     1      -4.260   4.786  13.815  1.00  0.00     0.080 C 
HETATM   41  C29 UNL     1      -5.710   5.142  13.581  1.00  0.00     0.135 C 
HETATM   42  O8  UNL     1      -6.345   4.502  12.738  1.00  0.00    -0.297 OA
HETATM   43  C30 UNL     1      -6.385   6.214  14.446  1.00  0.00     0.018 C 
HETATM   44  C31 UNL     1      -7.069   5.451  15.601  1.00  0.00     0.023 C 
HETATM   45  C32 UNL     1      -7.496   6.868  13.592  1.00  0.00     0.023 C 
HETATM   46  C34 UNL     1      -5.946   8.674  15.178  1.00  0.00     0.011 C 
HETATM   47  C24 UNL     1      -1.543  11.064  14.324  1.00  0.00     0.016 C 
ENDBRANCH   1  25
TORSDOF 11
ENDMDL
MODEL 6
REMARK minimizedAffinity -9.74035358
REMARK CNNscore 0.228068501
REMARK CNNaffinity 6.63347054
REMARK  11 active torsions:
REMARK  status: ('A' for Active; 'I' for Inactive)
REMARK    1  A    between atoms: C2_2  and  O1_4 
REMARK    2  A    between atoms: C2_2  and  C4_5 
REMARK    3  A    between atoms: C5_6  and  C6_7 
REMARK    4  A    between atoms: C6_7  and  C7_8 
REMARK    5  A    between atoms: C7_8  and  C8_9 
REMARK    6  A    between atoms: C7_8  and  C14_21 
REMARK    7  A    between atoms: C8_9  and  O3_11 
REMARK    8  A    between atoms: O3_11  and  C9_12 
REMARK    9  A    between atoms: C11_15  and  O5_16 
REMARK   10  A    between atoms: C12_17  and  O6_18 
REMARK   11  A    between atoms: C13_19  and  O7_20 
ROOT
HETATM    1  C7  UNL     1       2.082   9.366  14.265  1.00  0.00     0.094 C 
ENDROOT
BRANCH   1   2
HETATM    2  C6  UNL     1       1.133   9.864  15.373  1.00  0.00     0.042 C 
BRANCH   2   3
HETATM    3  C5  UNL     1       1.876  10.343  16.600  1.00  0.00    -0.027 C 
HETATM    4  C4  UNL     1       1.314  10.439  17.817  1.00  0.00     0.006 C 
BRANCH   4   5
HETATM    5  C2  UNL     1       1.971  10.873  19.109  1.00  0.00     0.068 C 
HETATM    6  C1  UNL     1       2.948  12.017  18.825  1.00  0.00     0.050 C 
HETATM    7  C3  UNL     1       1.004  11.275  20.224  1.00  0.00     0.050 C 
BRANCH   5   8
HETATM    8  O1  UNL     1       2.732   9.757  19.567  1.00  0.00    -0.387 OA
HETATM    9  H7  UNL     1       2.099   9.032  19.702  1.00  0.00     0.211 HD
ENDBRANCH   5   8
ENDBRANCH   4   5
ENDBRANCH   2   3
ENDBRANCH   1   2
BRANCH   1  10
HETATM   10  C8  UNL     1       3.155   8.494  14.906  1.00  0.00     0.266 C 
HETATM   11  O2  UNL     1       3.077   8.058  16.050  1.00  0.00    -0.265 OA
BRANCH  10  12
HETATM   12  O3  UNL     1       4.187   8.252  14.053  1.00  0.00    -0.287 OA
BRANCH  12  13
HETATM   13  C9  UNL     1       5.423   8.865  14.438  1.00  0.00     0.300 C 
HETATM   14  O4  UNL     1       6.032   9.501  13.292  1.00  0.00    -0.355 OA
HETATM   15  C10 UNL     1       6.899   8.624  12.572  1.00  0.00     0.205 C 
HETATM   16  C11 UNL     1       8.140   8.322  13.424  1.00  0.00     0.173 C 
HETATM   17  C12 UNL     1       7.808   8.301  14.931  1.00  0.00     0.182 C 
HETATM   18  C13 UNL     1       6.368   7.849  15.147  1.00  0.00     0.205 C 
BRANCH  16  19
HETATM   19  O5  UNL     1       9.152   9.326  13.223  1.00  0.00    -0.391 OA
HETATM   20  H17 UNL     1       8.707  10.194  13.250  1.00  0.00     0.210 HD
ENDBRANCH  16  19
BRANCH  17  21
HETATM   21  O6  UNL     1       8.700   7.398  15.606  1.00  0.00    -0.390 OA
HETATM   22  H19 UNL     1       9.602   7.679  15.358  1.00  0.00     0.210 HD
ENDBRANCH  17  21
BRANCH  18  23
HETATM   23  O7  UNL     1       6.240   6.515  14.608  1.00  0.00    -0.388 OA
HETATM   24  H21 UNL     1       6.882   5.980  15.114  1.00  0.00     0.210 HD
ENDBRANCH  18  23
ENDBRANCH  12  13
ENDBRANCH  10  12
ENDBRANCH   1  10
BRANCH   1  25
HETATM   25  C14 UNL     1       1.443   8.621  13.059  1.00  0.00     0.009 C 
HETATM   26  C15 UNL     1       2.362   7.684  12.232  1.00  0.00     0.007 C 
HETATM   27  C16 UNL     1       1.477   6.529  11.707  1.00  0.00     0.015 C 
HETATM   28  C17 UNL     1       0.027   6.994  11.956  1.00  0.00    -0.013 C 
HETATM   29  C18 UNL     1      -0.366   7.908  10.749  1.00  0.00     0.021 C 
HETATM   30  C19 UNL     1      -1.097   5.966  12.048  1.00  0.00    -0.068 C 
HETATM   31  C23 UNL     1       0.196   7.727  13.335  1.00  0.00    -0.028 C 
HETATM   32  C20 UNL     1      -2.201   6.226  12.796  1.00  0.00    -0.068 C 
HETATM   33  C35 UNL     1      -0.932   4.722  11.212  1.00  0.00     0.036 C 
HETATM   34  C21 UNL     1      -2.312   7.507  13.635  1.00  0.00     0.036 C 
HETATM   35  C25 UNL     1      -3.388   5.226  12.880  1.00  0.00    -0.015 C 
HETATM   36  C22 UNL     1      -1.106   8.472  13.639  1.00  0.00     0.015 C 
HETATM   37  C26 UNL     1      -3.207   4.407  14.177  1.00  0.00     0.020 C 
HETATM   38  C27 UNL     1      -4.740   5.974  12.895  1.00  0.00     0.021 C 
HETATM   39  C33 UNL     1      -3.417   4.330  11.597  1.00  0.00     0.013 C 
HETATM   40  C28 UNL     1      -5.971   5.087  12.917  1.00  0.00     0.080 C 
HETATM   41  C29 UNL     1      -5.770   3.664  12.453  1.00  0.00     0.135 C 
HETATM   42  O8  UNL     1      -6.592   2.810  12.799  1.00  0.00    -0.297 OA
HETATM   43  C30 UNL     1      -4.618   3.323  11.499  1.00  0.00     0.018 C 
HETATM   44  C31 UNL     1      -5.219   3.385  10.078  1.00  0.00     0.023 C 
HETATM   45  C32 UNL     1      -4.206   1.858  11.771  1.00  0.00     0.023 C 
HETATM   46  C34 UNL     1      -2.043   3.684  11.363  1.00  0.00     0.011 C 
HETATM   47  C24 UNL     1       0.485   6.757  14.524  1.00  0.00     0.016 C 
ENDBRANCH   1  25
TORSDOF 11
ENDMDL
MODEL 7
REMARK minimizedAffinity -9.92970085
REMARK CNNscore 0.20889844
REMARK CNNaffinity 7.51393318
REMARK  11 active torsions:
REMARK  status: ('A' for Active; 'I' for Inactive)
REMARK    1  A    between atoms: C2_2  and  O1_4 
REMARK    2  A    between atoms: C2_2  and  C4_5 
REMARK    3  A    between atoms: C5_6  and  C6_7 
REMARK    4  A    between atoms: C6_7  and  C7_8 
REMARK    5  A    between atoms: C7_8  and  C8_9 
REMARK    6  A    between atoms: C7_8  and  C14_21 
REMARK    7  A    between atoms: C8_9  and  O3_11 
REMARK    8  A    between atoms: O3_11  and  C9_12 
REMARK    9  A    between atoms: C11_15  and  O5_16 
REMARK   10  A    between atoms: C12_17  and  O6_18 
REMARK   11  A    between atoms: C13_19  and  O7_20 
ROOT
HETATM    1  C7  UNL     1      -4.105   5.731  14.511  1.00  0.00     0.094 C 
ENDROOT
BRANCH   1   2
HETATM    2  C6  UNL     1      -4.028   5.865  12.977  1.00  0.00     0.042 C 
BRANCH   2   3
HETATM    3  C5  UNL     1      -3.954   4.524  12.282  1.00  0.00    -0.027 C 
HETATM    4  C4  UNL     1      -5.037   3.789  11.971  1.00  0.00     0.006 C 
BRANCH   4   5
HETATM    5  C2  UNL     1      -5.078   2.460  11.253  1.00  0.00     0.068 C 
HETATM    6  C1  UNL     1      -3.809   1.666  11.574  1.00  0.00     0.050 C 
HETATM    7  C3  UNL     1      -6.316   1.607  11.538  1.00  0.00     0.050 C 
BRANCH   5   8
HETATM    8  O1  UNL     1      -5.061   2.757   9.857  1.00  0.00    -0.387 OA
HETATM    9  H7  UNL     1      -5.852   3.293   9.683  1.00  0.00     0.211 HD
ENDBRANCH   5   8
ENDBRANCH   4   5
ENDBRANCH   2   3
ENDBRANCH   1   2
BRANCH   1  10
HETATM   10  C8  UNL     1      -2.725   6.023  15.090  1.00  0.00     0.266 C 
HETATM   11  O2  UNL     1      -1.729   5.358  14.829  1.00  0.00    -0.265 OA
BRANCH  10  12
HETATM   12  O3  UNL     1      -2.739   7.112  15.906  1.00  0.00    -0.287 OA
BRANCH  12  13
HETATM   13  C9  UNL     1      -1.952   8.210  15.432  1.00  0.00     0.300 C 
HETATM   14  O4  UNL     1      -1.913   8.196  13.988  1.00  0.00    -0.355 OA
HETATM   15  C10 UNL     1      -0.824   7.427  13.474  1.00  0.00     0.205 C 
HETATM   16  C11 UNL     1       0.498   8.142  13.788  1.00  0.00     0.173 C 
HETATM   17  C12 UNL     1       0.428   8.912  15.124  1.00  0.00     0.182 C 
HETATM   18  C13 UNL     1      -0.535   8.220  16.081  1.00  0.00     0.205 C 
BRANCH  16  19
HETATM   19  O5  UNL     1       0.818   9.098  12.760  1.00  0.00    -0.391 OA
HETATM   20  H17 UNL     1      -0.001   9.591  12.560  1.00  0.00     0.210 HD
ENDBRANCH  16  19
BRANCH  17  21
HETATM   21  O6  UNL     1       1.736   8.966  15.716  1.00  0.00    -0.390 OA
HETATM   22  H19 UNL     1       2.326   9.331  15.028  1.00  0.00     0.210 HD
ENDBRANCH  17  21
BRANCH  18  23
HETATM   23  O7  UNL     1      -0.034   6.886  16.321  1.00  0.00    -0.388 OA
HETATM   24  H21 UNL     1       0.852   7.021  16.710  1.00  0.00     0.210 HD
ENDBRANCH  18  23
ENDBRANCH  12  13
ENDBRANCH  10  12
ENDBRANCH   1  10
BRANCH   1  25
HETATM   25  C14 UNL     1      -5.181   6.576  15.249  1.00  0.00     0.009 C 
HETATM   26  C15 UNL     1      -4.852   8.069  15.518  1.00  0.00     0.007 C 
HETATM   27  C16 UNL     1      -6.191   8.843  15.470  1.00  0.00     0.015 C 
HETATM   28  C17 UNL     1      -7.282   7.754  15.506  1.00  0.00    -0.013 C 
HETATM   29  C18 UNL     1      -7.496   7.382  17.010  1.00  0.00     0.021 C 
HETATM   30  C19 UNL     1      -8.681   8.058  14.978  1.00  0.00    -0.068 C 
HETATM   31  C23 UNL     1      -6.607   6.644  14.623  1.00  0.00    -0.028 C 
HETATM   32  C20 UNL     1      -9.452   7.062  14.469  1.00  0.00    -0.068 C 
HETATM   33  C35 UNL     1      -9.156   9.481  15.133  1.00  0.00     0.036 C 
HETATM   34  C21 UNL     1      -8.912   5.631  14.326  1.00  0.00     0.036 C 
HETATM   35  C25 UNL     1     -10.898   7.322  13.962  1.00  0.00    -0.015 C 
HETATM   36  C22 UNL     1      -7.447   5.369  14.738  1.00  0.00     0.015 C 
HETATM   37  C26 UNL     1     -10.823   7.489  12.428  1.00  0.00     0.020 C 
HETATM   38  C27 UNL     1     -11.832   6.149  14.335  1.00  0.00     0.021 C 
HETATM   39  C33 UNL     1     -11.492   8.579  14.680  1.00  0.00     0.013 C 
HETATM   40  C28 UNL     1     -13.286   6.328  13.937  1.00  0.00     0.080 C 
HETATM   41  C29 UNL     1     -13.733   7.747  13.679  1.00  0.00     0.135 C 
HETATM   42  O8  UNL     1     -14.746   7.931  12.998  1.00  0.00    -0.297 OA
HETATM   43  C30 UNL     1     -12.985   8.917  14.331  1.00  0.00     0.018 C 
HETATM   44  C31 UNL     1     -13.753   9.230  15.634  1.00  0.00     0.023 C 
HETATM   45  C32 UNL     1     -13.129  10.140  13.397  1.00  0.00     0.023 C 
HETATM   46  C34 UNL     1     -10.536   9.775  14.548  1.00  0.00     0.011 C 
HETATM   47  C24 UNL     1      -6.511   7.024  13.112  1.00  0.00     0.016 C 
ENDBRANCH   1  25
TORSDOF 11
ENDMDL
MODEL 8
REMARK minimizedAffinity -7.64446545
REMARK CNNscore 0.200791106
REMARK CNNaffinity 6.3427577
REMARK  11 active torsions:
REMARK  status: ('A' for Active; 'I' for Inactive)
REMARK    1  A    between atoms: C2_2  and  O1_4 
REMARK    2  A    between atoms: C2_2  and  C4_5 
REMARK    3  A    between atoms: C5_6  and  C6_7 
REMARK    4  A    between atoms: C6_7  and  C7_8 
REMARK    5  A    between atoms: C7_8  and  C8_9 
REMARK    6  A    between atoms: C7_8  and  C14_21 
REMARK    7  A    between atoms: C8_9  and  O3_11 
REMARK    8  A    between atoms: O3_11  and  C9_12 
REMARK    9  A    between atoms: C11_15  and  O5_16 
REMARK   10  A    between atoms: C12_17  and  O6_18 
REMARK   11  A    between atoms: C13_19  and  O7_20 
ROOT
HETATM    1  C7  UNL     1       1.597  11.041  16.490  1.00  0.00     0.094 C 
ENDROOT
BRANCH   1   2
HETATM    2  C6  UNL     1       2.190  12.288  17.175  1.00  0.00     0.042 C 
BRANCH   2   3
HETATM    3  C5  UNL     1       3.003  11.943  18.402  1.00  0.00    -0.027 C 
HETATM    4  C4  UNL     1       2.456  11.639  19.593  1.00  0.00     0.006 C 
BRANCH   4   5
HETATM    5  C2  UNL     1       3.171  11.251  20.868  1.00  0.00     0.068 C 
HETATM    6  C1  UNL     1       3.574  12.515  21.632  1.00  0.00     0.050 C 
HETATM    7  C3  UNL     1       2.390  10.310  21.787  1.00  0.00     0.050 C 
BRANCH   5   8
HETATM    8  O1  UNL     1       4.368  10.585  20.470  1.00  0.00    -0.387 OA
HETATM    9  H7  UNL     1       4.091   9.810  19.954  1.00  0.00     0.211 HD
ENDBRANCH   5   8
ENDBRANCH   4   5
ENDBRANCH   2   3
ENDBRANCH   1   2
BRANCH   1  10
HETATM   10  C8  UNL     1       2.586   9.891  16.645  1.00  0.00     0.266 C 
HETATM   11  O2  UNL     1       2.503   9.044  17.527  1.00  0.00    -0.265 OA
BRANCH  10  12
HETATM   12  O3  UNL     1       3.546   9.916  15.680  1.00  0.00    -0.287 OA
BRANCH  12  13
HETATM   13  C9  UNL     1       3.611   8.726  14.887  1.00  0.00     0.300 C 
HETATM   14  O4  UNL     1       4.635   7.848  15.404  1.00  0.00    -0.355 OA
HETATM   15  C10 UNL     1       5.916   8.092  14.820  1.00  0.00     0.205 C 
HETATM   16  C11 UNL     1       5.893   7.666  13.345  1.00  0.00     0.173 C 
HETATM   17  C12 UNL     1       4.503   7.883  12.709  1.00  0.00     0.182 C 
HETATM   18  C13 UNL     1       3.797   9.057  13.375  1.00  0.00     0.205 C 
BRANCH  16  19
HETATM   19  O5  UNL     1       6.210   6.268  13.214  1.00  0.00    -0.391 OA
HETATM   20  H17 UNL     1       5.701   5.791  13.897  1.00  0.00     0.210 HD
ENDBRANCH  16  19
BRANCH  17  21
HETATM   21  O6  UNL     1       4.656   8.148  11.305  1.00  0.00    -0.390 OA
HETATM   22  H19 UNL     1       5.191   7.413  10.950  1.00  0.00     0.210 HD
ENDBRANCH  17  21
BRANCH  18  23
HETATM   23  O7  UNL     1       4.609  10.234  13.168  1.00  0.00    -0.388 OA
HETATM   24  H21 UNL     1       4.664  10.329  12.198  1.00  0.00     0.210 HD
ENDBRANCH  18  23
ENDBRANCH  12  13
ENDBRANCH  10  12
ENDBRANCH   1  10
BRANCH   1  25
HETATM   25  C14 UNL     1       0.179  10.587  16.937  1.00  0.00     0.009 C 
HETATM   26  C15 UNL     1      -0.857  11.698  17.253  1.00  0.00     0.007 C 
HETATM   27  C16 UNL     1      -2.249  11.139  16.876  1.00  0.00     0.015 C 
HETATM   28  C17 UNL     1      -2.028   9.627  16.669  1.00  0.00    -0.013 C 
HETATM   29  C18 UNL     1      -2.093   8.965  18.084  1.00  0.00     0.021 C 
HETATM   30  C19 UNL     1      -3.008   8.823  15.818  1.00  0.00    -0.068 C 
HETATM   31  C23 UNL     1      -0.612   9.636  15.989  1.00  0.00    -0.028 C 
HETATM   32  C20 UNL     1      -2.587   7.714  15.155  1.00  0.00    -0.068 C 
HETATM   33  C35 UNL     1      -4.441   9.289  15.834  1.00  0.00     0.036 C 
HETATM   34  C21 UNL     1      -1.111   7.290  15.168  1.00  0.00     0.036 C 
HETATM   35  C25 UNL     1      -3.562   6.842  14.315  1.00  0.00    -0.015 C 
HETATM   36  C22 UNL     1      -0.109   8.192  15.920  1.00  0.00     0.015 C 
HETATM   37  C26 UNL     1      -3.412   7.278  12.840  1.00  0.00     0.020 C 
HETATM   38  C27 UNL     1      -3.236   5.340  14.473  1.00  0.00     0.021 C 
HETATM   39  C33 UNL     1      -5.022   7.014  14.852  1.00  0.00     0.013 C 
HETATM   40  C28 UNL     1      -4.167   4.394  13.738  1.00  0.00     0.080 C 
HETATM   41  C29 UNL     1      -5.517   4.955  13.359  1.00  0.00     0.135 C 
HETATM   42  O8  UNL     1      -6.151   4.404  12.454  1.00  0.00    -0.297 OA
HETATM   43  C30 UNL     1      -6.111   6.125  14.153  1.00  0.00     0.018 C 
HETATM   44  C31 UNL     1      -7.014   5.485  15.230  1.00  0.00     0.023 C 
HETATM   45  C32 UNL     1      -7.022   6.924  13.192  1.00  0.00     0.023 C 
HETATM   46  C34 UNL     1      -5.393   8.504  14.932  1.00  0.00     0.011 C 
HETATM   47  C24 UNL     1      -0.622  10.212  14.538  1.00  0.00     0.016 C 
ENDBRANCH   1  25
TORSDOF 11
ENDMDL
MODEL 9
REMARK minimizedAffinity -8.80464363
REMARK CNNscore 0.176702693
REMARK CNNaffinity 6.13935089
REMARK  11 active torsions:
REMARK  status: ('A' for Active; 'I' for Inactive)
REMARK    1  A    between atoms: C2_2  and  O1_4 
REMARK    2  A    between atoms: C2_2  and  C4_5 
REMARK    3  A    between atoms: C5_6  and  C6_7 
REMARK    4  A    between atoms: C6_7  and  C7_8 
REMARK    5  A    between atoms: C7_8  and  C8_9 
REMARK    6  A    between atoms: C7_8  and  C14_21 
REMARK    7  A    between atoms: C8_9  and  O3_11 
REMARK    8  A    between atoms: O3_11  and  C9_12 
REMARK    9  A    between atoms: C11_15  and  O5_16 
REMARK   10  A    between atoms: C12_17  and  O6_18 
REMARK   11  A    between atoms: C13_19  and  O7_20 
ROOT
HETATM    1  C7  UNL     1      -1.042   7.340  13.957  1.00  0.00     0.094 C 
ENDROOT
BRANCH   1   2
HETATM    2  C6  UNL     1      -2.225   7.681  13.029  1.00  0.00     0.042 C 
BRANCH   2   3
HETATM    3  C5  UNL     1      -3.370   6.703  13.167  1.00  0.00    -0.027 C 
HETATM    4  C4  UNL     1      -4.513   6.986  13.816  1.00  0.00     0.006 C 
BRANCH   4   5
HETATM    5  C2  UNL     1      -5.726   6.098  13.985  1.00  0.00     0.068 C 
HETATM    6  C1  UNL     1      -5.454   4.735  13.342  1.00  0.00     0.050 C 
HETATM    7  C3  UNL     1      -6.196   5.912  15.429  1.00  0.00     0.050 C 
BRANCH   5   8
HETATM    8  O1  UNL     1      -6.782   6.719  13.254  1.00  0.00    -0.387 OA
HETATM    9  H7  UNL     1      -6.911   7.596  13.652  1.00  0.00     0.211 HD
ENDBRANCH   5   8
ENDBRANCH   4   5
ENDBRANCH   2   3
ENDBRANCH   1   2
BRANCH   1  10
HETATM   10  C8  UNL     1       0.089   6.775  13.107  1.00  0.00     0.266 C 
HETATM   11  O2  UNL     1       0.993   6.082  13.560  1.00  0.00    -0.265 OA
BRANCH  10  12
HETATM   12  O3  UNL     1      -0.042   7.119  11.797  1.00  0.00    -0.287 OA
BRANCH  12  13
HETATM   13  C9  UNL     1       1.158   7.623  11.200  1.00  0.00     0.300 C 
HETATM   14  O4  UNL     1       0.832   8.652  10.240  1.00  0.00    -0.355 OA
HETATM   15  C10 UNL     1       0.612   8.131   8.928  1.00  0.00     0.205 C 
HETATM   16  C11 UNL     1       1.940   7.617   8.355  1.00  0.00     0.173 C 
HETATM   17  C12 UNL     1       2.858   7.050   9.458  1.00  0.00     0.182 C 
HETATM   18  C13 UNL     1       2.021   6.475  10.595  1.00  0.00     0.205 C 
BRANCH  16  19
HETATM   19  O5  UNL     1       2.659   8.680   7.703  1.00  0.00    -0.391 OA
HETATM   20  H17 UNL     1       2.618   9.458   8.291  1.00  0.00     0.210 HD
ENDBRANCH  16  19
BRANCH  17  21
HETATM   21  O6  UNL     1       3.690   6.017   8.905  1.00  0.00    -0.390 OA
HETATM   22  H19 UNL     1       4.130   6.415   8.130  1.00  0.00     0.210 HD
ENDBRANCH  17  21
BRANCH  18  23
HETATM   23  O7  UNL     1       1.211   5.410  10.050  1.00  0.00    -0.388 OA
HETATM   24  H21 UNL     1       1.854   4.767   9.693  1.00  0.00     0.210 HD
ENDBRANCH  18  23
ENDBRANCH  12  13
ENDBRANCH  10  12
ENDBRANCH   1  10
BRANCH   1  25
HETATM   25  C14 UNL     1      -0.503   8.475  14.873  1.00  0.00     0.009 C 
HETATM   26  C15 UNL     1       0.565   9.427  14.274  1.00  0.00     0.007 C 
HETATM   27  C16 UNL     1       0.355  10.813  14.929  1.00  0.00     0.015 C 
HETATM   28  C17 UNL     1      -0.594  10.552  16.117  1.00  0.00    -0.013 C 
HETATM   29  C18 UNL     1       0.298  10.071  17.308  1.00  0.00     0.021 C 
HETATM   30  C19 UNL     1      -1.428  11.694  16.692  1.00  0.00    -0.068 C 
HETATM   31  C23 UNL     1      -1.538   9.462  15.493  1.00  0.00    -0.028 C 
HETATM   32  C20 UNL     1      -2.621  11.436  17.288  1.00  0.00    -0.068 C 
HETATM   33  C35 UNL     1      -0.811  13.068  16.623  1.00  0.00     0.036 C 
HETATM   34  C21 UNL     1      -3.205  10.016  17.321  1.00  0.00     0.036 C 
HETATM   35  C25 UNL     1      -3.479  12.564  17.925  1.00  0.00    -0.015 C 
HETATM   36  C22 UNL     1      -2.414   8.895  16.613  1.00  0.00     0.015 C 
HETATM   37  C26 UNL     1      -4.551  12.968  16.888  1.00  0.00     0.020 C 
HETATM   38  C27 UNL     1      -4.145  12.080  19.232  1.00  0.00     0.021 C 
HETATM   39  C33 UNL     1      -2.558  13.760  18.340  1.00  0.00     0.013 C 
HETATM   40  C28 UNL     1      -4.961  13.125  19.970  1.00  0.00     0.080 C 
HETATM   41  C29 UNL     1      -4.654  14.565  19.633  1.00  0.00     0.135 C 
HETATM   42  O8  UNL     1      -5.505  15.423  19.882  1.00  0.00    -0.297 OA
HETATM   43  C30 UNL     1      -3.275  14.945  19.078  1.00  0.00     0.018 C 
HETATM   44  C31 UNL     1      -2.433  15.365  20.303  1.00  0.00     0.023 C 
HETATM   45  C32 UNL     1      -3.460  16.194  18.186  1.00  0.00     0.023 C 
HETATM   46  C34 UNL     1      -1.686  14.202  17.154  1.00  0.00     0.011 C 
HETATM   47  C24 UNL     1      -2.480  10.019  14.380  1.00  0.00     0.016 C 
ENDBRANCH   1  25
TORSDOF 11
ENDMDL
