MODEL 1
REMARK minimizedAffinity -10.2506361
REMARK  6 active torsions:
REMARK  status: ('A' for Active; 'I' for Inactive)
REMARK    1  A    between atoms: C2_2  and  C30_31 
REMARK    2  A    between atoms: C3_3  and  C4_4 
REMARK    3  A    between atoms: C4_4  and  C5_5 
REMARK    4  A    between atoms: C5_5  and  C6_6 
REMARK    5  A    between atoms: C6_6  and  C8_8 
REMARK    6  A    between atoms: C30_31  and  O3_33 
ROOT
HETATM    1  C8  UNL     1      -0.821  52.356 -21.915  1.00  0.00    -0.002 C 
HETATM    2  C9  UNL     1       0.688  52.717 -22.099  1.00  0.00     0.007 C 
HETATM    3  C10 UNL     1       1.376  52.539 -20.726  1.00  0.00     0.015 C 
HETATM    4  C11 UNL     1       0.214  52.408 -19.727  1.00  0.00    -0.013 C 
HETATM    5  C12 UNL     1      -0.269  53.872 -19.423  1.00  0.00     0.021 C 
HETATM    6  C13 UNL     1       0.480  51.775 -18.354  1.00  0.00    -0.070 C 
HETATM    7  C14 UNL     1       1.530  52.172 -17.619  1.00  0.00    -0.022 C 
HETATM    8  C15 UNL     1       1.676  51.898 -16.160  1.00  0.00     0.034 C 
HETATM    9  C16 UNL     1       0.329  51.577 -15.458  1.00  0.00     0.013 C 
HETATM   10  C17 UNL     1       0.517  51.259 -13.923  1.00  0.00     0.018 C 
HETATM   11  C18 UNL     1      -0.644  51.879 -13.111  1.00  0.00     0.023 C 
HETATM   12  C19 UNL     1       1.817  51.819 -13.310  1.00  0.00     0.023 C 
HETATM   13  C20 UNL     1       0.553  49.742 -13.693  1.00  0.00     0.135 C 
HETATM   14  O1  UNL     1       0.241  49.238 -12.613  1.00  0.00    -0.297 OA
HETATM   15  C21 UNL     1       1.086  48.879 -14.812  1.00  0.00     0.080 C 
HETATM   16  C22 UNL     1       0.430  49.151 -16.165  1.00  0.00     0.017 C 
HETATM   17  C23 UNL     1      -0.430  50.455 -16.253  1.00  0.00    -0.031 C 
HETATM   18  C24 UNL     1      -1.817  50.124 -15.649  1.00  0.00     0.016 C 
HETATM   19  C25 UNL     1      -0.601  50.841 -17.793  1.00  0.00     0.024 C 
HETATM   20  C26 UNL     1      -1.990  51.353 -18.249  1.00  0.00     0.010 C 
HETATM   21  C27 UNL     1      -2.141  51.506 -19.789  1.00  0.00     0.011 C 
HETATM   22  C28 UNL     1      -0.805  51.561 -20.567  1.00  0.00    -0.029 C 
HETATM   23  C29 UNL     1      -0.303  50.113 -20.885  1.00  0.00     0.016 C 
ENDROOT
BRANCH   1  24
HETATM   24  C6  UNL     1      -1.441  51.706 -23.185  1.00  0.00    -0.014 C 
HETATM   25  C7  UNL     1      -2.798  51.053 -22.903  1.00  0.00     0.010 C 
BRANCH  24  26
HETATM   26  C5  UNL     1      -1.564  52.696 -24.373  1.00  0.00     0.008 C 
BRANCH  26  27
HETATM   27  C4  UNL     1      -1.187  52.126 -25.746  1.00  0.00     0.028 C 
BRANCH  27  28
HETATM   28  C3  UNL     1       0.286  51.818 -25.805  1.00  0.00    -0.013 C 
HETATM   29  C2  UNL     1       1.066  51.691 -26.899  1.00  0.00     0.008 C 
HETATM   30  C1  UNL     1       0.628  51.839 -28.327  1.00  0.00     0.055 C 
BRANCH  29  31
HETATM   31  C30 UNL     1       2.500  51.382 -26.652  1.00  0.00     0.171 C 
HETATM   32  O2  UNL     1       2.948  50.608 -25.825  1.00  0.00    -0.646 OA
BRANCH  31  33
HETATM   33  O3  UNL     1       3.318  52.070 -27.465  1.00  0.00    -0.773 OA
HETATM   34  H46 UNL     1       4.210  51.772 -27.192  1.00  0.00     0.167 HD
ENDBRANCH  31  33
ENDBRANCH  29  31
ENDBRANCH  27  28
ENDBRANCH  26  27
ENDBRANCH  24  26
ENDBRANCH   1  24
TORSDOF 6
ENDMDL
MODEL 2
REMARK minimizedAffinity -9.78513813
REMARK  6 active torsions:
REMARK  status: ('A' for Active; 'I' for Inactive)
REMARK    1  A    between atoms: C2_2  and  C30_31 
REMARK    2  A    between atoms: C3_3  and  C4_4 
REMARK    3  A    between atoms: C4_4  and  C5_5 
REMARK    4  A    between atoms: C5_5  and  C6_6 
REMARK    5  A    between atoms: C6_6  and  C8_8 
REMARK    6  A    between atoms: C30_31  and  O3_33 
ROOT
HETATM    1  C8  UNL     1      -0.670  52.353 -21.942  1.00  0.00    -0.002 C 
HETATM    2  C9  UNL     1       0.837  52.756 -22.023  1.00  0.00     0.007 C 
HETATM    3  C10 UNL     1       1.435  52.595 -20.606  1.00  0.00     0.015 C 
HETATM    4  C11 UNL     1       0.211  52.431 -19.688  1.00  0.00    -0.013 C 
HETATM    5  C12 UNL     1      -0.332  53.880 -19.418  1.00  0.00     0.021 C 
HETATM    6  C13 UNL     1       0.402  51.803 -18.300  1.00  0.00    -0.070 C 
HETATM    7  C14 UNL     1       1.387  52.228 -17.495  1.00  0.00    -0.022 C 
HETATM    8  C15 UNL     1       1.441  51.956 -16.030  1.00  0.00     0.034 C 
HETATM    9  C16 UNL     1       0.059  51.596 -15.421  1.00  0.00     0.013 C 
HETATM   10  C17 UNL     1       0.151  51.281 -13.877  1.00  0.00     0.018 C 
HETATM   11  C18 UNL     1      -1.079  51.868 -13.146  1.00  0.00     0.023 C 
HETATM   12  C19 UNL     1       1.390  51.876 -13.177  1.00  0.00     0.023 C 
HETATM   13  C20 UNL     1       0.214  49.766 -13.644  1.00  0.00     0.135 C 
HETATM   14  O1  UNL     1      -0.157  49.251 -12.588  1.00  0.00    -0.297 OA
HETATM   15  C21 UNL     1       0.845  48.920 -14.724  1.00  0.00     0.080 C 
HETATM   16  C22 UNL     1       0.276  49.175 -16.119  1.00  0.00     0.017 C 
HETATM   17  C23 UNL     1      -0.612  50.455 -16.266  1.00  0.00    -0.031 C 
HETATM   18  C24 UNL     1      -2.028  50.084 -15.757  1.00  0.00     0.016 C 
HETATM   19  C25 UNL     1      -0.689  50.839 -17.814  1.00  0.00     0.024 C 
HETATM   20  C26 UNL     1      -2.057  51.312 -18.364  1.00  0.00     0.010 C 
HETATM   21  C27 UNL     1      -2.108  51.463 -19.910  1.00  0.00     0.011 C 
HETATM   22  C28 UNL     1      -0.724  51.557 -20.595  1.00  0.00    -0.029 C 
HETATM   23  C29 UNL     1      -0.161  50.124 -20.878  1.00  0.00     0.016 C 
ENDROOT
BRANCH   1  24
HETATM   24  C6  UNL     1      -1.184  51.688 -23.250  1.00  0.00    -0.014 C 
HETATM   25  C7  UNL     1      -0.195  51.837 -24.410  1.00  0.00     0.010 C 
BRANCH  24  26
HETATM   26  C5  UNL     1      -1.563  50.195 -23.063  1.00  0.00     0.008 C 
BRANCH  26  27
HETATM   27  C4  UNL     1      -2.698  49.687 -23.960  1.00  0.00     0.028 C 
BRANCH  27  28
HETATM   28  C3  UNL     1      -2.704  50.422 -25.274  1.00  0.00    -0.013 C 
HETATM   29  C2  UNL     1      -3.054  49.952 -26.489  1.00  0.00     0.008 C 
HETATM   30  C1  UNL     1      -3.531  48.564 -26.803  1.00  0.00     0.055 C 
BRANCH  29  31
HETATM   31  C30 UNL     1      -2.962  50.915 -27.620  1.00  0.00     0.171 C 
HETATM   32  O2  UNL     1      -2.509  52.045 -27.580  1.00  0.00    -0.646 OA
BRANCH  31  33
HETATM   33  O3  UNL     1      -3.450  50.409 -28.763  1.00  0.00    -0.773 OA
HETATM   34  H46 UNL     1      -3.327  51.139 -29.404  1.00  0.00     0.167 HD
ENDBRANCH  31  33
ENDBRANCH  29  31
ENDBRANCH  27  28
ENDBRANCH  26  27
ENDBRANCH  24  26
ENDBRANCH   1  24
TORSDOF 6
ENDMDL
MODEL 3
REMARK minimizedAffinity -9.40153027
REMARK  6 active torsions:
REMARK  status: ('A' for Active; 'I' for Inactive)
REMARK    1  A    between atoms: C2_2  and  C30_31 
REMARK    2  A    between atoms: C3_3  and  C4_4 
REMARK    3  A    between atoms: C4_4  and  C5_5 
REMARK    4  A    between atoms: C5_5  and  C6_6 
REMARK    5  A    between atoms: C6_6  and  C8_8 
REMARK    6  A    between atoms: C30_31  and  O3_33 
ROOT
HETATM    1  C8  UNL     1      -2.008  49.728 -23.411  1.00  0.00    -0.002 C 
HETATM    2  C9  UNL     1      -3.244  48.774 -23.362  1.00  0.00     0.007 C 
HETATM    3  C10 UNL     1      -3.457  48.371 -21.884  1.00  0.00     0.015 C 
HETATM    4  C11 UNL     1      -2.168  48.818 -21.173  1.00  0.00    -0.013 C 
HETATM    5  C12 UNL     1      -1.104  47.695 -21.446  1.00  0.00     0.021 C 
HETATM    6  C13 UNL     1      -2.184  49.001 -19.650  1.00  0.00    -0.070 C 
HETATM    7  C14 UNL     1      -2.706  48.050 -18.860  1.00  0.00    -0.022 C 
HETATM    8  C15 UNL     1      -2.455  47.956 -17.393  1.00  0.00     0.034 C 
HETATM    9  C16 UNL     1      -1.174  48.708 -16.939  1.00  0.00     0.013 C 
HETATM   10  C17 UNL     1      -0.952  48.620 -15.379  1.00  0.00     0.018 C 
HETATM   11  C18 UNL     1       0.554  48.443 -15.071  1.00  0.00     0.023 C 
HETATM   12  C19 UNL     1      -1.670  47.437 -14.698  1.00  0.00     0.023 C 
HETATM   13  C20 UNL     1      -1.472  49.889 -14.693  1.00  0.00     0.135 C 
HETATM   14  O1  UNL     1      -1.034  50.271 -13.606  1.00  0.00    -0.297 OA
HETATM   15  C21 UNL     1      -2.623  50.615 -15.348  1.00  0.00     0.080 C 
HETATM   16  C22 UNL     1      -2.397  50.919 -16.828  1.00  0.00     0.017 C 
HETATM   17  C23 UNL     1      -1.194  50.175 -17.499  1.00  0.00    -0.031 C 
HETATM   18  C24 UNL     1       0.085  50.972 -17.141  1.00  0.00     0.016 C 
HETATM   19  C25 UNL     1      -1.408  50.197 -19.081  1.00  0.00     0.024 C 
HETATM   20  C26 UNL     1      -0.162  50.452 -19.965  1.00  0.00     0.010 C 
HETATM   21  C27 UNL     1      -0.480  50.669 -21.471  1.00  0.00     0.011 C 
HETATM   22  C28 UNL     1      -1.875  50.169 -21.915  1.00  0.00    -0.029 C 
HETATM   23  C29 UNL     1      -2.954  51.273 -21.656  1.00  0.00     0.016 C 
ENDROOT
BRANCH   1  24
HETATM   24  C6  UNL     1      -2.128  50.808 -24.524  1.00  0.00    -0.014 C 
HETATM   25  C7  UNL     1      -3.575  51.016 -24.984  1.00  0.00     0.010 C 
BRANCH  24  26
HETATM   26  C5  UNL     1      -1.498  52.167 -24.120  1.00  0.00     0.008 C 
BRANCH  26  27
HETATM   27  C4  UNL     1      -0.810  52.937 -25.254  1.00  0.00     0.028 C 
BRANCH  27  28
HETATM   28  C3  UNL     1       0.571  52.390 -25.504  1.00  0.00    -0.013 C 
HETATM   29  C2  UNL     1       1.082  51.918 -26.660  1.00  0.00     0.008 C 
HETATM   30  C1  UNL     1       0.374  51.840 -27.981  1.00  0.00     0.055 C 
BRANCH  29  31
HETATM   31  C30 UNL     1       2.490  51.439 -26.610  1.00  0.00     0.171 C 
HETATM   32  O2  UNL     1       2.923  50.517 -25.942  1.00  0.00    -0.646 OA
BRANCH  31  33
HETATM   33  O3  UNL     1       3.301  52.149 -27.410  1.00  0.00    -0.773 OA
HETATM   34  H46 UNL     1       4.175  51.729 -27.275  1.00  0.00     0.167 HD
ENDBRANCH  31  33
ENDBRANCH  29  31
ENDBRANCH  27  28
ENDBRANCH  26  27
ENDBRANCH  24  26
ENDBRANCH   1  24
TORSDOF 6
ENDMDL
MODEL 4
REMARK minimizedAffinity -9.36821556
REMARK  6 active torsions:
REMARK  status: ('A' for Active; 'I' for Inactive)
REMARK    1  A    between atoms: C2_2  and  C30_31 
REMARK    2  A    between atoms: C3_3  and  C4_4 
REMARK    3  A    between atoms: C4_4  and  C5_5 
REMARK    4  A    between atoms: C5_5  and  C6_6 
REMARK    5  A    between atoms: C6_6  and  C8_8 
REMARK    6  A    between atoms: C30_31  and  O3_33 
ROOT
HETATM    1  C8  UNL     1      -1.048  51.200 -26.318  1.00  0.00    -0.002 C 
HETATM    2  C9  UNL     1      -1.922  51.193 -27.612  1.00  0.00     0.007 C 
HETATM    3  C10 UNL     1      -3.250  50.480 -27.268  1.00  0.00     0.015 C 
HETATM    4  C11 UNL     1      -2.986  49.808 -25.910  1.00  0.00    -0.013 C 
HETATM    5  C12 UNL     1      -2.218  48.473 -26.223  1.00  0.00     0.021 C 
HETATM    6  C13 UNL     1      -4.181  49.395 -25.039  1.00  0.00    -0.070 C 
HETATM    7  C14 UNL     1      -5.203  48.709 -25.575  1.00  0.00    -0.022 C 
HETATM    8  C15 UNL     1      -6.214  47.960 -24.775  1.00  0.00     0.034 C 
HETATM    9  C16 UNL     1      -5.726  47.610 -23.343  1.00  0.00     0.013 C 
HETATM   10  C17 UNL     1      -6.827  46.848 -22.507  1.00  0.00     0.018 C 
HETATM   11  C18 UNL     1      -6.166  45.741 -21.652  1.00  0.00     0.023 C 
HETATM   12  C19 UNL     1      -7.903  46.145 -23.360  1.00  0.00     0.023 C 
HETATM   13  C20 UNL     1      -7.576  47.826 -21.593  1.00  0.00     0.135 C 
HETATM   14  O1  UNL     1      -8.132  47.458 -20.557  1.00  0.00    -0.297 OA
HETATM   15  C21 UNL     1      -7.700  49.258 -22.057  1.00  0.00     0.080 C 
HETATM   16  C22 UNL     1      -6.370  49.892 -22.462  1.00  0.00     0.017 C 
HETATM   17  C23 UNL     1      -5.172  48.901 -22.640  1.00  0.00    -0.031 C 
HETATM   18  C24 UNL     1      -4.605  48.618 -21.226  1.00  0.00     0.016 C 
HETATM   19  C25 UNL     1      -4.054  49.617 -23.526  1.00  0.00     0.024 C 
HETATM   20  C26 UNL     1      -2.576  49.411 -23.113  1.00  0.00     0.010 C 
HETATM   21  C27 UNL     1      -1.564  50.303 -23.886  1.00  0.00     0.011 C 
HETATM   22  C28 UNL     1      -2.107  50.900 -25.205  1.00  0.00    -0.029 C 
HETATM   23  C29 UNL     1      -2.875  52.234 -24.921  1.00  0.00     0.016 C 
ENDROOT
BRANCH   1  24
HETATM   24  C6  UNL     1      -0.152  52.467 -26.206  1.00  0.00    -0.014 C 
HETATM   25  C7  UNL     1      -0.224  53.347 -27.458  1.00  0.00     0.010 C 
BRANCH  24  26
HETATM   26  C5  UNL     1      -0.456  53.314 -24.942  1.00  0.00     0.008 C 
BRANCH  26  27
HETATM   27  C4  UNL     1       0.677  53.387 -23.911  1.00  0.00     0.028 C 
BRANCH  27  28
HETATM   28  C3  UNL     1       0.315  52.614 -22.671  1.00  0.00    -0.013 C 
HETATM   29  C2  UNL     1       0.618  52.908 -21.389  1.00  0.00     0.008 C 
HETATM   30  C1  UNL     1       1.394  54.099 -20.908  1.00  0.00     0.055 C 
BRANCH  29  31
HETATM   31  C30 UNL     1       0.122  51.954 -20.360  1.00  0.00     0.171 C 
HETATM   32  O2  UNL     1      -0.033  50.753 -20.492  1.00  0.00    -0.646 OA
BRANCH  31  33
HETATM   33  O3  UNL     1      -0.163  52.560 -19.197  1.00  0.00    -0.773 OA
HETATM   34  H46 UNL     1      -0.472  51.825 -18.629  1.00  0.00     0.167 HD
ENDBRANCH  31  33
ENDBRANCH  29  31
ENDBRANCH  27  28
ENDBRANCH  26  27
ENDBRANCH  24  26
ENDBRANCH   1  24
TORSDOF 6
ENDMDL
MODEL 5
REMARK minimizedAffinity -9.24511147
REMARK  6 active torsions:
REMARK  status: ('A' for Active; 'I' for Inactive)
REMARK    1  A    between atoms: C2_2  and  C30_31 
REMARK    2  A    between atoms: C3_3  and  C4_4 
REMARK    3  A    between atoms: C4_4  and  C5_5 
REMARK    4  A    between atoms: C5_5  and  C6_6 
REMARK    5  A    between atoms: C6_6  and  C8_8 
REMARK    6  A    between atoms: C30_31  and  O3_33 
ROOT
HETATM    1  C8  UNL     1      -1.059  51.267 -21.121  1.00  0.00    -0.002 C 
HETATM    2  C9  UNL     1      -0.226  49.945 -21.118  1.00  0.00     0.007 C 
HETATM    3  C10 UNL     1      -1.211  48.778 -21.361  1.00  0.00     0.015 C 
HETATM    4  C11 UNL     1      -2.603  49.403 -21.167  1.00  0.00    -0.013 C 
HETATM    5  C12 UNL     1      -2.854  49.442 -19.617  1.00  0.00     0.021 C 
HETATM    6  C13 UNL     1      -3.827  48.690 -21.759  1.00  0.00    -0.070 C 
HETATM    7  C14 UNL     1      -4.004  47.374 -21.562  1.00  0.00    -0.022 C 
HETATM    8  C15 UNL     1      -5.300  46.667 -21.772  1.00  0.00     0.034 C 
HETATM    9  C16 UNL     1      -6.529  47.617 -21.740  1.00  0.00     0.013 C 
HETATM   10  C17 UNL     1      -7.883  46.848 -21.998  1.00  0.00     0.018 C 
HETATM   11  C18 UNL     1      -8.994  47.419 -21.085  1.00  0.00     0.023 C 
HETATM   12  C19 UNL     1      -7.823  45.335 -21.706  1.00  0.00     0.023 C 
HETATM   13  C20 UNL     1      -8.304  46.985 -23.467  1.00  0.00     0.135 C 
HETATM   14  O1  UNL     1      -9.480  46.887 -23.822  1.00  0.00    -0.297 OA
HETATM   15  C21 UNL     1      -7.208  47.145 -24.494  1.00  0.00     0.080 C 
HETATM   16  C22 UNL     1      -6.215  48.259 -24.166  1.00  0.00     0.017 C 
HETATM   17  C23 UNL     1      -6.289  48.828 -22.711  1.00  0.00    -0.031 C 
HETATM   18  C24 UNL     1      -7.447  49.856 -22.686  1.00  0.00     0.016 C 
HETATM   19  C25 UNL     1      -4.912  49.572 -22.391  1.00  0.00     0.024 C 
HETATM   20  C26 UNL     1      -4.989  50.907 -21.611  1.00  0.00     0.010 C 
HETATM   21  C27 UNL     1      -3.640  51.675 -21.523  1.00  0.00     0.011 C 
HETATM   22  C28 UNL     1      -2.387  50.815 -21.815  1.00  0.00    -0.029 C 
HETATM   23  C29 UNL     1      -2.113  50.763 -23.356  1.00  0.00     0.016 C 
ENDROOT
BRANCH   1  24
HETATM   24  C6  UNL     1      -0.265  52.476 -21.692  1.00  0.00    -0.014 C 
HETATM   25  C7  UNL     1       0.869  52.922 -20.764  1.00  0.00     0.010 C 
BRANCH  24  26
HETATM   26  C5  UNL     1       0.287  52.219 -23.119  1.00  0.00     0.008 C 
BRANCH  26  27
HETATM   27  C4  UNL     1       0.790  53.461 -23.864  1.00  0.00     0.028 C 
BRANCH  27  28
HETATM   28  C3  UNL     1       0.163  53.551 -25.230  1.00  0.00    -0.013 C 
HETATM   29  C2  UNL     1       0.468  52.837 -26.333  1.00  0.00     0.008 C 
HETATM   30  C1  UNL     1       1.517  51.770 -26.442  1.00  0.00     0.055 C 
BRANCH  29  31
HETATM   31  C30 UNL     1      -0.326  53.141 -27.554  1.00  0.00     0.171 C 
HETATM   32  O2  UNL     1      -1.051  54.104 -27.732  1.00  0.00    -0.646 OA
BRANCH  31  33
HETATM   33  O3  UNL     1      -0.174  52.209 -28.509  1.00  0.00    -0.773 OA
HETATM   34  H46 UNL     1      -0.744  52.535 -29.235  1.00  0.00     0.167 HD
ENDBRANCH  31  33
ENDBRANCH  29  31
ENDBRANCH  27  28
ENDBRANCH  26  27
ENDBRANCH  24  26
ENDBRANCH   1  24
TORSDOF 6
ENDMDL
MODEL 6
REMARK minimizedAffinity -9.21512794
REMARK  6 active torsions:
REMARK  status: ('A' for Active; 'I' for Inactive)
REMARK    1  A    between atoms: C2_2  and  C30_31 
REMARK    2  A    between atoms: C3_3  and  C4_4 
REMARK    3  A    between atoms: C4_4  and  C5_5 
REMARK    4  A    between atoms: C5_5  and  C6_6 
REMARK    5  A    between atoms: C6_6  and  C8_8 
REMARK    6  A    between atoms: C30_31  and  O3_33 
ROOT
HETATM    1  C8  UNL     1      -1.678  50.848 -23.692  1.00  0.00    -0.002 C 
HETATM    2  C9  UNL     1      -2.494  51.594 -24.796  1.00  0.00     0.007 C 
HETATM    3  C10 UNL     1      -3.872  50.902 -24.898  1.00  0.00     0.015 C 
HETATM    4  C11 UNL     1      -3.705  49.591 -24.109  1.00  0.00    -0.013 C 
HETATM    5  C12 UNL     1      -2.997  48.581 -25.083  1.00  0.00     0.021 C 
HETATM    6  C13 UNL     1      -4.957  48.861 -23.606  1.00  0.00    -0.070 C 
HETATM    7  C14 UNL     1      -5.990  48.641 -24.434  1.00  0.00    -0.022 C 
HETATM    8  C15 UNL     1      -7.074  47.652 -24.167  1.00  0.00     0.034 C 
HETATM    9  C16 UNL     1      -6.670  46.558 -23.142  1.00  0.00     0.013 C 
HETATM   10  C17 UNL     1      -7.846  45.545 -22.854  1.00  0.00     0.018 C 
HETATM   11  C18 UNL     1      -7.284  44.111 -22.720  1.00  0.00     0.023 C 
HETATM   12  C19 UNL     1      -8.920  45.484 -23.960  1.00  0.00     0.023 C 
HETATM   13  C20 UNL     1      -8.580  45.933 -21.565  1.00  0.00     0.135 C 
HETATM   14  O1  UNL     1      -9.201  45.108 -20.892  1.00  0.00    -0.297 OA
HETATM   15  C21 UNL     1      -8.606  47.396 -21.189  1.00  0.00     0.080 C 
HETATM   16  C22 UNL     1      -7.227  48.054 -21.181  1.00  0.00     0.017 C 
HETATM   17  C23 UNL     1      -6.078  47.231 -21.853  1.00  0.00    -0.031 C 
HETATM   18  C24 UNL     1      -5.590  46.199 -20.806  1.00  0.00     0.016 C 
HETATM   19  C25 UNL     1      -4.885  48.232 -22.208  1.00  0.00     0.024 C 
HETATM   20  C26 UNL     1      -3.440  47.734 -21.957  1.00  0.00     0.010 C 
HETATM   21  C27 UNL     1      -2.349  48.828 -22.124  1.00  0.00     0.011 C 
HETATM   22  C28 UNL     1      -2.800  50.074 -22.922  1.00  0.00    -0.029 C 
HETATM   23  C29 UNL     1      -3.506  51.099 -21.973  1.00  0.00     0.016 C 
ENDROOT
BRANCH   1  24
HETATM   24  C6  UNL     1      -0.721  51.793 -22.911  1.00  0.00    -0.014 C 
HETATM   25  C7  UNL     1      -0.384  51.261 -21.515  1.00  0.00     0.010 C 
BRANCH  24  26
HETATM   26  C5  UNL     1       0.584  52.111 -23.688  1.00  0.00     0.008 C 
BRANCH  26  27
HETATM   27  C4  UNL     1       0.720  53.556 -24.184  1.00  0.00     0.028 C 
BRANCH  27  28
HETATM   28  C3  UNL     1       0.004  53.735 -25.496  1.00  0.00    -0.013 C 
HETATM   29  C2  UNL     1       0.209  53.072 -26.653  1.00  0.00     0.008 C 
HETATM   30  C1  UNL     1       1.214  51.983 -26.889  1.00  0.00     0.055 C 
BRANCH  29  31
HETATM   31  C30 UNL     1      -0.656  53.463 -27.799  1.00  0.00     0.171 C 
HETATM   32  O2  UNL     1      -1.794  53.894 -27.740  1.00  0.00    -0.646 OA
BRANCH  31  33
HETATM   33  O3  UNL     1      -0.046  53.290 -28.982  1.00  0.00    -0.773 OA
HETATM   34  H46 UNL     1      -0.722  53.581 -29.629  1.00  0.00     0.167 HD
ENDBRANCH  31  33
ENDBRANCH  29  31
ENDBRANCH  27  28
ENDBRANCH  26  27
ENDBRANCH  24  26
ENDBRANCH   1  24
TORSDOF 6
ENDMDL
MODEL 7
REMARK minimizedAffinity -9.14747906
REMARK  6 active torsions:
REMARK  status: ('A' for Active; 'I' for Inactive)
REMARK    1  A    between atoms: C2_2  and  C30_31 
REMARK    2  A    between atoms: C3_3  and  C4_4 
REMARK    3  A    between atoms: C4_4  and  C5_5 
REMARK    4  A    between atoms: C5_5  and  C6_6 
REMARK    5  A    between atoms: C6_6  and  C8_8 
REMARK    6  A    between atoms: C30_31  and  O3_33 
ROOT
HETATM    1  C8  UNL     1      -3.822  50.241 -25.154  1.00  0.00    -0.002 C 
HETATM    2  C9  UNL     1      -4.058  51.776 -24.990  1.00  0.00     0.007 C 
HETATM    3  C10 UNL     1      -3.817  52.124 -23.503  1.00  0.00     0.015 C 
HETATM    4  C11 UNL     1      -3.779  50.761 -22.790  1.00  0.00    -0.013 C 
HETATM    5  C12 UNL     1      -5.276  50.341 -22.567  1.00  0.00     0.021 C 
HETATM    6  C13 UNL     1      -3.119  50.664 -21.407  1.00  0.00    -0.070 C 
HETATM    7  C14 UNL     1      -3.425  51.551 -20.448  1.00  0.00    -0.022 C 
HETATM    8  C15 UNL     1      -3.133  51.346 -19.000  1.00  0.00     0.034 C 
HETATM    9  C16 UNL     1      -2.921  49.855 -18.622  1.00  0.00     0.013 C 
HETATM   10  C17 UNL     1      -2.581  49.670 -17.091  1.00  0.00     0.018 C 
HETATM   11  C18 UNL     1      -3.292  48.410 -16.543  1.00  0.00     0.023 C 
HETATM   12  C19 UNL     1      -3.029  50.840 -16.193  1.00  0.00     0.023 C 
HETATM   13  C20 UNL     1      -1.066  49.533 -16.894  1.00  0.00     0.135 C 
HETATM   14  O1  UNL     1      -0.584  48.949 -15.922  1.00  0.00    -0.297 OA
HETATM   15  C21 UNL     1      -0.167  50.232 -17.886  1.00  0.00     0.080 C 
HETATM   16  C22 UNL     1      -0.498  49.918 -19.344  1.00  0.00     0.017 C 
HETATM   17  C23 UNL     1      -1.870  49.206 -19.591  1.00  0.00    -0.031 C 
HETATM   18  C24 UNL     1      -1.652  47.697 -19.318  1.00  0.00     0.016 C 
HETATM   19  C25 UNL     1      -2.276  49.414 -21.122  1.00  0.00     0.024 C 
HETATM   20  C26 UNL     1      -2.902  48.207 -21.863  1.00  0.00     0.010 C 
HETATM   21  C27 UNL     1      -3.074  48.416 -23.394  1.00  0.00     0.011 C 
HETATM   22  C28 UNL     1      -3.022  49.891 -23.854  1.00  0.00    -0.029 C 
HETATM   23  C29 UNL     1      -1.539  50.335 -24.086  1.00  0.00     0.016 C 
ENDROOT
BRANCH   1  24
HETATM   24  C6  UNL     1      -3.232  49.869 -26.544  1.00  0.00    -0.014 C 
HETATM   25  C7  UNL     1      -4.105  48.862 -27.300  1.00  0.00     0.010 C 
BRANCH  24  26
HETATM   26  C5  UNL     1      -2.955  51.108 -27.435  1.00  0.00     0.008 C 
BRANCH  26  27
HETATM   27  C4  UNL     1      -1.476  51.397 -27.720  1.00  0.00     0.028 C 
BRANCH  27  28
HETATM   28  C3  UNL     1      -1.008  52.591 -26.931  1.00  0.00    -0.013 C 
HETATM   29  C2  UNL     1       0.248  52.890 -26.542  1.00  0.00     0.008 C 
HETATM   30  C1  UNL     1       1.483  52.085 -26.823  1.00  0.00     0.055 C 
BRANCH  29  31
HETATM   31  C30 UNL     1       0.415  54.148 -25.766  1.00  0.00     0.171 C 
HETATM   32  O2  UNL     1       0.124  55.274 -26.129  1.00  0.00    -0.646 OA
BRANCH  31  33
HETATM   33  O3  UNL     1       0.950  53.934 -24.553  1.00  0.00    -0.773 OA
HETATM   34  H46 UNL     1       1.001  54.832 -24.166  1.00  0.00     0.167 HD
ENDBRANCH  31  33
ENDBRANCH  29  31
ENDBRANCH  27  28
ENDBRANCH  26  27
ENDBRANCH  24  26
ENDBRANCH   1  24
TORSDOF 6
ENDMDL
MODEL 8
REMARK minimizedAffinity -9.09213161
REMARK  6 active torsions:
REMARK  status: ('A' for Active; 'I' for Inactive)
REMARK    1  A    between atoms: C2_2  and  C30_31 
REMARK    2  A    between atoms: C3_3  and  C4_4 
REMARK    3  A    between atoms: C4_4  and  C5_5 
REMARK    4  A    between atoms: C5_5  and  C6_6 
REMARK    5  A    between atoms: C6_6  and  C8_8 
REMARK    6  A    between atoms: C30_31  and  O3_33 
ROOT
HETATM    1  C8  UNL     1       0.313  51.396 -18.407  1.00  0.00    -0.002 C 
HETATM    2  C9  UNL     1       0.660  52.919 -18.420  1.00  0.00     0.007 C 
HETATM    3  C10 UNL     1       0.401  53.440 -19.852  1.00  0.00     0.015 C 
HETATM    4  C11 UNL     1       0.238  52.167 -20.701  1.00  0.00    -0.013 C 
HETATM    5  C12 UNL     1       1.691  51.665 -21.023  1.00  0.00     0.021 C 
HETATM    6  C13 UNL     1      -0.469  52.265 -22.060  1.00  0.00    -0.070 C 
HETATM    7  C14 UNL     1      -0.126  53.225 -22.933  1.00  0.00    -0.022 C 
HETATM    8  C15 UNL     1      -0.475  53.196 -24.382  1.00  0.00     0.034 C 
HETATM    9  C16 UNL     1      -0.811  51.773 -24.905  1.00  0.00     0.013 C 
HETATM   10  C17 UNL     1      -1.210  51.776 -26.432  1.00  0.00     0.018 C 
HETATM   11  C18 UNL     1      -0.614  50.534 -27.134  1.00  0.00     0.023 C 
HETATM   12  C19 UNL     1      -0.702  53.000 -27.221  1.00  0.00     0.023 C 
HETATM   13  C20 UNL     1      -2.736  51.771 -26.585  1.00  0.00     0.135 C 
HETATM   14  O1  UNL     1      -3.291  51.330 -27.593  1.00  0.00    -0.297 OA
HETATM   15  C21 UNL     1      -3.549  52.424 -25.493  1.00  0.00     0.080 C 
HETATM   16  C22 UNL     1      -3.200  51.934 -24.088  1.00  0.00     0.017 C 
HETATM   17  C23 UNL     1      -1.880  51.102 -23.968  1.00  0.00    -0.031 C 
HETATM   18  C24 UNL     1      -2.220  49.651 -24.389  1.00  0.00     0.016 C 
HETATM   19  C25 UNL     1      -1.413  51.117 -22.441  1.00  0.00     0.024 C 
HETATM   20  C26 UNL     1      -0.858  49.796 -21.854  1.00  0.00     0.010 C 
HETATM   21  C27 UNL     1      -0.624  49.828 -20.317  1.00  0.00     0.011 C 
HETATM   22  C28 UNL     1      -0.550  51.246 -19.704  1.00  0.00    -0.029 C 
HETATM   23  C29 UNL     1      -1.987  51.769 -19.371  1.00  0.00     0.016 C 
ENDROOT
BRANCH   1  24
HETATM   24  C6  UNL     1      -0.262  50.923 -17.041  1.00  0.00    -0.014 C 
HETATM   25  C7  UNL     1      -0.489  49.408 -16.996  1.00  0.00     0.010 C 
BRANCH  24  26
HETATM   26  C5  UNL     1       0.604  51.368 -15.833  1.00  0.00     0.008 C 
BRANCH  26  27
HETATM   27  C4  UNL     1       0.399  50.561 -14.545  1.00  0.00     0.028 C 
BRANCH  27  28
HETATM   28  C3  UNL     1       1.686  49.902 -14.123  1.00  0.00    -0.013 C 
HETATM   29  C2  UNL     1       2.734  50.460 -13.483  1.00  0.00     0.008 C 
HETATM   30  C1  UNL     1       2.848  51.888 -13.036  1.00  0.00     0.055 C 
BRANCH  29  31
HETATM   31  C30 UNL     1       3.882  49.559 -13.190  1.00  0.00     0.171 C 
HETATM   32  O2  UNL     1       5.020  49.665 -13.613  1.00  0.00    -0.646 OA
BRANCH  31  33
HETATM   33  O3  UNL     1       3.544  48.551 -12.370  1.00  0.00    -0.773 OA
HETATM   34  H46 UNL     1       4.381  48.051 -12.271  1.00  0.00     0.167 HD
ENDBRANCH  31  33
ENDBRANCH  29  31
ENDBRANCH  27  28
ENDBRANCH  26  27
ENDBRANCH  24  26
ENDBRANCH   1  24
TORSDOF 6
ENDMDL
MODEL 9
REMARK minimizedAffinity -9.07938957
REMARK  6 active torsions:
REMARK  status: ('A' for Active; 'I' for Inactive)
REMARK    1  A    between atoms: C2_2  and  C30_31 
REMARK    2  A    between atoms: C3_3  and  C4_4 
REMARK    3  A    between atoms: C4_4  and  C5_5 
REMARK    4  A    between atoms: C5_5  and  C6_6 
REMARK    5  A    between atoms: C6_6  and  C8_8 
REMARK    6  A    between atoms: C30_31  and  O3_33 
ROOT
HETATM    1  C8  UNL     1      -2.631  49.215 -23.498  1.00  0.00    -0.002 C 
HETATM    2  C9  UNL     1      -3.890  48.326 -23.242  1.00  0.00     0.007 C 
HETATM    3  C10 UNL     1      -3.960  48.052 -21.722  1.00  0.00     0.015 C 
HETATM    4  C11 UNL     1      -2.587  48.493 -21.187  1.00  0.00    -0.013 C 
HETATM    5  C12 UNL     1      -1.602  47.303 -21.473  1.00  0.00     0.021 C 
HETATM    6  C13 UNL     1      -2.434  48.797 -19.690  1.00  0.00    -0.070 C 
HETATM    7  C14 UNL     1      -2.905  47.937 -18.775  1.00  0.00    -0.022 C 
HETATM    8  C15 UNL     1      -2.504  47.947 -17.338  1.00  0.00     0.034 C 
HETATM    9  C16 UNL     1      -1.155  48.672 -17.083  1.00  0.00     0.013 C 
HETATM   10  C17 UNL     1      -0.772  48.698 -15.552  1.00  0.00     0.018 C 
HETATM   11  C18 UNL     1       0.750  48.476 -15.387  1.00  0.00     0.023 C 
HETATM   12  C19 UNL     1      -1.459  47.608 -14.704  1.00  0.00     0.023 C 
HETATM   13  C20 UNL     1      -1.167  50.041 -14.925  1.00  0.00     0.135 C 
HETATM   14  O1  UNL     1      -0.602  50.487 -13.925  1.00  0.00    -0.297 OA
HETATM   15  C21 UNL     1      -2.353  50.765 -15.517  1.00  0.00     0.080 C 
HETATM   16  C22 UNL     1      -2.274  50.940 -17.033  1.00  0.00     0.017 C 
HETATM   17  C23 UNL     1      -1.178  50.090 -17.758  1.00  0.00    -0.031 C 
HETATM   18  C24 UNL     1       0.162  50.852 -17.602  1.00  0.00     0.016 C 
HETATM   19  C25 UNL     1      -1.557  49.997 -19.307  1.00  0.00     0.024 C 
HETATM   20  C26 UNL     1      -0.403  50.122 -20.331  1.00  0.00     0.010 C 
HETATM   21  C27 UNL     1      -0.870  50.234 -21.810  1.00  0.00     0.011 C 
HETATM   22  C28 UNL     1      -2.322  49.766 -22.066  1.00  0.00    -0.029 C 
HETATM   23  C29 UNL     1      -3.325  50.936 -21.791  1.00  0.00     0.016 C 
ENDROOT
BRANCH   1  24
HETATM   24  C6  UNL     1      -2.827  50.208 -24.679  1.00  0.00    -0.014 C 
HETATM   25  C7  UNL     1      -1.520  50.494 -25.426  1.00  0.00     0.010 C 
BRANCH  24  26
HETATM   26  C5  UNL     1      -3.921  49.751 -25.679  1.00  0.00     0.008 C 
BRANCH  26  27
HETATM   27  C4  UNL     1      -3.648  48.420 -26.391  1.00  0.00     0.028 C 
BRANCH  27  28
HETATM   28  C3  UNL     1      -3.857  48.561 -27.875  1.00  0.00    -0.013 C 
HETATM   29  C2  UNL     1      -4.942  48.217 -28.599  1.00  0.00     0.008 C 
HETATM   30  C1  UNL     1      -6.210  47.612 -28.071  1.00  0.00     0.055 C 
BRANCH  29  31
HETATM   31  C30 UNL     1      -4.867  48.475 -30.062  1.00  0.00     0.171 C 
HETATM   32  O2  UNL     1      -5.021  47.661 -30.956  1.00  0.00    -0.646 OA
BRANCH  31  33
HETATM   33  O3  UNL     1      -4.595  49.760 -30.342  1.00  0.00    -0.773 OA
HETATM   34  H46 UNL     1      -4.576  49.778 -31.321  1.00  0.00     0.167 HD
ENDBRANCH  31  33
ENDBRANCH  29  31
ENDBRANCH  27  28
ENDBRANCH  26  27
ENDBRANCH  24  26
ENDBRANCH   1  24
TORSDOF 6
ENDMDL
