MODEL 1
REMARK minimizedAffinity -7.05770063
REMARK CNNscore 0.847563207
REMARK CNNaffinity 5.40163279
REMARK  12 active torsions:
REMARK  status: ('A' for Active; 'I' for Inactive)
REMARK    1  A    between atoms: C2_2  and  O1_3 
REMARK    2  A    between atoms: C2_2  and  C3_4 
REMARK    3  A    between atoms: C4_5  and  C5_6 
REMARK    4  A    between atoms: C5_6  and  O2_7 
REMARK    5  A    between atoms: C8_10  and  O3_11 
REMARK    6  A    between atoms: O3_11  and  C9_12 
REMARK    7  A    between atoms: C10_14  and  C11_15 
REMARK    8  A    between atoms: C11_15  and  O5_16 
REMARK    9  A    between atoms: C12_17  and  O6_18 
REMARK   10  A    between atoms: C13_19  and  O7_20 
REMARK   11  A    between atoms: C14_21  and  O8_22 
REMARK   12  A    between atoms: C15_23  and  O9_24 
ROOT
HETATM    1  C5  UNL     1      -3.498  50.169 -24.122  1.00  0.00     0.088 C 
HETATM    2  C6  UNL     1      -4.293  49.296 -25.145  1.00  0.00     0.052 C 
HETATM    3  C7  UNL     1      -3.445  48.372 -26.037  1.00  0.00     0.016 C 
HETATM    4  C8  UNL     1      -5.431  48.459 -24.496  1.00  0.00     0.160 C 
HETATM    5  C15 UNL     1      -5.918  49.063 -23.164  1.00  0.00     0.148 C 
HETATM    6  C16 UNL     1      -4.791  49.227 -22.130  1.00  0.00     0.046 C 
HETATM    7  C17 UNL     1      -3.369  49.496 -22.709  1.00  0.00    -0.010 C 
HETATM    8  C18 UNL     1      -2.627  50.414 -21.703  1.00  0.00     0.018 C 
HETATM    9  C19 UNL     1      -2.586  48.163 -22.739  1.00  0.00     0.018 C 
ENDROOT
BRANCH   4  10
HETATM   10  O3  UNL     1      -6.477  48.403 -25.489  1.00  0.00    -0.350 OA
BRANCH  10  11
HETATM   11  C9  UNL     1      -7.521  47.471 -25.213  1.00  0.00     0.292 C 
HETATM   12  O4  UNL     1      -7.492  46.436 -26.196  1.00  0.00    -0.348 OA
HETATM   13  C10 UNL     1      -7.819  46.843 -27.529  1.00  0.00     0.179 C 
HETATM   14  C12 UNL     1      -8.839  47.996 -27.631  1.00  0.00     0.180 C 
HETATM   15  C13 UNL     1      -9.738  47.971 -26.396  1.00  0.00     0.183 C 
HETATM   16  C14 UNL     1      -8.880  48.209 -25.151  1.00  0.00     0.204 C 
BRANCH  13  17
HETATM   17  C11 UNL     1      -6.554  47.148 -28.345  1.00  0.00     0.198 C 
BRANCH  17  18
HETATM   18  O5  UNL     1      -6.442  48.552 -28.588  1.00  0.00    -0.398 OA
HETATM   19  H18 UNL     1      -6.651  48.696 -29.528  1.00  0.00     0.209 HD
ENDBRANCH  17  18
ENDBRANCH  13  17
BRANCH  14  20
HETATM   20  O6  UNL     1      -9.598  47.846 -28.839  1.00  0.00    -0.390 OA
HETATM   21  H20 UNL     1      -8.949  47.922 -29.566  1.00  0.00     0.210 HD
ENDBRANCH  14  20
BRANCH  15  22
HETATM   22  O7  UNL     1     -10.733  49.007 -26.454  1.00  0.00    -0.390 OA
HETATM   23  H22 UNL     1     -11.287  48.875 -25.659  1.00  0.00     0.210 HD
ENDBRANCH  15  22
BRANCH  16  24
HETATM   24  O8  UNL     1      -9.642  47.823 -23.990  1.00  0.00    -0.388 OA
HETATM   25  H24 UNL     1      -9.051  48.017 -23.232  1.00  0.00     0.210 HD
ENDBRANCH  16  24
ENDBRANCH  10  11
ENDBRANCH   4  10
BRANCH   5  26
HETATM   26  O9  UNL     1      -6.934  48.242 -22.555  1.00  0.00    -0.393 OA
HETATM   27  H26 UNL     1      -7.167  48.683 -21.715  1.00  0.00     0.210 HD
ENDBRANCH   5  26
BRANCH   1  28
HETATM   28  C4  UNL     1      -2.188  50.675 -24.709  1.00  0.00     0.010 C 
HETATM   29  C3  UNL     1      -2.047  51.823 -25.399  1.00  0.00     0.003 C 
BRANCH  29  30
HETATM   30  C2  UNL     1      -0.758  52.317 -25.983  1.00  0.00     0.136 C 
HETATM   31  C1  UNL     1      -0.794  52.315 -27.503  1.00  0.00     0.043 C 
BRANCH  30  32
HETATM   32  O1  UNL     1      -0.560  53.648 -25.517  1.00  0.00    -0.392 OA
HETATM   33  H5  UNL     1      -1.238  54.210 -25.928  1.00  0.00     0.210 HD
ENDBRANCH  30  32
ENDBRANCH  29  30
ENDBRANCH   1  28
BRANCH   1  34
HETATM   34  O2  UNL     1      -4.320  51.343 -23.915  1.00  0.00    -0.385 OA
HETATM   35  H8  UNL     1      -3.746  52.045 -23.562  1.00  0.00     0.211 HD
ENDBRANCH   1  34
TORSDOF 12
ENDMDL
MODEL 2
REMARK minimizedAffinity -7.08598423
REMARK CNNscore 0.84428972
REMARK CNNaffinity 5.11589241
REMARK  12 active torsions:
REMARK  status: ('A' for Active; 'I' for Inactive)
REMARK    1  A    between atoms: C2_2  and  O1_3 
REMARK    2  A    between atoms: C2_2  and  C3_4 
REMARK    3  A    between atoms: C4_5  and  C5_6 
REMARK    4  A    between atoms: C5_6  and  O2_7 
REMARK    5  A    between atoms: C8_10  and  O3_11 
REMARK    6  A    between atoms: O3_11  and  C9_12 
REMARK    7  A    between atoms: C10_14  and  C11_15 
REMARK    8  A    between atoms: C11_15  and  O5_16 
REMARK    9  A    between atoms: C12_17  and  O6_18 
REMARK   10  A    between atoms: C13_19  and  O7_20 
REMARK   11  A    between atoms: C14_21  and  O8_22 
REMARK   12  A    between atoms: C15_23  and  O9_24 
ROOT
HETATM    1  C5  UNL     1      -4.596  50.567 -24.337  1.00  0.00     0.088 C 
HETATM    2  C6  UNL     1      -5.215  49.281 -24.974  1.00  0.00     0.052 C 
HETATM    3  C7  UNL     1      -4.212  48.303 -25.612  1.00  0.00     0.016 C 
HETATM    4  C8  UNL     1      -6.139  48.490 -24.006  1.00  0.00     0.160 C 
HETATM    5  C15 UNL     1      -6.712  49.378 -22.884  1.00  0.00     0.148 C 
HETATM    6  C16 UNL     1      -5.621  50.071 -22.050  1.00  0.00     0.046 C 
HETATM    7  C17 UNL     1      -4.300  50.410 -22.803  1.00  0.00    -0.010 C 
HETATM    8  C18 UNL     1      -3.743  51.723 -22.190  1.00  0.00     0.018 C 
HETATM    9  C19 UNL     1      -3.257  49.311 -22.493  1.00  0.00     0.018 C 
ENDROOT
BRANCH   4  10
HETATM   10  O3  UNL     1      -7.172  47.926 -24.841  1.00  0.00    -0.350 OA
BRANCH  10  11
HETATM   11  C9  UNL     1      -8.477  48.461 -24.631  1.00  0.00     0.292 C 
HETATM   12  O4  UNL     1      -9.274  47.489 -23.953  1.00  0.00    -0.348 OA
HETATM   13  C10 UNL     1      -9.569  46.304 -24.700  1.00  0.00     0.179 C 
HETATM   14  C12 UNL     1      -9.703  46.507 -26.224  1.00  0.00     0.180 C 
HETATM   15  C13 UNL     1     -10.158  47.940 -26.494  1.00  0.00     0.183 C 
HETATM   16  C14 UNL     1      -9.086  48.905 -25.983  1.00  0.00     0.204 C 
BRANCH  13  17
HETATM   17  C11 UNL     1      -8.577  45.178 -24.375  1.00  0.00     0.198 C 
BRANCH  17  18
HETATM   18  O5  UNL     1      -8.138  44.536 -25.575  1.00  0.00    -0.398 OA
HETATM   19  H18 UNL     1      -8.570  43.663 -25.603  1.00  0.00     0.209 HD
ENDBRANCH  17  18
ENDBRANCH  13  17
BRANCH  14  20
HETATM   20  O6  UNL     1     -10.638  45.550 -26.744  1.00  0.00    -0.390 OA
HETATM   21  H20 UNL     1     -10.241  44.674 -26.566  1.00  0.00     0.210 HD
ENDBRANCH  14  20
BRANCH  15  22
HETATM   22  O7  UNL     1     -10.332  48.175 -27.902  1.00  0.00    -0.390 OA
HETATM   23  H22 UNL     1     -10.673  49.089 -27.968  1.00  0.00     0.210 HD
ENDBRANCH  15  22
BRANCH  16  24
HETATM   24  O8  UNL     1      -9.663  50.224 -25.898  1.00  0.00    -0.388 OA
HETATM   25  H24 UNL     1      -8.927  50.794 -25.587  1.00  0.00     0.210 HD
ENDBRANCH  16  24
ENDBRANCH  10  11
ENDBRANCH   4  10
BRANCH   5  26
HETATM   26  O9  UNL     1      -7.521  48.613 -21.970  1.00  0.00    -0.393 OA
HETATM   27  H26 UNL     1      -7.823  49.243 -21.286  1.00  0.00     0.210 HD
ENDBRANCH   5  26
BRANCH   1  28
HETATM   28  C4  UNL     1      -3.433  51.102 -25.159  1.00  0.00     0.010 C 
HETATM   29  C3  UNL     1      -2.199  51.344 -24.679  1.00  0.00     0.003 C 
BRANCH  29  30
HETATM   30  C2  UNL     1      -1.056  51.878 -25.488  1.00  0.00     0.136 C 
HETATM   31  C1  UNL     1      -1.098  51.371 -26.921  1.00  0.00     0.043 C 
BRANCH  30  32
HETATM   32  O1  UNL     1      -1.158  53.298 -25.487  1.00  0.00    -0.392 OA
HETATM   33  H5  UNL     1      -1.946  53.540 -26.001  1.00  0.00     0.210 HD
ENDBRANCH  30  32
ENDBRANCH  29  30
ENDBRANCH   1  28
BRANCH   1  34
HETATM   34  O2  UNL     1      -5.640  51.566 -24.427  1.00  0.00    -0.385 OA
HETATM   35  H8  UNL     1      -5.217  52.440 -24.354  1.00  0.00     0.211 HD
ENDBRANCH   1  34
TORSDOF 12
ENDMDL
MODEL 3
REMARK minimizedAffinity -6.39520216
REMARK CNNscore 0.539291263
REMARK CNNaffinity 4.22793579
REMARK  12 active torsions:
REMARK  status: ('A' for Active; 'I' for Inactive)
REMARK    1  A    between atoms: C2_2  and  O1_3 
REMARK    2  A    between atoms: C2_2  and  C3_4 
REMARK    3  A    between atoms: C4_5  and  C5_6 
REMARK    4  A    between atoms: C5_6  and  O2_7 
REMARK    5  A    between atoms: C8_10  and  O3_11 
REMARK    6  A    between atoms: O3_11  and  C9_12 
REMARK    7  A    between atoms: C10_14  and  C11_15 
REMARK    8  A    between atoms: C11_15  and  O5_16 
REMARK    9  A    between atoms: C12_17  and  O6_18 
REMARK   10  A    between atoms: C13_19  and  O7_20 
REMARK   11  A    between atoms: C14_21  and  O8_22 
REMARK   12  A    between atoms: C15_23  and  O9_24 
ROOT
HETATM    1  C5  UNL     1       5.071  67.887 -36.251  1.00  0.00     0.088 C 
HETATM    2  C6  UNL     1       4.583  68.031 -37.728  1.00  0.00     0.052 C 
HETATM    3  C7  UNL     1       5.682  67.975 -38.804  1.00  0.00     0.016 C 
HETATM    4  C8  UNL     1       3.456  67.031 -38.111  1.00  0.00     0.160 C 
HETATM    5  C15 UNL     1       2.669  66.534 -36.883  1.00  0.00     0.148 C 
HETATM    6  C16 UNL     1       3.565  65.868 -35.824  1.00  0.00     0.046 C 
HETATM    7  C17 UNL     1       5.024  66.406 -35.730  1.00  0.00    -0.010 C 
HETATM    8  C18 UNL     1       5.459  66.308 -34.244  1.00  0.00     0.018 C 
HETATM    9  C19 UNL     1       5.954  65.454 -36.517  1.00  0.00     0.018 C 
ENDROOT
BRANCH   4  10
HETATM   10  O3  UNL     1       2.619  67.740 -39.049  1.00  0.00    -0.350 OA
BRANCH  10  11
HETATM   11  C9  UNL     1       1.923  66.914 -39.981  1.00  0.00     0.292 C 
HETATM   12  O4  UNL     1       2.333  67.259 -41.305  1.00  0.00    -0.348 OA
HETATM   13  C10 UNL     1       1.953  68.568 -41.745  1.00  0.00     0.179 C 
HETATM   14  C12 UNL     1       0.619  69.091 -41.173  1.00  0.00     0.180 C 
HETATM   15  C13 UNL     1      -0.279  67.900 -40.845  1.00  0.00     0.183 C 
HETATM   16  C14 UNL     1       0.396  67.051 -39.765  1.00  0.00     0.204 C 
BRANCH  13  17
HETATM   17  C11 UNL     1       3.087  69.580 -41.526  1.00  0.00     0.198 C 
BRANCH  17  18
HETATM   18  O5  UNL     1       4.352  68.914 -41.490  1.00  0.00    -0.398 OA
HETATM   19  H18 UNL     1       4.649  68.920 -40.562  1.00  0.00     0.209 HD
ENDBRANCH  17  18
ENDBRANCH  13  17
BRANCH  14  20
HETATM   20  O6  UNL     1       0.007  69.964 -42.133  1.00  0.00    -0.390 OA
HETATM   21  H20 UNL     1       0.630  70.711 -42.240  1.00  0.00     0.210 HD
ENDBRANCH  14  20
BRANCH  15  22
HETATM   22  O7  UNL     1      -1.553  68.331 -40.337  1.00  0.00    -0.390 OA
HETATM   23  H22 UNL     1      -2.069  67.511 -40.212  1.00  0.00     0.210 HD
ENDBRANCH  15  22
BRANCH  16  24
HETATM   24  O8  UNL     1      -0.252  65.764 -39.724  1.00  0.00    -0.388 OA
HETATM   25  H24 UNL     1       0.208  65.280 -39.006  1.00  0.00     0.210 HD
ENDBRANCH  16  24
ENDBRANCH  10  11
ENDBRANCH   4  10
BRANCH   5  26
HETATM   26  O9  UNL     1       1.666  65.569 -37.255  1.00  0.00    -0.393 OA
HETATM   27  H26 UNL     1       1.235  65.294 -36.422  1.00  0.00     0.210 HD
ENDBRANCH   5  26
BRANCH   1  28
HETATM   28  C4  UNL     1       6.394  68.602 -36.022  1.00  0.00     0.010 C 
HETATM   29  C3  UNL     1       6.595  69.575 -35.112  1.00  0.00     0.003 C 
BRANCH  29  30
HETATM   30  C2  UNL     1       7.897  70.284 -34.891  1.00  0.00     0.136 C 
HETATM   31  C1  UNL     1       8.705  70.386 -36.176  1.00  0.00     0.043 C 
BRANCH  30  32
HETATM   32  O1  UNL     1       7.597  71.593 -34.418  1.00  0.00    -0.392 OA
HETATM   33  H5  UNL     1       7.179  72.084 -35.145  1.00  0.00     0.210 HD
ENDBRANCH  30  32
ENDBRANCH  29  30
ENDBRANCH   1  28
BRANCH   1  34
HETATM   34  O2  UNL     1       4.090  68.603 -35.463  1.00  0.00    -0.385 OA
HETATM   35  H8  UNL     1       4.503  68.823 -34.609  1.00  0.00     0.211 HD
ENDBRANCH   1  34
TORSDOF 12
ENDMDL
MODEL 4
REMARK minimizedAffinity -8.36925983
REMARK CNNscore 0.480696917
REMARK CNNaffinity 5.04736853
REMARK  12 active torsions:
REMARK  status: ('A' for Active; 'I' for Inactive)
REMARK    1  A    between atoms: C2_2  and  O1_3 
REMARK    2  A    between atoms: C2_2  and  C3_4 
REMARK    3  A    between atoms: C4_5  and  C5_6 
REMARK    4  A    between atoms: C5_6  and  O2_7 
REMARK    5  A    between atoms: C8_10  and  O3_11 
REMARK    6  A    between atoms: O3_11  and  C9_12 
REMARK    7  A    between atoms: C10_14  and  C11_15 
REMARK    8  A    between atoms: C11_15  and  O5_16 
REMARK    9  A    between atoms: C12_17  and  O6_18 
REMARK   10  A    between atoms: C13_19  and  O7_20 
REMARK   11  A    between atoms: C14_21  and  O8_22 
REMARK   12  A    between atoms: C15_23  and  O9_24 
ROOT
HETATM    1  C5  UNL     1      -3.469  50.097 -21.820  1.00  0.00     0.088 C 
HETATM    2  C6  UNL     1      -2.321  50.909 -22.501  1.00  0.00     0.052 C 
HETATM    3  C7  UNL     1      -1.024  51.047 -21.683  1.00  0.00     0.016 C 
HETATM    4  C8  UNL     1      -1.961  50.403 -23.926  1.00  0.00     0.160 C 
HETATM    5  C15 UNL     1      -3.126  49.644 -24.591  1.00  0.00     0.148 C 
HETATM    6  C16 UNL     1      -3.612  48.442 -23.761  1.00  0.00     0.046 C 
HETATM    7  C17 UNL     1      -3.465  48.577 -22.216  1.00  0.00    -0.010 C 
HETATM    8  C18 UNL     1      -4.652  47.814 -21.570  1.00  0.00     0.018 C 
HETATM    9  C19 UNL     1      -2.182  47.836 -21.774  1.00  0.00     0.018 C 
ENDROOT
BRANCH   4  10
HETATM   10  O3  UNL     1      -1.582  51.583 -24.665  1.00  0.00    -0.350 OA
BRANCH  10  11
HETATM   11  C9  UNL     1      -0.864  51.335 -25.872  1.00  0.00     0.292 C 
HETATM   12  O4  UNL     1       0.484  51.779 -25.711  1.00  0.00    -0.348 OA
HETATM   13  C10 UNL     1       0.652  53.193 -25.565  1.00  0.00     0.179 C 
HETATM   14  C12 UNL     1      -0.376  54.058 -26.325  1.00  0.00     0.180 C 
HETATM   15  C13 UNL     1      -0.874  53.279 -27.541  1.00  0.00     0.183 C 
HETATM   16  C14 UNL     1      -1.586  52.012 -27.062  1.00  0.00     0.204 C 
BRANCH  13  17
HETATM   17  C11 UNL     1       0.731  53.596 -24.086  1.00  0.00     0.198 C 
BRANCH  17  18
HETATM   18  O5  UNL     1       1.420  54.841 -23.942  1.00  0.00    -0.398 OA
HETATM   19  H18 UNL     1       2.295  54.639 -23.565  1.00  0.00     0.209 HD
ENDBRANCH  17  18
ENDBRANCH  13  17
BRANCH  14  20
HETATM   20  O6  UNL     1       0.243  55.294 -26.708  1.00  0.00    -0.390 OA
HETATM   21  H20 UNL     1       0.483  55.737 -25.869  1.00  0.00     0.210 HD
ENDBRANCH  14  20
BRANCH  15  22
HETATM   22  O7  UNL     1      -1.812  54.052 -28.307  1.00  0.00    -0.390 OA
HETATM   23  H22 UNL     1      -2.028  53.499 -29.083  1.00  0.00     0.210 HD
ENDBRANCH  15  22
BRANCH  16  24
HETATM   24  O8  UNL     1      -1.723  51.114 -28.181  1.00  0.00    -0.388 OA
HETATM   25  H24 UNL     1      -2.200  50.338 -27.817  1.00  0.00     0.210 HD
ENDBRANCH  16  24
ENDBRANCH  10  11
ENDBRANCH   4  10
BRANCH   5  26
HETATM   26  O9  UNL     1      -2.753  49.139 -25.888  1.00  0.00    -0.393 OA
HETATM   27  H26 UNL     1      -3.535  48.658 -26.224  1.00  0.00     0.210 HD
ENDBRANCH   5  26
BRANCH   1  28
HETATM   28  C4  UNL     1      -3.541  50.366 -20.324  1.00  0.00     0.010 C 
HETATM   29  C3  UNL     1      -2.710  49.835 -19.407  1.00  0.00     0.003 C 
BRANCH  29  30
HETATM   30  C2  UNL     1      -2.786  50.094 -17.932  1.00  0.00     0.136 C 
HETATM   31  C1  UNL     1      -1.694  49.353 -17.176  1.00  0.00     0.043 C 
BRANCH  30  32
HETATM   32  O1  UNL     1      -2.627  51.496 -17.736  1.00  0.00    -0.392 OA
HETATM   33  H5  UNL     1      -1.713  51.727 -17.971  1.00  0.00     0.210 HD
ENDBRANCH  30  32
ENDBRANCH  29  30
ENDBRANCH   1  28
BRANCH   1  34
HETATM   34  O2  UNL     1      -4.690  50.637 -22.381  1.00  0.00    -0.385 OA
HETATM   35  H8  UNL     1      -5.416  50.411 -21.773  1.00  0.00     0.211 HD
ENDBRANCH   1  34
TORSDOF 12
ENDMDL
MODEL 5
REMARK minimizedAffinity -6.72323418
REMARK CNNscore 0.467116952
REMARK CNNaffinity 4.38879919
REMARK  12 active torsions:
REMARK  status: ('A' for Active; 'I' for Inactive)
REMARK    1  A    between atoms: C2_2  and  O1_3 
REMARK    2  A    between atoms: C2_2  and  C3_4 
REMARK    3  A    between atoms: C4_5  and  C5_6 
REMARK    4  A    between atoms: C5_6  and  O2_7 
REMARK    5  A    between atoms: C8_10  and  O3_11 
REMARK    6  A    between atoms: O3_11  and  C9_12 
REMARK    7  A    between atoms: C10_14  and  C11_15 
REMARK    8  A    between atoms: C11_15  and  O5_16 
REMARK    9  A    between atoms: C12_17  and  O6_18 
REMARK   10  A    between atoms: C13_19  and  O7_20 
REMARK   11  A    between atoms: C14_21  and  O8_22 
REMARK   12  A    between atoms: C15_23  and  O9_24 
ROOT
HETATM    1  C5  UNL     1      -0.366  53.229 -10.867  1.00  0.00     0.088 C 
HETATM    2  C6  UNL     1      -0.008  52.553 -12.229  1.00  0.00     0.052 C 
HETATM    3  C7  UNL     1       1.324  51.781 -12.262  1.00  0.00     0.016 C 
HETATM    4  C8  UNL     1      -1.132  51.633 -12.782  1.00  0.00     0.160 C 
HETATM    5  C15 UNL     1      -2.522  52.010 -12.232  1.00  0.00     0.148 C 
HETATM    6  C16 UNL     1      -2.589  51.982 -10.695  1.00  0.00     0.046 C 
HETATM    7  C17 UNL     1      -1.264  52.325  -9.950  1.00  0.00    -0.010 C 
HETATM    8  C18 UNL     1      -1.650  53.050  -8.633  1.00  0.00     0.018 C 
HETATM    9  C19 UNL     1      -0.575  51.006  -9.532  1.00  0.00     0.018 C 
ENDROOT
BRANCH   4  10
HETATM   10  O3  UNL     1      -1.057  51.760 -14.218  1.00  0.00    -0.350 OA
BRANCH  10  11
HETATM   11  C9  UNL     1      -1.318  50.560 -14.944  1.00  0.00     0.292 C 
HETATM   12  O4  UNL     1      -0.088  50.057 -15.466  1.00  0.00    -0.348 OA
HETATM   13  C10 UNL     1       0.533  50.867 -16.470  1.00  0.00     0.179 C 
HETATM   14  C12 UNL     1      -0.441  51.655 -17.371  1.00  0.00     0.180 C 
HETATM   15  C13 UNL     1      -1.767  50.901 -17.443  1.00  0.00     0.183 C 
HETATM   16  C14 UNL     1      -2.376  50.830 -16.041  1.00  0.00     0.204 C 
BRANCH  13  17
HETATM   17  C11 UNL     1       1.597  51.792 -15.860  1.00  0.00     0.198 C 
BRANCH  17  18
HETATM   18  O5  UNL     1       1.351  53.150 -16.232  1.00  0.00    -0.398 OA
HETATM   19  H18 UNL     1       2.030  53.392 -16.888  1.00  0.00     0.209 HD
ENDBRANCH  17  18
ENDBRANCH  13  17
BRANCH  14  20
HETATM   20  O6  UNL     1       0.147  51.814 -18.670  1.00  0.00    -0.390 OA
HETATM   21  H20 UNL     1       0.957  52.343 -18.527  1.00  0.00     0.210 HD
ENDBRANCH  14  20
BRANCH  15  22
HETATM   22  O7  UNL     1      -2.704  51.575 -18.300  1.00  0.00    -0.390 OA
HETATM   23  H22 UNL     1      -3.490  50.995 -18.326  1.00  0.00     0.210 HD
ENDBRANCH  15  22
BRANCH  16  24
HETATM   24  O8  UNL     1      -3.409  49.825 -16.042  1.00  0.00    -0.388 OA
HETATM   25  H24 UNL     1      -3.770  49.843 -15.130  1.00  0.00     0.210 HD
ENDBRANCH  16  24
ENDBRANCH  10  11
ENDBRANCH   4  10
BRANCH   5  26
HETATM   26  O9  UNL     1      -3.540  51.112 -12.716  1.00  0.00    -0.393 OA
HETATM   27  H26 UNL     1      -4.377  51.408 -12.305  1.00  0.00     0.210 HD
ENDBRANCH   5  26
BRANCH   1  28
HETATM   28  C4  UNL     1       0.863  53.809 -10.183  1.00  0.00     0.010 C 
HETATM   29  C3  UNL     1       1.486  54.945 -10.553  1.00  0.00     0.003 C 
BRANCH  29  30
HETATM   30  C2  UNL     1       2.701  55.511  -9.883  1.00  0.00     0.136 C 
HETATM   31  C1  UNL     1       3.454  56.463 -10.800  1.00  0.00     0.043 C 
BRANCH  30  32
HETATM   32  O1  UNL     1       2.262  56.217  -8.727  1.00  0.00    -0.392 OA
HETATM   33  H5  UNL     1       1.769  56.999  -9.026  1.00  0.00     0.210 HD
ENDBRANCH  30  32
ENDBRANCH  29  30
ENDBRANCH   1  28
BRANCH   1  34
HETATM   34  O2  UNL     1      -1.195  54.362 -11.221  1.00  0.00    -0.385 OA
HETATM   35  H8  UNL     1      -1.173  54.987 -10.474  1.00  0.00     0.211 HD
ENDBRANCH   1  34
TORSDOF 12
ENDMDL
MODEL 6
REMARK minimizedAffinity -7.20393372
REMARK CNNscore 0.461944968
REMARK CNNaffinity 4.43201447
REMARK  12 active torsions:
REMARK  status: ('A' for Active; 'I' for Inactive)
REMARK    1  A    between atoms: C2_2  and  O1_3 
REMARK    2  A    between atoms: C2_2  and  C3_4 
REMARK    3  A    between atoms: C4_5  and  C5_6 
REMARK    4  A    between atoms: C5_6  and  O2_7 
REMARK    5  A    between atoms: C8_10  and  O3_11 
REMARK    6  A    between atoms: O3_11  and  C9_12 
REMARK    7  A    between atoms: C10_14  and  C11_15 
REMARK    8  A    between atoms: C11_15  and  O5_16 
REMARK    9  A    between atoms: C12_17  and  O6_18 
REMARK   10  A    between atoms: C13_19  and  O7_20 
REMARK   11  A    between atoms: C14_21  and  O8_22 
REMARK   12  A    between atoms: C15_23  and  O9_24 
ROOT
HETATM    1  C5  UNL     1       5.353  65.871 -36.497  1.00  0.00     0.088 C 
HETATM    2  C6  UNL     1       4.380  67.052 -36.813  1.00  0.00     0.052 C 
HETATM    3  C7  UNL     1       4.112  68.026 -35.651  1.00  0.00     0.016 C 
HETATM    4  C8  UNL     1       4.783  67.872 -38.070  1.00  0.00     0.160 C 
HETATM    5  C15 UNL     1       5.655  67.059 -39.047  1.00  0.00     0.148 C 
HETATM    6  C16 UNL     1       6.938  66.514 -38.396  1.00  0.00     0.046 C 
HETATM    7  C17 UNL     1       6.844  66.187 -36.875  1.00  0.00    -0.010 C 
HETATM    8  C18 UNL     1       7.773  64.974 -36.605  1.00  0.00     0.018 C 
HETATM    9  C19 UNL     1       7.437  67.372 -36.077  1.00  0.00     0.018 C 
ENDROOT
BRANCH   4  10
HETATM   10  O3  UNL     1       3.537  68.293 -38.667  1.00  0.00    -0.350 OA
BRANCH  10  11
HETATM   11  C9  UNL     1       2.573  67.256 -38.844  1.00  0.00     0.292 C 
HETATM   12  O4  UNL     1       2.482  66.940 -40.234  1.00  0.00    -0.348 OA
HETATM   13  C10 UNL     1       1.945  67.974 -41.067  1.00  0.00     0.179 C 
HETATM   14  C12 UNL     1       0.890  68.876 -40.394  1.00  0.00     0.180 C 
HETATM   15  C13 UNL     1       0.189  68.081 -39.294  1.00  0.00     0.183 C 
HETATM   16  C14 UNL     1       1.219  67.689 -38.232  1.00  0.00     0.204 C 
BRANCH  13  17
HETATM   17  C11 UNL     1       3.063  68.809 -41.708  1.00  0.00     0.198 C 
BRANCH  17  18
HETATM   18  O5  UNL     1       2.834  70.203 -41.488  1.00  0.00    -0.398 OA
HETATM   19  H18 UNL     1       2.551  70.582 -42.340  1.00  0.00     0.209 HD
ENDBRANCH  17  18
ENDBRANCH  13  17
BRANCH  14  20
HETATM   20  O6  UNL     1      -0.039  69.332 -41.388  1.00  0.00    -0.390 OA
HETATM   21  H20 UNL     1       0.491  69.864 -42.015  1.00  0.00     0.210 HD
ENDBRANCH  14  20
BRANCH  15  22
HETATM   22  O7  UNL     1      -0.831  68.865 -38.653  1.00  0.00    -0.390 OA
HETATM   23  H22 UNL     1      -1.254  68.261 -38.012  1.00  0.00     0.210 HD
ENDBRANCH  15  22
BRANCH  16  24
HETATM   24  O8  UNL     1       0.652  66.650 -37.408  1.00  0.00    -0.388 OA
HETATM   25  H24 UNL     1       1.346  66.459 -36.742  1.00  0.00     0.210 HD
ENDBRANCH  16  24
ENDBRANCH  10  11
ENDBRANCH   4  10
BRANCH   5  26
HETATM   26  O9  UNL     1       6.060  67.855 -40.178  1.00  0.00    -0.393 OA
HETATM   27  H26 UNL     1       6.621  67.273 -40.728  1.00  0.00     0.210 HD
ENDBRANCH   5  26
BRANCH   1  28
HETATM   28  C4  UNL     1       5.152  65.334 -35.088  1.00  0.00     0.010 C 
HETATM   29  C3  UNL     1       4.699  64.101 -34.793  1.00  0.00     0.003 C 
BRANCH  29  30
HETATM   30  C2  UNL     1       4.495  63.574 -33.404  1.00  0.00     0.136 C 
HETATM   31  C1  UNL     1       4.335  64.702 -32.396  1.00  0.00     0.043 C 
BRANCH  30  32
HETATM   32  O1  UNL     1       3.312  62.782 -33.417  1.00  0.00    -0.392 OA
HETATM   33  H5  UNL     1       2.557  63.377 -33.560  1.00  0.00     0.210 HD
ENDBRANCH  30  32
ENDBRANCH  29  30
ENDBRANCH   1  28
BRANCH   1  34
HETATM   34  O2  UNL     1       4.948  64.806 -37.391  1.00  0.00    -0.385 OA
HETATM   35  H8  UNL     1       5.285  63.971 -37.023  1.00  0.00     0.211 HD
ENDBRANCH   1  34
TORSDOF 12
ENDMDL
MODEL 7
REMARK minimizedAffinity -6.43808317
REMARK CNNscore 0.4548406
REMARK CNNaffinity 4.64885569
REMARK  12 active torsions:
REMARK  status: ('A' for Active; 'I' for Inactive)
REMARK    1  A    between atoms: C2_2  and  O1_3 
REMARK    2  A    between atoms: C2_2  and  C3_4 
REMARK    3  A    between atoms: C4_5  and  C5_6 
REMARK    4  A    between atoms: C5_6  and  O2_7 
REMARK    5  A    between atoms: C8_10  and  O3_11 
REMARK    6  A    between atoms: O3_11  and  C9_12 
REMARK    7  A    between atoms: C10_14  and  C11_15 
REMARK    8  A    between atoms: C11_15  and  O5_16 
REMARK    9  A    between atoms: C12_17  and  O6_18 
REMARK   10  A    between atoms: C13_19  and  O7_20 
REMARK   11  A    between atoms: C14_21  and  O8_22 
REMARK   12  A    between atoms: C15_23  and  O9_24 
ROOT
HETATM    1  C5  UNL     1      -7.747  45.771 -32.089  1.00  0.00     0.088 C 
HETATM    2  C6  UNL     1      -8.188  45.545 -30.607  1.00  0.00     0.052 C 
HETATM    3  C7  UNL     1      -7.128  44.922 -29.682  1.00  0.00     0.016 C 
HETATM    4  C8  UNL     1      -8.759  46.821 -29.927  1.00  0.00     0.160 C 
HETATM    5  C15 UNL     1      -9.306  47.837 -30.949  1.00  0.00     0.148 C 
HETATM    6  C16 UNL     1      -8.256  48.272 -31.985  1.00  0.00     0.046 C 
HETATM    7  C17 UNL     1      -7.175  47.210 -32.347  1.00  0.00    -0.010 C 
HETATM    8  C18 UNL     1      -6.802  47.419 -33.839  1.00  0.00     0.018 C 
HETATM    9  C19 UNL     1      -5.894  47.511 -31.535  1.00  0.00     0.018 C 
ENDROOT
BRANCH   4  10
HETATM   10  O3  UNL     1      -9.779  46.347 -29.023  1.00  0.00    -0.350 OA
BRANCH  10  11
HETATM   11  C9  UNL     1      -9.449  46.441 -27.638  1.00  0.00     0.292 C 
HETATM   12  O4  UNL     1     -10.302  45.567 -26.897  1.00  0.00    -0.348 OA
HETATM   13  C10 UNL     1     -11.688  45.924 -26.884  1.00  0.00     0.179 C 
HETATM   14  C12 UNL     1     -11.976  47.438 -26.945  1.00  0.00     0.180 C 
HETATM   15  C13 UNL     1     -10.794  48.191 -26.336  1.00  0.00     0.183 C 
HETATM   16  C14 UNL     1      -9.544  47.915 -27.174  1.00  0.00     0.204 C 
BRANCH  13  17
HETATM   17  C11 UNL     1     -12.469  45.166 -27.968  1.00  0.00     0.198 C 
BRANCH  17  18
HETATM   18  O5  UNL     1     -12.327  43.754 -27.791  1.00  0.00    -0.398 OA
HETATM   19  H18 UNL     1     -11.737  43.438 -28.499  1.00  0.00     0.209 HD
ENDBRANCH  17  18
ENDBRANCH  13  17
BRANCH  14  20
HETATM   20  O6  UNL     1     -13.195  47.713 -26.240  1.00  0.00    -0.390 OA
HETATM   21  H20 UNL     1     -13.893  47.230 -26.728  1.00  0.00     0.210 HD
ENDBRANCH  14  20
BRANCH  15  22
HETATM   22  O7  UNL     1     -11.024  49.610 -26.336  1.00  0.00    -0.390 OA
HETATM   23  H22 UNL     1     -10.248  49.995 -25.883  1.00  0.00     0.210 HD
ENDBRANCH  15  22
BRANCH  16  24
HETATM   24  O8  UNL     1      -8.386  48.308 -26.411  1.00  0.00    -0.388 OA
HETATM   25  H24 UNL     1      -7.627  48.127 -27.005  1.00  0.00     0.210 HD
ENDBRANCH  16  24
ENDBRANCH  10  11
ENDBRANCH   4  10
BRANCH   5  26
HETATM   26  O9  UNL     1      -9.780  49.033 -30.299  1.00  0.00    -0.393 OA
HETATM   27  H26 UNL     1     -10.086  49.624 -31.015  1.00  0.00     0.210 HD
ENDBRANCH   5  26
BRANCH   1  28
HETATM   28  C4  UNL     1      -6.870  44.636 -32.596  1.00  0.00     0.010 C 
HETATM   29  C3  UNL     1      -5.642  44.343 -32.125  1.00  0.00     0.003 C 
BRANCH  29  30
HETATM   30  C2  UNL     1      -4.776  43.229 -32.630  1.00  0.00     0.136 C 
HETATM   31  C1  UNL     1      -5.558  41.933 -32.776  1.00  0.00     0.043 C 
BRANCH  30  32
HETATM   32  O1  UNL     1      -4.273  43.622 -33.903  1.00  0.00    -0.392 OA
HETATM   33  H5  UNL     1      -5.020  43.643 -34.525  1.00  0.00     0.210 HD
ENDBRANCH  30  32
ENDBRANCH  29  30
ENDBRANCH   1  28
BRANCH   1  34
HETATM   34  O2  UNL     1      -8.972  45.701 -32.857  1.00  0.00    -0.385 OA
HETATM   35  H8  UNL     1      -8.729  45.508 -33.780  1.00  0.00     0.211 HD
ENDBRANCH   1  34
TORSDOF 12
ENDMDL
MODEL 8
REMARK minimizedAffinity -8.22268581
REMARK CNNscore 0.450366735
REMARK CNNaffinity 4.61124229
REMARK  12 active torsions:
REMARK  status: ('A' for Active; 'I' for Inactive)
REMARK    1  A    between atoms: C2_2  and  O1_3 
REMARK    2  A    between atoms: C2_2  and  C3_4 
REMARK    3  A    between atoms: C4_5  and  C5_6 
REMARK    4  A    between atoms: C5_6  and  O2_7 
REMARK    5  A    between atoms: C8_10  and  O3_11 
REMARK    6  A    between atoms: O3_11  and  C9_12 
REMARK    7  A    between atoms: C10_14  and  C11_15 
REMARK    8  A    between atoms: C11_15  and  O5_16 
REMARK    9  A    between atoms: C12_17  and  O6_18 
REMARK   10  A    between atoms: C13_19  and  O7_20 
REMARK   11  A    between atoms: C14_21  and  O8_22 
REMARK   12  A    between atoms: C15_23  and  O9_24 
ROOT
HETATM    1  C5  UNL     1       5.621  65.182 -36.180  1.00  0.00     0.088 C 
HETATM    2  C6  UNL     1       4.437  66.083 -36.658  1.00  0.00     0.052 C 
HETATM    3  C7  UNL     1       3.811  66.989 -35.582  1.00  0.00     0.016 C 
HETATM    4  C8  UNL     1       4.776  66.947 -37.905  1.00  0.00     0.160 C 
HETATM    5  C15 UNL     1       5.926  66.348 -38.739  1.00  0.00     0.148 C 
HETATM    6  C16 UNL     1       7.217  66.147 -37.927  1.00  0.00     0.046 C 
HETATM    7  C17 UNL     1       7.027  65.843 -36.411  1.00  0.00    -0.010 C 
HETATM    8  C18 UNL     1       8.181  64.898 -35.981  1.00  0.00     0.018 C 
HETATM    9  C19 UNL     1       7.222  67.154 -35.614  1.00  0.00     0.018 C 
ENDROOT
BRANCH   4  10
HETATM   10  O3  UNL     1       3.545  67.038 -38.652  1.00  0.00    -0.350 OA
BRANCH  10  11
HETATM   11  C9  UNL     1       3.320  68.292 -39.294  1.00  0.00     0.292 C 
HETATM   12  O4  UNL     1       2.317  69.010 -38.573  1.00  0.00    -0.348 OA
HETATM   13  C10 UNL     1       1.006  68.435 -38.604  1.00  0.00     0.179 C 
HETATM   14  C12 UNL     1       0.653  67.678 -39.902  1.00  0.00     0.180 C 
HETATM   15  C13 UNL     1       1.460  68.272 -41.055  1.00  0.00     0.183 C 
HETATM   16  C14 UNL     1       2.950  68.063 -40.779  1.00  0.00     0.204 C 
BRANCH  13  17
HETATM   17  C11 UNL     1       0.750  67.563 -37.366  1.00  0.00     0.198 C 
BRANCH  17  18
HETATM   18  O5  UNL     1      -0.605  67.699 -36.931  1.00  0.00    -0.398 OA
HETATM   19  H18 UNL     1      -0.589  68.229 -36.114  1.00  0.00     0.209 HD
ENDBRANCH  17  18
ENDBRANCH  13  17
BRANCH  14  20
HETATM   20  O6  UNL     1      -0.758  67.783 -40.136  1.00  0.00    -0.390 OA
HETATM   21  H20 UNL     1      -1.183  67.338 -39.375  1.00  0.00     0.210 HD
ENDBRANCH  14  20
BRANCH  15  22
HETATM   22  O7  UNL     1       1.144  67.624 -42.299  1.00  0.00    -0.390 OA
HETATM   23  H22 UNL     1       1.661  68.104 -42.976  1.00  0.00     0.210 HD
ENDBRANCH  15  22
BRANCH  16  24
HETATM   24  O8  UNL     1       3.702  68.927 -41.654  1.00  0.00    -0.388 OA
HETATM   25  H24 UNL     1       4.641  68.733 -41.444  1.00  0.00     0.210 HD
ENDBRANCH  16  24
ENDBRANCH  10  11
ENDBRANCH   4  10
BRANCH   5  26
HETATM   26  O9  UNL     1       6.258  67.193 -39.858  1.00  0.00    -0.393 OA
HETATM   27  H26 UNL     1       7.002  66.753 -40.315  1.00  0.00     0.210 HD
ENDBRANCH   5  26
BRANCH   1  28
HETATM   28  C4  UNL     1       5.392  64.645 -34.776  1.00  0.00     0.010 C 
HETATM   29  C3  UNL     1       4.632  63.574 -34.476  1.00  0.00     0.003 C 
BRANCH  29  30
HETATM   30  C2  UNL     1       4.401  63.049 -33.091  1.00  0.00     0.136 C 
HETATM   31  C1  UNL     1       4.200  64.177 -32.091  1.00  0.00     0.043 C 
BRANCH  30  32
HETATM   32  O1  UNL     1       3.230  62.240 -33.131  1.00  0.00    -0.392 OA
HETATM   33  H5  UNL     1       2.470  62.823 -33.294  1.00  0.00     0.210 HD
ENDBRANCH  30  32
ENDBRANCH  29  30
ENDBRANCH   1  28
BRANCH   1  34
HETATM   34  O2  UNL     1       5.590  64.030 -37.057  1.00  0.00    -0.385 OA
HETATM   35  H8  UNL     1       6.072  63.311 -36.613  1.00  0.00     0.211 HD
ENDBRANCH   1  34
TORSDOF 12
ENDMDL
MODEL 9
REMARK minimizedAffinity -7.75463581
REMARK CNNscore 0.424547076
REMARK CNNaffinity 4.82032156
REMARK  12 active torsions:
REMARK  status: ('A' for Active; 'I' for Inactive)
REMARK    1  A    between atoms: C2_2  and  O1_3 
REMARK    2  A    between atoms: C2_2  and  C3_4 
REMARK    3  A    between atoms: C4_5  and  C5_6 
REMARK    4  A    between atoms: C5_6  and  O2_7 
REMARK    5  A    between atoms: C8_10  and  O3_11 
REMARK    6  A    between atoms: O3_11  and  C9_12 
REMARK    7  A    between atoms: C10_14  and  C11_15 
REMARK    8  A    between atoms: C11_15  and  O5_16 
REMARK    9  A    between atoms: C12_17  and  O6_18 
REMARK   10  A    between atoms: C13_19  and  O7_20 
REMARK   11  A    between atoms: C14_21  and  O8_22 
REMARK   12  A    between atoms: C15_23  and  O9_24 
ROOT
HETATM    1  C5  UNL     1       4.663  68.076 -37.353  1.00  0.00     0.088 C 
HETATM    2  C6  UNL     1       5.472  67.248 -36.304  1.00  0.00     0.052 C 
HETATM    3  C7  UNL     1       6.376  68.063 -35.363  1.00  0.00     0.016 C 
HETATM    4  C8  UNL     1       4.590  66.294 -35.450  1.00  0.00     0.160 C 
HETATM    5  C15 UNL     1       3.271  65.924 -36.156  1.00  0.00     0.148 C 
HETATM    6  C16 UNL     1       2.426  67.154 -36.533  1.00  0.00     0.046 C 
HETATM    7  C17 UNL     1       3.221  68.453 -36.858  1.00  0.00    -0.010 C 
HETATM    8  C18 UNL     1       2.425  69.223 -37.945  1.00  0.00     0.018 C 
HETATM    9  C19 UNL     1       3.225  69.357 -35.603  1.00  0.00     0.018 C 
ENDROOT
BRANCH   4  10
HETATM   10  O3  UNL     1       5.417  65.140 -35.192  1.00  0.00    -0.350 OA
BRANCH  10  11
HETATM   11  C9  UNL     1       5.998  65.093 -33.889  1.00  0.00     0.292 C 
HETATM   12  O4  UNL     1       6.546  63.793 -33.672  1.00  0.00    -0.348 OA
HETATM   13  C10 UNL     1       5.593  62.727 -33.596  1.00  0.00     0.179 C 
HETATM   14  C12 UNL     1       4.224  63.114 -33.000  1.00  0.00     0.180 C 
HETATM   15  C13 UNL     1       4.415  64.288 -32.042  1.00  0.00     0.183 C 
HETATM   16  C14 UNL     1       4.942  65.490 -32.829  1.00  0.00     0.204 C 
BRANCH  13  17
HETATM   17  C11 UNL     1       5.430  62.028 -34.954  1.00  0.00     0.198 C 
BRANCH  17  18
HETATM   18  O5  UNL     1       6.307  62.607 -35.923  1.00  0.00    -0.398 OA
HETATM   19  H18 UNL     1       5.754  63.132 -36.529  1.00  0.00     0.209 HD
ENDBRANCH  17  18
ENDBRANCH  13  17
BRANCH  14  20
HETATM   20  O6  UNL     1       3.665  61.974 -32.331  1.00  0.00    -0.390 OA
HETATM   21  H20 UNL     1       3.537  61.299 -33.028  1.00  0.00     0.210 HD
ENDBRANCH  14  20
BRANCH  15  22
HETATM   22  O7  UNL     1       3.172  64.670 -31.429  1.00  0.00    -0.390 OA
HETATM   23  H22 UNL     1       3.404  65.381 -30.801  1.00  0.00     0.210 HD
ENDBRANCH  15  22
BRANCH  16  24
HETATM   24  O8  UNL     1       5.465  66.455 -31.894  1.00  0.00    -0.388 OA
HETATM   25  H24 UNL     1       5.765  67.202 -32.454  1.00  0.00     0.210 HD
ENDBRANCH  16  24
ENDBRANCH  10  11
ENDBRANCH   4  10
BRANCH   5  26
HETATM   26  O9  UNL     1       2.447  65.084 -35.324  1.00  0.00    -0.393 OA
HETATM   27  H26 UNL     1       1.630  64.918 -35.836  1.00  0.00     0.210 HD
ENDBRANCH   5  26
BRANCH   1  28
HETATM   28  C4  UNL     1       5.474  69.241 -37.901  1.00  0.00     0.010 C 
HETATM   29  C3  UNL     1       6.242  69.191 -39.006  1.00  0.00     0.003 C 
BRANCH  29  30
HETATM   30  C2  UNL     1       7.047  70.337 -39.541  1.00  0.00     0.136 C 
HETATM   31  C1  UNL     1       7.008  70.387 -41.061  1.00  0.00     0.043 C 
BRANCH  30  32
HETATM   32  O1  UNL     1       6.486  71.535 -39.015  1.00  0.00    -0.392 OA
HETATM   33  H5  UNL     1       5.608  71.654 -39.415  1.00  0.00     0.210 HD
ENDBRANCH  30  32
ENDBRANCH  29  30
ENDBRANCH   1  28
BRANCH   1  34
HETATM   34  O2  UNL     1       4.462  67.173 -38.467  1.00  0.00    -0.385 OA
HETATM   35  H8  UNL     1       4.264  67.714 -39.251  1.00  0.00     0.211 HD
ENDBRANCH   1  34
TORSDOF 12
ENDMDL
