MODEL 1
REMARK minimizedAffinity -8.57123947
REMARK CNNscore 0.701640725
REMARK CNNaffinity 7.95763397
REMARK  14 active torsions:
REMARK  status: ('A' for Active; 'I' for Inactive)
REMARK    1  A    between atoms: O1_2  and  C2_3 
REMARK    2  A    between atoms: C2_3  and  C5_6 
REMARK    3  A    between atoms: C6_7  and  C7_8 
REMARK    4  A    between atoms: C7_8  and  C8_9 
REMARK    5  A    between atoms: C8_9  and  C10_11 
REMARK    6  A    between atoms: C22_23  and  O2_24 
REMARK    7  A    between atoms: O2_24  and  C23_25 
REMARK    8  A    between atoms: C24_27  and  C25_28 
REMARK    9  A    between atoms: C25_28  and  O4_29 
REMARK   10  A    between atoms: C26_30  and  O5_31 
REMARK   11  A    between atoms: C27_32  and  O6_33 
REMARK   12  A    between atoms: C28_34  and  O7_35 
REMARK   13  A    between atoms: C32_39  and  C33_40 
REMARK   14  A    between atoms: C33_40  and  O8_41 
ROOT
HETATM    1  C10 UNL     1      -6.741   6.658  13.902  1.00  0.00    -0.002 C 
HETATM    2  C11 UNL     1      -6.825   8.008  14.659  1.00  0.00     0.006 C 
HETATM    3  C12 UNL     1      -5.371   8.467  14.931  1.00  0.00     0.011 C 
HETATM    4  C13 UNL     1      -4.475   7.510  14.108  1.00  0.00    -0.032 C 
HETATM    5  C14 UNL     1      -4.434   8.116  12.669  1.00  0.00     0.016 C 
HETATM    6  C15 UNL     1      -3.028   7.291  14.662  1.00  0.00     0.009 C 
HETATM    7  C16 UNL     1      -2.172   8.570  14.717  1.00  0.00     0.033 C 
HETATM    8  C17 UNL     1      -1.328   8.826  13.514  1.00  0.00    -0.022 C 
HETATM    9  C18 UNL     1      -1.016   7.923  12.568  1.00  0.00    -0.068 C 
HETATM   10  C19 UNL     1      -1.480   6.477  12.672  1.00  0.00     0.026 C 
HETATM   11  C20 UNL     1      -0.308   5.511  12.339  1.00  0.00     0.012 C 
HETATM   12  C21 UNL     1       0.566   5.906  11.147  1.00  0.00     0.034 C 
HETATM   13  C22 UNL     1       0.033   7.092  10.353  1.00  0.00     0.136 C 
HETATM   14  C29 UNL     1      -0.219   8.325  11.301  1.00  0.00     0.002 C 
HETATM   15  C30 UNL     1       1.126   8.983  11.718  1.00  0.00     0.022 C 
HETATM   16  C31 UNL     1      -1.026   9.374  10.490  1.00  0.00     0.022 C 
HETATM   17  C32 UNL     1      -2.260   6.062  14.005  1.00  0.00    -0.007 C 
HETATM   18  C34 UNL     1      -3.213   4.844  13.653  1.00  0.00     0.013 C 
HETATM   19  C35 UNL     1      -4.671   5.154  13.273  1.00  0.00     0.011 C 
HETATM   20  C36 UNL     1      -5.293   6.170  14.238  1.00  0.00    -0.032 C 
HETATM   21  C37 UNL     1      -5.277   5.536  15.662  1.00  0.00     0.016 C 
ENDROOT
BRANCH  13  22
HETATM   22  O2  UNL     1       0.971   7.472   9.333  1.00  0.00    -0.352 OA
BRANCH  22  23
HETATM   23  C23 UNL     1       2.320   7.048   9.542  1.00  0.00     0.292 C 
HETATM   24  O3  UNL     1       2.419   5.633   9.384  1.00  0.00    -0.348 OA
HETATM   25  C24 UNL     1       3.775   5.156   9.417  1.00  0.00     0.179 C 
HETATM   26  C26 UNL     1       4.584   5.776  10.574  1.00  0.00     0.180 C 
HETATM   27  C27 UNL     1       3.633   6.377  11.616  1.00  0.00     0.183 C 
HETATM   28  C28 UNL     1       2.715   7.439  10.989  1.00  0.00     0.204 C 
BRANCH  25  29
HETATM   29  C25 UNL     1       3.709   3.624   9.529  1.00  0.00     0.198 C 
BRANCH  29  30
HETATM   30  O4  UNL     1       2.620   3.168  10.323  1.00  0.00    -0.398 OA
HETATM   31  H40 UNL     1       2.579   3.724  11.126  1.00  0.00     0.209 HD
ENDBRANCH  29  30
ENDBRANCH  25  29
BRANCH  26  32
HETATM   32  O5  UNL     1       5.419   6.811  10.027  1.00  0.00    -0.390 OA
HETATM   33  H42 UNL     1       5.487   7.516  10.703  1.00  0.00     0.210 HD
ENDBRANCH  26  32
BRANCH  27  34
HETATM   34  O6  UNL     1       4.384   6.987  12.680  1.00  0.00    -0.390 OA
HETATM   35  H44 UNL     1       4.810   6.264  13.185  1.00  0.00     0.210 HD
ENDBRANCH  27  34
BRANCH  28  36
HETATM   36  O7  UNL     1       3.375   8.721  11.019  1.00  0.00    -0.388 OA
HETATM   37  H46 UNL     1       3.744   8.778  11.927  1.00  0.00     0.210 HD
ENDBRANCH  28  36
ENDBRANCH  22  23
ENDBRANCH  13  22
BRANCH  17  38
HETATM   38  C33 UNL     1      -1.279   5.505  15.100  1.00  0.00     0.174 C 
BRANCH  38  39
HETATM   39  O8  UNL     1      -0.341   6.466  15.553  1.00  0.00    -0.400 OA
HETATM   40  H55 UNL     1       0.224   6.036  16.222  1.00  0.00     0.209 HD
ENDBRANCH  38  39
ENDBRANCH  17  38
BRANCH   1  41
HETATM   41  C8  UNL     1      -7.935   5.670  14.077  1.00  0.00    -0.010 C 
HETATM   42  C9  UNL     1      -7.701   4.406  13.226  1.00  0.00     0.010 C 
BRANCH  41  43
HETATM   43  C7  UNL     1      -9.374   6.211  13.872  1.00  0.00     0.031 C 
BRANCH  43  44
HETATM   44  C6  UNL     1      -9.945   7.143  14.912  1.00  0.00    -0.027 C 
HETATM   45  C5  UNL     1     -10.763   8.158  14.582  1.00  0.00     0.006 C 
BRANCH  45  46
HETATM   46  C2  UNL     1     -11.448   9.153  15.502  1.00  0.00     0.070 C 
HETATM   47  C3  UNL     1     -12.940   8.769  15.583  1.00  0.00     0.050 C 
HETATM   48  C4  UNL     1     -10.905   9.217  16.940  1.00  0.00     0.050 C 
BRANCH  46  49
HETATM   49  O1  UNL     1     -11.430  10.447  14.873  1.00  0.00    -0.382 OA
HETATM   50  C1  UNL     1     -10.149  11.059  14.757  1.00  0.00     0.202 C 
ENDBRANCH  46  49
ENDBRANCH  45  46
ENDBRANCH  43  44
ENDBRANCH  41  43
ENDBRANCH   1  41
TORSDOF 14
ENDMDL
MODEL 2
REMARK minimizedAffinity -7.7351017
REMARK CNNscore 0.484139562
REMARK CNNaffinity 7.56295156
REMARK  14 active torsions:
REMARK  status: ('A' for Active; 'I' for Inactive)
REMARK    1  A    between atoms: O1_2  and  C2_3 
REMARK    2  A    between atoms: C2_3  and  C5_6 
REMARK    3  A    between atoms: C6_7  and  C7_8 
REMARK    4  A    between atoms: C7_8  and  C8_9 
REMARK    5  A    between atoms: C8_9  and  C10_11 
REMARK    6  A    between atoms: C22_23  and  O2_24 
REMARK    7  A    between atoms: O2_24  and  C23_25 
REMARK    8  A    between atoms: C24_27  and  C25_28 
REMARK    9  A    between atoms: C25_28  and  O4_29 
REMARK   10  A    between atoms: C26_30  and  O5_31 
REMARK   11  A    between atoms: C27_32  and  O6_33 
REMARK   12  A    between atoms: C28_34  and  O7_35 
REMARK   13  A    between atoms: C32_39  and  C33_40 
REMARK   14  A    between atoms: C33_40  and  O8_41 
ROOT
HETATM    1  C10 UNL     1      -3.461   6.946  13.044  1.00  0.00    -0.002 C 
HETATM    2  C11 UNL     1      -3.511   5.417  12.793  1.00  0.00     0.006 C 
HETATM    3  C12 UNL     1      -4.831   4.898  13.414  1.00  0.00     0.011 C 
HETATM    4  C13 UNL     1      -5.639   6.165  13.785  1.00  0.00    -0.032 C 
HETATM    5  C14 UNL     1      -6.379   6.584  12.475  1.00  0.00     0.016 C 
HETATM    6  C15 UNL     1      -6.651   6.003  14.968  1.00  0.00     0.009 C 
HETATM    7  C16 UNL     1      -7.765   4.971  14.710  1.00  0.00     0.033 C 
HETATM    8  C17 UNL     1      -9.024   5.523  14.131  1.00  0.00    -0.022 C 
HETATM    9  C18 UNL     1      -9.376   6.820  14.114  1.00  0.00    -0.068 C 
HETATM   10  C19 UNL     1      -8.502   7.886  14.758  1.00  0.00     0.026 C 
HETATM   11  C20 UNL     1      -9.372   8.858  15.604  1.00  0.00     0.012 C 
HETATM   12  C21 UNL     1     -10.694   9.294  14.971  1.00  0.00     0.034 C 
HETATM   13  C22 UNL     1     -10.864   8.854  13.522  1.00  0.00     0.136 C 
HETATM   14  C29 UNL     1     -10.661   7.297  13.390  1.00  0.00     0.002 C 
HETATM   15  C30 UNL     1     -11.892   6.532  13.950  1.00  0.00     0.022 C 
HETATM   16  C31 UNL     1     -10.555   6.973  11.874  1.00  0.00     0.022 C 
HETATM   17  C32 UNL     1      -7.205   7.379  15.543  1.00  0.00    -0.007 C 
HETATM   18  C34 UNL     1      -6.131   8.546  15.517  1.00  0.00     0.013 C 
HETATM   19  C35 UNL     1      -5.073   8.529  14.400  1.00  0.00     0.011 C 
HETATM   20  C36 UNL     1      -4.473   7.129  14.224  1.00  0.00    -0.032 C 
HETATM   21  C37 UNL     1      -3.781   6.742  15.565  1.00  0.00     0.016 C 
ENDROOT
BRANCH  13  22
HETATM   22  O2  UNL     1     -12.176   9.196  13.047  1.00  0.00    -0.352 OA
BRANCH  22  23
HETATM   23  C23 UNL     1     -12.974   9.978  13.939  1.00  0.00     0.292 C 
HETATM   24  O3  UNL     1     -14.182   9.286  14.251  1.00  0.00    -0.348 OA
HETATM   25  C24 UNL     1     -14.958   9.937  15.270  1.00  0.00     0.179 C 
HETATM   26  C26 UNL     1     -15.079  11.456  15.031  1.00  0.00     0.180 C 
HETATM   27  C27 UNL     1     -14.727  11.787  13.575  1.00  0.00     0.183 C 
HETATM   28  C28 UNL     1     -13.308  11.311  13.221  1.00  0.00     0.204 C 
BRANCH  25  29
HETATM   29  C25 UNL     1     -16.336   9.255  15.290  1.00  0.00     0.198 C 
BRANCH  29  30
HETATM   30  O4  UNL     1     -17.361  10.051  14.707  1.00  0.00    -0.398 OA
HETATM   31  H40 UNL     1     -17.258  10.965  15.038  1.00  0.00     0.209 HD
ENDBRANCH  29  30
ENDBRANCH  25  29
BRANCH  26  32
HETATM   32  O5  UNL     1     -14.160  12.119  15.915  1.00  0.00    -0.390 OA
HETATM   33  H42 UNL     1     -13.827  12.911  15.445  1.00  0.00     0.210 HD
ENDBRANCH  26  32
BRANCH  27  34
HETATM   34  O6  UNL     1     -14.805  13.206  13.356  1.00  0.00    -0.390 OA
HETATM   35  H44 UNL     1     -15.752  13.453  13.398  1.00  0.00     0.210 HD
ENDBRANCH  27  34
BRANCH  28  36
HETATM   36  O7  UNL     1     -12.358  12.339  13.566  1.00  0.00    -0.388 OA
HETATM   37  H46 UNL     1     -12.764  13.165  13.223  1.00  0.00     0.210 HD
ENDBRANCH  28  36
ENDBRANCH  22  23
ENDBRANCH  13  22
BRANCH  17  38
HETATM   38  C33 UNL     1      -7.507   7.142  17.068  1.00  0.00     0.174 C 
BRANCH  38  39
HETATM   39  O8  UNL     1      -8.843   7.445  17.428  1.00  0.00    -0.400 OA
HETATM   40  H55 UNL     1      -8.939   7.275  18.383  1.00  0.00     0.209 HD
ENDBRANCH  38  39
ENDBRANCH  17  38
BRANCH   1  41
HETATM   41  C8  UNL     1      -2.051   7.604  13.144  1.00  0.00    -0.010 C 
HETATM   42  C9  UNL     1      -1.994   8.866  12.261  1.00  0.00     0.010 C 
BRANCH  41  43
HETATM   43  C7  UNL     1      -0.804   6.712  12.909  1.00  0.00     0.031 C 
BRANCH  43  44
HETATM   44  C6  UNL     1       0.286   7.228  12.002  1.00  0.00    -0.027 C 
HETATM   45  C5  UNL     1       0.512   6.692  10.790  1.00  0.00     0.006 C 
BRANCH  45  46
HETATM   46  C2  UNL     1       1.534   7.116   9.749  1.00  0.00     0.070 C 
HETATM   47  C3  UNL     1       0.822   8.048   8.746  1.00  0.00     0.050 C 
HETATM   48  C4  UNL     1       2.766   7.864  10.286  1.00  0.00     0.050 C 
BRANCH  46  49
HETATM   49  O1  UNL     1       1.911   5.960   8.980  1.00  0.00    -0.382 OA
HETATM   50  C1  UNL     1       2.630   6.226   7.779  1.00  0.00     0.202 C 
ENDBRANCH  46  49
ENDBRANCH  45  46
ENDBRANCH  43  44
ENDBRANCH  41  43
ENDBRANCH   1  41
TORSDOF 14
ENDMDL
MODEL 3
REMARK minimizedAffinity -7.61755228
REMARK CNNscore 0.477340251
REMARK CNNaffinity 7.43501425
REMARK  14 active torsions:
REMARK  status: ('A' for Active; 'I' for Inactive)
REMARK    1  A    between atoms: O1_2  and  C2_3 
REMARK    2  A    between atoms: C2_3  and  C5_6 
REMARK    3  A    between atoms: C6_7  and  C7_8 
REMARK    4  A    between atoms: C7_8  and  C8_9 
REMARK    5  A    between atoms: C8_9  and  C10_11 
REMARK    6  A    between atoms: C22_23  and  O2_24 
REMARK    7  A    between atoms: O2_24  and  C23_25 
REMARK    8  A    between atoms: C24_27  and  C25_28 
REMARK    9  A    between atoms: C25_28  and  O4_29 
REMARK   10  A    between atoms: C26_30  and  O5_31 
REMARK   11  A    between atoms: C27_32  and  O6_33 
REMARK   12  A    between atoms: C28_34  and  O7_35 
REMARK   13  A    between atoms: C32_39  and  C33_40 
REMARK   14  A    between atoms: C33_40  and  O8_41 
ROOT
HETATM    1  C10 UNL     1     -11.240   8.869  16.382  1.00  0.00    -0.002 C 
HETATM    2  C11 UNL     1     -11.859   9.988  17.258  1.00  0.00     0.006 C 
HETATM    3  C12 UNL     1     -13.269  10.283  16.689  1.00  0.00     0.011 C 
HETATM    4  C13 UNL     1     -13.542   9.159  15.659  1.00  0.00    -0.032 C 
HETATM    5  C14 UNL     1     -14.090   7.957  16.493  1.00  0.00     0.016 C 
HETATM    6  C15 UNL     1     -14.525   9.526  14.498  1.00  0.00     0.009 C 
HETATM    7  C16 UNL     1     -15.946   9.890  14.965  1.00  0.00     0.033 C 
HETATM    8  C17 UNL     1     -16.917   8.758  14.999  1.00  0.00    -0.022 C 
HETATM    9  C18 UNL     1     -16.761   7.573  14.384  1.00  0.00    -0.068 C 
HETATM   10  C19 UNL     1     -15.543   7.285  13.518  1.00  0.00     0.026 C 
HETATM   11  C20 UNL     1     -15.976   6.608  12.188  1.00  0.00     0.012 C 
HETATM   12  C21 UNL     1     -17.050   5.525  12.307  1.00  0.00     0.034 C 
HETATM   13  C22 UNL     1     -17.392   5.146  13.743  1.00  0.00     0.136 C 
HETATM   14  C29 UNL     1     -17.785   6.425  14.574  1.00  0.00     0.002 C 
HETATM   15  C30 UNL     1     -19.204   6.921  14.182  1.00  0.00     0.022 C 
HETATM   16  C31 UNL     1     -17.828   6.008  16.070  1.00  0.00     0.022 C 
HETATM   17  C32 UNL     1     -14.518   8.491  13.290  1.00  0.00    -0.007 C 
HETATM   18  C34 UNL     1     -13.087   7.868  13.007  1.00  0.00     0.013 C 
HETATM   19  C35 UNL     1     -12.127   7.694  14.198  1.00  0.00     0.011 C 
HETATM   20  C36 UNL     1     -12.094   8.951  15.073  1.00  0.00    -0.032 C 
HETATM   21  C37 UNL     1     -11.578  10.126  14.190  1.00  0.00     0.016 C 
ENDROOT
BRANCH  13  22
HETATM   22  O2  UNL     1     -18.488   4.218  13.767  1.00  0.00    -0.352 OA
BRANCH  22  23
HETATM   23  C23 UNL     1     -18.130   2.837  13.861  1.00  0.00     0.292 C 
HETATM   24  O3  UNL     1     -16.798   2.708  14.357  1.00  0.00    -0.348 OA
HETATM   25  C24 UNL     1     -16.429   1.348  14.635  1.00  0.00     0.179 C 
HETATM   26  C26 UNL     1     -16.833   0.389  13.496  1.00  0.00     0.180 C 
HETATM   27  C27 UNL     1     -17.112   1.185  12.215  1.00  0.00     0.183 C 
HETATM   28  C28 UNL     1     -18.216   2.233  12.436  1.00  0.00     0.204 C 
BRANCH  25  29
HETATM   29  C25 UNL     1     -14.911   1.334  14.875  1.00  0.00     0.198 C 
BRANCH  29  30
HETATM   30  O4  UNL     1     -14.559   0.984  16.208  1.00  0.00    -0.398 OA
HETATM   31  H40 UNL     1     -15.149   1.473  16.814  1.00  0.00     0.209 HD
ENDBRANCH  29  30
ENDBRANCH  25  29
BRANCH  26  32
HETATM   32  O5  UNL     1     -18.023  -0.307  13.903  1.00  0.00    -0.390 OA
HETATM   33  H42 UNL     1     -18.562  -0.454  13.098  1.00  0.00     0.210 HD
ENDBRANCH  26  32
BRANCH  27  34
HETATM   34  O6  UNL     1     -17.522   0.299  11.160  1.00  0.00    -0.390 OA
HETATM   35  H44 UNL     1     -16.738  -0.230  10.904  1.00  0.00     0.210 HD
ENDBRANCH  27  34
BRANCH  28  36
HETATM   36  O7  UNL     1     -19.504   1.627  12.205  1.00  0.00    -0.388 OA
HETATM   37  H46 UNL     1     -19.384   1.121  11.373  1.00  0.00     0.210 HD
ENDBRANCH  28  36
ENDBRANCH  22  23
ENDBRANCH  13  22
BRANCH  17  38
HETATM   38  C33 UNL     1     -14.865   9.309  11.993  1.00  0.00     0.174 C 
BRANCH  38  39
HETATM   39  O8  UNL     1     -15.896   8.720  11.218  1.00  0.00    -0.400 OA
HETATM   40  H55 UNL     1     -16.041   9.287  10.438  1.00  0.00     0.209 HD
ENDBRANCH  38  39
ENDBRANCH  17  38
BRANCH   1  41
HETATM   41  C8  UNL     1      -9.685   8.832  16.272  1.00  0.00    -0.010 C 
HETATM   42  C9  UNL     1      -9.214   9.765  15.138  1.00  0.00     0.010 C 
BRANCH  41  43
HETATM   43  C7  UNL     1      -8.987   7.450  16.170  1.00  0.00     0.031 C 
BRANCH  43  44
HETATM   44  C6  UNL     1      -8.596   6.942  14.804  1.00  0.00    -0.027 C 
HETATM   45  C5  UNL     1      -8.269   5.655  14.593  1.00  0.00     0.006 C 
BRANCH  45  46
HETATM   46  C2  UNL     1      -7.894   4.982  13.284  1.00  0.00     0.070 C 
HETATM   47  C3  UNL     1      -8.597   5.748  12.144  1.00  0.00     0.050 C 
HETATM   48  C4  UNL     1      -6.391   4.941  12.960  1.00  0.00     0.050 C 
BRANCH  46  49
HETATM   49  O1  UNL     1      -8.475   3.666  13.263  1.00  0.00    -0.382 OA
HETATM   50  C1  UNL     1      -7.595   2.609  12.891  1.00  0.00     0.202 C 
ENDBRANCH  46  49
ENDBRANCH  45  46
ENDBRANCH  43  44
ENDBRANCH  41  43
ENDBRANCH   1  41
TORSDOF 14
ENDMDL
MODEL 4
REMARK minimizedAffinity -8.18309975
REMARK CNNscore 0.469404399
REMARK CNNaffinity 7.30123329
REMARK  14 active torsions:
REMARK  status: ('A' for Active; 'I' for Inactive)
REMARK    1  A    between atoms: O1_2  and  C2_3 
REMARK    2  A    between atoms: C2_3  and  C5_6 
REMARK    3  A    between atoms: C6_7  and  C7_8 
REMARK    4  A    between atoms: C7_8  and  C8_9 
REMARK    5  A    between atoms: C8_9  and  C10_11 
REMARK    6  A    between atoms: C22_23  and  O2_24 
REMARK    7  A    between atoms: O2_24  and  C23_25 
REMARK    8  A    between atoms: C24_27  and  C25_28 
REMARK    9  A    between atoms: C25_28  and  O4_29 
REMARK   10  A    between atoms: C26_30  and  O5_31 
REMARK   11  A    between atoms: C27_32  and  O6_33 
REMARK   12  A    between atoms: C28_34  and  O7_35 
REMARK   13  A    between atoms: C32_39  and  C33_40 
REMARK   14  A    between atoms: C33_40  and  O8_41 
ROOT
HETATM    1  C10 UNL     1      -3.218   6.375  12.645  1.00  0.00    -0.002 C 
HETATM    2  C11 UNL     1      -3.383   4.918  12.139  1.00  0.00     0.006 C 
HETATM    3  C12 UNL     1      -4.710   4.380  12.730  1.00  0.00     0.011 C 
HETATM    4  C13 UNL     1      -5.413   5.611  13.353  1.00  0.00    -0.032 C 
HETATM    5  C14 UNL     1      -6.174   6.295  12.172  1.00  0.00     0.016 C 
HETATM    6  C15 UNL     1      -6.386   5.307  14.541  1.00  0.00     0.009 C 
HETATM    7  C16 UNL     1      -7.578   4.407  14.167  1.00  0.00     0.033 C 
HETATM    8  C17 UNL     1      -8.818   5.126  13.756  1.00  0.00    -0.022 C 
HETATM    9  C18 UNL     1      -9.080   6.426  13.979  1.00  0.00    -0.068 C 
HETATM   10  C19 UNL     1      -8.109   7.308  14.750  1.00  0.00     0.026 C 
HETATM   11  C20 UNL     1      -8.876   8.170  15.792  1.00  0.00     0.012 C 
HETATM   12  C21 UNL     1     -10.190   8.789  15.311  1.00  0.00     0.034 C 
HETATM   13  C22 UNL     1     -10.447   8.618  13.819  1.00  0.00     0.136 C 
HETATM   14  C29 UNL     1     -10.357   7.098  13.413  1.00  0.00     0.002 C 
HETATM   15  C30 UNL     1     -11.614   6.324  13.897  1.00  0.00     0.022 C 
HETATM   16  C31 UNL     1     -10.334   7.036  11.861  1.00  0.00     0.022 C 
HETATM   17  C32 UNL     1      -6.820   6.594  15.370  1.00  0.00    -0.007 C 
HETATM   18  C34 UNL     1      -5.671   7.680  15.488  1.00  0.00     0.013 C 
HETATM   19  C35 UNL     1      -4.662   7.793  14.331  1.00  0.00     0.011 C 
HETATM   20  C36 UNL     1      -4.167   6.411  13.889  1.00  0.00    -0.032 C 
HETATM   21  C37 UNL     1      -3.450   5.756  15.107  1.00  0.00     0.016 C 
ENDROOT
BRANCH  13  22
HETATM   22  O2  UNL     1     -11.750   9.116  13.477  1.00  0.00    -0.352 OA
BRANCH  22  23
HETATM   23  C23 UNL     1     -12.855   8.379  14.006  1.00  0.00     0.292 C 
HETATM   24  O3  UNL     1     -13.872   8.242  13.015  1.00  0.00    -0.348 OA
HETATM   25  C24 UNL     1     -14.941   7.371  13.422  1.00  0.00     0.179 C 
HETATM   26  C26 UNL     1     -15.418   7.665  14.859  1.00  0.00     0.180 C 
HETATM   27  C27 UNL     1     -14.942   9.055  15.296  1.00  0.00     0.183 C 
HETATM   28  C28 UNL     1     -13.411   9.173  15.216  1.00  0.00     0.204 C 
BRANCH  25  29
HETATM   29  C25 UNL     1     -16.077   7.548  12.401  1.00  0.00     0.198 C 
BRANCH  29  30
HETATM   30  O4  UNL     1     -15.702   7.181  11.079  1.00  0.00    -0.398 OA
HETATM   31  H40 UNL     1     -14.817   7.557  10.902  1.00  0.00     0.209 HD
ENDBRANCH  29  30
ENDBRANCH  25  29
BRANCH  26  32
HETATM   32  O5  UNL     1     -14.855   6.665  15.726  1.00  0.00    -0.390 OA
HETATM   33  H42 UNL     1     -14.672   7.098  16.585  1.00  0.00     0.210 HD
ENDBRANCH  26  32
BRANCH  27  34
HETATM   34  O6  UNL     1     -15.355   9.319  16.647  1.00  0.00    -0.390 OA
HETATM   35  H44 UNL     1     -16.328   9.431  16.636  1.00  0.00     0.210 HD
ENDBRANCH  27  34
BRANCH  28  36
HETATM   36  O7  UNL     1     -12.830   8.711  16.453  1.00  0.00    -0.388 OA
HETATM   37  H46 UNL     1     -13.380   9.133  17.147  1.00  0.00     0.210 HD
ENDBRANCH  28  36
ENDBRANCH  22  23
ENDBRANCH  13  22
BRANCH  17  38
HETATM   38  C33 UNL     1      -7.077   6.115  16.845  1.00  0.00     0.174 C 
BRANCH  38  39
HETATM   39  O8  UNL     1      -7.396   7.175  17.730  1.00  0.00    -0.400 OA
HETATM   40  H55 UNL     1      -7.533   6.791  18.616  1.00  0.00     0.209 HD
ENDBRANCH  38  39
ENDBRANCH  17  38
BRANCH   1  41
HETATM   41  C8  UNL     1      -1.763   6.918  12.784  1.00  0.00    -0.010 C 
HETATM   42  C9  UNL     1      -1.739   8.435  12.513  1.00  0.00     0.010 C 
BRANCH  41  43
HETATM   43  C7  UNL     1      -0.632   6.203  12.000  1.00  0.00     0.031 C 
BRANCH  43  44
HETATM   44  C6  UNL     1       0.242   7.028  11.088  1.00  0.00    -0.027 C 
HETATM   45  C5  UNL     1       1.160   6.464  10.284  1.00  0.00     0.006 C 
BRANCH  45  46
HETATM   46  C2  UNL     1       2.084   7.143   9.287  1.00  0.00     0.070 C 
HETATM   47  C3  UNL     1       2.639   6.055   8.345  1.00  0.00     0.050 C 
HETATM   48  C4  UNL     1       1.439   8.231   8.412  1.00  0.00     0.050 C 
BRANCH  46  49
HETATM   49  O1  UNL     1       3.231   7.645   9.995  1.00  0.00    -0.382 OA
HETATM   50  C1  UNL     1       3.861   6.723  10.880  1.00  0.00     0.202 C 
ENDBRANCH  46  49
ENDBRANCH  45  46
ENDBRANCH  43  44
ENDBRANCH  41  43
ENDBRANCH   1  41
TORSDOF 14
ENDMDL
MODEL 5
REMARK minimizedAffinity -8.60404396
REMARK CNNscore 0.397871912
REMARK CNNaffinity 6.70004702
REMARK  14 active torsions:
REMARK  status: ('A' for Active; 'I' for Inactive)
REMARK    1  A    between atoms: O1_2  and  C2_3 
REMARK    2  A    between atoms: C2_3  and  C5_6 
REMARK    3  A    between atoms: C6_7  and  C7_8 
REMARK    4  A    between atoms: C7_8  and  C8_9 
REMARK    5  A    between atoms: C8_9  and  C10_11 
REMARK    6  A    between atoms: C22_23  and  O2_24 
REMARK    7  A    between atoms: O2_24  and  C23_25 
REMARK    8  A    between atoms: C24_27  and  C25_28 
REMARK    9  A    between atoms: C25_28  and  O4_29 
REMARK   10  A    between atoms: C26_30  and  O5_31 
REMARK   11  A    between atoms: C27_32  and  O6_33 
REMARK   12  A    between atoms: C28_34  and  O7_35 
REMARK   13  A    between atoms: C32_39  and  C33_40 
REMARK   14  A    between atoms: C33_40  and  O8_41 
ROOT
HETATM    1  C10 UNL     1      -0.855   6.796  12.614  1.00  0.00    -0.002 C 
HETATM    2  C11 UNL     1      -0.728   7.837  11.472  1.00  0.00     0.006 C 
HETATM    3  C12 UNL     1      -1.197   9.198  12.045  1.00  0.00     0.011 C 
HETATM    4  C13 UNL     1      -1.343   8.975  13.571  1.00  0.00    -0.032 C 
HETATM    5  C14 UNL     1       0.089   9.182  14.158  1.00  0.00     0.016 C 
HETATM    6  C15 UNL     1      -2.380   9.897  14.295  1.00  0.00     0.009 C 
HETATM    7  C16 UNL     1      -2.054  11.400  14.215  1.00  0.00     0.033 C 
HETATM    8  C17 UNL     1      -1.258  11.942  15.355  1.00  0.00    -0.022 C 
HETATM    9  C18 UNL     1      -1.083  11.340  16.544  1.00  0.00    -0.068 C 
HETATM   10  C19 UNL     1      -1.753  10.011  16.866  1.00  0.00     0.026 C 
HETATM   11  C20 UNL     1      -2.382  10.056  18.286  1.00  0.00     0.012 C 
HETATM   12  C21 UNL     1      -1.534  10.719  19.373  1.00  0.00     0.034 C 
HETATM   13  C22 UNL     1      -0.118  11.065  18.930  1.00  0.00     0.136 C 
HETATM   14  C29 UNL     1      -0.146  11.943  17.622  1.00  0.00     0.002 C 
HETATM   15  C30 UNL     1      -0.589  13.397  17.945  1.00  0.00     0.022 C 
HETATM   16  C31 UNL     1       1.306  12.003  17.075  1.00  0.00     0.022 C 
HETATM   17  C32 UNL     1      -2.754   9.423  15.767  1.00  0.00    -0.007 C 
HETATM   18  C34 UNL     1      -2.782   7.845  15.928  1.00  0.00     0.013 C 
HETATM   19  C35 UNL     1      -1.831   7.012  15.051  1.00  0.00     0.011 C 
HETATM   20  C36 UNL     1      -1.860   7.487  13.594  1.00  0.00    -0.032 C 
HETATM   21  C37 UNL     1      -3.313   7.297  13.066  1.00  0.00     0.016 C 
ENDROOT
BRANCH  13  22
HETATM   22  O2  UNL     1       0.565  11.791  19.965  1.00  0.00    -0.352 OA
BRANCH  22  23
HETATM   23  C23 UNL     1       1.839  11.269  20.351  1.00  0.00     0.292 C 
HETATM   24  O3  UNL     1       1.668  10.158  21.230  1.00  0.00    -0.348 OA
HETATM   25  C24 UNL     1       2.900   9.480  21.527  1.00  0.00     0.179 C 
HETATM   26  C26 UNL     1       4.037  10.462  21.876  1.00  0.00     0.180 C 
HETATM   27  C27 UNL     1       3.454  11.834  22.235  1.00  0.00     0.183 C 
HETATM   28  C28 UNL     1       2.605  12.400  21.085  1.00  0.00     0.204 C 
BRANCH  25  29
HETATM   29  C25 UNL     1       2.612   8.513  22.687  1.00  0.00     0.198 C 
BRANCH  29  30
HETATM   30  O4  UNL     1       1.421   7.758  22.502  1.00  0.00    -0.398 OA
HETATM   31  H40 UNL     1       0.725   8.366  22.182  1.00  0.00     0.209 HD
ENDBRANCH  29  30
ENDBRANCH  25  29
BRANCH  26  32
HETATM   32  O5  UNL     1       4.887  10.584  20.722  1.00  0.00    -0.390 OA
HETATM   33  H42 UNL     1       5.218  11.506  20.703  1.00  0.00     0.210 HD
ENDBRANCH  26  32
BRANCH  27  34
HETATM   34  O6  UNL     1       4.512  12.762  22.527  1.00  0.00    -0.390 OA
HETATM   35  H44 UNL     1       4.916  12.484  23.375  1.00  0.00     0.210 HD
ENDBRANCH  27  34
BRANCH  28  36
HETATM   36  O7  UNL     1       3.456  13.127  20.174  1.00  0.00    -0.388 OA
HETATM   37  H46 UNL     1       4.022  13.673  20.762  1.00  0.00     0.210 HD
ENDBRANCH  28  36
ENDBRANCH  22  23
ENDBRANCH  13  22
BRANCH  17  38
HETATM   38  C33 UNL     1      -4.235   9.882  16.027  1.00  0.00     0.174 C 
BRANCH  38  39
HETATM   39  O8  UNL     1      -5.071   9.743  14.892  1.00  0.00    -0.400 OA
HETATM   40  H55 UNL     1      -5.962  10.052  15.140  1.00  0.00     0.209 HD
ENDBRANCH  38  39
ENDBRANCH  17  38
BRANCH   1  41
HETATM   41  C8  UNL     1      -1.099   5.313  12.198  1.00  0.00    -0.010 C 
HETATM   42  C9  UNL     1      -2.138   4.667  13.136  1.00  0.00     0.010 C 
BRANCH  41  43
HETATM   43  C7  UNL     1       0.132   4.385  12.021  1.00  0.00     0.031 C 
BRANCH  43  44
HETATM   44  C6  UNL     1       1.186   4.776  11.015  1.00  0.00    -0.027 C 
HETATM   45  C5  UNL     1       2.163   5.651  11.315  1.00  0.00     0.006 C 
BRANCH  45  46
HETATM   46  C2  UNL     1       3.312   6.117  10.438  1.00  0.00     0.070 C 
HETATM   47  C3  UNL     1       3.717   4.937   9.530  1.00  0.00     0.050 C 
HETATM   48  C4  UNL     1       3.014   7.322   9.530  1.00  0.00     0.050 C 
BRANCH  46  49
HETATM   49  O1  UNL     1       4.458   6.355  11.273  1.00  0.00    -0.382 OA
HETATM   50  C1  UNL     1       5.473   7.180  10.707  1.00  0.00     0.202 C 
ENDBRANCH  46  49
ENDBRANCH  45  46
ENDBRANCH  43  44
ENDBRANCH  41  43
ENDBRANCH   1  41
TORSDOF 14
ENDMDL
MODEL 6
REMARK minimizedAffinity -7.43291187
REMARK CNNscore 0.396131665
REMARK CNNaffinity 6.85885382
REMARK  14 active torsions:
REMARK  status: ('A' for Active; 'I' for Inactive)
REMARK    1  A    between atoms: O1_2  and  C2_3 
REMARK    2  A    between atoms: C2_3  and  C5_6 
REMARK    3  A    between atoms: C6_7  and  C7_8 
REMARK    4  A    between atoms: C7_8  and  C8_9 
REMARK    5  A    between atoms: C8_9  and  C10_11 
REMARK    6  A    between atoms: C22_23  and  O2_24 
REMARK    7  A    between atoms: O2_24  and  C23_25 
REMARK    8  A    between atoms: C24_27  and  C25_28 
REMARK    9  A    between atoms: C25_28  and  O4_29 
REMARK   10  A    between atoms: C26_30  and  O5_31 
REMARK   11  A    between atoms: C27_32  and  O6_33 
REMARK   12  A    between atoms: C28_34  and  O7_35 
REMARK   13  A    between atoms: C32_39  and  C33_40 
REMARK   14  A    between atoms: C33_40  and  O8_41 
ROOT
HETATM    1  C10 UNL     1      -5.625 -10.331   0.173  1.00  0.00    -0.002 C 
HETATM    2  C11 UNL     1      -4.748 -11.257  -0.710  1.00  0.00     0.006 C 
HETATM    3  C12 UNL     1      -5.610 -11.674  -1.926  1.00  0.00     0.011 C 
HETATM    4  C13 UNL     1      -6.876 -10.784  -1.861  1.00  0.00    -0.032 C 
HETATM    5  C14 UNL     1      -6.477  -9.445  -2.558  1.00  0.00     0.016 C 
HETATM    6  C15 UNL     1      -8.165 -11.388  -2.511  1.00  0.00     0.009 C 
HETATM    7  C16 UNL     1      -8.041 -11.665  -4.020  1.00  0.00     0.033 C 
HETATM    8  C17 UNL     1      -8.496 -10.560  -4.912  1.00  0.00    -0.022 C 
HETATM    9  C18 UNL     1      -9.266  -9.522  -4.542  1.00  0.00    -0.068 C 
HETATM   10  C19 UNL     1      -9.807  -9.403  -3.125  1.00  0.00     0.026 C 
HETATM   11  C20 UNL     1     -11.311  -9.012  -3.153  1.00  0.00     0.012 C 
HETATM   12  C21 UNL     1     -11.705  -7.939  -4.169  1.00  0.00     0.034 C 
HETATM   13  C22 UNL     1     -10.520  -7.281  -4.867  1.00  0.00     0.136 C 
HETATM   14  C29 UNL     1      -9.593  -8.370  -5.527  1.00  0.00     0.002 C 
HETATM   15  C30 UNL     1     -10.251  -8.949  -6.810  1.00  0.00     0.022 C 
HETATM   16  C31 UNL     1      -8.278  -7.660  -5.952  1.00  0.00     0.022 C 
HETATM   17  C32 UNL     1      -9.505 -10.619  -2.132  1.00  0.00    -0.007 C 
HETATM   18  C34 UNL     1      -9.503 -10.051  -0.651  1.00  0.00     0.013 C 
HETATM   19  C35 UNL     1      -8.155  -9.631  -0.040  1.00  0.00     0.011 C 
HETATM   20  C36 UNL     1      -7.074 -10.685  -0.301  1.00  0.00    -0.032 C 
HETATM   21  C37 UNL     1      -7.534 -12.008   0.380  1.00  0.00     0.016 C 
ENDROOT
BRANCH  13  22
HETATM   22  O2  UNL     1     -10.980  -6.378  -5.886  1.00  0.00    -0.352 OA
BRANCH  22  23
HETATM   23  C23 UNL     1     -11.064  -5.003  -5.505  1.00  0.00     0.292 C 
HETATM   24  O3  UNL     1     -11.367  -4.197  -6.643  1.00  0.00    -0.348 OA
HETATM   25  C24 UNL     1     -11.630  -2.824  -6.307  1.00  0.00     0.179 C 
HETATM   26  C26 UNL     1     -10.591  -2.255  -5.320  1.00  0.00     0.180 C 
HETATM   27  C27 UNL     1      -9.339  -3.142  -5.307  1.00  0.00     0.183 C 
HETATM   28  C28 UNL     1      -9.685  -4.592  -4.928  1.00  0.00     0.204 C 
BRANCH  25  29
HETATM   29  C25 UNL     1     -11.649  -2.035  -7.627  1.00  0.00     0.198 C 
BRANCH  29  30
HETATM   30  O4  UNL     1     -10.769  -0.918  -7.622  1.00  0.00    -0.398 OA
HETATM   31  H40 UNL     1     -10.876  -0.454  -6.768  1.00  0.00     0.209 HD
ENDBRANCH  29  30
ENDBRANCH  25  29
BRANCH  26  32
HETATM   32  O5  UNL     1     -11.185  -2.237  -4.011  1.00  0.00    -0.390 OA
HETATM   33  H42 UNL     1     -10.471  -2.420  -3.366  1.00  0.00     0.210 HD
ENDBRANCH  26  32
BRANCH  27  34
HETATM   34  O6  UNL     1      -8.381  -2.634  -4.363  1.00  0.00    -0.390 OA
HETATM   35  H44 UNL     1      -8.033  -1.795  -4.727  1.00  0.00     0.210 HD
ENDBRANCH  27  34
BRANCH  28  36
HETATM   36  O7  UNL     1      -9.660  -4.730  -3.493  1.00  0.00    -0.388 OA
HETATM   37  H46 UNL     1      -8.834  -4.272  -3.223  1.00  0.00     0.210 HD
ENDBRANCH  28  36
ENDBRANCH  22  23
ENDBRANCH  13  22
BRANCH  17  38
HETATM   38  C33 UNL     1     -10.660 -11.686  -2.154  1.00  0.00     0.174 C 
BRANCH  38  39
HETATM   39  O8  UNL     1     -10.328 -12.884  -1.476  1.00  0.00    -0.400 OA
HETATM   40  H55 UNL     1     -11.093 -13.485  -1.543  1.00  0.00     0.209 HD
ENDBRANCH  38  39
ENDBRANCH  17  38
BRANCH   1  41
HETATM   41  C8  UNL     1      -5.312 -10.301   1.700  1.00  0.00    -0.010 C 
HETATM   42  C9  UNL     1      -6.095  -9.158   2.376  1.00  0.00     0.010 C 
BRANCH  41  43
HETATM   43  C7  UNL     1      -3.826 -10.288   2.147  1.00  0.00     0.031 C 
BRANCH  43  44
HETATM   44  C6  UNL     1      -3.513  -9.957   3.585  1.00  0.00    -0.027 C 
HETATM   45  C5  UNL     1      -3.947 -10.725   4.600  1.00  0.00     0.006 C 
BRANCH  45  46
HETATM   46  C2  UNL     1      -3.689 -10.554   6.087  1.00  0.00     0.070 C 
HETATM   47  C3  UNL     1      -2.604 -11.573   6.495  1.00  0.00     0.050 C 
HETATM   48  C4  UNL     1      -3.209  -9.161   6.527  1.00  0.00     0.050 C 
BRANCH  46  49
HETATM   49  O1  UNL     1      -4.868 -10.957   6.806  1.00  0.00    -0.382 OA
HETATM   50  C1  UNL     1      -4.872 -10.661   8.200  1.00  0.00     0.202 C 
ENDBRANCH  46  49
ENDBRANCH  45  46
ENDBRANCH  43  44
ENDBRANCH  41  43
ENDBRANCH   1  41
TORSDOF 14
ENDMDL
MODEL 7
REMARK minimizedAffinity -9.06557655
REMARK CNNscore 0.348258138
REMARK CNNaffinity 6.84730911
REMARK  14 active torsions:
REMARK  status: ('A' for Active; 'I' for Inactive)
REMARK    1  A    between atoms: O1_2  and  C2_3 
REMARK    2  A    between atoms: C2_3  and  C5_6 
REMARK    3  A    between atoms: C6_7  and  C7_8 
REMARK    4  A    between atoms: C7_8  and  C8_9 
REMARK    5  A    between atoms: C8_9  and  C10_11 
REMARK    6  A    between atoms: C22_23  and  O2_24 
REMARK    7  A    between atoms: O2_24  and  C23_25 
REMARK    8  A    between atoms: C24_27  and  C25_28 
REMARK    9  A    between atoms: C25_28  and  O4_29 
REMARK   10  A    between atoms: C26_30  and  O5_31 
REMARK   11  A    between atoms: C27_32  and  O6_33 
REMARK   12  A    between atoms: C28_34  and  O7_35 
REMARK   13  A    between atoms: C32_39  and  C33_40 
REMARK   14  A    between atoms: C33_40  and  O8_41 
ROOT
HETATM    1  C10 UNL     1      -1.228   4.576  12.166  1.00  0.00    -0.002 C 
HETATM    2  C11 UNL     1      -1.405   4.807  10.643  1.00  0.00     0.006 C 
HETATM    3  C12 UNL     1      -0.500   6.004  10.258  1.00  0.00     0.011 C 
HETATM    4  C13 UNL     1       0.374   6.280  11.506  1.00  0.00    -0.032 C 
HETATM    5  C14 UNL     1       1.577   5.289  11.396  1.00  0.00     0.016 C 
HETATM    6  C15 UNL     1       0.878   7.752  11.670  1.00  0.00     0.009 C 
HETATM    7  C16 UNL     1       1.784   8.241  10.525  1.00  0.00     0.033 C 
HETATM    8  C17 UNL     1       3.247   8.055  10.744  1.00  0.00    -0.022 C 
HETATM    9  C18 UNL     1       3.837   7.806  11.926  1.00  0.00    -0.068 C 
HETATM   10  C19 UNL     1       3.030   7.738  13.215  1.00  0.00     0.026 C 
HETATM   11  C20 UNL     1       3.743   8.538  14.340  1.00  0.00     0.012 C 
HETATM   12  C21 UNL     1       5.260   8.361  14.428  1.00  0.00     0.034 C 
HETATM   13  C22 UNL     1       5.813   7.275  13.512  1.00  0.00     0.136 C 
HETATM   14  C29 UNL     1       5.358   7.523  12.024  1.00  0.00     0.002 C 
HETATM   15  C30 UNL     1       6.151   8.702  11.395  1.00  0.00     0.022 C 
HETATM   16  C31 UNL     1       5.701   6.241  11.217  1.00  0.00     0.022 C 
HETATM   17  C32 UNL     1       1.472   8.079  13.110  1.00  0.00    -0.007 C 
HETATM   18  C34 UNL     1       0.725   7.316  14.282  1.00  0.00     0.013 C 
HETATM   19  C35 UNL     1       0.120   5.934  13.976  1.00  0.00     0.011 C 
HETATM   20  C36 UNL     1      -0.653   5.948  12.653  1.00  0.00    -0.032 C 
HETATM   21  C37 UNL     1      -1.816   6.974  12.799  1.00  0.00     0.016 C 
ENDROOT
BRANCH  13  22
HETATM   22  O2  UNL     1       7.248   7.260  13.565  1.00  0.00    -0.352 OA
BRANCH  22  23
HETATM   23  C23 UNL     1       7.857   8.385  14.203  1.00  0.00     0.292 C 
HETATM   24  O3  UNL     1       8.978   8.833  13.441  1.00  0.00    -0.348 OA
HETATM   25  C24 UNL     1       9.539  10.061  13.932  1.00  0.00     0.179 C 
HETATM   26  C26 UNL     1       9.710  10.053  15.465  1.00  0.00     0.180 C 
HETATM   27  C27 UNL     1       9.653   8.614  15.991  1.00  0.00     0.183 C 
HETATM   28  C28 UNL     1       8.331   7.930  15.606  1.00  0.00     0.204 C 
BRANCH  25  29
HETATM   29  C25 UNL     1      10.884  10.259  13.213  1.00  0.00     0.198 C 
BRANCH  29  30
HETATM   30  O4  UNL     1      10.738  10.659  11.856  1.00  0.00    -0.398 OA
HETATM   31  H40 UNL     1      10.040  10.106  11.452  1.00  0.00     0.209 HD
ENDBRANCH  29  30
ENDBRANCH  25  29
BRANCH  26  32
HETATM   32  O5  UNL     1       8.637  10.820  16.035  1.00  0.00    -0.390 OA
HETATM   33  H42 UNL     1       8.405  10.403  16.890  1.00  0.00     0.210 HD
ENDBRANCH  26  32
BRANCH  27  34
HETATM   34  O6  UNL     1       9.777   8.604  17.424  1.00  0.00    -0.390 OA
HETATM   35  H44 UNL     1      10.698   8.862  17.636  1.00  0.00     0.210 HD
ENDBRANCH  27  34
BRANCH  28  36
HETATM   36  O7  UNL     1       7.334   8.216  16.609  1.00  0.00    -0.388 OA
HETATM   37  H46 UNL     1       7.802   8.071  17.460  1.00  0.00     0.210 HD
ENDBRANCH  28  36
ENDBRANCH  22  23
ENDBRANCH  13  22
BRANCH  17  38
HETATM   38  C33 UNL     1       1.193   9.603  13.378  1.00  0.00     0.174 C 
BRANCH  38  39
HETATM   39  O8  UNL     1       2.252  10.447  12.962  1.00  0.00    -0.400 OA
HETATM   40  H55 UNL     1       1.998  11.366  13.168  1.00  0.00     0.209 HD
ENDBRANCH  38  39
ENDBRANCH  17  38
BRANCH   1  41
HETATM   41  C8  UNL     1      -2.428   3.941  12.932  1.00  0.00    -0.010 C 
HETATM   42  C9  UNL     1      -3.011   2.768  12.119  1.00  0.00     0.010 C 
BRANCH  41  43
HETATM   43  C7  UNL     1      -3.560   4.877  13.433  1.00  0.00     0.031 C 
BRANCH  43  44
HETATM   44  C6  UNL     1      -4.991   4.470  13.183  1.00  0.00    -0.027 C 
HETATM   45  C5  UNL     1      -6.024   5.155  13.704  1.00  0.00     0.006 C 
BRANCH  45  46
HETATM   46  C2  UNL     1      -7.510   4.903  13.518  1.00  0.00     0.070 C 
HETATM   47  C3  UNL     1      -7.947   5.610  12.218  1.00  0.00     0.050 C 
HETATM   48  C4  UNL     1      -7.930   3.427  13.409  1.00  0.00     0.050 C 
BRANCH  46  49
HETATM   49  O1  UNL     1      -8.225   5.579  14.568  1.00  0.00    -0.382 OA
HETATM   50  C1  UNL     1      -7.675   5.441  15.875  1.00  0.00     0.202 C 
ENDBRANCH  46  49
ENDBRANCH  45  46
ENDBRANCH  43  44
ENDBRANCH  41  43
ENDBRANCH   1  41
TORSDOF 14
ENDMDL
MODEL 8
REMARK minimizedAffinity -7.39168644
REMARK CNNscore 0.313793719
REMARK CNNaffinity 6.32179451
REMARK  14 active torsions:
REMARK  status: ('A' for Active; 'I' for Inactive)
REMARK    1  A    between atoms: O1_2  and  C2_3 
REMARK    2  A    between atoms: C2_3  and  C5_6 
REMARK    3  A    between atoms: C6_7  and  C7_8 
REMARK    4  A    between atoms: C7_8  and  C8_9 
REMARK    5  A    between atoms: C8_9  and  C10_11 
REMARK    6  A    between atoms: C22_23  and  O2_24 
REMARK    7  A    between atoms: O2_24  and  C23_25 
REMARK    8  A    between atoms: C24_27  and  C25_28 
REMARK    9  A    between atoms: C25_28  and  O4_29 
REMARK   10  A    between atoms: C26_30  and  O5_31 
REMARK   11  A    between atoms: C27_32  and  O6_33 
REMARK   12  A    between atoms: C28_34  and  O7_35 
REMARK   13  A    between atoms: C32_39  and  C33_40 
REMARK   14  A    between atoms: C33_40  and  O8_41 
ROOT
HETATM    1  C10 UNL     1      -2.003   8.169  13.505  1.00  0.00    -0.002 C 
HETATM    2  C11 UNL     1      -2.799   7.138  14.347  1.00  0.00     0.006 C 
HETATM    3  C12 UNL     1      -2.875   7.693  15.791  1.00  0.00     0.011 C 
HETATM    4  C13 UNL     1      -2.348   9.147  15.703  1.00  0.00    -0.032 C 
HETATM    5  C14 UNL     1      -3.578  10.007  15.269  1.00  0.00     0.016 C 
HETATM    6  C15 UNL     1      -1.704   9.716  17.011  1.00  0.00     0.009 C 
HETATM    7  C16 UNL     1      -2.668   9.792  18.209  1.00  0.00     0.033 C 
HETATM    8  C17 UNL     1      -3.379  11.092  18.375  1.00  0.00    -0.022 C 
HETATM    9  C18 UNL     1      -3.033  12.255  17.794  1.00  0.00    -0.068 C 
HETATM   10  C19 UNL     1      -1.797  12.361  16.913  1.00  0.00     0.026 C 
HETATM   11  C20 UNL     1      -0.986  13.636  17.275  1.00  0.00     0.012 C 
HETATM   12  C21 UNL     1      -1.806  14.903  17.525  1.00  0.00     0.034 C 
HETATM   13  C22 UNL     1      -3.286  14.759  17.192  1.00  0.00     0.136 C 
HETATM   14  C29 UNL     1      -3.907  13.526  17.951  1.00  0.00     0.002 C 
HETATM   15  C30 UNL     1      -4.097  13.846  19.459  1.00  0.00     0.022 C 
HETATM   16  C31 UNL     1      -5.312  13.269  17.343  1.00  0.00     0.022 C 
HETATM   17  C32 UNL     1      -0.878  11.058  16.797  1.00  0.00    -0.007 C 
HETATM   18  C34 UNL     1      -0.125  11.115  15.402  1.00  0.00     0.013 C 
HETATM   19  C35 UNL     1      -0.763  10.385  14.207  1.00  0.00     0.011 C 
HETATM   20  C36 UNL     1      -1.235   8.981  14.601  1.00  0.00    -0.032 C 
HETATM   21  C37 UNL     1       0.017   8.176  15.060  1.00  0.00     0.016 C 
ENDROOT
BRANCH  13  22
HETATM   22  O2  UNL     1      -4.001  15.947  17.570  1.00  0.00    -0.352 OA
BRANCH  22  23
HETATM   23  C23 UNL     1      -4.597  16.680  16.497  1.00  0.00     0.292 C 
HETATM   24  O3  UNL     1      -5.832  16.075  16.117  1.00  0.00    -0.348 OA
HETATM   25  C24 UNL     1      -6.569  16.851  15.157  1.00  0.00     0.179 C 
HETATM   26  C26 UNL     1      -5.673  17.362  14.010  1.00  0.00     0.180 C 
HETATM   27  C27 UNL     1      -4.368  16.559  13.965  1.00  0.00     0.183 C 
HETATM   28  C28 UNL     1      -3.611  16.645  15.301  1.00  0.00     0.204 C 
BRANCH  25  29
HETATM   29  C25 UNL     1      -7.705  15.957  14.634  1.00  0.00     0.198 C 
BRANCH  29  30
HETATM   30  O4  UNL     1      -7.341  14.584  14.548  1.00  0.00    -0.398 OA
HETATM   31  H40 UNL     1      -6.450  14.533  14.150  1.00  0.00     0.209 HD
ENDBRANCH  29  30
ENDBRANCH  25  29
BRANCH  26  32
HETATM   32  O5  UNL     1      -5.381  18.747  14.260  1.00  0.00    -0.390 OA
HETATM   33  H42 UNL     1      -4.474  18.915  13.931  1.00  0.00     0.210 HD
ENDBRANCH  26  32
BRANCH  27  34
HETATM   34  O6  UNL     1      -3.516  17.054  12.919  1.00  0.00    -0.390 OA
HETATM   35  H44 UNL     1      -3.933  16.813  12.067  1.00  0.00     0.210 HD
ENDBRANCH  27  34
BRANCH  28  36
HETATM   36  O7  UNL     1      -2.761  17.811  15.295  1.00  0.00    -0.388 OA
HETATM   37  H46 UNL     1      -2.326  17.783  14.415  1.00  0.00     0.210 HD
ENDBRANCH  28  36
ENDBRANCH  22  23
ENDBRANCH  13  22
BRANCH  17  38
HETATM   38  C33 UNL     1       0.268  11.060  17.874  1.00  0.00     0.174 C 
BRANCH  38  39
HETATM   39  O8  UNL     1       1.163   9.970  17.741  1.00  0.00    -0.400 OA
HETATM   40  H55 UNL     1       1.832  10.047  18.446  1.00  0.00     0.209 HD
ENDBRANCH  38  39
ENDBRANCH  17  38
BRANCH   1  41
HETATM   41  C8  UNL     1      -1.217   7.625  12.274  1.00  0.00    -0.010 C 
HETATM   42  C9  UNL     1      -0.324   6.442  12.698  1.00  0.00     0.010 C 
BRANCH  41  43
HETATM   43  C7  UNL     1      -0.417   8.633  11.407  1.00  0.00     0.031 C 
BRANCH  43  44
HETATM   44  C6  UNL     1       0.886   8.179  10.797  1.00  0.00    -0.027 C 
HETATM   45  C5  UNL     1       0.945   7.652   9.562  1.00  0.00     0.006 C 
BRANCH  45  46
HETATM   46  C2  UNL     1       2.171   7.186   8.795  1.00  0.00     0.070 C 
HETATM   47  C3  UNL     1       1.897   7.410   7.293  1.00  0.00     0.050 C 
HETATM   48  C4  UNL     1       3.488   7.902   9.140  1.00  0.00     0.050 C 
BRANCH  46  49
HETATM   49  O1  UNL     1       2.290   5.760   8.943  1.00  0.00    -0.382 OA
HETATM   50  C1  UNL     1       3.379   5.313   9.744  1.00  0.00     0.202 C 
ENDBRANCH  46  49
ENDBRANCH  45  46
ENDBRANCH  43  44
ENDBRANCH  41  43
ENDBRANCH   1  41
TORSDOF 14
ENDMDL
MODEL 9
REMARK minimizedAffinity -8.8649044
REMARK CNNscore 0.311775833
REMARK CNNaffinity 7.13093901
REMARK  14 active torsions:
REMARK  status: ('A' for Active; 'I' for Inactive)
REMARK    1  A    between atoms: O1_2  and  C2_3 
REMARK    2  A    between atoms: C2_3  and  C5_6 
REMARK    3  A    between atoms: C6_7  and  C7_8 
REMARK    4  A    between atoms: C7_8  and  C8_9 
REMARK    5  A    between atoms: C8_9  and  C10_11 
REMARK    6  A    between atoms: C22_23  and  O2_24 
REMARK    7  A    between atoms: O2_24  and  C23_25 
REMARK    8  A    between atoms: C24_27  and  C25_28 
REMARK    9  A    between atoms: C25_28  and  O4_29 
REMARK   10  A    between atoms: C26_30  and  O5_31 
REMARK   11  A    between atoms: C27_32  and  O6_33 
REMARK   12  A    between atoms: C28_34  and  O7_35 
REMARK   13  A    between atoms: C32_39  and  C33_40 
REMARK   14  A    between atoms: C33_40  and  O8_41 
ROOT
HETATM    1  C10 UNL     1      -8.241   6.979  13.964  1.00  0.00    -0.002 C 
HETATM    2  C11 UNL     1      -8.196   7.389  15.458  1.00  0.00     0.006 C 
HETATM    3  C12 UNL     1      -6.761   7.103  15.964  1.00  0.00     0.011 C 
HETATM    4  C13 UNL     1      -5.934   6.775  14.697  1.00  0.00    -0.032 C 
HETATM    5  C14 UNL     1      -5.492   8.158  14.121  1.00  0.00     0.016 C 
HETATM    6  C15 UNL     1      -4.696   5.843  14.917  1.00  0.00     0.009 C 
HETATM    7  C16 UNL     1      -3.627   6.424  15.861  1.00  0.00     0.033 C 
HETATM    8  C17 UNL     1      -2.531   7.185  15.194  1.00  0.00    -0.022 C 
HETATM    9  C18 UNL     1      -2.231   7.141  13.884  1.00  0.00    -0.068 C 
HETATM   10  C19 UNL     1      -2.988   6.228  12.930  1.00  0.00     0.026 C 
HETATM   11  C20 UNL     1      -1.994   5.481  11.998  1.00  0.00     0.012 C 
HETATM   12  C21 UNL     1      -0.843   6.320  11.437  1.00  0.00     0.034 C 
HETATM   13  C22 UNL     1      -0.961   7.810  11.731  1.00  0.00     0.136 C 
HETATM   14  C29 UNL     1      -1.138   8.057  13.277  1.00  0.00     0.002 C 
HETATM   15  C30 UNL     1       0.204   7.837  14.027  1.00  0.00     0.022 C 
HETATM   16  C31 UNL     1      -1.544   9.545  13.463  1.00  0.00     0.022 C 
HETATM   17  C32 UNL     1      -4.079   5.254  13.574  1.00  0.00    -0.007 C 
HETATM   18  C34 UNL     1      -5.171   4.945  12.467  1.00  0.00     0.013 C 
HETATM   19  C35 UNL     1      -6.435   5.822  12.434  1.00  0.00     0.011 C 
HETATM   20  C36 UNL     1      -7.014   6.015  13.840  1.00  0.00    -0.032 C 
HETATM   21  C37 UNL     1      -7.403   4.608  14.385  1.00  0.00     0.016 C 
ENDROOT
BRANCH  13  22
HETATM   22  O2  UNL     1       0.213   8.502  11.279  1.00  0.00    -0.352 OA
BRANCH  22  23
HETATM   23  C23 UNL     1       1.132   7.726  10.505  1.00  0.00     0.292 C 
HETATM   24  O3  UNL     1       2.391   7.648  11.172  1.00  0.00    -0.348 OA
HETATM   25  C24 UNL     1       3.311   6.747  10.535  1.00  0.00     0.179 C 
HETATM   26  C26 UNL     1       3.356   6.943   9.006  1.00  0.00     0.180 C 
HETATM   27  C27 UNL     1       2.756   8.305   8.634  1.00  0.00     0.183 C 
HETATM   28  C28 UNL     1       1.310   8.436   9.139  1.00  0.00     0.204 C 
BRANCH  25  29
HETATM   29  C25 UNL     1       4.688   6.984  11.177  1.00  0.00     0.198 C 
BRANCH  29  30
HETATM   30  O4  UNL     1       5.401   5.779  11.428  1.00  0.00    -0.398 OA
HETATM   31  H40 UNL     1       4.778   5.136  11.821  1.00  0.00     0.209 HD
ENDBRANCH  29  30
ENDBRANCH  25  29
BRANCH  26  32
HETATM   32  O5  UNL     1       2.583   5.893   8.401  1.00  0.00    -0.390 OA
HETATM   33  H42 UNL     1       2.157   6.269   7.603  1.00  0.00     0.210 HD
ENDBRANCH  26  32
BRANCH  27  34
HETATM   34  O6  UNL     1       2.765   8.478   7.207  1.00  0.00    -0.390 OA
HETATM   35  H44 UNL     1       3.699   8.585   6.933  1.00  0.00     0.210 HD
ENDBRANCH  27  34
BRANCH  28  36
HETATM   36  O7  UNL     1       0.407   7.897   8.151  1.00  0.00    -0.388 OA
HETATM   37  H46 UNL     1       0.731   8.271   7.303  1.00  0.00     0.210 HD
ENDBRANCH  28  36
ENDBRANCH  22  23
ENDBRANCH  13  22
BRANCH  17  38
HETATM   38  C33 UNL     1      -3.463   3.853  13.936  1.00  0.00     0.174 C 
BRANCH  38  39
HETATM   39  O8  UNL     1      -3.680   2.872  12.938  1.00  0.00    -0.400 OA
HETATM   40  H55 UNL     1      -3.271   2.041  13.245  1.00  0.00     0.209 HD
ENDBRANCH  38  39
ENDBRANCH  17  38
BRANCH   1  41
HETATM   41  C8  UNL     1      -9.620   6.530  13.392  1.00  0.00    -0.010 C 
HETATM   42  C9  UNL     1      -9.475   6.150  11.904  1.00  0.00     0.010 C 
BRANCH  41  43
HETATM   43  C7  UNL     1     -10.844   7.460  13.604  1.00  0.00     0.031 C 
BRANCH  43  44
HETATM   44  C6  UNL     1     -12.176   6.830  13.926  1.00  0.00    -0.027 C 
HETATM   45  C5  UNL     1     -13.327   7.312  13.427  1.00  0.00     0.006 C 
BRANCH  45  46
HETATM   46  C2  UNL     1     -14.736   6.776  13.621  1.00  0.00     0.070 C 
HETATM   47  C3  UNL     1     -15.413   7.624  14.717  1.00  0.00     0.050 C 
HETATM   48  C4  UNL     1     -15.641   6.811  12.379  1.00  0.00     0.050 C 
BRANCH  46  49
HETATM   49  O1  UNL     1     -14.649   5.451  14.175  1.00  0.00    -0.382 OA
HETATM   50  C1  UNL     1     -15.578   5.156  15.213  1.00  0.00     0.202 C 
ENDBRANCH  46  49
ENDBRANCH  45  46
ENDBRANCH  43  44
ENDBRANCH  41  43
ENDBRANCH   1  41
TORSDOF 14
ENDMDL
