MODEL 1
REMARK minimizedAffinity -7.08678007
REMARK CNNscore 0.737084627
REMARK CNNaffinity 7.22969389
REMARK  4 active torsions:
REMARK  status: ('A' for Active; 'I' for Inactive)
REMARK    1  A    between atoms: C4_4  and  C5_5 
REMARK    2  A    between atoms: C5_5  and  C6_6 
REMARK    3  A    between atoms: C6_6  and  C7_7 
REMARK    4  A    between atoms: C7_7  and  C9_9 
ROOT
HETATM    1  C9  UNL     1       4.647  55.181  -8.078  1.00  0.00    -0.002 C 
HETATM    2  C10 UNL     1       4.127  56.631  -8.316  1.00  0.00     0.007 C 
HETATM    3  C11 UNL     1       2.658  56.526  -8.722  1.00  0.00     0.015 C 
HETATM    4  C12 UNL     1       2.579  55.175  -9.452  1.00  0.00    -0.013 C 
HETATM    5  C13 UNL     1       3.193  55.378 -10.868  1.00  0.00     0.021 C 
HETATM    6  C14 UNL     1       1.200  54.572  -9.659  1.00  0.00    -0.070 C 
HETATM    7  C15 UNL     1       0.058  55.277  -9.623  1.00  0.00    -0.022 C 
HETATM    8  C16 UNL     1      -1.279  54.621  -9.760  1.00  0.00     0.034 C 
HETATM    9  C17 UNL     1      -1.336  53.401 -10.720  1.00  0.00     0.013 C 
HETATM   10  C18 UNL     1      -2.514  52.428 -10.359  1.00  0.00     0.018 C 
HETATM   11  C19 UNL     1      -2.408  51.789  -8.963  1.00  0.00     0.023 C 
HETATM   12  C20 UNL     1      -3.863  53.190 -10.417  1.00  0.00     0.023 C 
HETATM   13  C21 UNL     1      -2.569  51.313 -11.414  1.00  0.00     0.135 C 
HETATM   14  O1  UNL     1      -3.635  50.882 -11.876  1.00  0.00    -0.297 OA
HETATM   15  C22 UNL     1      -1.273  50.708 -11.899  1.00  0.00     0.080 C 
HETATM   16  C23 UNL     1      -0.058  51.171 -11.117  1.00  0.00     0.017 C 
HETATM   17  C24 UNL     1       0.068  52.711 -10.995  1.00  0.00    -0.031 C 
HETATM   18  C25 UNL     1       0.569  53.241 -12.374  1.00  0.00     0.016 C 
HETATM   19  C26 UNL     1       1.110  53.066  -9.860  1.00  0.00     0.024 C 
HETATM   20  C27 UNL     1       2.482  52.349  -9.999  1.00  0.00     0.010 C 
HETATM   21  C28 UNL     1       3.685  52.921  -9.211  1.00  0.00     0.011 C 
HETATM   22  C29 UNL     1       3.428  54.263  -8.502  1.00  0.00    -0.029 C 
HETATM   23  C30 UNL     1       2.702  53.931  -7.152  1.00  0.00     0.016 C 
ENDROOT
BRANCH   1  24
HETATM   24  C7  UNL     1       6.061  54.895  -8.680  1.00  0.00    -0.014 C 
HETATM   25  C8  UNL     1       6.265  53.396  -8.962  1.00  0.00     0.010 C 
BRANCH  24  26
HETATM   26  C6  UNL     1       7.248  55.429  -7.827  1.00  0.00     0.008 C 
BRANCH  26  27
HETATM   27  C5  UNL     1       6.938  55.974  -6.420  1.00  0.00     0.028 C 
BRANCH  27  28
HETATM   28  C4  UNL     1       8.140  56.514  -5.697  1.00  0.00    -0.025 C 
HETATM   29  C2  UNL     1       8.278  57.696  -5.061  1.00  0.00    -0.091 C 
HETATM   30  C1  UNL     1       7.214  58.751  -4.939  1.00  0.00     0.042 C 
HETATM   31  C3  UNL     1       9.580  58.050  -4.383  1.00  0.00     0.042 C 
ENDBRANCH  27  28
ENDBRANCH  26  27
ENDBRANCH  24  26
ENDBRANCH   1  24
TORSDOF 4
ENDMDL
MODEL 2
REMARK minimizedAffinity -7.1696167
REMARK CNNscore 0.727873445
REMARK CNNaffinity 7.15478134
REMARK  4 active torsions:
REMARK  status: ('A' for Active; 'I' for Inactive)
REMARK    1  A    between atoms: C4_4  and  C5_5 
REMARK    2  A    between atoms: C5_5  and  C6_6 
REMARK    3  A    between atoms: C6_6  and  C7_7 
REMARK    4  A    between atoms: C7_7  and  C9_9 
ROOT
HETATM    1  C9  UNL     1      -1.699  51.664 -10.827  1.00  0.00    -0.002 C 
HETATM    2  C10 UNL     1      -1.272  52.350 -12.159  1.00  0.00     0.007 C 
HETATM    3  C11 UNL     1      -0.208  53.391 -11.815  1.00  0.00     0.015 C 
HETATM    4  C12 UNL     1      -0.589  53.842 -10.395  1.00  0.00    -0.013 C 
HETATM    5  C13 UNL     1      -1.809  54.800 -10.527  1.00  0.00     0.021 C 
HETATM    6  C14 UNL     1       0.464  54.589  -9.594  1.00  0.00    -0.070 C 
HETATM    7  C15 UNL     1       1.517  55.220 -10.138  1.00  0.00    -0.022 C 
HETATM    8  C16 UNL     1       2.564  55.877  -9.297  1.00  0.00     0.034 C 
HETATM    9  C17 UNL     1       2.059  56.537  -7.985  1.00  0.00     0.013 C 
HETATM   10  C18 UNL     1       3.196  56.639  -6.907  1.00  0.00     0.018 C 
HETATM   11  C19 UNL     1       3.754  55.282  -6.441  1.00  0.00     0.023 C 
HETATM   12  C20 UNL     1       4.385  57.458  -7.469  1.00  0.00     0.023 C 
HETATM   13  C21 UNL     1       2.648  57.396  -5.688  1.00  0.00     0.135 C 
HETATM   14  O1  UNL     1       3.315  58.239  -5.071  1.00  0.00    -0.297 OA
HETATM   15  C22 UNL     1       1.246  57.095  -5.215  1.00  0.00     0.080 C 
HETATM   16  C23 UNL     1       0.611  55.910  -5.918  1.00  0.00     0.017 C 
HETATM   17  C24 UNL     1       0.662  55.988  -7.465  1.00  0.00    -0.031 C 
HETATM   18  C25 UNL     1      -0.421  57.021  -7.908  1.00  0.00     0.016 C 
HETATM   19  C26 UNL     1       0.345  54.566  -8.076  1.00  0.00     0.024 C 
HETATM   20  C27 UNL     1      -0.958  53.911  -7.540  1.00  0.00     0.010 C 
HETATM   21  C28 UNL     1      -1.573  52.744  -8.350  1.00  0.00     0.011 C 
HETATM   22  C29 UNL     1      -0.912  52.470  -9.712  1.00  0.00    -0.029 C 
HETATM   23  C30 UNL     1       0.363  51.603  -9.432  1.00  0.00     0.016 C 
ENDROOT
BRANCH   1  24
HETATM   24  C7  UNL     1      -3.240  51.457 -10.671  1.00  0.00    -0.014 C 
HETATM   25  C8  UNL     1      -4.001  52.794 -10.713  1.00  0.00     0.010 C 
BRANCH  24  26
HETATM   26  C6  UNL     1      -3.662  50.660  -9.403  1.00  0.00     0.008 C 
BRANCH  26  27
HETATM   27  C5  UNL     1      -4.539  49.408  -9.595  1.00  0.00     0.028 C 
BRANCH  27  28
HETATM   28  C4  UNL     1      -5.877  49.692 -10.219  1.00  0.00    -0.025 C 
HETATM   29  C2  UNL     1      -7.080  49.167  -9.906  1.00  0.00    -0.091 C 
HETATM   30  C1  UNL     1      -7.335  48.154  -8.824  1.00  0.00     0.042 C 
HETATM   31  C3  UNL     1      -8.318  49.595 -10.656  1.00  0.00     0.042 C 
ENDBRANCH  27  28
ENDBRANCH  26  27
ENDBRANCH  24  26
ENDBRANCH   1  24
TORSDOF 4
ENDMDL
MODEL 3
REMARK minimizedAffinity -7.41200829
REMARK CNNscore 0.633944571
REMARK CNNaffinity 6.94309759
REMARK  4 active torsions:
REMARK  status: ('A' for Active; 'I' for Inactive)
REMARK    1  A    between atoms: C4_4  and  C5_5 
REMARK    2  A    between atoms: C5_5  and  C6_6 
REMARK    3  A    between atoms: C6_6  and  C7_7 
REMARK    4  A    between atoms: C7_7  and  C9_9 
ROOT
HETATM    1  C9  UNL     1      -1.805  53.236 -10.916  1.00  0.00    -0.002 C 
HETATM    2  C10 UNL     1      -2.367  52.513  -9.656  1.00  0.00     0.007 C 
HETATM    3  C11 UNL     1      -1.648  53.093  -8.439  1.00  0.00     0.015 C 
HETATM    4  C12 UNL     1      -0.262  53.474  -8.986  1.00  0.00    -0.013 C 
HETATM    5  C13 UNL     1       0.556  52.157  -9.129  1.00  0.00     0.021 C 
HETATM    6  C14 UNL     1       0.582  54.421  -8.150  1.00  0.00    -0.070 C 
HETATM    7  C15 UNL     1       0.402  54.629  -6.836  1.00  0.00    -0.022 C 
HETATM    8  C16 UNL     1       1.214  55.628  -6.076  1.00  0.00     0.034 C 
HETATM    9  C17 UNL     1       2.693  55.779  -6.528  1.00  0.00     0.013 C 
HETATM   10  C18 UNL     1       3.276  57.189  -6.159  1.00  0.00     0.018 C 
HETATM   11  C19 UNL     1       2.564  58.371  -6.841  1.00  0.00     0.023 C 
HETATM   12  C20 UNL     1       3.181  57.414  -4.628  1.00  0.00     0.023 C 
HETATM   13  C21 UNL     1       4.763  57.218  -6.539  1.00  0.00     0.135 C 
HETATM   14  O1  UNL     1       5.626  57.743  -5.821  1.00  0.00    -0.297 OA
HETATM   15  C22 UNL     1       5.192  56.593  -7.845  1.00  0.00     0.080 C 
HETATM   16  C23 UNL     1       4.030  56.169  -8.724  1.00  0.00     0.017 C 
HETATM   17  C24 UNL     1       2.985  55.278  -8.007  1.00  0.00    -0.031 C 
HETATM   18  C25 UNL     1       3.606  53.851  -7.884  1.00  0.00     0.016 C 
HETATM   19  C26 UNL     1       1.659  55.226  -8.865  1.00  0.00     0.024 C 
HETATM   20  C27 UNL     1       1.871  54.841 -10.355  1.00  0.00     0.010 C 
HETATM   21  C28 UNL     1       0.641  54.363 -11.165  1.00  0.00     0.011 C 
HETATM   22  C29 UNL     1      -0.643  54.151 -10.346  1.00  0.00    -0.029 C 
HETATM   23  C30 UNL     1      -1.308  55.560 -10.171  1.00  0.00     0.016 C 
ENDROOT
BRANCH   1  24
HETATM   24  C7  UNL     1      -1.506  52.291 -12.124  1.00  0.00    -0.014 C 
HETATM   25  C8  UNL     1      -1.649  50.809 -11.735  1.00  0.00     0.010 C 
BRANCH  24  26
HETATM   26  C6  UNL     1      -0.122  52.519 -12.798  1.00  0.00     0.008 C 
BRANCH  26  27
HETATM   27  C5  UNL     1       0.203  51.712 -14.070  1.00  0.00     0.028 C 
BRANCH  27  28
HETATM   28  C4  UNL     1       1.603  51.914 -14.578  1.00  0.00    -0.025 C 
HETATM   29  C2  UNL     1       2.017  52.115 -15.846  1.00  0.00    -0.091 C 
HETATM   30  C1  UNL     1       1.125  52.184 -17.055  1.00  0.00     0.042 C 
HETATM   31  C3  UNL     1       3.484  52.305 -16.149  1.00  0.00     0.042 C 
ENDBRANCH  27  28
ENDBRANCH  26  27
ENDBRANCH  24  26
ENDBRANCH   1  24
TORSDOF 4
ENDMDL
MODEL 4
REMARK minimizedAffinity -7.07658386
REMARK CNNscore 0.63235116
REMARK CNNaffinity 6.88351965
REMARK  4 active torsions:
REMARK  status: ('A' for Active; 'I' for Inactive)
REMARK    1  A    between atoms: C4_4  and  C5_5 
REMARK    2  A    between atoms: C5_5  and  C6_6 
REMARK    3  A    between atoms: C6_6  and  C7_7 
REMARK    4  A    between atoms: C7_7  and  C9_9 
ROOT
HETATM    1  C9  UNL     1      -1.885  52.068 -10.164  1.00  0.00    -0.002 C 
HETATM    2  C10 UNL     1      -1.016  51.024 -10.928  1.00  0.00     0.007 C 
HETATM    3  C11 UNL     1       0.439  51.265 -10.530  1.00  0.00     0.015 C 
HETATM    4  C12 UNL     1       0.493  52.776 -10.250  1.00  0.00    -0.013 C 
HETATM    5  C13 UNL     1       0.510  53.501 -11.627  1.00  0.00     0.021 C 
HETATM    6  C14 UNL     1       1.686  53.299  -9.468  1.00  0.00    -0.070 C 
HETATM    7  C15 UNL     1       2.854  52.649  -9.353  1.00  0.00    -0.022 C 
HETATM    8  C16 UNL     1       3.971  53.175  -8.510  1.00  0.00     0.034 C 
HETATM    9  C17 UNL     1       4.119  54.721  -8.476  1.00  0.00     0.013 C 
HETATM   10  C18 UNL     1       4.840  55.211  -7.169  1.00  0.00     0.018 C 
HETATM   11  C19 UNL     1       4.085  54.888  -5.867  1.00  0.00     0.023 C 
HETATM   12  C20 UNL     1       6.242  54.558  -7.064  1.00  0.00     0.023 C 
HETATM   13  C21 UNL     1       5.043  56.730  -7.263  1.00  0.00     0.135 C 
HETATM   14  O1  UNL     1       6.086  57.288  -6.891  1.00  0.00    -0.297 OA
HETATM   15  C22 UNL     1       3.925  57.581  -7.817  1.00  0.00     0.080 C 
HETATM   16  C23 UNL     1       2.636  56.813  -8.044  1.00  0.00     0.017 C 
HETATM   17  C24 UNL     1       2.806  55.519  -8.880  1.00  0.00    -0.031 C 
HETATM   18  C25 UNL     1       2.983  55.954 -10.368  1.00  0.00     0.016 C 
HETATM   19  C26 UNL     1       1.519  54.616  -8.722  1.00  0.00     0.024 C 
HETATM   20  C27 UNL     1       0.179  55.352  -9.001  1.00  0.00     0.010 C 
HETATM   21  C28 UNL     1      -1.079  54.493  -9.279  1.00  0.00     0.011 C 
HETATM   22  C29 UNL     1      -0.824  52.983  -9.426  1.00  0.00    -0.029 C 
HETATM   23  C30 UNL     1      -0.744  52.394  -7.975  1.00  0.00     0.016 C 
ENDROOT
BRANCH   1  24
HETATM   24  C7  UNL     1      -2.998  52.741 -11.031  1.00  0.00    -0.014 C 
HETATM   25  C8  UNL     1      -3.714  53.866 -10.263  1.00  0.00     0.010 C 
BRANCH  24  26
HETATM   26  C6  UNL     1      -4.054  51.755 -11.609  1.00  0.00     0.008 C 
BRANCH  26  27
HETATM   27  C5  UNL     1      -4.271  50.418 -10.875  1.00  0.00     0.028 C 
BRANCH  27  28
HETATM   28  C4  UNL     1      -5.567  50.344 -10.116  1.00  0.00    -0.025 C 
HETATM   29  C2  UNL     1      -6.586  49.475 -10.275  1.00  0.00    -0.091 C 
HETATM   30  C1  UNL     1      -6.633  48.358 -11.281  1.00  0.00     0.042 C 
HETATM   31  C3  UNL     1      -7.811  49.566  -9.396  1.00  0.00     0.042 C 
ENDBRANCH  27  28
ENDBRANCH  26  27
ENDBRANCH  24  26
ENDBRANCH   1  24
TORSDOF 4
ENDMDL
MODEL 5
REMARK minimizedAffinity -7.34382725
REMARK CNNscore 0.626452446
REMARK CNNaffinity 6.16964483
REMARK  4 active torsions:
REMARK  status: ('A' for Active; 'I' for Inactive)
REMARK    1  A    between atoms: C4_4  and  C5_5 
REMARK    2  A    between atoms: C5_5  and  C6_6 
REMARK    3  A    between atoms: C6_6  and  C7_7 
REMARK    4  A    between atoms: C7_7  and  C9_9 
ROOT
HETATM    1  C9  UNL     1      -6.738  48.047 -30.012  1.00  0.00    -0.002 C 
HETATM    2  C10 UNL     1      -5.696  48.435 -31.104  1.00  0.00     0.007 C 
HETATM    3  C11 UNL     1      -6.284  48.036 -32.456  1.00  0.00     0.015 C 
HETATM    4  C12 UNL     1      -7.157  46.815 -32.126  1.00  0.00    -0.013 C 
HETATM    5  C13 UNL     1      -6.199  45.603 -31.928  1.00  0.00     0.021 C 
HETATM    6  C14 UNL     1      -8.185  46.391 -33.161  1.00  0.00    -0.070 C 
HETATM    7  C15 UNL     1      -8.128  46.726 -34.459  1.00  0.00    -0.022 C 
HETATM    8  C16 UNL     1      -9.207  46.344 -35.421  1.00  0.00     0.034 C 
HETATM    9  C17 UNL     1      -9.879  44.966 -35.168  1.00  0.00     0.013 C 
HETATM   10  C18 UNL     1     -11.329  44.904 -35.766  1.00  0.00     0.018 C 
HETATM   11  C19 UNL     1     -12.316  45.911 -35.147  1.00  0.00     0.023 C 
HETATM   12  C20 UNL     1     -11.283  45.181 -37.291  1.00  0.00     0.023 C 
HETATM   13  C21 UNL     1     -11.879  43.484 -35.571  1.00  0.00     0.135 C 
HETATM   14  O1  UNL     1     -12.535  42.896 -36.443  1.00  0.00    -0.297 OA
HETATM   15  C22 UNL     1     -11.621  42.778 -34.260  1.00  0.00     0.080 C 
HETATM   16  C23 UNL     1     -10.990  43.669 -33.207  1.00  0.00     0.017 C 
HETATM   17  C24 UNL     1      -9.720  44.417 -33.686  1.00  0.00    -0.031 C 
HETATM   18  C25 UNL     1      -8.558  43.375 -33.714  1.00  0.00     0.016 C 
HETATM   19  C26 UNL     1      -9.384  45.586 -32.677  1.00  0.00     0.024 C 
HETATM   20  C27 UNL     1      -9.311  45.149 -31.187  1.00  0.00     0.010 C 
HETATM   21  C28 UNL     1      -8.598  46.091 -30.187  1.00  0.00     0.011 C 
HETATM   22  C29 UNL     1      -7.874  47.293 -30.818  1.00  0.00    -0.029 C 
HETATM   23  C30 UNL     1      -8.962  48.393 -31.077  1.00  0.00     0.016 C 
ENDROOT
BRANCH   1  24
HETATM   24  C7  UNL     1      -6.124  47.367 -28.745  1.00  0.00    -0.014 C 
HETATM   25  C8  UNL     1      -6.933  47.693 -27.478  1.00  0.00     0.010 C 
BRANCH  24  26
HETATM   26  C6  UNL     1      -4.622  47.690 -28.500  1.00  0.00     0.008 C 
BRANCH  26  27
HETATM   27  C5  UNL     1      -4.280  48.879 -27.583  1.00  0.00     0.028 C 
BRANCH  27  28
HETATM   28  C4  UNL     1      -4.027  48.492 -26.153  1.00  0.00    -0.025 C 
HETATM   29  C2  UNL     1      -3.121  49.000 -25.291  1.00  0.00    -0.091 C 
HETATM   30  C1  UNL     1      -2.146  50.102 -25.600  1.00  0.00     0.042 C 
HETATM   31  C3  UNL     1      -3.031  48.473 -23.880  1.00  0.00     0.042 C 
ENDBRANCH  27  28
ENDBRANCH  26  27
ENDBRANCH  24  26
ENDBRANCH   1  24
TORSDOF 4
ENDMDL
MODEL 6
REMARK minimizedAffinity -7.15732479
REMARK CNNscore 0.591970921
REMARK CNNaffinity 6.73694658
REMARK  4 active torsions:
REMARK  status: ('A' for Active; 'I' for Inactive)
REMARK    1  A    between atoms: C4_4  and  C5_5 
REMARK    2  A    between atoms: C5_5  and  C6_6 
REMARK    3  A    between atoms: C6_6  and  C7_7 
REMARK    4  A    between atoms: C7_7  and  C9_9 
ROOT
HETATM    1  C9  UNL     1      -2.289  53.519  -9.991  1.00  0.00    -0.002 C 
HETATM    2  C10 UNL     1      -2.513  52.778  -8.638  1.00  0.00     0.007 C 
HETATM    3  C11 UNL     1      -1.279  53.029  -7.772  1.00  0.00     0.015 C 
HETATM    4  C12 UNL     1      -0.141  53.171  -8.796  1.00  0.00    -0.013 C 
HETATM    5  C13 UNL     1       0.215  51.738  -9.291  1.00  0.00     0.021 C 
HETATM    6  C14 UNL     1       1.156  53.799  -8.316  1.00  0.00    -0.070 C 
HETATM    7  C15 UNL     1       1.526  53.871  -7.027  1.00  0.00    -0.022 C 
HETATM    8  C16 UNL     1       2.778  54.567  -6.603  1.00  0.00     0.034 C 
HETATM    9  C17 UNL     1       3.978  54.454  -7.584  1.00  0.00     0.013 C 
HETATM   10  C18 UNL     1       4.985  55.646  -7.417  1.00  0.00     0.018 C 
HETATM   11  C19 UNL     1       4.389  57.031  -7.728  1.00  0.00     0.023 C 
HETATM   12  C20 UNL     1       5.515  55.689  -5.961  1.00  0.00     0.023 C 
HETATM   13  C21 UNL     1       6.189  55.403  -8.339  1.00  0.00     0.135 C 
HETATM   14  O1  UNL     1       7.355  55.635  -7.990  1.00  0.00    -0.297 OA
HETATM   15  C22 UNL     1       5.942  54.873  -9.732  1.00  0.00     0.080 C 
HETATM   16  C23 UNL     1       4.474  54.825 -10.110  1.00  0.00     0.017 C 
HETATM   17  C24 UNL     1       3.577  54.094  -9.078  1.00  0.00    -0.031 C 
HETATM   18  C25 UNL     1       3.826  52.564  -9.257  1.00  0.00     0.016 C 
HETATM   19  C26 UNL     1       2.060  54.439  -9.360  1.00  0.00     0.024 C 
HETATM   20  C27 UNL     1       1.611  54.211 -10.831  1.00  0.00     0.010 C 
HETATM   21  C28 UNL     1       0.094  54.116 -11.122  1.00  0.00     0.011 C 
HETATM   22  C29 UNL     1      -0.812  54.082  -9.879  1.00  0.00    -0.029 C 
HETATM   23  C30 UNL     1      -0.996  55.567  -9.410  1.00  0.00     0.016 C 
ENDROOT
BRANCH   1  24
HETATM   24  C7  UNL     1      -2.696  52.694 -11.255  1.00  0.00    -0.014 C 
HETATM   25  C8  UNL     1      -3.898  53.323 -11.981  1.00  0.00     0.010 C 
BRANCH  24  26
HETATM   26  C6  UNL     1      -2.984  51.189 -10.981  1.00  0.00     0.008 C 
BRANCH  26  27
HETATM   27  C5  UNL     1      -4.410  50.794 -10.552  1.00  0.00     0.028 C 
BRANCH  27  28
HETATM   28  C4  UNL     1      -4.887  49.499 -11.145  1.00  0.00    -0.025 C 
HETATM   29  C2  UNL     1      -6.100  48.917 -11.030  1.00  0.00    -0.091 C 
HETATM   30  C1  UNL     1      -7.265  49.473 -10.259  1.00  0.00     0.042 C 
HETATM   31  C3  UNL     1      -6.384  47.603 -11.717  1.00  0.00     0.042 C 
ENDBRANCH  27  28
ENDBRANCH  26  27
ENDBRANCH  24  26
ENDBRANCH   1  24
TORSDOF 4
ENDMDL
MODEL 7
REMARK minimizedAffinity -7.45281219
REMARK CNNscore 0.461564034
REMARK CNNaffinity 5.76754522
REMARK  4 active torsions:
REMARK  status: ('A' for Active; 'I' for Inactive)
REMARK    1  A    between atoms: C4_4  and  C5_5 
REMARK    2  A    between atoms: C5_5  and  C6_6 
REMARK    3  A    between atoms: C6_6  and  C7_7 
REMARK    4  A    between atoms: C7_7  and  C9_9 
ROOT
HETATM    1  C9  UNL     1      -7.895  48.381 -29.201  1.00  0.00    -0.002 C 
HETATM    2  C10 UNL     1      -8.624  48.954 -30.454  1.00  0.00     0.007 C 
HETATM    3  C11 UNL     1     -10.068  48.454 -30.408  1.00  0.00     0.015 C 
HETATM    4  C12 UNL     1      -9.958  47.093 -29.702  1.00  0.00    -0.013 C 
HETATM    5  C13 UNL     1      -9.398  46.078 -30.741  1.00  0.00     0.021 C 
HETATM    6  C14 UNL     1     -11.237  46.488 -29.149  1.00  0.00    -0.070 C 
HETATM    7  C15 UNL     1     -12.469  46.828 -29.559  1.00  0.00    -0.022 C 
HETATM    8  C16 UNL     1     -13.697  46.255 -28.928  1.00  0.00     0.034 C 
HETATM    9  C17 UNL     1     -13.588  44.777 -28.461  1.00  0.00     0.013 C 
HETATM   10  C18 UNL     1     -14.607  44.450 -27.313  1.00  0.00     0.018 C 
HETATM   11  C19 UNL     1     -14.390  45.258 -26.020  1.00  0.00     0.023 C 
HETATM   12  C20 UNL     1     -16.053  44.731 -27.795  1.00  0.00     0.023 C 
HETATM   13  C21 UNL     1     -14.512  42.953 -26.985  1.00  0.00     0.135 C 
HETATM   14  O1  UNL     1     -15.510  42.255 -26.755  1.00  0.00    -0.297 OA
HETATM   15  C22 UNL     1     -13.148  42.306 -26.928  1.00  0.00     0.080 C 
HETATM   16  C23 UNL     1     -12.004  43.298 -27.024  1.00  0.00     0.017 C 
HETATM   17  C24 UNL     1     -12.102  44.266 -28.231  1.00  0.00    -0.031 C 
HETATM   18  C25 UNL     1     -11.702  43.455 -29.502  1.00  0.00     0.016 C 
HETATM   19  C26 UNL     1     -11.109  45.477 -28.018  1.00  0.00     0.024 C 
HETATM   20  C27 UNL     1      -9.649  45.060 -27.685  1.00  0.00     0.010 C 
HETATM   21  C28 UNL     1      -8.532  46.117 -27.865  1.00  0.00     0.011 C 
HETATM   22  C29 UNL     1      -8.973  47.432 -28.532  1.00  0.00    -0.029 C 
HETATM   23  C30 UNL     1      -9.624  48.313 -27.411  1.00  0.00     0.016 C 
ENDROOT
BRANCH   1  24
HETATM   24  C7  UNL     1      -6.462  47.824 -29.486  1.00  0.00    -0.014 C 
HETATM   25  C8  UNL     1      -6.501  46.618 -30.440  1.00  0.00     0.010 C 
BRANCH  24  26
HETATM   26  C6  UNL     1      -5.647  47.453 -28.213  1.00  0.00     0.008 C 
BRANCH  26  27
HETATM   27  C5  UNL     1      -4.538  48.420 -27.760  1.00  0.00     0.028 C 
BRANCH  27  28
HETATM   28  C4  UNL     1      -4.245  48.363 -26.287  1.00  0.00    -0.025 C 
HETATM   29  C2  UNL     1      -3.172  48.844 -25.623  1.00  0.00    -0.091 C 
HETATM   30  C1  UNL     1      -2.010  49.564 -26.247  1.00  0.00     0.042 C 
HETATM   31  C3  UNL     1      -3.070  48.689 -24.124  1.00  0.00     0.042 C 
ENDBRANCH  27  28
ENDBRANCH  26  27
ENDBRANCH  24  26
ENDBRANCH   1  24
TORSDOF 4
ENDMDL
MODEL 8
REMARK minimizedAffinity -7.34270096
REMARK CNNscore 0.459456652
REMARK CNNaffinity 6.38345528
REMARK  4 active torsions:
REMARK  status: ('A' for Active; 'I' for Inactive)
REMARK    1  A    between atoms: C4_4  and  C5_5 
REMARK    2  A    between atoms: C5_5  and  C6_6 
REMARK    3  A    between atoms: C6_6  and  C7_7 
REMARK    4  A    between atoms: C7_7  and  C9_9 
ROOT
HETATM    1  C9  UNL     1       1.514  52.758 -10.233  1.00  0.00    -0.002 C 
HETATM    2  C10 UNL     1       2.644  52.803 -11.306  1.00  0.00     0.007 C 
HETATM    3  C11 UNL     1       3.837  53.525 -10.681  1.00  0.00     0.015 C 
HETATM    4  C12 UNL     1       3.188  54.512  -9.697  1.00  0.00    -0.013 C 
HETATM    5  C13 UNL     1       2.620  55.694 -10.537  1.00  0.00     0.021 C 
HETATM    6  C14 UNL     1       4.081  55.125  -8.632  1.00  0.00    -0.070 C 
HETATM    7  C15 UNL     1       5.419  55.192  -8.718  1.00  0.00    -0.022 C 
HETATM    8  C16 UNL     1       6.255  55.739  -7.607  1.00  0.00     0.034 C 
HETATM    9  C17 UNL     1       5.629  56.916  -6.808  1.00  0.00     0.013 C 
HETATM   10  C18 UNL     1       6.221  57.018  -5.358  1.00  0.00     0.018 C 
HETATM   11  C19 UNL     1       5.949  55.790  -4.471  1.00  0.00     0.023 C 
HETATM   12  C20 UNL     1       7.758  57.206  -5.428  1.00  0.00     0.023 C 
HETATM   13  C21 UNL     1       5.635  58.264  -4.677  1.00  0.00     0.135 C 
HETATM   14  O1  UNL     1       6.314  59.019  -3.968  1.00  0.00    -0.297 OA
HETATM   15  C22 UNL     1       4.169  58.575  -4.869  1.00  0.00     0.080 C 
HETATM   16  C23 UNL     1       3.405  57.475  -5.582  1.00  0.00     0.017 C 
HETATM   17  C24 UNL     1       4.048  57.020  -6.917  1.00  0.00    -0.031 C 
HETATM   18  C25 UNL     1       3.740  58.125  -7.975  1.00  0.00     0.016 C 
HETATM   19  C26 UNL     1       3.415  55.642  -7.363  1.00  0.00     0.024 C 
HETATM   20  C27 UNL     1       1.861  55.628  -7.397  1.00  0.00     0.010 C 
HETATM   21  C28 UNL     1       1.161  54.503  -8.197  1.00  0.00     0.011 C 
HETATM   22  C29 UNL     1       2.096  53.609  -9.030  1.00  0.00    -0.029 C 
HETATM   23  C30 UNL     1       2.692  52.540  -8.050  1.00  0.00     0.016 C 
ENDROOT
BRANCH   1  24
HETATM   24  C7  UNL     1       0.089  53.091 -10.781  1.00  0.00    -0.014 C 
HETATM   25  C8  UNL     1       0.023  52.952 -12.313  1.00  0.00     0.010 C 
BRANCH  24  26
HETATM   26  C6  UNL     1      -0.457  54.487 -10.363  1.00  0.00     0.008 C 
BRANCH  26  27
HETATM   27  C5  UNL     1      -1.983  54.697 -10.374  1.00  0.00     0.028 C 
BRANCH  27  28
HETATM   28  C4  UNL     1      -2.771  53.453 -10.077  1.00  0.00    -0.025 C 
HETATM   29  C2  UNL     1      -3.634  52.792 -10.878  1.00  0.00    -0.091 C 
HETATM   30  C1  UNL     1      -3.992  53.182 -12.286  1.00  0.00     0.042 C 
HETATM   31  C3  UNL     1      -4.326  51.543 -10.388  1.00  0.00     0.042 C 
ENDBRANCH  27  28
ENDBRANCH  26  27
ENDBRANCH  24  26
ENDBRANCH   1  24
TORSDOF 4
ENDMDL
MODEL 9
REMARK minimizedAffinity -7.48748732
REMARK CNNscore 0.410855144
REMARK CNNaffinity 5.78415918
REMARK  4 active torsions:
REMARK  status: ('A' for Active; 'I' for Inactive)
REMARK    1  A    between atoms: C4_4  and  C5_5 
REMARK    2  A    between atoms: C5_5  and  C6_6 
REMARK    3  A    between atoms: C6_6  and  C7_7 
REMARK    4  A    between atoms: C7_7  and  C9_9 
ROOT
HETATM    1  C9  UNL     1     -13.590  46.494 -27.928  1.00  0.00    -0.002 C 
HETATM    2  C10 UNL     1     -13.165  47.398 -26.732  1.00  0.00     0.007 C 
HETATM    3  C11 UNL     1     -11.737  47.870 -27.003  1.00  0.00     0.015 C 
HETATM    4  C12 UNL     1     -11.120  46.713 -27.806  1.00  0.00    -0.013 C 
HETATM    5  C13 UNL     1     -10.796  45.572 -26.797  1.00  0.00     0.021 C 
HETATM    6  C14 UNL     1      -9.836  46.998 -28.567  1.00  0.00    -0.070 C 
HETATM    7  C15 UNL     1      -9.005  48.014 -28.288  1.00  0.00    -0.022 C 
HETATM    8  C16 UNL     1      -7.793  48.293 -29.116  1.00  0.00     0.034 C 
HETATM    9  C17 UNL     1      -7.069  47.045 -29.693  1.00  0.00     0.013 C 
HETATM   10  C18 UNL     1      -6.247  47.392 -30.985  1.00  0.00     0.018 C 
HETATM   11  C19 UNL     1      -7.099  47.897 -32.164  1.00  0.00     0.023 C 
HETATM   12  C20 UNL     1      -5.201  48.490 -30.667  1.00  0.00     0.023 C 
HETATM   13  C21 UNL     1      -5.479  46.138 -31.428  1.00  0.00     0.135 C 
HETATM   14  O1  UNL     1      -4.312  46.181 -31.842  1.00  0.00    -0.297 OA
HETATM   15  C22 UNL     1      -6.177  44.799 -31.368  1.00  0.00     0.080 C 
HETATM   16  C23 UNL     1      -7.655  44.901 -31.042  1.00  0.00     0.017 C 
HETATM   17  C24 UNL     1      -7.970  45.740 -29.778  1.00  0.00    -0.031 C 
HETATM   18  C25 UNL     1      -7.606  44.860 -28.541  1.00  0.00     0.016 C 
HETATM   19  C26 UNL     1      -9.507  46.106 -29.757  1.00  0.00     0.024 C 
HETATM   20  C27 UNL     1     -10.461  44.892 -29.938  1.00  0.00     0.010 C 
HETATM   21  C28 UNL     1     -11.943  45.063 -29.526  1.00  0.00     0.011 C 
HETATM   22  C29 UNL     1     -12.278  46.382 -28.808  1.00  0.00    -0.029 C 
HETATM   23  C30 UNL     1     -12.462  47.470 -29.922  1.00  0.00     0.016 C 
ENDROOT
BRANCH   1  24
HETATM   24  C7  UNL     1     -14.343  45.188 -27.514  1.00  0.00    -0.014 C 
HETATM   25  C8  UNL     1     -15.542  44.907 -28.437  1.00  0.00     0.010 C 
BRANCH  24  26
HETATM   26  C6  UNL     1     -14.811  45.152 -26.030  1.00  0.00     0.008 C 
BRANCH  26  27
HETATM   27  C5  UNL     1     -15.971  46.077 -25.617  1.00  0.00     0.028 C 
BRANCH  27  28
HETATM   28  C4  UNL     1     -17.318  45.413 -25.644  1.00  0.00    -0.025 C 
HETATM   29  C2  UNL     1     -18.495  45.877 -25.172  1.00  0.00    -0.091 C 
HETATM   30  C1  UNL     1     -18.703  47.207 -24.501  1.00  0.00     0.042 C 
HETATM   31  C3  UNL     1     -19.750  45.050 -25.305  1.00  0.00     0.042 C 
ENDBRANCH  27  28
ENDBRANCH  26  27
ENDBRANCH  24  26
ENDBRANCH   1  24
TORSDOF 4
ENDMDL
