MODEL 1
REMARK minimizedAffinity -8.59195423
REMARK CNNscore 0.519921958
REMARK CNNaffinity 6.92583609
REMARK  12 active torsions:
REMARK  status: ('A' for Active; 'I' for Inactive)
REMARK    1  A    between atoms: C3_3  and  O1_4 
REMARK    2  A    between atoms: N1_14  and  O2_16 
REMARK    3  A    between atoms: O2_16  and  C13_17 
REMARK    4  A    between atoms: C13_17  and  C14_18 
REMARK       I    between atoms: C14_18  and  N2_20 
REMARK    5  A    between atoms: N2_20  and  C15_21 
REMARK    6  A    between atoms: C15_21  and  C16_22 
REMARK    7  A    between atoms: C15_21  and  C27_38 
REMARK       I    between atoms: C16_22  and  N3_24 
REMARK    8  A    between atoms: N3_24  and  C17_25 
REMARK    9  A    between atoms: C17_25  and  C18_26 
REMARK   10  A    between atoms: C17_25  and  C20_30 
REMARK   11  A    between atoms: C18_26  and  C19_27 
REMARK   12  A    between atoms: C19_27  and  O6_29 
ROOT
HETATM    1  C1  UNL     1       0.360  55.607 -25.043  1.00  0.00     0.015 C 
HETATM    2  C2  UNL     1      -0.040  54.489 -25.226  1.00  0.00    -0.078 C 
HETATM    3  C3  UNL     1      -0.538  53.126 -25.469  1.00  0.00     0.128 C 
HETATM    4  C4  UNL     1       0.467  52.278 -26.251  1.00  0.00     0.052 C 
HETATM    5  C5  UNL     1      -0.104  50.872 -26.100  1.00  0.00     0.010 C 
HETATM    6  C6  UNL     1      -0.513  50.804 -24.623  1.00  0.00     0.002 C 
HETATM    7  C7  UNL     1      -1.565  49.731 -24.251  1.00  0.00    -0.004 C 
HETATM    8  C8  UNL     1      -2.733  49.529 -25.239  1.00  0.00     0.010 C 
HETATM    9  C9  UNL     1      -3.738  48.469 -24.766  1.00  0.00     0.035 C 
HETATM   10  C10 UNL     1      -4.166  48.708 -23.337  1.00  0.00    -0.069 C 
HETATM   11  C11 UNL     1      -5.463  48.895 -23.042  1.00  0.00     0.030 C 
HETATM   12  C12 UNL     1      -5.917  49.325 -21.697  1.00  0.00     0.032 C 
HETATM   13  N1  UNL     1      -7.202  49.392 -21.493  1.00  0.00    -0.271 N 
ATOM     14  H1  UNL     1      -7.907  49.154 -22.190  1.00  0.00     0.194 HD
HETATM   15  C30 UNL     1      -4.868  49.761 -20.695  1.00  0.00     0.060 C 
HETATM   16  C31 UNL     1      -3.551  49.018 -20.866  1.00  0.00     0.020 C 
HETATM   17  C32 UNL     1      -3.035  48.813 -22.321  1.00  0.00    -0.016 C 
HETATM   18  C33 UNL     1      -2.248  47.471 -22.267  1.00  0.00     0.020 C 
HETATM   19  C34 UNL     1      -2.075  49.965 -22.799  1.00  0.00     0.002 C 
HETATM   20  C35 UNL     1      -2.684  51.381 -22.632  1.00  0.00     0.007 C 
HETATM   21  C36 UNL     1      -2.256  52.428 -23.663  1.00  0.00     0.014 C 
HETATM   22  C37 UNL     1      -0.818  52.274 -24.178  1.00  0.00     0.003 C 
HETATM   23  C38 UNL     1       0.158  52.638 -23.026  1.00  0.00     0.020 C 
ENDROOT
BRANCH   3  24
HETATM   24  O1  UNL     1      -1.718  53.226 -26.275  1.00  0.00    -0.377 OA
HETATM   25  H2  UNL     1      -1.519  53.856 -26.988  1.00  0.00     0.211 HD
ENDBRANCH   3  24
BRANCH  13  26
HETATM   26  O2  UNL     1      -7.492  49.831 -20.193  1.00  0.00    -0.271 OA
BRANCH  26  27
HETATM   27  C13 UNL     1      -8.190  48.814 -19.493  1.00  0.00     0.303 C 
BRANCH  27  28
HETATM   28  C14 UNL     1      -9.161  48.068 -20.407  1.00  0.00     0.244 C 
HETATM   29  O3  UNL     1      -8.924  47.764 -21.572  1.00  0.00    -0.271 OA
HETATM   30  N2  UNL     1     -10.373  47.779 -19.796  1.00  0.00    -0.346 N 
HETATM   31  H16 UNL     1     -10.328  47.655 -18.790  1.00  0.00     0.163 HD
BRANCH  30  32
HETATM   32  C15 UNL     1     -11.343  46.934 -20.484  1.00  0.00     0.180 C 
BRANCH  32  33
HETATM   33  C16 UNL     1     -11.912  45.913 -19.473  1.00  0.00     0.241 C 
HETATM   34  O4  UNL     1     -11.199  45.111 -18.869  1.00  0.00    -0.271 OA
HETATM   35  N3  UNL     1     -13.274  46.021 -19.267  1.00  0.00    -0.354 N 
HETATM   36  H18 UNL     1     -13.797  46.640 -19.874  1.00  0.00     0.162 HD
BRANCH  35  37
HETATM   37  C17 UNL     1     -14.006  45.098 -18.392  1.00  0.00     0.098 C 
BRANCH  37  38
HETATM   38  C18 UNL     1     -13.526  45.266 -16.939  1.00  0.00     0.135 C 
BRANCH  38  39
HETATM   39  C19 UNL     1     -13.946  46.582 -16.341  1.00  0.00     0.141 C 
HETATM   40  O5  UNL     1     -13.991  47.669 -16.887  1.00  0.00    -0.650 OA
BRANCH  39  41
HETATM   41  O6  UNL     1     -14.314  46.450 -15.051  1.00  0.00    -0.776 OA
HETATM   42  H22 UNL     1     -14.602  47.350 -14.790  1.00  0.00     0.167 HD
ENDBRANCH  39  41
ENDBRANCH  38  39
ENDBRANCH  37  38
BRANCH  37  43
HETATM   43  C20 UNL     1     -15.546  45.256 -18.567  1.00  0.00     0.014 C 
HETATM   44  C21 UNL     1     -16.272  43.916 -18.360  1.00  0.00     0.033 C 
HETATM   45  C22 UNL     1     -17.773  44.068 -18.556  1.00  0.00     0.169 C 
HETATM   46  O7  UNL     1     -18.070  44.617 -19.837  1.00  0.00    -0.381 OA
HETATM   47  C23 UNL     1     -17.503  45.907 -20.095  1.00  0.00     0.054 C 
HETATM   48  C24 UNL     1     -18.164  46.985 -19.223  1.00  0.00     0.045 C 
HETATM   49  C25 UNL     1     -17.824  46.220 -21.565  1.00  0.00     0.045 C 
HETATM   50  C26 UNL     1     -15.972  45.868 -19.914  1.00  0.00     0.044 C 
ENDBRANCH  37  43
ENDBRANCH  35  37
ENDBRANCH  32  33
BRANCH  32  51
HETATM   51  C27 UNL     1     -12.474  47.745 -21.155  1.00  0.00     0.009 C 
HETATM   52  C28 UNL     1     -13.330  48.457 -20.100  1.00  0.00     0.012 C 
HETATM   53  C29 UNL     1     -13.371  46.899 -22.068  1.00  0.00     0.012 C 
ENDBRANCH  32  51
ENDBRANCH  30  32
ENDBRANCH  27  28
ENDBRANCH  26  27
ENDBRANCH  13  26
TORSDOF 12
ENDMDL
MODEL 2
REMARK minimizedAffinity -9.05948448
REMARK CNNscore 0.384556472
REMARK CNNaffinity 7.35593557
REMARK  12 active torsions:
REMARK  status: ('A' for Active; 'I' for Inactive)
REMARK    1  A    between atoms: C3_3  and  O1_4 
REMARK    2  A    between atoms: N1_14  and  O2_16 
REMARK    3  A    between atoms: O2_16  and  C13_17 
REMARK    4  A    between atoms: C13_17  and  C14_18 
REMARK       I    between atoms: C14_18  and  N2_20 
REMARK    5  A    between atoms: N2_20  and  C15_21 
REMARK    6  A    between atoms: C15_21  and  C16_22 
REMARK    7  A    between atoms: C15_21  and  C27_38 
REMARK       I    between atoms: C16_22  and  N3_24 
REMARK    8  A    between atoms: N3_24  and  C17_25 
REMARK    9  A    between atoms: C17_25  and  C18_26 
REMARK   10  A    between atoms: C17_25  and  C20_30 
REMARK   11  A    between atoms: C18_26  and  C19_27 
REMARK   12  A    between atoms: C19_27  and  O6_29 
ROOT
HETATM    1  C1  UNL     1      -0.289  53.924 -27.847  1.00  0.00     0.015 C 
HETATM    2  C2  UNL     1      -1.044  53.146 -27.329  1.00  0.00    -0.078 C 
HETATM    3  C3  UNL     1      -1.986  52.207 -26.701  1.00  0.00     0.128 C 
HETATM    4  C4  UNL     1      -2.541  51.192 -27.703  1.00  0.00     0.052 C 
HETATM    5  C5  UNL     1      -3.207  50.165 -26.794  1.00  0.00     0.010 C 
HETATM    6  C6  UNL     1      -2.194  49.976 -25.657  1.00  0.00     0.002 C 
HETATM    7  C7  UNL     1      -2.748  49.402 -24.331  1.00  0.00    -0.004 C 
HETATM    8  C8  UNL     1      -4.125  49.924 -23.869  1.00  0.00     0.010 C 
HETATM    9  C9  UNL     1      -4.573  49.321 -22.529  1.00  0.00     0.035 C 
HETATM   10  C10 UNL     1      -3.485  49.420 -21.484  1.00  0.00    -0.069 C 
HETATM   11  C11 UNL     1      -3.712  50.076 -20.335  1.00  0.00     0.030 C 
HETATM   12  C12 UNL     1      -2.630  50.373 -19.364  1.00  0.00     0.032 C 
HETATM   13  N1  UNL     1      -2.972  50.936 -18.241  1.00  0.00    -0.271 N 
ATOM     14  H1  UNL     1      -3.931  51.170 -17.984  1.00  0.00     0.194 HD
HETATM   15  C30 UNL     1      -1.200  50.104 -19.786  1.00  0.00     0.060 C 
HETATM   16  C31 UNL     1      -1.082  48.924 -20.738  1.00  0.00     0.020 C 
HETATM   17  C32 UNL     1      -2.140  48.822 -21.876  1.00  0.00    -0.016 C 
HETATM   18  C33 UNL     1      -2.294  47.293 -22.126  1.00  0.00     0.020 C 
HETATM   19  C34 UNL     1      -1.679  49.527 -23.206  1.00  0.00     0.002 C 
HETATM   20  C35 UNL     1      -1.240  50.999 -23.001  1.00  0.00     0.007 C 
HETATM   21  C36 UNL     1      -1.496  51.952 -24.172  1.00  0.00     0.014 C 
HETATM   22  C37 UNL     1      -1.379  51.310 -25.562  1.00  0.00     0.003 C 
HETATM   23  C38 UNL     1       0.116  50.978 -25.825  1.00  0.00     0.020 C 
ENDROOT
BRANCH   3  24
HETATM   24  O1  UNL     1      -3.099  52.962 -26.211  1.00  0.00    -0.377 OA
HETATM   25  H2  UNL     1      -3.354  53.579 -26.917  1.00  0.00     0.211 HD
ENDBRANCH   3  24
BRANCH  13  26
HETATM   26  O2  UNL     1      -1.855  51.180 -17.428  1.00  0.00    -0.271 OA
BRANCH  26  27
HETATM   27  C13 UNL     1      -2.154  50.819 -16.089  1.00  0.00     0.303 C 
BRANCH  27  28
HETATM   28  C14 UNL     1      -1.085  51.323 -15.120  1.00  0.00     0.244 C 
HETATM   29  O3  UNL     1      -1.309  51.697 -13.973  1.00  0.00    -0.271 OA
HETATM   30  N2  UNL     1       0.187  51.342 -15.674  1.00  0.00    -0.346 N 
HETATM   31  H16 UNL     1       0.353  50.647 -16.394  1.00  0.00     0.163 HD
BRANCH  30  32
HETATM   32  C15 UNL     1       1.335  51.647 -14.828  1.00  0.00     0.180 C 
BRANCH  32  33
HETATM   33  C16 UNL     1       1.335  50.674 -13.627  1.00  0.00     0.241 C 
HETATM   34  O4  UNL     1       1.352  49.451 -13.766  1.00  0.00    -0.271 OA
HETATM   35  N3  UNL     1       1.372  51.297 -12.394  1.00  0.00    -0.354 N 
HETATM   36  H18 UNL     1       1.259  52.303 -12.369  1.00  0.00     0.162 HD
BRANCH  35  37
HETATM   37  C17 UNL     1       1.313  50.543 -11.137  1.00  0.00     0.098 C 
BRANCH  37  38
HETATM   38  C18 UNL     1       2.711  50.485 -10.497  1.00  0.00     0.135 C 
BRANCH  38  39
HETATM   39  C19 UNL     1       3.487  49.264 -10.913  1.00  0.00     0.141 C 
HETATM   40  O5  UNL     1       4.062  49.069 -11.969  1.00  0.00    -0.650 OA
BRANCH  39  41
HETATM   41  O6  UNL     1       3.512  48.332  -9.939  1.00  0.00    -0.776 OA
HETATM   42  H22 UNL     1       4.073  47.616 -10.307  1.00  0.00     0.167 HD
ENDBRANCH  39  41
ENDBRANCH  38  39
ENDBRANCH  37  38
BRANCH  37  43
HETATM   43  C20 UNL     1       0.213  51.110 -10.190  1.00  0.00     0.014 C 
HETATM   44  C21 UNL     1      -0.909  50.083  -9.958  1.00  0.00     0.033 C 
HETATM   45  C22 UNL     1      -1.993  50.648  -9.054  1.00  0.00     0.169 C 
HETATM   46  O7  UNL     1      -2.516  51.865  -9.580  1.00  0.00    -0.381 OA
HETATM   47  C23 UNL     1      -1.559  52.916  -9.756  1.00  0.00     0.054 C 
HETATM   48  C24 UNL     1      -1.062  53.444  -8.401  1.00  0.00     0.045 C 
HETATM   49  C25 UNL     1      -2.311  54.054 -10.465  1.00  0.00     0.045 C 
HETATM   50  C26 UNL     1      -0.401  52.443 -10.658  1.00  0.00     0.044 C 
ENDBRANCH  37  43
ENDBRANCH  35  37
ENDBRANCH  32  33
BRANCH  32  51
HETATM   51  C27 UNL     1       2.676  51.588 -15.593  1.00  0.00     0.009 C 
HETATM   52  C28 UNL     1       3.847  51.390 -14.623  1.00  0.00     0.012 C 
HETATM   53  C29 UNL     1       2.931  52.819 -16.472  1.00  0.00     0.012 C 
ENDBRANCH  32  51
ENDBRANCH  30  32
ENDBRANCH  27  28
ENDBRANCH  26  27
ENDBRANCH  13  26
TORSDOF 12
ENDMDL
MODEL 3
REMARK minimizedAffinity -8.54434204
REMARK CNNscore 0.319285005
REMARK CNNaffinity 6.51525354
REMARK  12 active torsions:
REMARK  status: ('A' for Active; 'I' for Inactive)
REMARK    1  A    between atoms: C3_3  and  O1_4 
REMARK    2  A    between atoms: N1_14  and  O2_16 
REMARK    3  A    between atoms: O2_16  and  C13_17 
REMARK    4  A    between atoms: C13_17  and  C14_18 
REMARK       I    between atoms: C14_18  and  N2_20 
REMARK    5  A    between atoms: N2_20  and  C15_21 
REMARK    6  A    between atoms: C15_21  and  C16_22 
REMARK    7  A    between atoms: C15_21  and  C27_38 
REMARK       I    between atoms: C16_22  and  N3_24 
REMARK    8  A    between atoms: N3_24  and  C17_25 
REMARK    9  A    between atoms: C17_25  and  C18_26 
REMARK   10  A    between atoms: C17_25  and  C20_30 
REMARK   11  A    between atoms: C18_26  and  C19_27 
REMARK   12  A    between atoms: C19_27  and  O6_29 
ROOT
HETATM    1  C1  UNL     1       0.166  50.411 -17.054  1.00  0.00     0.015 C 
HETATM    2  C2  UNL     1      -0.149  50.917 -18.097  1.00  0.00    -0.078 C 
HETATM    3  C3  UNL     1      -0.541  51.555 -19.364  1.00  0.00     0.128 C 
HETATM    4  C4  UNL     1       0.568  52.446 -19.926  1.00  0.00     0.052 C 
HETATM    5  C5  UNL     1       0.078  52.723 -21.344  1.00  0.00     0.010 C 
HETATM    6  C6  UNL     1      -0.429  51.357 -21.825  1.00  0.00     0.002 C 
HETATM    7  C7  UNL     1      -1.434  51.373 -23.002  1.00  0.00    -0.004 C 
HETATM    8  C8  UNL     1      -2.515  52.476 -22.979  1.00  0.00     0.010 C 
HETATM    9  C9  UNL     1      -3.482  52.388 -24.168  1.00  0.00     0.035 C 
HETATM   10  C10 UNL     1      -4.024  50.988 -24.341  1.00  0.00    -0.069 C 
HETATM   11  C11 UNL     1      -5.347  50.765 -24.295  1.00  0.00     0.030 C 
HETATM   12  C12 UNL     1      -5.922  49.398 -24.263  1.00  0.00     0.032 C 
HETATM   13  N1  UNL     1      -7.219  49.293 -24.308  1.00  0.00    -0.271 N 
ATOM     14  H1  UNL     1      -7.857  50.086 -24.378  1.00  0.00     0.194 HD
HETATM   15  C30 UNL     1      -4.975  48.231 -24.070  1.00  0.00     0.060 C 
HETATM   16  C31 UNL     1      -3.606  48.481 -24.684  1.00  0.00     0.020 C 
HETATM   17  C32 UNL     1      -2.976  49.889 -24.467  1.00  0.00    -0.016 C 
HETATM   18  C33 UNL     1      -2.111  50.126 -25.740  1.00  0.00     0.020 C 
HETATM   19  C34 UNL     1      -2.059  49.960 -23.189  1.00  0.00     0.002 C 
HETATM   20  C35 UNL     1      -2.766  49.476 -21.898  1.00  0.00     0.007 C 
HETATM   21  C36 UNL     1      -2.334  50.151 -20.595  1.00  0.00     0.014 C 
HETATM   22  C37 UNL     1      -0.856  50.565 -20.543  1.00  0.00     0.003 C 
HETATM   23  C38 UNL     1       0.011  49.279 -20.463  1.00  0.00     0.020 C 
ENDROOT
BRANCH   3  24
HETATM   24  O1  UNL     1      -1.665  52.403 -19.100  1.00  0.00    -0.377 OA
HETATM   25  H2  UNL     1      -1.457  52.903 -18.294  1.00  0.00     0.211 HD
ENDBRANCH   3  24
BRANCH  13  26
HETATM   26  O2  UNL     1      -7.628  47.953 -24.248  1.00  0.00    -0.271 OA
BRANCH  26  27
HETATM   27  C13 UNL     1      -8.845  47.860 -23.527  1.00  0.00     0.303 C 
BRANCH  27  28
HETATM   28  C14 UNL     1      -9.409  46.440 -23.558  1.00  0.00     0.244 C 
HETATM   29  O3  UNL     1      -8.746  45.425 -23.364  1.00  0.00    -0.271 OA
HETATM   30  N2  UNL     1     -10.764  46.397 -23.855  1.00  0.00    -0.346 N 
HETATM   31  H16 UNL     1     -11.293  47.213 -23.567  1.00  0.00     0.163 HD
BRANCH  30  32
HETATM   32  C15 UNL     1     -11.480  45.129 -23.767  1.00  0.00     0.180 C 
BRANCH  32  33
HETATM   33  C16 UNL     1     -12.834  45.377 -23.065  1.00  0.00     0.241 C 
HETATM   34  O4  UNL     1     -13.495  44.469 -22.561  1.00  0.00    -0.271 OA
HETATM   35  N3  UNL     1     -13.205  46.707 -23.004  1.00  0.00    -0.354 N 
HETATM   36  H18 UNL     1     -12.653  47.376 -23.526  1.00  0.00     0.162 HD
BRANCH  35  37
HETATM   37  C17 UNL     1     -14.487  47.134 -22.433  1.00  0.00     0.098 C 
BRANCH  37  38
HETATM   38  C18 UNL     1     -15.640  46.380 -23.120  1.00  0.00     0.135 C 
BRANCH  38  39
HETATM   39  C19 UNL     1     -16.104  47.057 -24.381  1.00  0.00     0.141 C 
HETATM   40  O5  UNL     1     -17.248  47.222 -24.762  1.00  0.00    -0.650 OA
BRANCH  39  41
HETATM   41  O6  UNL     1     -15.068  47.520 -25.109  1.00  0.00    -0.776 OA
HETATM   42  H22 UNL     1     -15.492  47.971 -25.870  1.00  0.00     0.167 HD
ENDBRANCH  39  41
ENDBRANCH  38  39
ENDBRANCH  37  38
BRANCH  37  43
HETATM   43  C20 UNL     1     -14.486  46.998 -20.880  1.00  0.00     0.014 C 
HETATM   44  C21 UNL     1     -15.575  46.021 -20.404  1.00  0.00     0.033 C 
HETATM   45  C22 UNL     1     -15.588  45.910 -18.888  1.00  0.00     0.169 C 
HETATM   46  O7  UNL     1     -15.751  47.190 -18.281  1.00  0.00    -0.381 OA
HETATM   47  C23 UNL     1     -14.736  48.149 -18.599  1.00  0.00     0.054 C 
HETATM   48  C24 UNL     1     -13.391  47.762 -17.967  1.00  0.00     0.045 C 
HETATM   49  C25 UNL     1     -15.197  49.472 -17.968  1.00  0.00     0.045 C 
HETATM   50  C26 UNL     1     -14.631  48.334 -20.127  1.00  0.00     0.044 C 
ENDBRANCH  37  43
ENDBRANCH  35  37
ENDBRANCH  32  33
BRANCH  32  51
HETATM   51  C27 UNL     1     -11.680  44.458 -25.144  1.00  0.00     0.009 C 
HETATM   52  C28 UNL     1     -13.157  44.494 -25.556  1.00  0.00     0.012 C 
HETATM   53  C29 UNL     1     -11.160  43.016 -25.200  1.00  0.00     0.012 C 
ENDBRANCH  32  51
ENDBRANCH  30  32
ENDBRANCH  27  28
ENDBRANCH  26  27
ENDBRANCH  13  26
TORSDOF 12
ENDMDL
MODEL 4
REMARK minimizedAffinity -7.66099644
REMARK CNNscore 0.286847025
REMARK CNNaffinity 5.77699327
REMARK  12 active torsions:
REMARK  status: ('A' for Active; 'I' for Inactive)
REMARK    1  A    between atoms: C3_3  and  O1_4 
REMARK    2  A    between atoms: N1_14  and  O2_16 
REMARK    3  A    between atoms: O2_16  and  C13_17 
REMARK    4  A    between atoms: C13_17  and  C14_18 
REMARK       I    between atoms: C14_18  and  N2_20 
REMARK    5  A    between atoms: N2_20  and  C15_21 
REMARK    6  A    between atoms: C15_21  and  C16_22 
REMARK    7  A    between atoms: C15_21  and  C27_38 
REMARK       I    between atoms: C16_22  and  N3_24 
REMARK    8  A    between atoms: N3_24  and  C17_25 
REMARK    9  A    between atoms: C17_25  and  C18_26 
REMARK   10  A    between atoms: C17_25  and  C20_30 
REMARK   11  A    between atoms: C18_26  and  C19_27 
REMARK   12  A    between atoms: C19_27  and  O6_29 
ROOT
HETATM    1  C1  UNL     1      -5.122  48.730 -30.682  1.00  0.00     0.015 C 
HETATM    2  C2  UNL     1      -6.305  48.520 -30.722  1.00  0.00    -0.078 C 
HETATM    3  C3  UNL     1      -7.756  48.285 -30.775  1.00  0.00     0.128 C 
HETATM    4  C4  UNL     1      -8.243  48.018 -32.201  1.00  0.00     0.052 C 
HETATM    5  C5  UNL     1      -9.658  47.498 -31.971  1.00  0.00     0.010 C 
HETATM    6  C6  UNL     1      -9.503  46.536 -30.786  1.00  0.00     0.002 C 
HETATM    7  C7  UNL     1     -10.787  46.224 -29.982  1.00  0.00    -0.004 C 
HETATM    8  C8  UNL     1     -11.745  47.405 -29.715  1.00  0.00     0.010 C 
HETATM    9  C9  UNL     1     -12.971  47.002 -28.882  1.00  0.00     0.035 C 
HETATM   10  C10 UNL     1     -12.574  46.230 -27.646  1.00  0.00    -0.069 C 
HETATM   11  C11 UNL     1     -12.912  46.684 -26.428  1.00  0.00     0.030 C 
HETATM   12  C12 UNL     1     -12.386  46.078 -25.181  1.00  0.00     0.032 C 
HETATM   13  N1  UNL     1     -12.846  46.538 -24.052  1.00  0.00    -0.271 N 
ATOM     14  H1  UNL     1     -13.550  47.272 -23.975  1.00  0.00     0.194 HD
HETATM   15  C30 UNL     1     -11.279  45.051 -25.298  1.00  0.00     0.060 C 
HETATM   16  C31 UNL     1     -11.374  44.231 -26.576  1.00  0.00     0.020 C 
HETATM   17  C32 UNL     1     -11.709  44.999 -27.889  1.00  0.00    -0.016 C 
HETATM   18  C33 UNL     1     -12.491  43.966 -28.752  1.00  0.00     0.020 C 
HETATM   19  C34 UNL     1     -10.425  45.470 -28.669  1.00  0.00     0.002 C 
HETATM   20  C35 UNL     1      -9.441  46.290 -27.796  1.00  0.00     0.007 C 
HETATM   21  C36 UNL     1      -8.633  47.370 -28.518  1.00  0.00     0.014 C 
HETATM   22  C37 UNL     1      -8.262  47.034 -29.970  1.00  0.00     0.003 C 
HETATM   23  C38 UNL     1      -7.208  45.893 -29.955  1.00  0.00     0.020 C 
ENDROOT
BRANCH   3  24
HETATM   24  O1  UNL     1      -8.412  49.476 -30.325  1.00  0.00    -0.377 OA
HETATM   25  H2  UNL     1      -7.977  50.222 -30.770  1.00  0.00     0.211 HD
ENDBRANCH   3  24
BRANCH  13  26
HETATM   26  O2  UNL     1     -12.252  45.896 -22.956  1.00  0.00    -0.271 OA
BRANCH  26  27
HETATM   27  C13 UNL     1     -13.251  45.246 -22.187  1.00  0.00     0.303 C 
BRANCH  27  28
HETATM   28  C14 UNL     1     -14.249  46.245 -21.604  1.00  0.00     0.244 C 
HETATM   29  O3  UNL     1     -14.006  47.430 -21.399  1.00  0.00    -0.271 OA
HETATM   30  N2  UNL     1     -15.476  45.674 -21.296  1.00  0.00    -0.346 N 
HETATM   31  H16 UNL     1     -15.736  44.879 -21.870  1.00  0.00     0.163 HD
BRANCH  30  32
HETATM   32  C15 UNL     1     -16.583  46.528 -20.880  1.00  0.00     0.180 C 
BRANCH  32  33
HETATM   33  C16 UNL     1     -17.829  46.163 -21.718  1.00  0.00     0.241 C 
HETATM   34  O4  UNL     1     -18.850  46.850 -21.720  1.00  0.00    -0.271 OA
HETATM   35  N3  UNL     1     -17.672  45.036 -22.503  1.00  0.00    -0.354 N 
HETATM   36  H18 UNL     1     -16.838  44.479 -22.368  1.00  0.00     0.162 HD
BRANCH  35  37
HETATM   37  C17 UNL     1     -18.765  44.496 -23.318  1.00  0.00     0.098 C 
BRANCH  37  38
HETATM   38  C18 UNL     1     -19.844  45.574 -23.525  1.00  0.00     0.135 C 
BRANCH  38  39
HETATM   39  C19 UNL     1     -19.581  46.429 -24.735  1.00  0.00     0.141 C 
HETATM   40  O5  UNL     1     -18.923  47.452 -24.798  1.00  0.00    -0.650 OA
BRANCH  39  41
HETATM   41  O6  UNL     1     -20.168  45.925 -25.840  1.00  0.00    -0.776 OA
HETATM   42  H22 UNL     1     -19.893  46.536 -26.557  1.00  0.00     0.167 HD
ENDBRANCH  39  41
ENDBRANCH  38  39
ENDBRANCH  37  38
BRANCH  37  43
HETATM   43  C20 UNL     1     -18.228  43.883 -24.647  1.00  0.00     0.014 C 
HETATM   44  C21 UNL     1     -17.282  44.858 -25.369  1.00  0.00     0.033 C 
HETATM   45  C22 UNL     1     -16.779  44.267 -26.677  1.00  0.00     0.169 C 
HETATM   46  O7  UNL     1     -17.864  43.891 -27.520  1.00  0.00    -0.381 OA
HETATM   47  C23 UNL     1     -18.760  42.920 -26.966  1.00  0.00     0.054 C 
HETATM   48  C24 UNL     1     -18.079  41.549 -26.838  1.00  0.00     0.045 C 
HETATM   49  C25 UNL     1     -19.912  42.789 -27.975  1.00  0.00     0.045 C 
HETATM   50  C26 UNL     1     -19.327  43.418 -25.621  1.00  0.00     0.044 C 
ENDBRANCH  37  43
ENDBRANCH  35  37
ENDBRANCH  32  33
BRANCH  32  51
HETATM   51  C27 UNL     1     -16.880  46.429 -19.367  1.00  0.00     0.009 C 
HETATM   52  C28 UNL     1     -18.388  46.320 -19.116  1.00  0.00     0.012 C 
HETATM   53  C29 UNL     1     -16.299  47.594 -18.554  1.00  0.00     0.012 C 
ENDBRANCH  32  51
ENDBRANCH  30  32
ENDBRANCH  27  28
ENDBRANCH  26  27
ENDBRANCH  13  26
TORSDOF 12
ENDMDL
MODEL 5
REMARK minimizedAffinity -9.30016232
REMARK CNNscore 0.264850825
REMARK CNNaffinity 6.94905853
REMARK  12 active torsions:
REMARK  status: ('A' for Active; 'I' for Inactive)
REMARK    1  A    between atoms: C3_3  and  O1_4 
REMARK    2  A    between atoms: N1_14  and  O2_16 
REMARK    3  A    between atoms: O2_16  and  C13_17 
REMARK    4  A    between atoms: C13_17  and  C14_18 
REMARK       I    between atoms: C14_18  and  N2_20 
REMARK    5  A    between atoms: N2_20  and  C15_21 
REMARK    6  A    between atoms: C15_21  and  C16_22 
REMARK    7  A    between atoms: C15_21  and  C27_38 
REMARK       I    between atoms: C16_22  and  N3_24 
REMARK    8  A    between atoms: N3_24  and  C17_25 
REMARK    9  A    between atoms: C17_25  and  C18_26 
REMARK   10  A    between atoms: C17_25  and  C20_30 
REMARK   11  A    between atoms: C18_26  and  C19_27 
REMARK   12  A    between atoms: C19_27  and  O6_29 
ROOT
HETATM    1  C1  UNL     1      -0.516  53.735 -27.915  1.00  0.00     0.015 C 
HETATM    2  C2  UNL     1      -1.246  53.010 -27.293  1.00  0.00    -0.078 C 
HETATM    3  C3  UNL     1      -2.157  52.137 -26.537  1.00  0.00     0.128 C 
HETATM    4  C4  UNL     1      -2.871  51.130 -27.441  1.00  0.00     0.052 C 
HETATM    5  C5  UNL     1      -3.480  50.161 -26.434  1.00  0.00     0.010 C 
HETATM    6  C6  UNL     1      -2.357  49.945 -25.412  1.00  0.00     0.002 C 
HETATM    7  C7  UNL     1      -2.786  49.432 -24.016  1.00  0.00    -0.004 C 
HETATM    8  C8  UNL     1      -4.075  50.037 -23.419  1.00  0.00     0.010 C 
HETATM    9  C9  UNL     1      -4.398  49.490 -22.021  1.00  0.00     0.035 C 
HETATM   10  C10 UNL     1      -3.197  49.556 -21.107  1.00  0.00    -0.069 C 
HETATM   11  C11 UNL     1      -3.260  50.250 -19.959  1.00  0.00     0.030 C 
HETATM   12  C12 UNL     1      -2.063  50.512 -19.124  1.00  0.00     0.032 C 
HETATM   13  N1  UNL     1      -2.248  51.119 -17.986  1.00  0.00    -0.271 N 
ATOM     14  H1  UNL     1      -3.159  51.409 -17.632  1.00  0.00     0.194 HD
HETATM   15  C30 UNL     1      -0.704  50.159 -19.694  1.00  0.00     0.060 C 
HETATM   16  C31 UNL     1      -0.753  48.952 -20.618  1.00  0.00     0.020 C 
HETATM   17  C32 UNL     1      -1.936  48.880 -21.629  1.00  0.00    -0.016 C 
HETATM   18  C33 UNL     1      -2.192  47.355 -21.815  1.00  0.00     0.020 C 
HETATM   19  C34 UNL     1      -1.592  49.528 -23.022  1.00  0.00     0.002 C 
HETATM   20  C35 UNL     1      -1.061  50.979 -22.910  1.00  0.00     0.007 C 
HETATM   21  C36 UNL     1      -1.399  51.916 -24.071  1.00  0.00     0.014 C 
HETATM   22  C37 UNL     1      -1.471  51.237 -25.447  1.00  0.00     0.003 C 
HETATM   23  C38 UNL     1      -0.034  50.821 -25.864  1.00  0.00     0.020 C 
ENDROOT
BRANCH   3  24
HETATM   24  O1  UNL     1      -3.170  52.961 -25.949  1.00  0.00    -0.377 OA
HETATM   25  H2  UNL     1      -3.471  53.574 -26.640  1.00  0.00     0.211 HD
ENDBRANCH   3  24
BRANCH  13  26
HETATM   26  O2  UNL     1      -1.036  51.323 -17.310  1.00  0.00    -0.271 OA
BRANCH  26  27
HETATM   27  C13 UNL     1      -1.166  50.898 -15.963  1.00  0.00     0.303 C 
BRANCH  27  28
HETATM   28  C14 UNL     1       0.197  50.664 -15.314  1.00  0.00     0.244 C 
HETATM   29  O3  UNL     1       0.896  49.673 -15.504  1.00  0.00    -0.271 OA
HETATM   30  N2  UNL     1       0.574  51.685 -14.453  1.00  0.00    -0.346 N 
HETATM   31  H16 UNL     1       0.203  52.600 -14.683  1.00  0.00     0.163 HD
BRANCH  30  32
HETATM   32  C15 UNL     1       1.915  51.684 -13.880  1.00  0.00     0.180 C 
BRANCH  32  33
HETATM   33  C16 UNL     1       1.863  50.980 -12.505  1.00  0.00     0.241 C 
HETATM   34  O4  UNL     1       0.982  50.174 -12.207  1.00  0.00    -0.271 OA
HETATM   35  N3  UNL     1       2.920  51.290 -11.670  1.00  0.00    -0.354 N 
HETATM   36  H18 UNL     1       3.546  52.033 -11.956  1.00  0.00     0.162 HD
BRANCH  35  37
HETATM   37  C17 UNL     1       3.011  50.770 -10.301  1.00  0.00     0.098 C 
BRANCH  37  38
HETATM   38  C18 UNL     1       3.864  49.489 -10.286  1.00  0.00     0.135 C 
BRANCH  38  39
HETATM   39  C19 UNL     1       5.329  49.768 -10.488  1.00  0.00     0.141 C 
HETATM   40  O5  UNL     1       5.898  50.052 -11.527  1.00  0.00    -0.650 OA
BRANCH  39  41
HETATM   41  O6  UNL     1       6.018  49.688  -9.332  1.00  0.00    -0.776 OA
HETATM   42  H22 UNL     1       6.935  49.928  -9.582  1.00  0.00     0.167 HD
ENDBRANCH  39  41
ENDBRANCH  38  39
ENDBRANCH  37  38
BRANCH  37  43
HETATM   43  C20 UNL     1       3.510  51.868  -9.313  1.00  0.00     0.014 C 
HETATM   44  C21 UNL     1       2.332  52.545  -8.591  1.00  0.00     0.033 C 
HETATM   45  C22 UNL     1       2.819  53.632  -7.646  1.00  0.00     0.169 C 
HETATM   46  O7  UNL     1       3.615  54.593  -8.336  1.00  0.00    -0.381 OA
HETATM   47  C23 UNL     1       4.785  54.070  -8.976  1.00  0.00     0.054 C 
HETATM   48  C24 UNL     1       5.823  53.610  -7.940  1.00  0.00     0.045 C 
HETATM   49  C25 UNL     1       5.388  55.240  -9.769  1.00  0.00     0.045 C 
HETATM   50  C26 UNL     1       4.403  52.943  -9.958  1.00  0.00     0.044 C 
ENDBRANCH  37  43
ENDBRANCH  35  37
ENDBRANCH  32  33
BRANCH  32  51
HETATM   51  C27 UNL     1       2.962  51.024 -14.805  1.00  0.00     0.009 C 
HETATM   52  C28 UNL     1       3.762  49.959 -14.047  1.00  0.00     0.012 C 
HETATM   53  C29 UNL     1       3.920  52.030 -15.456  1.00  0.00     0.012 C 
ENDBRANCH  32  51
ENDBRANCH  30  32
ENDBRANCH  27  28
ENDBRANCH  26  27
ENDBRANCH  13  26
TORSDOF 12
ENDMDL
MODEL 6
REMARK minimizedAffinity -8.65892124
REMARK CNNscore 0.236197904
REMARK CNNaffinity 5.77857065
REMARK  12 active torsions:
REMARK  status: ('A' for Active; 'I' for Inactive)
REMARK    1  A    between atoms: C3_3  and  O1_4 
REMARK    2  A    between atoms: N1_14  and  O2_16 
REMARK    3  A    between atoms: O2_16  and  C13_17 
REMARK    4  A    between atoms: C13_17  and  C14_18 
REMARK       I    between atoms: C14_18  and  N2_20 
REMARK    5  A    between atoms: N2_20  and  C15_21 
REMARK    6  A    between atoms: C15_21  and  C16_22 
REMARK    7  A    between atoms: C15_21  and  C27_38 
REMARK       I    between atoms: C16_22  and  N3_24 
REMARK    8  A    between atoms: N3_24  and  C17_25 
REMARK    9  A    between atoms: C17_25  and  C18_26 
REMARK   10  A    between atoms: C17_25  and  C20_30 
REMARK   11  A    between atoms: C18_26  and  C19_27 
REMARK   12  A    between atoms: C19_27  and  O6_29 
ROOT
HETATM    1  C1  UNL     1     -19.661  44.641 -22.883  1.00  0.00     0.015 C 
HETATM    2  C2  UNL     1     -18.899  44.383 -23.776  1.00  0.00    -0.078 C 
HETATM    3  C3  UNL     1     -17.966  44.046 -24.863  1.00  0.00     0.128 C 
HETATM    4  C4  UNL     1     -18.698  43.595 -26.129  1.00  0.00     0.052 C 
HETATM    5  C5  UNL     1     -17.588  43.618 -27.174  1.00  0.00     0.010 C 
HETATM    6  C6  UNL     1     -16.839  44.925 -26.879  1.00  0.00     0.002 C 
HETATM    7  C7  UNL     1     -15.387  45.018 -27.406  1.00  0.00    -0.004 C 
HETATM    8  C8  UNL     1     -14.517  43.750 -27.276  1.00  0.00     0.010 C 
HETATM    9  C9  UNL     1     -13.086  43.953 -27.794  1.00  0.00     0.035 C 
HETATM   10  C10 UNL     1     -12.457  45.201 -27.218  1.00  0.00    -0.069 C 
HETATM   11  C11 UNL     1     -11.320  45.119 -26.510  1.00  0.00     0.030 C 
HETATM   12  C12 UNL     1     -10.766  46.274 -25.761  1.00  0.00     0.032 C 
HETATM   13  N1  UNL     1      -9.612  46.112 -25.180  1.00  0.00    -0.271 N 
ATOM     14  H1  UNL     1      -9.064  45.253 -25.221  1.00  0.00     0.194 HD
HETATM   15  C30 UNL     1     -11.624  47.516 -25.631  1.00  0.00     0.060 C 
HETATM   16  C31 UNL     1     -12.523  47.736 -26.838  1.00  0.00     0.020 C 
HETATM   17  C32 UNL     1     -13.249  46.487 -27.420  1.00  0.00    -0.016 C 
HETATM   18  C33 UNL     1     -13.384  46.792 -28.940  1.00  0.00     0.020 C 
HETATM   19  C34 UNL     1     -14.679  46.265 -26.800  1.00  0.00     0.002 C 
HETATM   20  C35 UNL     1     -14.677  46.221 -25.251  1.00  0.00     0.007 C 
HETATM   21  C36 UNL     1     -15.729  45.322 -24.598  1.00  0.00     0.014 C 
HETATM   22  C37 UNL     1     -17.060  45.230 -25.359  1.00  0.00     0.003 C 
HETATM   23  C38 UNL     1     -17.786  46.598 -25.246  1.00  0.00     0.020 C 
ENDROOT
BRANCH   3  24
HETATM   24  O1  UNL     1     -17.164  42.942 -24.428  1.00  0.00    -0.377 OA
HETATM   25  H2  UNL     1     -17.768  42.297 -24.025  1.00  0.00     0.211 HD
ENDBRANCH   3  24
BRANCH  13  26
HETATM   26  O2  UNL     1      -9.218  47.269 -24.492  1.00  0.00    -0.271 OA
BRANCH  26  27
HETATM   27  C13 UNL     1      -8.127  47.875 -25.166  1.00  0.00     0.303 C 
BRANCH  27  28
HETATM   28  C14 UNL     1      -6.944  48.104 -24.227  1.00  0.00     0.244 C 
HETATM   29  O3  UNL     1      -6.735  47.461 -23.203  1.00  0.00    -0.271 OA
HETATM   30  N2  UNL     1      -6.119  49.144 -24.633  1.00  0.00    -0.346 N 
HETATM   31  H16 UNL     1      -6.091  49.304 -25.634  1.00  0.00     0.163 HD
BRANCH  30  32
HETATM   32  C15 UNL     1      -4.864  49.383 -23.930  1.00  0.00     0.180 C 
BRANCH  32  33
HETATM   33  C16 UNL     1      -3.701  49.246 -24.938  1.00  0.00     0.241 C 
HETATM   34  O4  UNL     1      -3.029  48.219 -25.039  1.00  0.00    -0.271 OA
HETATM   35  N3  UNL     1      -3.523  50.351 -25.749  1.00  0.00    -0.354 N 
HETATM   36  H18 UNL     1      -4.054  51.185 -25.535  1.00  0.00     0.162 HD
BRANCH  35  37
HETATM   37  C17 UNL     1      -2.430  50.434 -26.724  1.00  0.00     0.098 C 
BRANCH  37  38
HETATM   38  C18 UNL     1      -2.987  50.851 -28.097  1.00  0.00     0.135 C 
BRANCH  38  39
HETATM   39  C19 UNL     1      -3.757  49.746 -28.768  1.00  0.00     0.141 C 
HETATM   40  O5  UNL     1      -4.077  48.668 -28.300  1.00  0.00    -0.650 OA
BRANCH  39  41
HETATM   41  O6  UNL     1      -4.111  50.075 -30.027  1.00  0.00    -0.776 OA
HETATM   42  H22 UNL     1      -4.635  49.307 -30.337  1.00  0.00     0.167 HD
ENDBRANCH  39  41
ENDBRANCH  38  39
ENDBRANCH  37  38
BRANCH  37  43
HETATM   43  C20 UNL     1      -1.282  51.353 -26.208  1.00  0.00     0.014 C 
HETATM   44  C21 UNL     1       0.098  50.803 -26.608  1.00  0.00     0.033 C 
HETATM   45  C22 UNL     1       1.216  51.689 -26.081  1.00  0.00     0.169 C 
HETATM   46  O7  UNL     1       1.121  51.849 -24.668  1.00  0.00    -0.381 OA
HETATM   47  C23 UNL     1      -0.100  52.433 -24.201  1.00  0.00     0.054 C 
HETATM   48  C24 UNL     1      -0.198  53.911 -24.609  1.00  0.00     0.045 C 
HETATM   49  C25 UNL     1      -0.038  52.364 -22.667  1.00  0.00     0.045 C 
HETATM   50  C26 UNL     1      -1.311  51.612 -24.690  1.00  0.00     0.044 C 
ENDBRANCH  37  43
ENDBRANCH  35  37
ENDBRANCH  32  33
BRANCH  32  51
HETATM   51  C27 UNL     1      -4.827  50.754 -23.219  1.00  0.00     0.009 C 
HETATM   52  C28 UNL     1      -4.949  51.896 -24.235  1.00  0.00     0.012 C 
HETATM   53  C29 UNL     1      -3.577  50.959 -22.354  1.00  0.00     0.012 C 
ENDBRANCH  32  51
ENDBRANCH  30  32
ENDBRANCH  27  28
ENDBRANCH  26  27
ENDBRANCH  13  26
TORSDOF 12
ENDMDL
MODEL 7
REMARK minimizedAffinity -8.63955116
REMARK CNNscore 0.176544532
REMARK CNNaffinity 7.06881094
REMARK  12 active torsions:
REMARK  status: ('A' for Active; 'I' for Inactive)
REMARK    1  A    between atoms: C3_3  and  O1_4 
REMARK    2  A    between atoms: N1_14  and  O2_16 
REMARK    3  A    between atoms: O2_16  and  C13_17 
REMARK    4  A    between atoms: C13_17  and  C14_18 
REMARK       I    between atoms: C14_18  and  N2_20 
REMARK    5  A    between atoms: N2_20  and  C15_21 
REMARK    6  A    between atoms: C15_21  and  C16_22 
REMARK    7  A    between atoms: C15_21  and  C27_38 
REMARK       I    between atoms: C16_22  and  N3_24 
REMARK    8  A    between atoms: N3_24  and  C17_25 
REMARK    9  A    between atoms: C17_25  and  C18_26 
REMARK   10  A    between atoms: C17_25  and  C20_30 
REMARK   11  A    between atoms: C18_26  and  C19_27 
REMARK   12  A    between atoms: C19_27  and  O6_29 
ROOT
HETATM    1  C1  UNL     1       2.434  56.482  -8.115  1.00  0.00     0.015 C 
HETATM    2  C2  UNL     1       1.806  55.457  -8.121  1.00  0.00    -0.078 C 
HETATM    3  C3  UNL     1       1.057  54.191  -8.124  1.00  0.00     0.128 C 
HETATM    4  C4  UNL     1       0.567  53.810  -6.725  1.00  0.00     0.052 C 
HETATM    5  C5  UNL     1      -0.422  52.687  -7.020  1.00  0.00     0.010 C 
HETATM    6  C6  UNL     1      -1.206  53.203  -8.233  1.00  0.00     0.002 C 
HETATM    7  C7  UNL     1      -1.927  52.136  -9.090  1.00  0.00    -0.004 C 
HETATM    8  C8  UNL     1      -1.165  50.818  -9.346  1.00  0.00     0.010 C 
HETATM    9  C9  UNL     1      -1.948  49.838 -10.232  1.00  0.00     0.035 C 
HETATM   10  C10 UNL     1      -2.465  50.511 -11.482  1.00  0.00    -0.069 C 
HETATM   11  C11 UNL     1      -2.110  50.051 -12.692  1.00  0.00     0.030 C 
HETATM   12  C12 UNL     1      -2.426  50.783 -13.943  1.00  0.00     0.032 C 
HETATM   13  N1  UNL     1      -2.114  50.207 -15.069  1.00  0.00    -0.271 N 
ATOM     14  H1  UNL     1      -1.683  49.285 -15.142  1.00  0.00     0.194 HD
HETATM   15  C30 UNL     1      -2.983  52.187 -13.826  1.00  0.00     0.060 C 
HETATM   16  C31 UNL     1      -3.839  52.376 -12.583  1.00  0.00     0.020 C 
HETATM   17  C32 UNL     1      -3.306  51.760 -11.255  1.00  0.00    -0.016 C 
HETATM   18  C33 UNL     1      -4.592  51.395 -10.456  1.00  0.00     0.020 C 
HETATM   19  C34 UNL     1      -2.437  52.771 -10.417  1.00  0.00     0.002 C 
HETATM   20  C35 UNL     1      -1.277  53.402 -11.227  1.00  0.00     0.007 C 
HETATM   21  C36 UNL     1      -0.011  53.748 -10.440  1.00  0.00     0.014 C 
HETATM   22  C37 UNL     1      -0.254  54.191  -8.990  1.00  0.00     0.003 C 
HETATM   23  C38 UNL     1      -0.932  55.588  -9.011  1.00  0.00     0.020 C 
ENDROOT
BRANCH   3  24
HETATM   24  O1  UNL     1       1.947  53.154  -8.552  1.00  0.00    -0.377 OA
HETATM   25  H2  UNL     1       2.779  53.280  -8.067  1.00  0.00     0.211 HD
ENDBRANCH   3  24
BRANCH  13  26
HETATM   26  O2  UNL     1      -2.445  51.013 -16.167  1.00  0.00    -0.271 OA
BRANCH  26  27
HETATM   27  C13 UNL     1      -2.696  50.196 -17.299  1.00  0.00     0.303 C 
BRANCH  27  28
HETATM   28  C14 UNL     1      -1.501  50.174 -18.251  1.00  0.00     0.244 C 
HETATM   29  O3  UNL     1      -0.822  49.181 -18.491  1.00  0.00    -0.271 OA
HETATM   30  N2  UNL     1      -1.232  51.413 -18.816  1.00  0.00    -0.346 N 
HETATM   31  H16 UNL     1      -2.037  52.019 -18.927  1.00  0.00     0.163 HD
BRANCH  30  32
HETATM   32  C15 UNL     1      -0.224  51.521 -19.865  1.00  0.00     0.180 C 
BRANCH  32  33
HETATM   33  C16 UNL     1      -0.930  51.878 -21.192  1.00  0.00     0.241 C 
HETATM   34  O4  UNL     1      -2.032  52.427 -21.230  1.00  0.00    -0.271 OA
HETATM   35  N3  UNL     1      -0.193  51.580 -22.323  1.00  0.00    -0.354 N 
HETATM   36  H18 UNL     1       0.657  51.044 -22.205  1.00  0.00     0.162 HD
BRANCH  35  37
HETATM   37  C17 UNL     1      -0.723  51.787 -23.676  1.00  0.00     0.098 C 
BRANCH  37  38
HETATM   38  C18 UNL     1       0.436  52.044 -24.656  1.00  0.00     0.135 C 
BRANCH  38  39
HETATM   39  C19 UNL     1       0.176  53.214 -25.565  1.00  0.00     0.141 C 
HETATM   40  O5  UNL     1       0.684  53.446 -26.647  1.00  0.00    -0.650 OA
BRANCH  39  41
HETATM   41  O6  UNL     1      -0.753  54.048 -25.054  1.00  0.00    -0.776 OA
HETATM   42  H22 UNL     1      -0.865  54.734 -25.745  1.00  0.00     0.167 HD
ENDBRANCH  39  41
ENDBRANCH  38  39
ENDBRANCH  37  38
BRANCH  37  43
HETATM   43  C20 UNL     1      -1.656  50.614 -24.101  1.00  0.00     0.014 C 
HETATM   44  C21 UNL     1      -1.578  50.361 -25.617  1.00  0.00     0.033 C 
HETATM   45  C22 UNL     1      -2.509  49.232 -26.034  1.00  0.00     0.169 C 
HETATM   46  O7  UNL     1      -3.849  49.496 -25.628  1.00  0.00    -0.381 OA
HETATM   47  C23 UNL     1      -4.039  49.667 -24.219  1.00  0.00     0.054 C 
HETATM   48  C24 UNL     1      -3.827  48.343 -23.469  1.00  0.00     0.045 C 
HETATM   49  C25 UNL     1      -5.507  50.086 -24.041  1.00  0.00     0.045 C 
HETATM   50  C26 UNL     1      -3.128  50.791 -23.686  1.00  0.00     0.044 C 
ENDBRANCH  37  43
ENDBRANCH  35  37
ENDBRANCH  32  33
BRANCH  32  51
HETATM   51  C27 UNL     1       0.882  52.546 -19.529  1.00  0.00     0.009 C 
HETATM   52  C28 UNL     1       1.047  52.689 -18.011  1.00  0.00     0.012 C 
HETATM   53  C29 UNL     1       0.647  53.925 -20.159  1.00  0.00     0.012 C 
ENDBRANCH  32  51
ENDBRANCH  30  32
ENDBRANCH  27  28
ENDBRANCH  26  27
ENDBRANCH  13  26
TORSDOF 12
ENDMDL
MODEL 8
REMARK minimizedAffinity -8.256567
REMARK CNNscore 0.167055696
REMARK CNNaffinity 6.04288054
REMARK  12 active torsions:
REMARK  status: ('A' for Active; 'I' for Inactive)
REMARK    1  A    between atoms: C3_3  and  O1_4 
REMARK    2  A    between atoms: N1_14  and  O2_16 
REMARK    3  A    between atoms: O2_16  and  C13_17 
REMARK    4  A    between atoms: C13_17  and  C14_18 
REMARK       I    between atoms: C14_18  and  N2_20 
REMARK    5  A    between atoms: N2_20  and  C15_21 
REMARK    6  A    between atoms: C15_21  and  C16_22 
REMARK    7  A    between atoms: C15_21  and  C27_38 
REMARK       I    between atoms: C16_22  and  N3_24 
REMARK    8  A    between atoms: N3_24  and  C17_25 
REMARK    9  A    between atoms: C17_25  and  C18_26 
REMARK   10  A    between atoms: C17_25  and  C20_30 
REMARK   11  A    between atoms: C18_26  and  C19_27 
REMARK   12  A    between atoms: C19_27  and  O6_29 
ROOT
HETATM    1  C1  UNL     1      -0.327  52.373 -28.229  1.00  0.00     0.015 C 
HETATM    2  C2  UNL     1      -0.198  52.171 -27.051  1.00  0.00    -0.078 C 
HETATM    3  C3  UNL     1      -0.020  51.915 -25.613  1.00  0.00     0.128 C 
HETATM    4  C4  UNL     1       0.754  53.038 -24.921  1.00  0.00     0.052 C 
HETATM    5  C5  UNL     1       0.534  52.726 -23.445  1.00  0.00     0.010 C 
HETATM    6  C6  UNL     1      -0.955  52.362 -23.369  1.00  0.00     0.002 C 
HETATM    7  C7  UNL     1      -1.396  51.522 -22.147  1.00  0.00    -0.004 C 
HETATM    8  C8  UNL     1      -0.446  50.389 -21.702  1.00  0.00     0.010 C 
HETATM    9  C9  UNL     1      -0.986  49.593 -20.505  1.00  0.00     0.035 C 
HETATM   10  C10 UNL     1      -2.416  49.157 -20.726  1.00  0.00    -0.069 C 
HETATM   11  C11 UNL     1      -2.736  47.853 -20.697  1.00  0.00     0.030 C 
HETATM   12  C12 UNL     1      -4.074  47.356 -21.099  1.00  0.00     0.032 C 
HETATM   13  N1  UNL     1      -4.310  46.084 -20.949  1.00  0.00    -0.271 N 
ATOM     14  H1  UNL     1      -3.641  45.417 -20.563  1.00  0.00     0.194 HD
HETATM   15  C30 UNL     1      -5.031  48.331 -21.753  1.00  0.00     0.060 C 
HETATM   16  C31 UNL     1      -4.856  49.754 -21.243  1.00  0.00     0.020 C 
HETATM   17  C32 UNL     1      -3.397  50.271 -21.069  1.00  0.00    -0.016 C 
HETATM   18  C33 UNL     1      -3.483  51.282 -19.889  1.00  0.00     0.020 C 
HETATM   19  C34 UNL     1      -2.850  51.005 -22.350  1.00  0.00     0.002 C 
HETATM   20  C35 UNL     1      -2.978  50.162 -23.644  1.00  0.00     0.007 C 
HETATM   21  C36 UNL     1      -1.897  50.380 -24.704  1.00  0.00     0.014 C 
HETATM   22  C37 UNL     1      -1.350  51.813 -24.782  1.00  0.00     0.003 C 
HETATM   23  C38 UNL     1      -2.462  52.732 -25.358  1.00  0.00     0.020 C 
ENDROOT
BRANCH   3  24
HETATM   24  O1  UNL     1       0.758  50.722 -25.472  1.00  0.00    -0.377 OA
HETATM   25  H2  UNL     1       1.499  50.794 -26.096  1.00  0.00     0.211 HD
ENDBRANCH   3  24
BRANCH  13  26
HETATM   26  O2  UNL     1      -5.598  45.745 -21.386  1.00  0.00    -0.271 OA
BRANCH  26  27
HETATM   27  C13 UNL     1      -5.843  44.372 -21.125  1.00  0.00     0.303 C 
BRANCH  27  28
HETATM   28  C14 UNL     1      -7.125  43.892 -21.804  1.00  0.00     0.244 C 
HETATM   29  O3  UNL     1      -8.051  43.333 -21.224  1.00  0.00    -0.271 OA
HETATM   30  N2  UNL     1      -7.140  44.129 -23.172  1.00  0.00    -0.346 N 
HETATM   31  H16 UNL     1      -6.603  44.934 -23.474  1.00  0.00     0.163 HD
BRANCH  30  32
HETATM   32  C15 UNL     1      -8.357  43.872 -23.933  1.00  0.00     0.180 C 
BRANCH  32  33
HETATM   33  C16 UNL     1      -8.728  45.152 -24.715  1.00  0.00     0.241 C 
HETATM   34  O4  UNL     1      -8.028  45.600 -25.623  1.00  0.00    -0.271 OA
HETATM   35  N3  UNL     1      -9.937  45.711 -24.344  1.00  0.00    -0.354 N 
HETATM   36  H18 UNL     1     -10.400  45.335 -23.526  1.00  0.00     0.162 HD
BRANCH  35  37
HETATM   37  C17 UNL     1     -10.428  46.964 -24.927  1.00  0.00     0.098 C 
BRANCH  37  38
HETATM   38  C18 UNL     1      -9.293  48.004 -24.961  1.00  0.00     0.135 C 
BRANCH  38  39
HETATM   39  C19 UNL     1      -9.267  48.789 -26.244  1.00  0.00     0.141 C 
HETATM   40  O5  UNL     1      -8.923  48.404 -27.347  1.00  0.00    -0.650 OA
BRANCH  39  41
HETATM   41  O6  UNL     1      -9.704  50.052 -26.067  1.00  0.00    -0.776 OA
HETATM   42  H22 UNL     1      -9.681  50.442 -26.966  1.00  0.00     0.167 HD
ENDBRANCH  39  41
ENDBRANCH  38  39
ENDBRANCH  37  38
BRANCH  37  43
HETATM   43  C20 UNL     1     -11.094  46.717 -26.315  1.00  0.00     0.014 C 
HETATM   44  C21 UNL     1     -12.280  47.671 -26.542  1.00  0.00     0.033 C 
HETATM   45  C22 UNL     1     -12.943  47.411 -27.886  1.00  0.00     0.169 C 
HETATM   46  O7  UNL     1     -13.353  46.051 -28.001  1.00  0.00    -0.381 OA
HETATM   47  C23 UNL     1     -12.302  45.085 -27.885  1.00  0.00     0.054 C 
HETATM   48  C24 UNL     1     -11.358  45.146 -29.096  1.00  0.00     0.045 C 
HETATM   49  C25 UNL     1     -12.992  43.711 -27.887  1.00  0.00     0.045 C 
HETATM   50  C26 UNL     1     -11.550  45.265 -26.550  1.00  0.00     0.044 C 
ENDBRANCH  37  43
ENDBRANCH  35  37
ENDBRANCH  32  33
BRANCH  32  51
HETATM   51  C27 UNL     1      -8.226  42.658 -24.880  1.00  0.00     0.009 C 
HETATM   52  C28 UNL     1      -9.379  42.632 -25.891  1.00  0.00     0.012 C 
HETATM   53  C29 UNL     1      -8.150  41.315 -24.143  1.00  0.00     0.012 C 
ENDBRANCH  32  51
ENDBRANCH  30  32
ENDBRANCH  27  28
ENDBRANCH  26  27
ENDBRANCH  13  26
TORSDOF 12
ENDMDL
MODEL 9
REMARK minimizedAffinity -9.3553009
REMARK CNNscore 0.165154815
REMARK CNNaffinity 6.94240332
REMARK  12 active torsions:
REMARK  status: ('A' for Active; 'I' for Inactive)
REMARK    1  A    between atoms: C3_3  and  O1_4 
REMARK    2  A    between atoms: N1_14  and  O2_16 
REMARK    3  A    between atoms: O2_16  and  C13_17 
REMARK    4  A    between atoms: C13_17  and  C14_18 
REMARK       I    between atoms: C14_18  and  N2_20 
REMARK    5  A    between atoms: N2_20  and  C15_21 
REMARK    6  A    between atoms: C15_21  and  C16_22 
REMARK    7  A    between atoms: C15_21  and  C27_38 
REMARK       I    between atoms: C16_22  and  N3_24 
REMARK    8  A    between atoms: N3_24  and  C17_25 
REMARK    9  A    between atoms: C17_25  and  C18_26 
REMARK   10  A    between atoms: C17_25  and  C20_30 
REMARK   11  A    between atoms: C18_26  and  C19_27 
REMARK   12  A    between atoms: C19_27  and  O6_29 
ROOT
HETATM    1  C1  UNL     1      -0.505  53.729 -28.087  1.00  0.00     0.015 C 
HETATM    2  C2  UNL     1      -1.226  53.021 -27.437  1.00  0.00    -0.078 C 
HETATM    3  C3  UNL     1      -2.126  52.168 -26.645  1.00  0.00     0.128 C 
HETATM    4  C4  UNL     1      -2.885  51.167 -27.518  1.00  0.00     0.052 C 
HETATM    5  C5  UNL     1      -3.478  50.215 -26.485  1.00  0.00     0.010 C 
HETATM    6  C6  UNL     1      -2.325  49.988 -25.498  1.00  0.00     0.002 C 
HETATM    7  C7  UNL     1      -2.717  49.491 -24.086  1.00  0.00    -0.004 C 
HETATM    8  C8  UNL     1      -3.976  50.121 -23.451  1.00  0.00     0.010 C 
HETATM    9  C9  UNL     1      -4.262  49.588 -22.040  1.00  0.00     0.035 C 
HETATM   10  C10 UNL     1      -3.031  49.641 -21.165  1.00  0.00    -0.069 C 
HETATM   11  C11 UNL     1      -3.044  50.343 -20.021  1.00  0.00     0.030 C 
HETATM   12  C12 UNL     1      -1.816  50.591 -19.227  1.00  0.00     0.032 C 
HETATM   13  N1  UNL     1      -1.954  51.208 -18.089  1.00  0.00    -0.271 N 
ATOM     14  H1  UNL     1      -2.848  51.516 -17.707  1.00  0.00     0.194 HD
HETATM   15  C30 UNL     1      -0.483  50.211 -19.838  1.00  0.00     0.060 C 
HETATM   16  C31 UNL     1      -0.582  48.999 -20.752  1.00  0.00     0.020 C 
HETATM   17  C32 UNL     1      -1.798  48.940 -21.723  1.00  0.00    -0.016 C 
HETATM   18  C33 UNL     1      -2.086  47.419 -21.890  1.00  0.00     0.020 C 
HETATM   19  C34 UNL     1      -1.490  49.573 -23.131  1.00  0.00     0.002 C 
HETATM   20  C35 UNL     1      -0.931  51.016 -23.047  1.00  0.00     0.007 C 
HETATM   21  C36 UNL     1      -1.292  51.951 -24.204  1.00  0.00     0.014 C 
HETATM   22  C37 UNL     1      -1.420  51.263 -25.571  1.00  0.00     0.003 C 
HETATM   23  C38 UNL     1      -0.004  50.821 -26.032  1.00  0.00     0.020 C 
ENDROOT
BRANCH   3  24
HETATM   24  O1  UNL     1      -3.105  53.013 -26.030  1.00  0.00    -0.377 OA
HETATM   25  H2  UNL     1      -3.418  53.626 -26.715  1.00  0.00     0.211 HD
ENDBRANCH   3  24
BRANCH  13  26
HETATM   26  O2  UNL     1      -0.718  51.396 -17.454  1.00  0.00    -0.271 OA
BRANCH  26  27
HETATM   27  C13 UNL     1      -0.438  50.284 -16.619  1.00  0.00     0.303 C 
BRANCH  27  28
HETATM   28  C14 UNL     1      -1.184  50.379 -15.289  1.00  0.00     0.244 C 
HETATM   29  O3  UNL     1      -2.379  50.142 -15.144  1.00  0.00    -0.271 OA
HETATM   30  N2  UNL     1      -0.375  50.791 -14.239  1.00  0.00    -0.346 N 
HETATM   31  H16 UNL     1       0.603  50.540 -14.326  1.00  0.00     0.163 HD
BRANCH  30  32
HETATM   32  C15 UNL     1      -0.901  50.779 -12.878  1.00  0.00     0.180 C 
BRANCH  32  33
HETATM   33  C16 UNL     1       0.202  50.259 -11.929  1.00  0.00     0.241 C 
HETATM   34  O4  UNL     1       0.090  49.209 -11.295  1.00  0.00    -0.271 OA
HETATM   35  N3  UNL     1       1.339  51.043 -11.900  1.00  0.00    -0.354 N 
HETATM   36  H18 UNL     1       1.309  51.937 -12.376  1.00  0.00     0.162 HD
BRANCH  35  37
HETATM   37  C17 UNL     1       2.469  50.747 -11.011  1.00  0.00     0.098 C 
BRANCH  37  38
HETATM   38  C18 UNL     1       3.332  49.629 -11.621  1.00  0.00     0.135 C 
BRANCH  38  39
HETATM   39  C19 UNL     1       3.912  50.008 -12.956  1.00  0.00     0.141 C 
HETATM   40  O5  UNL     1       3.334  50.506 -13.906  1.00  0.00    -0.650 OA
BRANCH  39  41
HETATM   41  O6  UNL     1       5.233  49.748 -13.021  1.00  0.00    -0.776 OA
HETATM   42  H22 UNL     1       5.499  50.073 -13.907  1.00  0.00     0.167 HD
ENDBRANCH  39  41
ENDBRANCH  38  39
ENDBRANCH  37  38
BRANCH  37  43
HETATM   43  C20 UNL     1       3.268  52.040 -10.666  1.00  0.00     0.014 C 
HETATM   44  C21 UNL     1       4.376  51.753  -9.638  1.00  0.00     0.033 C 
HETATM   45  C22 UNL     1       5.138  53.020  -9.284  1.00  0.00     0.169 C 
HETATM   46  O7  UNL     1       4.256  54.035  -8.813  1.00  0.00    -0.381 OA
HETATM   47  C23 UNL     1       3.234  54.432  -9.735  1.00  0.00     0.054 C 
HETATM   48  C24 UNL     1       3.832  55.183 -10.934  1.00  0.00     0.045 C 
HETATM   49  C25 UNL     1       2.329  55.406  -8.965  1.00  0.00     0.045 C 
HETATM   50  C26 UNL     1       2.399  53.210 -10.171  1.00  0.00     0.044 C 
ENDBRANCH  37  43
ENDBRANCH  35  37
ENDBRANCH  32  33
BRANCH  32  51
HETATM   51  C27 UNL     1      -1.422  52.161 -12.424  1.00  0.00     0.009 C 
HETATM   52  C28 UNL     1      -1.103  52.402 -10.944  1.00  0.00     0.012 C 
HETATM   53  C29 UNL     1      -2.922  52.359 -12.673  1.00  0.00     0.012 C 
ENDBRANCH  32  51
ENDBRANCH  30  32
ENDBRANCH  27  28
ENDBRANCH  26  27
ENDBRANCH  13  26
TORSDOF 12
ENDMDL
