MODEL 1
REMARK minimizedAffinity -6.75129461
REMARK CNNscore 0.747858226
REMARK CNNaffinity 6.91224861
REMARK  6 active torsions:
REMARK  status: ('A' for Active; 'I' for Inactive)
REMARK    1  A    between atoms: C2_2  and  C30_31 
REMARK    2  A    between atoms: C3_3  and  C4_4 
REMARK    3  A    between atoms: C4_4  and  C5_5 
REMARK    4  A    between atoms: C5_5  and  C6_6 
REMARK    5  A    between atoms: C6_6  and  C8_8 
REMARK    6  A    between atoms: C30_31  and  O2_32 
ROOT
HETATM    1  C8  UNL     1     -14.101 -11.956  27.306  1.00  0.00    -0.002 C 
HETATM    2  C9  UNL     1     -15.643 -12.073  27.427  1.00  0.00     0.007 C 
HETATM    3  C10 UNL     1     -16.111 -10.908  28.328  1.00  0.00     0.015 C 
HETATM    4  C11 UNL     1     -14.817 -10.324  28.937  1.00  0.00    -0.013 C 
HETATM    5  C12 UNL     1     -14.503 -11.205  30.190  1.00  0.00     0.021 C 
HETATM    6  C13 UNL     1     -14.821  -8.884  29.435  1.00  0.00    -0.070 C 
HETATM    7  C14 UNL     1     -15.928  -8.293  29.918  1.00  0.00    -0.022 C 
HETATM    8  C15 UNL     1     -15.957  -6.942  30.560  1.00  0.00     0.034 C 
HETATM    9  C16 UNL     1     -14.639  -6.135  30.481  1.00  0.00     0.013 C 
HETATM   10  C17 UNL     1     -14.628  -4.891  31.448  1.00  0.00     0.018 C 
HETATM   11  C18 UNL     1     -15.333  -5.117  32.803  1.00  0.00     0.023 C 
HETATM   12  C19 UNL     1     -15.332  -3.699  30.763  1.00  0.00     0.023 C 
HETATM   13  C20 UNL     1     -13.184  -4.455  31.715  1.00  0.00     0.135 C 
HETATM   14  O1  UNL     1     -12.853  -3.839  32.729  1.00  0.00    -0.297 OA
HETATM   15  C21 UNL     1     -12.182  -4.722  30.626  1.00  0.00     0.080 C 
HETATM   16  C22 UNL     1     -12.077  -6.202  30.302  1.00  0.00     0.017 C 
HETATM   17  C23 UNL     1     -13.360  -7.054  30.558  1.00  0.00    -0.031 C 
HETATM   18  C24 UNL     1     -13.236  -7.727  31.946  1.00  0.00     0.016 C 
HETATM   19  C25 UNL     1     -13.482  -8.142  29.410  1.00  0.00     0.024 C 
HETATM   20  C26 UNL     1     -12.256  -9.086  29.269  1.00  0.00     0.010 C 
HETATM   21  C27 UNL     1     -12.381 -10.213  28.213  1.00  0.00     0.011 C 
HETATM   22  C28 UNL     1     -13.823 -10.481  27.736  1.00  0.00    -0.029 C 
HETATM   23  C29 UNL     1     -14.132  -9.531  26.540  1.00  0.00     0.016 C 
ENDROOT
BRANCH   1  24
HETATM   24  C6  UNL     1     -13.456 -12.480  25.987  1.00  0.00    -0.014 C 
HETATM   25  C7  UNL     1     -14.124 -13.725  25.389  1.00  0.00     0.010 C 
BRANCH  24  26
HETATM   26  C5  UNL     1     -11.941 -12.735  26.231  1.00  0.00     0.008 C 
BRANCH  26  27
HETATM   27  C4  UNL     1     -11.169 -13.189  24.988  1.00  0.00     0.028 C 
BRANCH  27  28
HETATM   28  C3  UNL     1     -10.013 -12.275  24.678  1.00  0.00    -0.022 C 
HETATM   29  C2  UNL     1      -8.714 -12.625  24.591  1.00  0.00    -0.064 C 
HETATM   30  C1  UNL     1      -7.663 -11.611  24.228  1.00  0.00     0.045 C 
BRANCH  29  31
HETATM   31  C30 UNL     1      -8.199 -14.017  24.854  1.00  0.00     0.197 C 
BRANCH  31  32
HETATM   32  O2  UNL     1      -7.216 -14.367  23.889  1.00  0.00    -0.397 OA
HETATM   33  H48 UNL     1      -6.794 -13.543  23.594  1.00  0.00     0.209 HD
ENDBRANCH  31  32
ENDBRANCH  29  31
ENDBRANCH  27  28
ENDBRANCH  26  27
ENDBRANCH  24  26
ENDBRANCH   1  24
TORSDOF 6
ENDMDL
MODEL 2
REMARK minimizedAffinity -8.9632225
REMARK CNNscore 0.578393936
REMARK CNNaffinity 7.25756788
REMARK  6 active torsions:
REMARK  status: ('A' for Active; 'I' for Inactive)
REMARK    1  A    between atoms: C2_2  and  C30_31 
REMARK    2  A    between atoms: C3_3  and  C4_4 
REMARK    3  A    between atoms: C4_4  and  C5_5 
REMARK    4  A    between atoms: C5_5  and  C6_6 
REMARK    5  A    between atoms: C6_6  and  C8_8 
REMARK    6  A    between atoms: C30_31  and  O2_32 
ROOT
HETATM    1  C8  UNL     1      -5.198   7.708  15.503  1.00  0.00    -0.002 C 
HETATM    2  C9  UNL     1      -5.138   9.258  15.462  1.00  0.00     0.007 C 
HETATM    3  C10 UNL     1      -3.795   9.636  14.796  1.00  0.00     0.015 C 
HETATM    4  C11 UNL     1      -2.991   8.318  14.734  1.00  0.00    -0.013 C 
HETATM    5  C12 UNL     1      -2.296   8.180  16.127  1.00  0.00     0.021 C 
HETATM    6  C13 UNL     1      -1.879   8.182  13.702  1.00  0.00    -0.070 C 
HETATM    7  C14 UNL     1      -1.170   9.237  13.264  1.00  0.00    -0.022 C 
HETATM    8  C15 UNL     1       0.028   9.144  12.373  1.00  0.00     0.034 C 
HETATM    9  C16 UNL     1       0.328   7.738  11.800  1.00  0.00     0.013 C 
HETATM   10  C17 UNL     1       1.764   7.636  11.159  1.00  0.00     0.018 C 
HETATM   11  C18 UNL     1       2.861   8.437  11.893  1.00  0.00     0.023 C 
HETATM   12  C19 UNL     1       1.718   8.156   9.705  1.00  0.00     0.023 C 
HETATM   13  C20 UNL     1       2.196   6.169  11.087  1.00  0.00     0.135 C 
HETATM   14  O1  UNL     1       3.379   5.825  11.060  1.00  0.00    -0.297 OA
HETATM   15  C21 UNL     1       1.103   5.145  10.947  1.00  0.00     0.080 C 
HETATM   16  C22 UNL     1       0.125   5.196  12.108  1.00  0.00     0.017 C 
HETATM   17  C23 UNL     1      -0.039   6.582  12.807  1.00  0.00    -0.031 C 
HETATM   18  C24 UNL     1       0.874   6.616  14.056  1.00  0.00     0.016 C 
HETATM   19  C25 UNL     1      -1.561   6.766  13.213  1.00  0.00     0.024 C 
HETATM   20  C26 UNL     1      -2.132   5.653  14.135  1.00  0.00     0.010 C 
HETATM   21  C27 UNL     1      -3.592   5.849  14.618  1.00  0.00     0.011 C 
HETATM   22  C28 UNL     1      -4.131   7.284  14.444  1.00  0.00    -0.029 C 
HETATM   23  C29 UNL     1      -4.745   7.412  13.017  1.00  0.00     0.016 C 
ENDROOT
BRANCH   1  24
HETATM   24  C6  UNL     1      -6.613   7.056  15.434  1.00  0.00    -0.014 C 
HETATM   25  C7  UNL     1      -6.836   5.890  16.405  1.00  0.00     0.010 C 
BRANCH  24  26
HETATM   26  C5  UNL     1      -6.894   6.610  13.970  1.00  0.00     0.008 C 
BRANCH  26  27
HETATM   27  C4  UNL     1      -7.250   5.128  13.818  1.00  0.00     0.028 C 
BRANCH  27  28
HETATM   28  C3  UNL     1      -6.277   4.404  12.926  1.00  0.00    -0.022 C 
HETATM   29  C2  UNL     1      -6.417   3.158  12.430  1.00  0.00    -0.064 C 
HETATM   30  C1  UNL     1      -5.381   2.571  11.510  1.00  0.00     0.045 C 
BRANCH  29  31
HETATM   31  C30 UNL     1      -7.580   2.252  12.749  1.00  0.00     0.197 C 
BRANCH  31  32
HETATM   32  O2  UNL     1      -8.784   3.004  12.811  1.00  0.00    -0.397 OA
HETATM   33  H48 UNL     1      -8.676   3.773  12.226  1.00  0.00     0.209 HD
ENDBRANCH  31  32
ENDBRANCH  29  31
ENDBRANCH  27  28
ENDBRANCH  26  27
ENDBRANCH  24  26
ENDBRANCH   1  24
TORSDOF 6
ENDMDL
MODEL 3
REMARK minimizedAffinity -8.35699844
REMARK CNNscore 0.54824096
REMARK CNNaffinity 7.29565239
REMARK  6 active torsions:
REMARK  status: ('A' for Active; 'I' for Inactive)
REMARK    1  A    between atoms: C2_2  and  C30_31 
REMARK    2  A    between atoms: C3_3  and  C4_4 
REMARK    3  A    between atoms: C4_4  and  C5_5 
REMARK    4  A    between atoms: C5_5  and  C6_6 
REMARK    5  A    between atoms: C6_6  and  C8_8 
REMARK    6  A    between atoms: C30_31  and  O2_32 
ROOT
HETATM    1  C8  UNL     1      -3.489   6.550  14.438  1.00  0.00    -0.002 C 
HETATM    2  C9  UNL     1      -3.793   5.243  13.661  1.00  0.00     0.007 C 
HETATM    3  C10 UNL     1      -5.330   5.150  13.525  1.00  0.00     0.015 C 
HETATM    4  C11 UNL     1      -5.885   6.242  14.468  1.00  0.00    -0.013 C 
HETATM    5  C12 UNL     1      -5.941   5.587  15.886  1.00  0.00     0.021 C 
HETATM    6  C13 UNL     1      -7.280   6.796  14.213  1.00  0.00    -0.070 C 
HETATM    7  C14 UNL     1      -8.255   6.061  13.649  1.00  0.00    -0.022 C 
HETATM    8  C15 UNL     1      -9.679   6.499  13.516  1.00  0.00     0.034 C 
HETATM    9  C16 UNL     1      -9.966   7.969  13.904  1.00  0.00     0.013 C 
HETATM   10  C17 UNL     1     -11.505   8.268  14.064  1.00  0.00     0.018 C 
HETATM   11  C18 UNL     1     -12.328   7.116  14.681  1.00  0.00     0.023 C 
HETATM   12  C19 UNL     1     -12.118   8.573  12.680  1.00  0.00     0.023 C 
HETATM   13  C20 UNL     1     -11.704   9.522  14.919  1.00  0.00     0.135 C 
HETATM   14  O1  UNL     1     -12.734   9.732  15.561  1.00  0.00    -0.297 OA
HETATM   15  C21 UNL     1     -10.615  10.559  14.867  1.00  0.00     0.080 C 
HETATM   16  C22 UNL     1      -9.277  10.000  15.319  1.00  0.00     0.017 C 
HETATM   17  C23 UNL     1      -9.061   8.471  15.093  1.00  0.00    -0.031 C 
HETATM   18  C24 UNL     1      -9.397   7.725  16.407  1.00  0.00     0.016 C 
HETATM   19  C25 UNL     1      -7.549   8.230  14.677  1.00  0.00     0.024 C 
HETATM   20  C26 UNL     1      -6.498   8.755  15.695  1.00  0.00     0.010 C 
HETATM   21  C27 UNL     1      -5.015   8.460  15.358  1.00  0.00     0.011 C 
HETATM   22  C28 UNL     1      -4.811   7.368  14.287  1.00  0.00    -0.029 C 
HETATM   23  C29 UNL     1      -4.841   8.042  12.882  1.00  0.00     0.016 C 
ENDROOT
BRANCH   1  24
HETATM   24  C6  UNL     1      -2.137   7.259  14.122  1.00  0.00    -0.014 C 
HETATM   25  C7  UNL     1      -2.173   8.791  14.207  1.00  0.00     0.010 C 
BRANCH  24  26
HETATM   26  C5  UNL     1      -1.641   6.801  12.720  1.00  0.00     0.008 C 
BRANCH  26  27
HETATM   27  C4  UNL     1      -0.273   7.362  12.319  1.00  0.00     0.028 C 
BRANCH  27  28
HETATM   28  C3  UNL     1      -0.291   7.957  10.936  1.00  0.00    -0.022 C 
HETATM   29  C2  UNL     1       0.632   7.772   9.971  1.00  0.00    -0.064 C 
HETATM   30  C1  UNL     1       0.464   8.397   8.612  1.00  0.00     0.045 C 
BRANCH  29  31
HETATM   31  C30 UNL     1       1.889   6.960  10.154  1.00  0.00     0.197 C 
BRANCH  31  32
HETATM   32  O2  UNL     1       1.688   5.633   9.687  1.00  0.00    -0.397 OA
HETATM   33  H48 UNL     1       1.011   5.670   8.990  1.00  0.00     0.209 HD
ENDBRANCH  31  32
ENDBRANCH  29  31
ENDBRANCH  27  28
ENDBRANCH  26  27
ENDBRANCH  24  26
ENDBRANCH   1  24
TORSDOF 6
ENDMDL
MODEL 4
REMARK minimizedAffinity -8.67765427
REMARK CNNscore 0.496488214
REMARK CNNaffinity 7.16452599
REMARK  6 active torsions:
REMARK  status: ('A' for Active; 'I' for Inactive)
REMARK    1  A    between atoms: C2_2  and  C30_31 
REMARK    2  A    between atoms: C3_3  and  C4_4 
REMARK    3  A    between atoms: C4_4  and  C5_5 
REMARK    4  A    between atoms: C5_5  and  C6_6 
REMARK    5  A    between atoms: C6_6  and  C8_8 
REMARK    6  A    between atoms: C30_31  and  O2_32 
ROOT
HETATM    1  C8  UNL     1      -5.755   7.085  15.574  1.00  0.00    -0.002 C 
HETATM    2  C9  UNL     1      -6.058   8.538  15.121  1.00  0.00     0.007 C 
HETATM    3  C10 UNL     1      -4.842   9.011  14.292  1.00  0.00     0.015 C 
HETATM    4  C11 UNL     1      -3.753   7.940  14.526  1.00  0.00    -0.013 C 
HETATM    5  C12 UNL     1      -3.040   8.346  15.856  1.00  0.00     0.021 C 
HETATM    6  C13 UNL     1      -2.644   7.780  13.494  1.00  0.00    -0.070 C 
HETATM    7  C14 UNL     1      -2.203   8.807  12.747  1.00  0.00    -0.022 C 
HETATM    8  C15 UNL     1      -1.019   8.745  11.834  1.00  0.00     0.034 C 
HETATM    9  C16 UNL     1      -0.401   7.341  11.633  1.00  0.00     0.013 C 
HETATM   10  C17 UNL     1       1.017   7.391  10.947  1.00  0.00     0.018 C 
HETATM   11  C18 UNL     1       1.899   8.586  11.369  1.00  0.00     0.023 C 
HETATM   12  C19 UNL     1       0.845   7.472   9.414  1.00  0.00     0.023 C 
HETATM   13  C20 UNL     1       1.779   6.095  11.236  1.00  0.00     0.135 C 
HETATM   14  O1  UNL     1       3.008   6.030  11.221  1.00  0.00    -0.297 OA
HETATM   15  C21 UNL     1       0.954   4.854  11.445  1.00  0.00     0.080 C 
HETATM   16  C22 UNL     1      -0.004   5.000  12.614  1.00  0.00     0.017 C 
HETATM   17  C23 UNL     1      -0.485   6.451  12.931  1.00  0.00    -0.031 C 
HETATM   18  C24 UNL     1       0.400   7.026  14.064  1.00  0.00     0.016 C 
HETATM   19  C25 UNL     1      -2.006   6.393  13.376  1.00  0.00     0.024 C 
HETATM   20  C26 UNL     1      -2.299   5.475  14.594  1.00  0.00     0.010 C 
HETATM   21  C27 UNL     1      -3.762   5.464  15.105  1.00  0.00     0.011 C 
HETATM   22  C28 UNL     1      -4.622   6.638  14.595  1.00  0.00    -0.029 C 
HETATM   23  C29 UNL     1      -5.254   6.233  13.229  1.00  0.00     0.016 C 
ENDROOT
BRANCH   1  24
HETATM   24  C6  UNL     1      -6.979   6.140  15.774  1.00  0.00    -0.014 C 
HETATM   25  C7  UNL     1      -7.175   5.093  14.671  1.00  0.00     0.010 C 
BRANCH  24  26
HETATM   26  C5  UNL     1      -8.262   7.003  15.945  1.00  0.00     0.008 C 
BRANCH  26  27
HETATM   27  C4  UNL     1      -9.069   7.197  14.658  1.00  0.00     0.028 C 
BRANCH  27  28
HETATM   28  C3  UNL     1     -10.531   6.897  14.859  1.00  0.00    -0.022 C 
HETATM   29  C2  UNL     1     -11.506   7.002  13.934  1.00  0.00    -0.064 C 
HETATM   30  C1  UNL     1     -12.926   6.626  14.262  1.00  0.00     0.045 C 
BRANCH  29  31
HETATM   31  C30 UNL     1     -11.283   7.505  12.530  1.00  0.00     0.197 C 
BRANCH  31  32
HETATM   32  O2  UNL     1     -11.765   8.835  12.403  1.00  0.00    -0.397 OA
HETATM   33  H48 UNL     1     -11.703   9.251  13.280  1.00  0.00     0.209 HD
ENDBRANCH  31  32
ENDBRANCH  29  31
ENDBRANCH  27  28
ENDBRANCH  26  27
ENDBRANCH  24  26
ENDBRANCH   1  24
TORSDOF 6
ENDMDL
MODEL 5
REMARK minimizedAffinity -7.90793133
REMARK CNNscore 0.440540999
REMARK CNNaffinity 7.0545125
REMARK  6 active torsions:
REMARK  status: ('A' for Active; 'I' for Inactive)
REMARK    1  A    between atoms: C2_2  and  C30_31 
REMARK    2  A    between atoms: C3_3  and  C4_4 
REMARK    3  A    between atoms: C4_4  and  C5_5 
REMARK    4  A    between atoms: C5_5  and  C6_6 
REMARK    5  A    between atoms: C6_6  and  C8_8 
REMARK    6  A    between atoms: C30_31  and  O2_32 
ROOT
HETATM    1  C8  UNL     1      -5.083   5.048  13.931  1.00  0.00    -0.002 C 
HETATM    2  C9  UNL     1      -5.940   4.000  13.175  1.00  0.00     0.007 C 
HETATM    3  C10 UNL     1      -7.406   4.485  13.245  1.00  0.00     0.015 C 
HETATM    4  C11 UNL     1      -7.401   5.635  14.277  1.00  0.00    -0.013 C 
HETATM    5  C12 UNL     1      -7.530   4.949  15.676  1.00  0.00     0.021 C 
HETATM    6  C13 UNL     1      -8.510   6.678  14.224  1.00  0.00    -0.070 C 
HETATM    7  C14 UNL     1      -9.747   6.391  13.781  1.00  0.00    -0.022 C 
HETATM    8  C15 UNL     1     -10.912   7.327  13.851  1.00  0.00     0.034 C 
HETATM    9  C16 UNL     1     -10.584   8.770  14.306  1.00  0.00     0.013 C 
HETATM   10  C17 UNL     1     -11.872   9.598  14.678  1.00  0.00     0.018 C 
HETATM   11  C18 UNL     1     -12.985   8.787  15.375  1.00  0.00     0.023 C 
HETATM   12  C19 UNL     1     -12.486  10.202  13.395  1.00  0.00     0.023 C 
HETATM   13  C20 UNL     1     -11.489  10.776  15.578  1.00  0.00     0.135 C 
HETATM   14  O1  UNL     1     -12.284  11.302  16.358  1.00  0.00    -0.297 OA
HETATM   15  C21 UNL     1     -10.107  11.344  15.402  1.00  0.00     0.080 C 
HETATM   16  C22 UNL     1      -9.029  10.304  15.657  1.00  0.00     0.017 C 
HETATM   17  C23 UNL     1      -9.425   8.821  15.372  1.00  0.00    -0.031 C 
HETATM   18  C24 UNL     1      -9.857   8.161  16.703  1.00  0.00     0.016 C 
HETATM   19  C25 UNL     1      -8.170   8.074  14.751  1.00  0.00     0.024 C 
HETATM   20  C26 UNL     1      -6.888   8.107  15.629  1.00  0.00     0.010 C 
HETATM   21  C27 UNL     1      -5.671   7.314  15.089  1.00  0.00     0.011 C 
HETATM   22  C28 UNL     1      -6.015   6.301  13.977  1.00  0.00    -0.029 C 
HETATM   23  C29 UNL     1      -5.956   7.035  12.603  1.00  0.00     0.016 C 
ENDROOT
BRANCH   1  24
HETATM   24  C6  UNL     1      -3.611   5.234  13.451  1.00  0.00    -0.014 C 
HETATM   25  C7  UNL     1      -3.094   4.137  12.511  1.00  0.00     0.010 C 
BRANCH  24  26
HETATM   26  C5  UNL     1      -2.687   5.371  14.694  1.00  0.00     0.008 C 
BRANCH  26  27
HETATM   27  C4  UNL     1      -1.902   6.685  14.756  1.00  0.00     0.028 C 
BRANCH  27  28
HETATM   28  C3  UNL     1      -1.546   7.194  13.384  1.00  0.00    -0.022 C 
HETATM   29  C2  UNL     1      -1.623   8.471  12.957  1.00  0.00    -0.064 C 
HETATM   30  C1  UNL     1      -1.191   8.847  11.565  1.00  0.00     0.045 C 
BRANCH  29  31
HETATM   31  C30 UNL     1      -2.147   9.608  13.797  1.00  0.00     0.197 C 
BRANCH  31  32
HETATM   32  O2  UNL     1      -1.461  10.810  13.477  1.00  0.00    -0.397 OA
HETATM   33  H48 UNL     1      -1.170  10.741  12.552  1.00  0.00     0.209 HD
ENDBRANCH  31  32
ENDBRANCH  29  31
ENDBRANCH  27  28
ENDBRANCH  26  27
ENDBRANCH  24  26
ENDBRANCH   1  24
TORSDOF 6
ENDMDL
MODEL 6
REMARK minimizedAffinity -8.42030048
REMARK CNNscore 0.43698293
REMARK CNNaffinity 6.846138
REMARK  6 active torsions:
REMARK  status: ('A' for Active; 'I' for Inactive)
REMARK    1  A    between atoms: C2_2  and  C30_31 
REMARK    2  A    between atoms: C3_3  and  C4_4 
REMARK    3  A    between atoms: C4_4  and  C5_5 
REMARK    4  A    between atoms: C5_5  and  C6_6 
REMARK    5  A    between atoms: C6_6  and  C8_8 
REMARK    6  A    between atoms: C30_31  and  O2_32 
ROOT
HETATM    1  C8  UNL     1      -3.814   7.174  14.502  1.00  0.00    -0.002 C 
HETATM    2  C9  UNL     1      -4.285   8.468  13.789  1.00  0.00     0.007 C 
HETATM    3  C10 UNL     1      -3.193   8.834  12.758  1.00  0.00     0.015 C 
HETATM    4  C11 UNL     1      -1.995   7.919  13.098  1.00  0.00    -0.013 C 
HETATM    5  C12 UNL     1      -1.211   8.653  14.234  1.00  0.00     0.021 C 
HETATM    6  C13 UNL     1      -0.968   7.617  12.015  1.00  0.00    -0.070 C 
HETATM    7  C14 UNL     1      -0.687   8.485  11.027  1.00  0.00    -0.022 C 
HETATM    8  C15 UNL     1       0.416   8.310  10.032  1.00  0.00     0.034 C 
HETATM    9  C16 UNL     1       1.139   6.942  10.068  1.00  0.00     0.013 C 
HETATM   10  C17 UNL     1       2.483   6.942   9.244  1.00  0.00     0.018 C 
HETATM   11  C18 UNL     1       3.286   8.259   9.314  1.00  0.00     0.023 C 
HETATM   12  C19 UNL     1       2.175   6.675   7.754  1.00  0.00     0.023 C 
HETATM   13  C20 UNL     1       3.381   5.796   9.719  1.00  0.00     0.135 C 
HETATM   14  O1  UNL     1       4.606   5.816   9.592  1.00  0.00    -0.297 OA
HETATM   15  C21 UNL     1       2.693   4.576  10.267  1.00  0.00     0.080 C 
HETATM   16  C22 UNL     1       1.828   4.904  11.471  1.00  0.00     0.017 C 
HETATM   17  C23 UNL     1       1.247   6.352  11.525  1.00  0.00    -0.031 C 
HETATM   18  C24 UNL     1       2.169   7.221  12.415  1.00  0.00     0.016 C 
HETATM   19  C25 UNL     1      -0.219   6.286  12.126  1.00  0.00     0.024 C 
HETATM   20  C26 UNL     1      -0.323   5.636  13.533  1.00  0.00     0.010 C 
HETATM   21  C27 UNL     1      -1.730   5.634  14.182  1.00  0.00     0.011 C 
HETATM   22  C28 UNL     1      -2.733   6.606  13.529  1.00  0.00    -0.029 C 
HETATM   23  C29 UNL     1      -3.440   5.870  12.350  1.00  0.00     0.016 C 
ENDROOT
BRANCH   1  24
HETATM   24  C6  UNL     1      -4.926   6.211  15.021  1.00  0.00    -0.014 C 
HETATM   25  C7  UNL     1      -5.804   5.587  13.929  1.00  0.00     0.010 C 
BRANCH  24  26
HETATM   26  C5  UNL     1      -5.801   6.964  16.063  1.00  0.00     0.008 C 
BRANCH  26  27
HETATM   27  C4  UNL     1      -7.139   6.285  16.374  1.00  0.00     0.028 C 
BRANCH  27  28
HETATM   28  C3  UNL     1      -8.199   7.281  16.764  1.00  0.00    -0.022 C 
HETATM   29  C2  UNL     1      -9.161   7.784  15.963  1.00  0.00    -0.064 C 
HETATM   30  C1  UNL     1     -10.189   8.744  16.500  1.00  0.00     0.045 C 
BRANCH  29  31
HETATM   31  C30 UNL     1      -9.290   7.458  14.497  1.00  0.00     0.197 C 
BRANCH  31  32
HETATM   32  O2  UNL     1      -9.928   6.200  14.329  1.00  0.00    -0.397 OA
HETATM   33  H48 UNL     1     -10.508   6.064  15.097  1.00  0.00     0.209 HD
ENDBRANCH  31  32
ENDBRANCH  29  31
ENDBRANCH  27  28
ENDBRANCH  26  27
ENDBRANCH  24  26
ENDBRANCH   1  24
TORSDOF 6
ENDMDL
MODEL 7
REMARK minimizedAffinity -6.30846357
REMARK CNNscore 0.412859082
REMARK CNNaffinity 5.5070343
REMARK  6 active torsions:
REMARK  status: ('A' for Active; 'I' for Inactive)
REMARK    1  A    between atoms: C2_2  and  C30_31 
REMARK    2  A    between atoms: C3_3  and  C4_4 
REMARK    3  A    between atoms: C4_4  and  C5_5 
REMARK    4  A    between atoms: C5_5  and  C6_6 
REMARK    5  A    between atoms: C6_6  and  C8_8 
REMARK    6  A    between atoms: C30_31  and  O2_32 
ROOT
HETATM    1  C8  UNL     1      -3.441 -11.889   3.727  1.00  0.00    -0.002 C 
HETATM    2  C9  UNL     1      -2.279 -12.239   2.761  1.00  0.00     0.007 C 
HETATM    3  C10 UNL     1      -2.808 -12.018   1.325  1.00  0.00     0.015 C 
HETATM    4  C11 UNL     1      -4.334 -11.830   1.483  1.00  0.00    -0.013 C 
HETATM    5  C12 UNL     1      -4.937 -13.272   1.515  1.00  0.00     0.021 C 
HETATM    6  C13 UNL     1      -5.100 -11.086   0.397  1.00  0.00    -0.070 C 
HETATM    7  C14 UNL     1      -4.714 -11.094  -0.891  1.00  0.00    -0.022 C 
HETATM    8  C15 UNL     1      -5.508 -10.514  -2.019  1.00  0.00     0.034 C 
HETATM    9  C16 UNL     1      -6.762  -9.706  -1.608  1.00  0.00     0.013 C 
HETATM   10  C17 UNL     1      -7.722  -9.413  -2.823  1.00  0.00     0.018 C 
HETATM   11  C18 UNL     1      -7.826 -10.556  -3.857  1.00  0.00     0.023 C 
HETATM   12  C19 UNL     1      -7.231  -8.159  -3.579  1.00  0.00     0.023 C 
HETATM   13  C20 UNL     1      -9.128  -9.093  -2.306  1.00  0.00     0.135 C 
HETATM   14  O1  UNL     1     -10.140  -9.261  -2.987  1.00  0.00    -0.297 OA
HETATM   15  C21 UNL     1      -9.223  -8.458  -0.946  1.00  0.00     0.080 C 
HETATM   16  C22 UNL     1      -8.612  -9.334   0.134  1.00  0.00     0.017 C 
HETATM   17  C23 UNL     1      -7.465 -10.288  -0.324  1.00  0.00    -0.031 C 
HETATM   18  C24 UNL     1      -8.068 -11.687  -0.600  1.00  0.00     0.016 C 
HETATM   19  C25 UNL     1      -6.377 -10.359   0.828  1.00  0.00     0.024 C 
HETATM   20  C26 UNL     1      -6.914 -10.824   2.210  1.00  0.00     0.010 C 
HETATM   21  C27 UNL     1      -5.859 -10.984   3.334  1.00  0.00     0.011 C 
HETATM   22  C28 UNL     1      -4.401 -11.040   2.834  1.00  0.00    -0.029 C 
HETATM   23  C29 UNL     1      -3.856  -9.583   2.735  1.00  0.00     0.016 C 
ENDROOT
BRANCH   1  24
HETATM   24  C6  UNL     1      -3.049 -11.335   5.130  1.00  0.00    -0.014 C 
HETATM   25  C7  UNL     1      -2.413 -12.362   6.077  1.00  0.00     0.010 C 
BRANCH  24  26
HETATM   26  C5  UNL     1      -4.301 -10.687   5.787  1.00  0.00     0.008 C 
BRANCH  26  27
HETATM   27  C4  UNL     1      -3.994  -9.477   6.674  1.00  0.00     0.028 C 
BRANCH  27  28
HETATM   28  C3  UNL     1      -4.067  -9.819   8.139  1.00  0.00    -0.022 C 
HETATM   29  C2  UNL     1      -5.183  -9.886   8.893  1.00  0.00    -0.064 C 
HETATM   30  C1  UNL     1      -5.113 -10.285  10.343  1.00  0.00     0.045 C 
BRANCH  29  31
HETATM   31  C30 UNL     1      -6.564  -9.565   8.381  1.00  0.00     0.197 C 
BRANCH  31  32
HETATM   32  O2  UNL     1      -6.743  -8.157   8.305  1.00  0.00    -0.397 OA
HETATM   33  H48 UNL     1      -5.867  -7.760   8.161  1.00  0.00     0.209 HD
ENDBRANCH  31  32
ENDBRANCH  29  31
ENDBRANCH  27  28
ENDBRANCH  26  27
ENDBRANCH  24  26
ENDBRANCH   1  24
TORSDOF 6
ENDMDL
MODEL 8
REMARK minimizedAffinity -7.79835892
REMARK CNNscore 0.404394567
REMARK CNNaffinity 5.66907072
REMARK  6 active torsions:
REMARK  status: ('A' for Active; 'I' for Inactive)
REMARK    1  A    between atoms: C2_2  and  C30_31 
REMARK    2  A    between atoms: C3_3  and  C4_4 
REMARK    3  A    between atoms: C4_4  and  C5_5 
REMARK    4  A    between atoms: C5_5  and  C6_6 
REMARK    5  A    between atoms: C6_6  and  C8_8 
REMARK    6  A    between atoms: C30_31  and  O2_32 
ROOT
HETATM    1  C8  UNL     1       7.625  10.124  15.126  1.00  0.00    -0.002 C 
HETATM    2  C9  UNL     1       6.547  11.052  15.744  1.00  0.00     0.007 C 
HETATM    3  C10 UNL     1       5.252  10.838  14.929  1.00  0.00     0.015 C 
HETATM    4  C11 UNL     1       5.685  10.019  13.692  1.00  0.00    -0.013 C 
HETATM    5  C12 UNL     1       6.201  11.066  12.652  1.00  0.00     0.021 C 
HETATM    6  C13 UNL     1       4.642   9.187  12.957  1.00  0.00    -0.070 C 
HETATM    7  C14 UNL     1       3.343   9.534  12.915  1.00  0.00    -0.022 C 
HETATM    8  C15 UNL     1       2.307   8.843  12.085  1.00  0.00     0.034 C 
HETATM    9  C16 UNL     1       2.768   7.542  11.386  1.00  0.00     0.013 C 
HETATM   10  C17 UNL     1       1.757   7.055  10.279  1.00  0.00     0.018 C 
HETATM   11  C18 UNL     1       1.084   8.186   9.473  1.00  0.00     0.023 C 
HETATM   12  C19 UNL     1       0.627   6.233  10.938  1.00  0.00     0.023 C 
HETATM   13  C20 UNL     1       2.471   6.116   9.302  1.00  0.00     0.135 C 
HETATM   14  O1  UNL     1       2.089   5.948   8.144  1.00  0.00    -0.297 OA
HETATM   15  C21 UNL     1       3.620   5.314   9.849  1.00  0.00     0.080 C 
HETATM   16  C22 UNL     1       4.723   6.202  10.396  1.00  0.00     0.017 C 
HETATM   17  C23 UNL     1       4.277   7.598  10.935  1.00  0.00    -0.031 C 
HETATM   18  C24 UNL     1       4.491   8.649   9.819  1.00  0.00     0.016 C 
HETATM   19  C25 UNL     1       5.147   7.946  12.215  1.00  0.00     0.024 C 
HETATM   20  C26 UNL     1       6.683   7.950  11.982  1.00  0.00     0.010 C 
HETATM   21  C27 UNL     1       7.556   8.370  13.192  1.00  0.00     0.011 C 
HETATM   22  C28 UNL     1       6.781   9.090  14.315  1.00  0.00    -0.029 C 
HETATM   23  C29 UNL     1       6.211   8.016  15.290  1.00  0.00     0.016 C 
ENDROOT
BRANCH   1  24
HETATM   24  C6  UNL     1       8.730   9.589  16.088  1.00  0.00    -0.014 C 
HETATM   25  C7  UNL     1       8.914   8.066  16.080  1.00  0.00     0.010 C 
BRANCH  24  26
HETATM   26  C5  UNL     1       8.436  10.098  17.529  1.00  0.00     0.008 C 
BRANCH  26  27
HETATM   27  C4  UNL     1       9.517  11.016  18.108  1.00  0.00     0.028 C 
BRANCH  27  28
HETATM   28  C3  UNL     1       9.169  11.492  19.493  1.00  0.00    -0.022 C 
HETATM   29  C2  UNL     1      10.033  11.929  20.432  1.00  0.00    -0.064 C 
HETATM   30  C1  UNL     1       9.539  12.419  21.767  1.00  0.00     0.045 C 
BRANCH  29  31
HETATM   31  C30 UNL     1      11.529  11.954  20.251  1.00  0.00     0.197 C 
BRANCH  31  32
HETATM   32  O2  UNL     1      12.030  10.630  20.128  1.00  0.00    -0.397 OA
HETATM   33  H48 UNL     1      11.320  10.085  19.750  1.00  0.00     0.209 HD
ENDBRANCH  31  32
ENDBRANCH  29  31
ENDBRANCH  27  28
ENDBRANCH  26  27
ENDBRANCH  24  26
ENDBRANCH   1  24
TORSDOF 6
ENDMDL
MODEL 9
REMARK minimizedAffinity -6.36013699
REMARK CNNscore 0.38605234
REMARK CNNaffinity 5.78756189
REMARK  6 active torsions:
REMARK  status: ('A' for Active; 'I' for Inactive)
REMARK    1  A    between atoms: C2_2  and  C30_31 
REMARK    2  A    between atoms: C3_3  and  C4_4 
REMARK    3  A    between atoms: C4_4  and  C5_5 
REMARK    4  A    between atoms: C5_5  and  C6_6 
REMARK    5  A    between atoms: C6_6  and  C8_8 
REMARK    6  A    between atoms: C30_31  and  O2_32 
ROOT
HETATM    1  C8  UNL     1      -6.024 -11.136   4.869  1.00  0.00    -0.002 C 
HETATM    2  C9  UNL     1      -5.891 -12.375   3.945  1.00  0.00     0.007 C 
HETATM    3  C10 UNL     1      -7.058 -12.308   2.934  1.00  0.00     0.015 C 
HETATM    4  C11 UNL     1      -7.995 -11.204   3.474  1.00  0.00    -0.013 C 
HETATM    5  C12 UNL     1      -8.911 -11.905   4.529  1.00  0.00     0.021 C 
HETATM    6  C13 UNL     1      -8.941 -10.503   2.507  1.00  0.00    -0.070 C 
HETATM    7  C14 UNL     1      -9.440 -11.114   1.418  1.00  0.00    -0.022 C 
HETATM    8  C15 UNL     1     -10.487 -10.531   0.523  1.00  0.00     0.034 C 
HETATM    9  C16 UNL     1     -10.861  -9.055   0.803  1.00  0.00     0.013 C 
HETATM   10  C17 UNL     1     -12.181  -8.611   0.065  1.00  0.00     0.018 C 
HETATM   11  C18 UNL     1     -13.274  -9.697  -0.017  1.00  0.00     0.023 C 
HETATM   12  C19 UNL     1     -11.846  -8.191  -1.383  1.00  0.00     0.023 C 
HETATM   13  C20 UNL     1     -12.769  -7.377   0.756  1.00  0.00     0.135 C 
HETATM   14  O1  UNL     1     -13.965  -7.090   0.696  1.00  0.00    -0.297 OA
HETATM   15  C21 UNL     1     -11.799  -6.453   1.440  1.00  0.00     0.080 C 
HETATM   16  C22 UNL     1     -11.015  -7.161   2.531  1.00  0.00     0.017 C 
HETATM   17  C23 UNL     1     -10.797  -8.694   2.336  1.00  0.00    -0.031 C 
HETATM   18  C24 UNL     1     -11.883  -9.453   3.137  1.00  0.00     0.016 C 
HETATM   19  C25 UNL     1      -9.346  -9.069   2.857  1.00  0.00     0.024 C 
HETATM   20  C26 UNL     1      -9.063  -8.692   4.337  1.00  0.00     0.010 C 
HETATM   21  C27 UNL     1      -7.685  -9.121   4.899  1.00  0.00     0.011 C 
HETATM   22  C28 UNL     1      -6.956 -10.185   4.053  1.00  0.00    -0.029 C 
HETATM   23  C29 UNL     1      -6.116  -9.457   2.960  1.00  0.00     0.016 C 
ENDROOT
BRANCH   1  24
HETATM   24  C6  UNL     1      -4.705 -10.555   5.463  1.00  0.00    -0.014 C 
HETATM   25  C7  UNL     1      -3.502 -11.506   5.423  1.00  0.00     0.010 C 
BRANCH  24  26
HETATM   26  C5  UNL     1      -4.974 -10.072   6.917  1.00  0.00     0.008 C 
BRANCH  26  27
HETATM   27  C4  UNL     1      -4.391 -10.983   8.002  1.00  0.00     0.028 C 
BRANCH  27  28
HETATM   28  C3  UNL     1      -5.175 -10.903   9.286  1.00  0.00    -0.022 C 
HETATM   29  C2  UNL     1      -4.850 -10.188  10.382  1.00  0.00    -0.064 C 
HETATM   30  C1  UNL     1      -5.753 -10.165  11.585  1.00  0.00     0.045 C 
BRANCH  29  31
HETATM   31  C30 UNL     1      -3.584  -9.379  10.513  1.00  0.00     0.197 C 
BRANCH  31  32
HETATM   32  O2  UNL     1      -3.132  -9.392  11.859  1.00  0.00    -0.397 OA
HETATM   33  H48 UNL     1      -3.439 -10.222  12.261  1.00  0.00     0.209 HD
ENDBRANCH  31  32
ENDBRANCH  29  31
ENDBRANCH  27  28
ENDBRANCH  26  27
ENDBRANCH  24  26
ENDBRANCH   1  24
TORSDOF 6
ENDMDL
