MODEL 1
REMARK minimizedAffinity -9.8261795
REMARK CNNscore 0.485622764
REMARK CNNaffinity 7.38247538
REMARK  14 active torsions:
REMARK  status: ('A' for Active; 'I' for Inactive)
REMARK    1  A    between atoms: C19_20  and  O2_21 
REMARK    2  A    between atoms: C19_20  and  C20_22 
REMARK    3  A    between atoms: C20_22  and  C21_24 
REMARK    4  A    between atoms: C21_24  and  O4_25 
REMARK    5  A    between atoms: O4_25  and  C22_26 
REMARK    6  A    between atoms: C22_26  and  C23_28 
REMARK    7  A    between atoms: C23_28  and  C24_29 
REMARK    8  A    between atoms: C24_29  and  C25_30 
REMARK       I    between atoms: C25_30  and  N1_32 
REMARK    9  A    between atoms: N1_32  and  C26_33 
REMARK   10  A    between atoms: C26_33  and  C27_34 
REMARK   11  A    between atoms: C26_33  and  C36_45 
REMARK   12  A    between atoms: C27_34  and  C28_35 
REMARK   13  A    between atoms: C33_41  and  O7_42 
REMARK   14  A    between atoms: C36_45  and  O9_47 
ROOT
HETATM    1  O4  UNL     1      -0.801  11.246  15.896  1.00  0.00    -0.314 OA
ENDROOT
BRANCH   1   2
HETATM    2  C21 UNL     1      -0.146  10.221  15.146  1.00  0.00     0.260 C 
BRANCH   2   3
HETATM    3  C20 UNL     1      -0.816   8.854  15.322  1.00  0.00     0.185 C 
HETATM    4  O3  UNL     1      -0.589   8.172  16.326  1.00  0.00    -0.292 OA
BRANCH   3   5
HETATM    5  C19 UNL     1      -1.686   8.341  14.137  1.00  0.00     0.128 C 
HETATM    6  C14 UNL     1      -3.235   8.491  14.304  1.00  0.00    -0.002 C 
HETATM    7  C13 UNL     1      -3.960   8.324  12.935  1.00  0.00     0.013 C 
HETATM    8  C15 UNL     1      -3.634   9.853  14.904  1.00  0.00     0.019 C 
HETATM    9  C16 UNL     1      -3.581   7.315  15.243  1.00  0.00     0.002 C 
HETATM   10  C12 UNL     1      -5.459   8.037  13.051  1.00  0.00     0.007 C 
HETATM   11  C11 UNL     1      -5.742   6.795  13.916  1.00  0.00     0.002 C 
HETATM   12  C2  UNL     1      -7.267   6.419  14.017  1.00  0.00    -0.016 C 
HETATM   13  C10 UNL     1      -5.089   6.985  15.319  1.00  0.00    -0.004 C 
HETATM   14  C1  UNL     1      -8.112   7.583  14.598  1.00  0.00     0.020 C 
HETATM   15  C3  UNL     1      -7.912   6.083  12.640  1.00  0.00     0.022 C 
HETATM   16  C7  UNL     1      -7.339   5.197  14.937  1.00  0.00    -0.068 C 
HETATM   17  C4  UNL     1      -7.526   4.720  12.092  1.00  0.00     0.084 C 
HETATM   18  C5  UNL     1      -7.866   3.648  13.096  1.00  0.00     0.149 C 
HETATM   19  O1  UNL     1      -8.192   2.509  12.765  1.00  0.00    -0.293 OA
HETATM   20  C6  UNL     1      -7.671   3.957  14.532  1.00  0.00     0.053 C 
HETATM   21  C8  UNL     1      -6.826   5.413  16.339  1.00  0.00     0.035 C 
HETATM   22  C9  UNL     1      -5.348   5.789  16.260  1.00  0.00     0.010 C 
HETATM   23  C17 UNL     1      -2.666   6.172  14.766  1.00  0.00     0.009 C 
HETATM   24  C18 UNL     1      -1.479   6.818  14.043  1.00  0.00     0.047 C 
BRANCH   5  25
HETATM   25  O2  UNL     1      -1.262   8.943  12.915  1.00  0.00    -0.381 OA
HETATM   26  H27 UNL     1      -1.560   9.873  12.919  1.00  0.00     0.211 HD
ENDBRANCH   5  25
ENDBRANCH   3   5
ENDBRANCH   2   3
ENDBRANCH   1   2
BRANCH   1  27
HETATM   27  C22 UNL     1      -0.516  11.201  17.229  1.00  0.00     0.259 C 
HETATM   28  O5  UNL     1      -1.325  10.903  18.104  1.00  0.00    -0.265 OA
BRANCH  27  29
HETATM   29  C23 UNL     1       0.947  11.463  17.509  1.00  0.00     0.120 C 
BRANCH  29  30
HETATM   30  C24 UNL     1       1.639  10.385  18.337  1.00  0.00     0.112 C 
BRANCH  30  31
HETATM   31  C25 UNL     1       1.751  10.772  19.797  1.00  0.00     0.218 C 
HETATM   32  O6  UNL     1       1.260  11.795  20.266  1.00  0.00    -0.274 OA
HETATM   33  N1  UNL     1       2.435   9.852  20.548  1.00  0.00    -0.346 N 
HETATM   34  H34 UNL     1       2.713   8.959  20.149  1.00  0.00     0.163 HD
BRANCH  33  35
HETATM   35  C26 UNL     1       2.702  10.048  21.981  1.00  0.00     0.186 C 
BRANCH  35  36
HETATM   36  C27 UNL     1       4.178  10.409  22.188  1.00  0.00     0.077 C 
BRANCH  36  37
HETATM   37  C28 UNL     1       4.419  11.850  22.512  1.00  0.00    -0.028 A 
HETATM   38  C29 UNL     1       3.455  12.838  22.574  1.00  0.00     0.096 A 
HETATM   39  N2  UNL     1       4.069  14.021  22.876  1.00  0.00    -0.365 N 
HETATM   40  C30 UNL     1       5.425  13.834  23.012  1.00  0.00     0.043 A 
HETATM   41  H39 UNL     1       3.599  14.910  22.980  1.00  0.00     0.165 HD
HETATM   42  C31 UNL     1       6.435  14.756  23.312  1.00  0.00     0.033 A 
HETATM   43  C35 UNL     1       5.676  12.480  22.784  1.00  0.00     0.001 A 
HETATM   44  C32 UNL     1       7.749  14.278  23.385  1.00  0.00     0.039 A 
HETATM   45  C33 UNL     1       8.021  12.932  23.164  1.00  0.00     0.066 A 
HETATM   46  C34 UNL     1       7.008  12.023  22.860  1.00  0.00     0.050 A 
BRANCH  45  47
HETATM   47  O7  UNL     1       9.299  12.451  23.234  1.00  0.00    -0.361 OA
HETATM   48  H42 UNL     1       9.886  13.179  23.498  1.00  0.00     0.217 HD
ENDBRANCH  45  47
ENDBRANCH  36  37
ENDBRANCH  35  36
BRANCH  35  49
HETATM   49  C36 UNL     1       2.358   8.759  22.732  1.00  0.00     0.163 C 
HETATM   50  O8  UNL     1       1.939   7.712  22.263  1.00  0.00    -0.648 OA
BRANCH  49  51
HETATM   51  O9  UNL     1       2.522   8.860  24.077  1.00  0.00    -0.775 OA
HETATM   52  H44 UNL     1       2.255   7.967  24.391  1.00  0.00     0.167 HD
ENDBRANCH  49  51
ENDBRANCH  35  49
ENDBRANCH  33  35
ENDBRANCH  30  31
ENDBRANCH  29  30
ENDBRANCH  27  29
ENDBRANCH   1  27
TORSDOF 14
ENDMDL
MODEL 2
REMARK minimizedAffinity -8.226861
REMARK CNNscore 0.365209937
REMARK CNNaffinity 7.41080332
REMARK  14 active torsions:
REMARK  status: ('A' for Active; 'I' for Inactive)
REMARK    1  A    between atoms: C19_20  and  O2_21 
REMARK    2  A    between atoms: C19_20  and  C20_22 
REMARK    3  A    between atoms: C20_22  and  C21_24 
REMARK    4  A    between atoms: C21_24  and  O4_25 
REMARK    5  A    between atoms: O4_25  and  C22_26 
REMARK    6  A    between atoms: C22_26  and  C23_28 
REMARK    7  A    between atoms: C23_28  and  C24_29 
REMARK    8  A    between atoms: C24_29  and  C25_30 
REMARK       I    between atoms: C25_30  and  N1_32 
REMARK    9  A    between atoms: N1_32  and  C26_33 
REMARK   10  A    between atoms: C26_33  and  C27_34 
REMARK   11  A    between atoms: C26_33  and  C36_45 
REMARK   12  A    between atoms: C27_34  and  C28_35 
REMARK   13  A    between atoms: C33_41  and  O7_42 
REMARK   14  A    between atoms: C36_45  and  O9_47 
ROOT
HETATM    1  O4  UNL     1      -3.396   5.033  13.930  1.00  0.00    -0.314 OA
ENDROOT
BRANCH   1   2
HETATM    2  C21 UNL     1      -4.265   6.167  13.929  1.00  0.00     0.260 C 
BRANCH   2   3
HETATM    3  C20 UNL     1      -5.363   6.057  14.993  1.00  0.00     0.185 C 
HETATM    4  O3  UNL     1      -5.130   6.371  16.165  1.00  0.00    -0.292 OA
BRANCH   3   5
HETATM    5  C19 UNL     1      -6.717   5.434  14.544  1.00  0.00     0.128 C 
HETATM    6  C14 UNL     1      -7.724   6.406  13.843  1.00  0.00    -0.002 C 
HETATM    7  C13 UNL     1      -8.837   5.610  13.100  1.00  0.00     0.013 C 
HETATM    8  C15 UNL     1      -7.034   7.341  12.832  1.00  0.00     0.019 C 
HETATM    9  C16 UNL     1      -8.323   7.178  15.039  1.00  0.00     0.002 C 
HETATM   10  C12 UNL     1     -10.075   6.441  12.750  1.00  0.00     0.007 C 
HETATM   11  C11 UNL     1     -10.690   7.107  13.995  1.00  0.00     0.002 C 
HETATM   12  C2  UNL     1     -12.002   7.925  13.700  1.00  0.00    -0.016 C 
HETATM   13  C10 UNL     1      -9.605   7.973  14.705  1.00  0.00    -0.004 C 
HETATM   14  C1  UNL     1     -11.764   9.044  12.653  1.00  0.00     0.020 C 
HETATM   15  C3  UNL     1     -13.155   7.053  13.121  1.00  0.00     0.022 C 
HETATM   16  C7  UNL     1     -12.430   8.531  15.040  1.00  0.00    -0.068 C 
HETATM   17  C4  UNL     1     -13.838   6.167  14.150  1.00  0.00     0.084 C 
HETATM   18  C5  UNL     1     -14.349   7.008  15.292  1.00  0.00     0.149 C 
HETATM   19  O1  UNL     1     -15.357   6.713  15.933  1.00  0.00    -0.293 OA
HETATM   20  C6  UNL     1     -13.525   8.160  15.728  1.00  0.00     0.053 C 
HETATM   21  C8  UNL     1     -11.435   9.473  15.670  1.00  0.00     0.035 C 
HETATM   22  C9  UNL     1     -10.149   8.699  15.954  1.00  0.00     0.010 C 
HETATM   23  C17 UNL     1      -8.461   6.113  16.143  1.00  0.00     0.009 C 
HETATM   24  C18 UNL     1      -7.464   4.996  15.817  1.00  0.00     0.047 C 
BRANCH   5  25
HETATM   25  O2  UNL     1      -6.486   4.290  13.725  1.00  0.00    -0.381 OA
HETATM   26  H27 UNL     1      -6.176   4.602  12.852  1.00  0.00     0.211 HD
ENDBRANCH   5  25
ENDBRANCH   3   5
ENDBRANCH   2   3
ENDBRANCH   1   2
BRANCH   1  27
HETATM   27  C22 UNL     1      -2.684   4.900  12.774  1.00  0.00     0.259 C 
HETATM   28  O5  UNL     1      -3.016   4.188  11.830  1.00  0.00    -0.265 OA
BRANCH  27  29
HETATM   29  C23 UNL     1      -1.478   5.814  12.739  1.00  0.00     0.120 C 
BRANCH  29  30
HETATM   30  C24 UNL     1      -1.775   7.271  13.080  1.00  0.00     0.112 C 
BRANCH  30  31
HETATM   31  C25 UNL     1      -0.521   8.119  13.092  1.00  0.00     0.218 C 
HETATM   32  O6  UNL     1      -0.479   9.272  12.671  1.00  0.00    -0.274 OA
HETATM   33  N1  UNL     1       0.557   7.479  13.646  1.00  0.00    -0.346 N 
HETATM   34  H34 UNL     1       0.449   6.575  14.099  1.00  0.00     0.163 HD
BRANCH  33  35
HETATM   35  C26 UNL     1       1.888   8.100  13.719  1.00  0.00     0.186 C 
BRANCH  35  36
HETATM   36  C27 UNL     1       2.940   7.138  13.154  1.00  0.00     0.077 C 
BRANCH  36  37
HETATM   37  C28 UNL     1       3.520   7.561  11.840  1.00  0.00    -0.028 A 
HETATM   38  C29 UNL     1       4.857   7.799  11.585  1.00  0.00     0.096 A 
HETATM   39  N2  UNL     1       4.984   8.186  10.281  1.00  0.00    -0.365 N 
HETATM   40  C30 UNL     1       3.753   8.211   9.668  1.00  0.00     0.043 A 
HETATM   41  H39 UNL     1       5.856   8.426   9.828  1.00  0.00     0.165 HD
HETATM   42  C31 UNL     1       3.408   8.546   8.352  1.00  0.00     0.033 A 
HETATM   43  C35 UNL     1       2.812   7.827  10.625  1.00  0.00     0.001 A 
HETATM   44  C32 UNL     1       2.055   8.484   8.000  1.00  0.00     0.039 A 
HETATM   45  C33 UNL     1       1.102   8.102   8.937  1.00  0.00     0.066 A 
HETATM   46  C34 UNL     1       1.454   7.775  10.246  1.00  0.00     0.050 A 
BRANCH  45  47
HETATM   47  O7  UNL     1      -0.224   8.035   8.607  1.00  0.00    -0.361 OA
HETATM   48  H42 UNL     1      -0.314   8.241   7.661  1.00  0.00     0.217 HD
ENDBRANCH  45  47
ENDBRANCH  36  37
ENDBRANCH  35  36
BRANCH  35  49
HETATM   49  C36 UNL     1       2.203   8.435  15.179  1.00  0.00     0.163 C 
HETATM   50  O8  UNL     1       3.259   8.273  15.771  1.00  0.00    -0.648 OA
BRANCH  49  51
HETATM   51  O9  UNL     1       1.137   8.935  15.858  1.00  0.00    -0.775 OA
HETATM   52  H44 UNL     1       1.508   9.082  16.757  1.00  0.00     0.167 HD
ENDBRANCH  49  51
ENDBRANCH  35  49
ENDBRANCH  33  35
ENDBRANCH  30  31
ENDBRANCH  29  30
ENDBRANCH  27  29
ENDBRANCH   1  27
TORSDOF 14
ENDMDL
MODEL 3
REMARK minimizedAffinity -8.39046383
REMARK CNNscore 0.331416577
REMARK CNNaffinity 7.14565802
REMARK  14 active torsions:
REMARK  status: ('A' for Active; 'I' for Inactive)
REMARK    1  A    between atoms: C19_20  and  O2_21 
REMARK    2  A    between atoms: C19_20  and  C20_22 
REMARK    3  A    between atoms: C20_22  and  C21_24 
REMARK    4  A    between atoms: C21_24  and  O4_25 
REMARK    5  A    between atoms: O4_25  and  C22_26 
REMARK    6  A    between atoms: C22_26  and  C23_28 
REMARK    7  A    between atoms: C23_28  and  C24_29 
REMARK    8  A    between atoms: C24_29  and  C25_30 
REMARK       I    between atoms: C25_30  and  N1_32 
REMARK    9  A    between atoms: N1_32  and  C26_33 
REMARK   10  A    between atoms: C26_33  and  C27_34 
REMARK   11  A    between atoms: C26_33  and  C36_45 
REMARK   12  A    between atoms: C27_34  and  C28_35 
REMARK   13  A    between atoms: C33_41  and  O7_42 
REMARK   14  A    between atoms: C36_45  and  O9_47 
ROOT
HETATM    1  O4  UNL     1      -0.091   7.728  11.992  1.00  0.00    -0.314 OA
ENDROOT
BRANCH   1   2
HETATM    2  C21 UNL     1      -0.879   7.173  13.047  1.00  0.00     0.260 C 
BRANCH   2   3
HETATM    3  C20 UNL     1      -1.016   8.133  14.235  1.00  0.00     0.185 C 
HETATM    4  O3  UNL     1      -0.057   8.340  14.984  1.00  0.00    -0.292 OA
BRANCH   3   5
HETATM    5  C19 UNL     1      -2.432   8.724  14.500  1.00  0.00     0.128 C 
HETATM    6  C14 UNL     1      -3.476   7.750  15.141  1.00  0.00    -0.002 C 
HETATM    7  C13 UNL     1      -4.690   8.538  15.716  1.00  0.00     0.013 C 
HETATM    8  C15 UNL     1      -2.869   6.897  16.271  1.00  0.00     0.019 C 
HETATM    9  C16 UNL     1      -3.913   6.894  13.932  1.00  0.00     0.002 C 
HETATM   10  C12 UNL     1      -5.929   7.678  15.976  1.00  0.00     0.007 C 
HETATM   11  C11 UNL     1      -6.382   6.925  14.711  1.00  0.00     0.002 C 
HETATM   12  C2  UNL     1      -7.690   6.072  14.907  1.00  0.00    -0.016 C 
HETATM   13  C10 UNL     1      -5.197   6.068  14.170  1.00  0.00    -0.004 C 
HETATM   14  C1  UNL     1      -7.530   5.019  16.035  1.00  0.00     0.020 C 
HETATM   15  C3  UNL     1      -8.929   6.926  15.310  1.00  0.00     0.022 C 
HETATM   16  C7  UNL     1      -7.947   5.381  13.565  1.00  0.00    -0.068 C 
HETATM   17  C4  UNL     1      -9.524   7.730  14.166  1.00  0.00     0.084 C 
HETATM   18  C5  UNL     1      -9.879   6.812  13.024  1.00  0.00     0.149 C 
HETATM   19  O1  UNL     1     -10.820   7.033  12.263  1.00  0.00    -0.293 OA
HETATM   20  C6  UNL     1      -8.973   5.673  12.743  1.00  0.00     0.053 C 
HETATM   21  C8  UNL     1      -6.858   4.448  13.099  1.00  0.00     0.035 C 
HETATM   22  C9  UNL     1      -5.576   5.258  12.913  1.00  0.00     0.010 C 
HETATM   23  C17 UNL     1      -3.966   7.895  12.763  1.00  0.00     0.009 C 
HETATM   24  C18 UNL     1      -3.049   9.066  13.132  1.00  0.00     0.047 C 
BRANCH   5  25
HETATM   25  O2  UNL     1      -2.331   9.918  15.275  1.00  0.00    -0.381 OA
HETATM   26  H27 UNL     1      -2.108   9.663  16.192  1.00  0.00     0.211 HD
ENDBRANCH   5  25
ENDBRANCH   3   5
ENDBRANCH   2   3
ENDBRANCH   1   2
BRANCH   1  27
HETATM   27  C22 UNL     1       1.230   7.399  12.078  1.00  0.00     0.259 C 
HETATM   28  O5  UNL     1       1.667   6.253  12.013  1.00  0.00    -0.265 OA
BRANCH  27  29
HETATM   29  C23 UNL     1       2.118   8.621  12.161  1.00  0.00     0.120 C 
BRANCH  29  30
HETATM   30  C24 UNL     1       3.155   8.577  13.279  1.00  0.00     0.112 C 
BRANCH  30  31
HETATM   31  C25 UNL     1       4.567   8.480  12.743  1.00  0.00     0.218 C 
HETATM   32  O6  UNL     1       5.064   9.310  11.986  1.00  0.00    -0.274 OA
HETATM   33  N1  UNL     1       5.246   7.384  13.208  1.00  0.00    -0.346 N 
HETATM   34  H34 UNL     1       4.845   6.792  13.932  1.00  0.00     0.163 HD
BRANCH  33  35
HETATM   35  C26 UNL     1       6.617   7.067  12.780  1.00  0.00     0.186 C 
BRANCH  35  36
HETATM   36  C27 UNL     1       7.485   8.329  12.850  1.00  0.00     0.077 C 
BRANCH  36  37
HETATM   37  C28 UNL     1       8.243   8.486  14.131  1.00  0.00    -0.028 A 
HETATM   38  C29 UNL     1       9.434   7.862  14.449  1.00  0.00     0.096 A 
HETATM   39  N2  UNL     1       9.796   8.241  15.711  1.00  0.00    -0.365 N 
HETATM   40  C30 UNL     1       8.862   9.103  16.237  1.00  0.00     0.043 A 
HETATM   41  H39 UNL     1      10.627   7.930  16.195  1.00  0.00     0.165 HD
HETATM   42  C31 UNL     1       8.822   9.735  17.486  1.00  0.00     0.033 A 
HETATM   43  C35 UNL     1       7.871   9.274  15.268  1.00  0.00     0.001 A 
HETATM   44  C32 UNL     1       7.733  10.571  17.756  1.00  0.00     0.039 A 
HETATM   45  C33 UNL     1       6.736  10.756  16.805  1.00  0.00     0.066 A 
HETATM   46  C34 UNL     1       6.782  10.119  15.565  1.00  0.00     0.050 A 
BRANCH  45  47
HETATM   47  O7  UNL     1       5.667  11.572  17.053  1.00  0.00    -0.361 OA
HETATM   48  H42 UNL     1       5.791  11.981  17.926  1.00  0.00     0.217 HD
ENDBRANCH  45  47
ENDBRANCH  36  37
ENDBRANCH  35  36
BRANCH  35  49
HETATM   49  C36 UNL     1       6.581   6.523  11.350  1.00  0.00     0.163 C 
HETATM   50  O8  UNL     1       7.231   6.907  10.390  1.00  0.00    -0.648 OA
BRANCH  49  51
HETATM   51  O9  UNL     1       5.677   5.524  11.177  1.00  0.00    -0.775 OA
HETATM   52  H44 UNL     1       5.781   5.307  10.224  1.00  0.00     0.167 HD
ENDBRANCH  49  51
ENDBRANCH  35  49
ENDBRANCH  33  35
ENDBRANCH  30  31
ENDBRANCH  29  30
ENDBRANCH  27  29
ENDBRANCH   1  27
TORSDOF 14
ENDMDL
MODEL 4
REMARK minimizedAffinity -10.0634995
REMARK CNNscore 0.317101121
REMARK CNNaffinity 7.44959116
REMARK  14 active torsions:
REMARK  status: ('A' for Active; 'I' for Inactive)
REMARK    1  A    between atoms: C19_20  and  O2_21 
REMARK    2  A    between atoms: C19_20  and  C20_22 
REMARK    3  A    between atoms: C20_22  and  C21_24 
REMARK    4  A    between atoms: C21_24  and  O4_25 
REMARK    5  A    between atoms: O4_25  and  C22_26 
REMARK    6  A    between atoms: C22_26  and  C23_28 
REMARK    7  A    between atoms: C23_28  and  C24_29 
REMARK    8  A    between atoms: C24_29  and  C25_30 
REMARK       I    between atoms: C25_30  and  N1_32 
REMARK    9  A    between atoms: N1_32  and  C26_33 
REMARK   10  A    between atoms: C26_33  and  C27_34 
REMARK   11  A    between atoms: C26_33  and  C36_45 
REMARK   12  A    between atoms: C27_34  and  C28_35 
REMARK   13  A    between atoms: C33_41  and  O7_42 
REMARK   14  A    between atoms: C36_45  and  O9_47 
ROOT
HETATM    1  O4  UNL     1      -5.521   3.309  12.079  1.00  0.00    -0.314 OA
ENDROOT
BRANCH   1   2
HETATM    2  C21 UNL     1      -6.374   3.139  13.213  1.00  0.00     0.260 C 
BRANCH   2   3
HETATM    3  C20 UNL     1      -7.662   3.962  13.098  1.00  0.00     0.185 C 
HETATM    4  O3  UNL     1      -8.744   3.403  12.893  1.00  0.00    -0.292 OA
BRANCH   3   5
HETATM    5  C19 UNL     1      -7.512   5.511  13.139  1.00  0.00     0.128 C 
HETATM    6  C14 UNL     1      -8.108   6.228  14.397  1.00  0.00    -0.002 C 
HETATM    7  C13 UNL     1      -7.560   7.681  14.519  1.00  0.00     0.013 C 
HETATM    8  C15 UNL     1      -7.797   5.477  15.705  1.00  0.00     0.019 C 
HETATM    9  C16 UNL     1      -9.619   6.248  14.079  1.00  0.00     0.002 C 
HETATM   10  C12 UNL     1      -8.380   8.584  15.443  1.00  0.00     0.007 C 
HETATM   11  C11 UNL     1      -9.859   8.647  15.021  1.00  0.00     0.002 C 
HETATM   12  C2  UNL     1     -10.736   9.612  15.902  1.00  0.00    -0.016 C 
HETATM   13  C10 UNL     1     -10.443   7.202  14.972  1.00  0.00    -0.004 C 
HETATM   14  C1  UNL     1     -10.704   9.215  17.401  1.00  0.00     0.020 C 
HETATM   15  C3  UNL     1     -10.259  11.094  15.855  1.00  0.00     0.022 C 
HETATM   16  C7  UNL     1     -12.161   9.506  15.353  1.00  0.00    -0.068 C 
HETATM   17  C4  UNL     1     -10.611  11.816  14.566  1.00  0.00     0.084 C 
HETATM   18  C5  UNL     1     -12.098  11.744  14.327  1.00  0.00     0.149 C 
HETATM   19  O1  UNL     1     -12.720  12.634  13.747  1.00  0.00    -0.293 OA
HETATM   20  C6  UNL     1     -12.799  10.492  14.695  1.00  0.00     0.053 C 
HETATM   21  C8  UNL     1     -12.781   8.133  15.423  1.00  0.00     0.035 C 
HETATM   22  C9  UNL     1     -11.936   7.178  14.580  1.00  0.00     0.010 C 
HETATM   23  C17 UNL     1      -9.682   6.524  12.565  1.00  0.00     0.009 C 
HETATM   24  C18 UNL     1      -8.339   6.082  11.972  1.00  0.00     0.047 C 
BRANCH   5  25
HETATM   25  O2  UNL     1      -6.146   5.880  12.963  1.00  0.00    -0.381 OA
HETATM   26  H27 UNL     1      -5.668   5.668  13.789  1.00  0.00     0.211 HD
ENDBRANCH   5  25
ENDBRANCH   3   5
ENDBRANCH   2   3
ENDBRANCH   1   2
BRANCH   1  27
HETATM   27  C22 UNL     1      -5.056   2.130  11.575  1.00  0.00     0.259 C 
HETATM   28  O5  UNL     1      -5.766   1.249  11.097  1.00  0.00    -0.265 OA
BRANCH  27  29
HETATM   29  C23 UNL     1      -3.545   2.066  11.576  1.00  0.00     0.120 C 
BRANCH  29  30
HETATM   30  C24 UNL     1      -2.860   3.189  10.803  1.00  0.00     0.112 C 
BRANCH  30  31
HETATM   31  C25 UNL     1      -1.523   3.563  11.407  1.00  0.00     0.218 C 
HETATM   32  O6  UNL     1      -0.704   2.739  11.803  1.00  0.00    -0.274 OA
HETATM   33  N1  UNL     1      -1.308   4.916  11.444  1.00  0.00    -0.346 N 
HETATM   34  H34 UNL     1      -1.953   5.558  10.990  1.00  0.00     0.163 HD
BRANCH  33  35
HETATM   35  C26 UNL     1      -0.095   5.505  12.031  1.00  0.00     0.186 C 
BRANCH  35  36
HETATM   36  C27 UNL     1       1.132   4.684  11.616  1.00  0.00     0.077 C 
BRANCH  36  37
HETATM   37  C28 UNL     1       1.929   5.289  10.502  1.00  0.00    -0.028 A 
HETATM   38  C29 UNL     1       3.158   4.844  10.052  1.00  0.00     0.096 A 
HETATM   39  N2  UNL     1       3.570   5.666   9.042  1.00  0.00    -0.365 N 
HETATM   40  C30 UNL     1       2.637   6.651   8.817  1.00  0.00     0.043 A 
HETATM   41  H39 UNL     1       4.439   5.572   8.534  1.00  0.00     0.165 HD
HETATM   42  C31 UNL     1       2.641   7.701   7.890  1.00  0.00     0.033 A 
HETATM   43  C35 UNL     1       1.595   6.442   9.723  1.00  0.00     0.001 A 
HETATM   44  C32 UNL     1       1.542   8.568   7.887  1.00  0.00     0.039 A 
HETATM   45  C33 UNL     1       0.493   8.377   8.779  1.00  0.00     0.066 A 
HETATM   46  C34 UNL     1       0.500   7.331   9.702  1.00  0.00     0.050 A 
BRANCH  45  47
HETATM   47  O7  UNL     1      -0.588   9.214   8.786  1.00  0.00    -0.361 OA
HETATM   48  H42 UNL     1      -0.480   9.859   8.066  1.00  0.00     0.217 HD
ENDBRANCH  45  47
ENDBRANCH  36  37
ENDBRANCH  35  36
BRANCH  35  49
HETATM   49  C36 UNL     1      -0.235   5.519  13.556  1.00  0.00     0.163 C 
HETATM   50  O8  UNL     1      -1.265   5.463  14.210  1.00  0.00    -0.648 OA
BRANCH  49  51
HETATM   51  O9  UNL     1       0.951   5.647  14.204  1.00  0.00    -0.775 OA
HETATM   52  H44 UNL     1       0.678   5.646  15.149  1.00  0.00     0.167 HD
ENDBRANCH  49  51
ENDBRANCH  35  49
ENDBRANCH  33  35
ENDBRANCH  30  31
ENDBRANCH  29  30
ENDBRANCH  27  29
ENDBRANCH   1  27
TORSDOF 14
ENDMDL
MODEL 5
REMARK minimizedAffinity -9.14543915
REMARK CNNscore 0.303652495
REMARK CNNaffinity 6.28407431
REMARK  14 active torsions:
REMARK  status: ('A' for Active; 'I' for Inactive)
REMARK    1  A    between atoms: C19_20  and  O2_21 
REMARK    2  A    between atoms: C19_20  and  C20_22 
REMARK    3  A    between atoms: C20_22  and  C21_24 
REMARK    4  A    between atoms: C21_24  and  O4_25 
REMARK    5  A    between atoms: O4_25  and  C22_26 
REMARK    6  A    between atoms: C22_26  and  C23_28 
REMARK    7  A    between atoms: C23_28  and  C24_29 
REMARK    8  A    between atoms: C24_29  and  C25_30 
REMARK       I    between atoms: C25_30  and  N1_32 
REMARK    9  A    between atoms: N1_32  and  C26_33 
REMARK   10  A    between atoms: C26_33  and  C27_34 
REMARK   11  A    between atoms: C26_33  and  C36_45 
REMARK   12  A    between atoms: C27_34  and  C28_35 
REMARK   13  A    between atoms: C33_41  and  O7_42 
REMARK   14  A    between atoms: C36_45  and  O9_47 
ROOT
HETATM    1  O4  UNL     1      -0.355  11.181  14.756  1.00  0.00    -0.314 OA
ENDROOT
BRANCH   1   2
HETATM    2  C21 UNL     1      -0.254  12.406  15.485  1.00  0.00     0.260 C 
BRANCH   2   3
HETATM    3  C20 UNL     1      -0.120  12.173  16.994  1.00  0.00     0.185 C 
HETATM    4  O3  UNL     1      -1.021  12.524  17.763  1.00  0.00    -0.292 OA
BRANCH   3   5
HETATM    5  C19 UNL     1       1.232  11.590  17.498  1.00  0.00     0.128 C 
HETATM    6  C14 UNL     1       1.346  11.348  19.040  1.00  0.00    -0.002 C 
HETATM    7  C13 UNL     1       2.551  10.416  19.368  1.00  0.00     0.013 C 
HETATM    8  C15 UNL     1       0.070  10.723  19.635  1.00  0.00     0.019 C 
HETATM    9  C16 UNL     1       1.606  12.772  19.579  1.00  0.00     0.002 C 
HETATM   10  C12 UNL     1       2.995  10.458  20.832  1.00  0.00     0.007 C 
HETATM   11  C11 UNL     1       3.338  11.888  21.287  1.00  0.00     0.002 C 
HETATM   12  C2  UNL     1       3.861  11.981  22.770  1.00  0.00    -0.016 C 
HETATM   13  C10 UNL     1       2.110  12.817  21.039  1.00  0.00    -0.004 C 
HETATM   14  C1  UNL     1       2.832  11.412  23.782  1.00  0.00     0.020 C 
HETATM   15  C3  UNL     1       5.172  11.175  23.013  1.00  0.00     0.022 C 
HETATM   16  C7  UNL     1       4.106  13.468  23.037  1.00  0.00    -0.068 C 
HETATM   17  C4  UNL     1       6.417  11.834  22.444  1.00  0.00     0.084 C 
HETATM   18  C5  UNL     1       6.558  13.229  22.998  1.00  0.00     0.149 C 
HETATM   19  O1  UNL     1       7.651  13.762  23.182  1.00  0.00    -0.293 OA
HETATM   20  C6  UNL     1       5.322  14.021  23.203  1.00  0.00     0.053 C 
HETATM   21  C8  UNL     1       2.891  14.355  22.925  1.00  0.00     0.035 C 
HETATM   22  C9  UNL     1       2.363  14.270  21.493  1.00  0.00     0.010 C 
HETATM   23  C17 UNL     1       2.535  13.407  18.528  1.00  0.00     0.009 C 
HETATM   24  C18 UNL     1       2.319  12.644  17.216  1.00  0.00     0.047 C 
BRANCH   5  25
HETATM   25  O2  UNL     1       1.550  10.395  16.787  1.00  0.00    -0.381 OA
HETATM   26  H27 UNL     1       0.960   9.686  17.110  1.00  0.00     0.211 HD
ENDBRANCH   5  25
ENDBRANCH   3   5
ENDBRANCH   2   3
ENDBRANCH   1   2
BRANCH   1  27
HETATM   27  C22 UNL     1      -1.625  10.682  14.718  1.00  0.00     0.259 C 
HETATM   28  O5  UNL     1      -2.641  11.369  14.690  1.00  0.00    -0.265 OA
BRANCH  27  29
HETATM   29  C23 UNL     1      -1.641   9.173  14.610  1.00  0.00     0.120 C 
BRANCH  29  30
HETATM   30  C24 UNL     1      -2.550   8.474  15.617  1.00  0.00     0.112 C 
BRANCH  30  31
HETATM   31  C25 UNL     1      -3.854   8.026  14.991  1.00  0.00     0.218 C 
HETATM   32  O6  UNL     1      -4.329   8.532  13.977  1.00  0.00    -0.274 OA
HETATM   33  N1  UNL     1      -4.440   6.981  15.657  1.00  0.00    -0.346 N 
HETATM   34  H34 UNL     1      -3.953   6.508  16.414  1.00  0.00     0.163 HD
BRANCH  33  35
HETATM   35  C26 UNL     1      -5.736   6.416  15.250  1.00  0.00     0.186 C 
BRANCH  35  36
HETATM   36  C27 UNL     1      -5.766   6.235  13.727  1.00  0.00     0.077 C 
BRANCH  36  37
HETATM   37  C28 UNL     1      -6.465   4.993  13.269  1.00  0.00    -0.028 A 
HETATM   38  C29 UNL     1      -7.812   4.721  13.416  1.00  0.00     0.096 A 
HETATM   39  N2  UNL     1      -8.061   3.484  12.892  1.00  0.00    -0.365 N 
HETATM   40  C30 UNL     1      -6.901   2.930  12.403  1.00  0.00     0.043 A 
HETATM   41  H39 UNL     1      -8.966   3.034  12.870  1.00  0.00     0.165 HD
HETATM   42  C31 UNL     1      -6.684   1.691  11.787  1.00  0.00     0.033 A 
HETATM   43  C35 UNL     1      -5.879   3.854  12.629  1.00  0.00     0.001 A 
HETATM   44  C32 UNL     1      -5.379   1.386  11.386  1.00  0.00     0.039 A 
HETATM   45  C33 UNL     1      -4.347   2.292  11.600  1.00  0.00     0.066 A 
HETATM   46  C34 UNL     1      -4.572   3.522  12.219  1.00  0.00     0.050 A 
BRANCH  45  47
HETATM   47  O7  UNL     1      -3.067   2.008  11.211  1.00  0.00    -0.361 OA
HETATM   48  H42 UNL     1      -3.069   1.149  10.757  1.00  0.00     0.217 HD
ENDBRANCH  45  47
ENDBRANCH  36  37
ENDBRANCH  35  36
BRANCH  35  49
HETATM   49  C36 UNL     1      -6.855   7.361  15.697  1.00  0.00     0.163 C 
HETATM   50  O8  UNL     1      -7.499   8.133  15.004  1.00  0.00    -0.648 OA
BRANCH  49  51
HETATM   51  O9  UNL     1      -7.091   7.322  17.034  1.00  0.00    -0.775 OA
HETATM   52  H44 UNL     1      -7.814   7.979  17.141  1.00  0.00     0.167 HD
ENDBRANCH  49  51
ENDBRANCH  35  49
ENDBRANCH  33  35
ENDBRANCH  30  31
ENDBRANCH  29  30
ENDBRANCH  27  29
ENDBRANCH   1  27
TORSDOF 14
ENDMDL
MODEL 6
REMARK minimizedAffinity -9.19339752
REMARK CNNscore 0.296650082
REMARK CNNaffinity 7.34429169
REMARK  14 active torsions:
REMARK  status: ('A' for Active; 'I' for Inactive)
REMARK    1  A    between atoms: C19_20  and  O2_21 
REMARK    2  A    between atoms: C19_20  and  C20_22 
REMARK    3  A    between atoms: C20_22  and  C21_24 
REMARK    4  A    between atoms: C21_24  and  O4_25 
REMARK    5  A    between atoms: O4_25  and  C22_26 
REMARK    6  A    between atoms: C22_26  and  C23_28 
REMARK    7  A    between atoms: C23_28  and  C24_29 
REMARK    8  A    between atoms: C24_29  and  C25_30 
REMARK       I    between atoms: C25_30  and  N1_32 
REMARK    9  A    between atoms: N1_32  and  C26_33 
REMARK   10  A    between atoms: C26_33  and  C27_34 
REMARK   11  A    between atoms: C26_33  and  C36_45 
REMARK   12  A    between atoms: C27_34  and  C28_35 
REMARK   13  A    between atoms: C33_41  and  O7_42 
REMARK   14  A    between atoms: C36_45  and  O9_47 
ROOT
HETATM    1  O4  UNL     1       0.594   6.836  11.412  1.00  0.00    -0.314 OA
ENDROOT
BRANCH   1   2
HETATM    2  C21 UNL     1      -0.740   6.754  11.919  1.00  0.00     0.260 C 
BRANCH   2   3
HETATM    3  C20 UNL     1      -0.775   6.702  13.451  1.00  0.00     0.185 C 
HETATM    4  O3  UNL     1       0.080   6.064  14.074  1.00  0.00    -0.292 OA
BRANCH   3   5
HETATM    5  C19 UNL     1      -1.986   7.386  14.150  1.00  0.00     0.128 C 
HETATM    6  C14 UNL     1      -3.086   6.426  14.717  1.00  0.00    -0.002 C 
HETATM    7  C13 UNL     1      -4.015   7.177  15.716  1.00  0.00     0.013 C 
HETATM    8  C15 UNL     1      -2.486   5.201  15.433  1.00  0.00     0.019 C 
HETATM    9  C16 UNL     1      -3.869   6.034  13.445  1.00  0.00     0.002 C 
HETATM   10  C12 UNL     1      -5.341   6.464  15.994  1.00  0.00     0.007 C 
HETATM   11  C11 UNL     1      -6.128   6.189  14.700  1.00  0.00     0.002 C 
HETATM   12  C2  UNL     1      -7.530   5.512  14.934  1.00  0.00    -0.016 C 
HETATM   13  C10 UNL     1      -5.235   5.367  13.720  1.00  0.00    -0.004 C 
HETATM   14  C1  UNL     1      -7.402   4.163  15.688  1.00  0.00     0.020 C 
HETATM   15  C3  UNL     1      -8.497   6.379  15.794  1.00  0.00     0.022 C 
HETATM   16  C7  UNL     1      -8.127   5.290  13.542  1.00  0.00    -0.068 C 
HETATM   17  C4  UNL     1      -9.097   7.559  15.049  1.00  0.00     0.084 C 
HETATM   18  C5  UNL     1      -9.802   7.076  13.806  1.00  0.00     0.149 C 
HETATM   19  O1  UNL     1     -10.790   7.644  13.342  1.00  0.00    -0.293 OA
HETATM   20  C6  UNL     1      -9.193   5.953  13.056  1.00  0.00     0.053 C 
HETATM   21  C8  UNL     1      -7.330   4.388  12.632  1.00  0.00     0.035 C 
HETATM   22  C9  UNL     1      -5.960   5.024  12.402  1.00  0.00     0.010 C 
HETATM   23  C17 UNL     1      -3.910   7.331  12.614  1.00  0.00     0.009 C 
HETATM   24  C18 UNL     1      -2.734   8.198  13.078  1.00  0.00     0.047 C 
BRANCH   5  25
HETATM   25  O2  UNL     1      -1.532   8.272  15.171  1.00  0.00    -0.381 OA
HETATM   26  H27 UNL     1      -1.220   7.730  15.922  1.00  0.00     0.211 HD
ENDBRANCH   5  25
ENDBRANCH   3   5
ENDBRANCH   2   3
ENDBRANCH   1   2
BRANCH   1  27
HETATM   27  C22 UNL     1       0.691   7.585  10.276  1.00  0.00     0.259 C 
HETATM   28  O5  UNL     1       0.205   8.704  10.137  1.00  0.00    -0.265 OA
BRANCH  27  29
HETATM   29  C23 UNL     1       1.560   6.923   9.229  1.00  0.00     0.120 C 
BRANCH  29  30
HETATM   30  C24 UNL     1       2.646   7.821   8.644  1.00  0.00     0.112 C 
BRANCH  30  31
HETATM   31  C25 UNL     1       3.821   7.981   9.585  1.00  0.00     0.218 C 
HETATM   32  O6  UNL     1       4.622   8.909   9.519  1.00  0.00    -0.274 OA
HETATM   33  N1  UNL     1       3.888   6.996  10.536  1.00  0.00    -0.346 N 
HETATM   34  H34 UNL     1       3.135   6.319  10.638  1.00  0.00     0.163 HD
BRANCH  33  35
HETATM   35  C26 UNL     1       4.974   6.928  11.525  1.00  0.00     0.186 C 
BRANCH  35  36
HETATM   36  C27 UNL     1       5.278   8.334  12.057  1.00  0.00     0.077 C 
BRANCH  36  37
HETATM   37  C28 UNL     1       5.737   8.367  13.482  1.00  0.00    -0.028 A 
HETATM   38  C29 UNL     1       4.932   8.569  14.586  1.00  0.00     0.096 A 
HETATM   39  N2  UNL     1       5.720   8.553  15.703  1.00  0.00    -0.365 N 
HETATM   40  C30 UNL     1       7.034   8.347  15.356  1.00  0.00     0.043 A 
HETATM   41  H39 UNL     1       5.389   8.680  16.650  1.00  0.00     0.165 HD
HETATM   42  C31 UNL     1       8.176   8.259  16.163  1.00  0.00     0.033 A 
HETATM   43  C35 UNL     1       7.077   8.230  13.965  1.00  0.00     0.001 A 
HETATM   44  C32 UNL     1       9.404   8.044  15.528  1.00  0.00     0.039 A 
HETATM   45  C33 UNL     1       9.469   7.923  14.144  1.00  0.00     0.066 A 
HETATM   46  C34 UNL     1       8.327   8.016  13.349  1.00  0.00     0.050 A 
BRANCH  45  47
HETATM   47  O7  UNL     1      10.662   7.710  13.511  1.00  0.00    -0.361 OA
HETATM   48  H42 UNL     1      11.355   7.620  14.186  1.00  0.00     0.217 HD
ENDBRANCH  45  47
ENDBRANCH  36  37
ENDBRANCH  35  36
BRANCH  35  49
HETATM   49  C36 UNL     1       6.217   6.330  10.860  1.00  0.00     0.163 C 
HETATM   50  O8  UNL     1       7.186   6.928  10.418  1.00  0.00    -0.648 OA
BRANCH  49  51
HETATM   51  O9  UNL     1       6.166   4.978  10.742  1.00  0.00    -0.775 OA
HETATM   52  H44 UNL     1       7.019   4.772  10.298  1.00  0.00     0.167 HD
ENDBRANCH  49  51
ENDBRANCH  35  49
ENDBRANCH  33  35
ENDBRANCH  30  31
ENDBRANCH  29  30
ENDBRANCH  27  29
ENDBRANCH   1  27
TORSDOF 14
ENDMDL
MODEL 7
REMARK minimizedAffinity -8.59902
REMARK CNNscore 0.293643385
REMARK CNNaffinity 7.2851119
REMARK  14 active torsions:
REMARK  status: ('A' for Active; 'I' for Inactive)
REMARK    1  A    between atoms: C19_20  and  O2_21 
REMARK    2  A    between atoms: C19_20  and  C20_22 
REMARK    3  A    between atoms: C20_22  and  C21_24 
REMARK    4  A    between atoms: C21_24  and  O4_25 
REMARK    5  A    between atoms: O4_25  and  C22_26 
REMARK    6  A    between atoms: C22_26  and  C23_28 
REMARK    7  A    between atoms: C23_28  and  C24_29 
REMARK    8  A    between atoms: C24_29  and  C25_30 
REMARK       I    between atoms: C25_30  and  N1_32 
REMARK    9  A    between atoms: N1_32  and  C26_33 
REMARK   10  A    between atoms: C26_33  and  C27_34 
REMARK   11  A    between atoms: C26_33  and  C36_45 
REMARK   12  A    between atoms: C27_34  and  C28_35 
REMARK   13  A    between atoms: C33_41  and  O7_42 
REMARK   14  A    between atoms: C36_45  and  O9_47 
ROOT
HETATM    1  O4  UNL     1     -16.006   8.225  15.145  1.00  0.00    -0.314 OA
ENDROOT
BRANCH   1   2
HETATM    2  C21 UNL     1     -15.022   8.164  14.111  1.00  0.00     0.260 C 
BRANCH   2   3
HETATM    3  C20 UNL     1     -13.738   8.914  14.486  1.00  0.00     0.185 C 
HETATM    4  O3  UNL     1     -13.733   9.708  15.431  1.00  0.00    -0.292 OA
BRANCH   3   5
HETATM    5  C19 UNL     1     -12.507   8.707  13.557  1.00  0.00     0.128 C 
HETATM    6  C14 UNL     1     -11.589   7.483  13.892  1.00  0.00    -0.002 C 
HETATM    7  C13 UNL     1     -10.651   7.149  12.694  1.00  0.00     0.013 C 
HETATM    8  C15 UNL     1     -12.397   6.220  14.246  1.00  0.00     0.019 C 
HETATM    9  C16 UNL     1     -10.767   8.006  15.090  1.00  0.00     0.002 C 
HETATM   10  C12 UNL     1      -9.455   6.268  13.063  1.00  0.00     0.007 C 
HETATM   11  C11 UNL     1      -8.612   6.886  14.193  1.00  0.00     0.002 C 
HETATM   12  C2  UNL     1      -7.333   6.049  14.569  1.00  0.00    -0.016 C 
HETATM   13  C10 UNL     1      -9.525   7.152  15.429  1.00  0.00    -0.004 C 
HETATM   14  C1  UNL     1      -7.694   4.605  15.004  1.00  0.00     0.020 C 
HETATM   15  C3  UNL     1      -6.331   5.889  13.387  1.00  0.00     0.022 C 
HETATM   16  C7  UNL     1      -6.662   6.801  15.722  1.00  0.00    -0.068 C 
HETATM   17  C4  UNL     1      -5.526   7.141  13.085  1.00  0.00     0.084 C 
HETATM   18  C5  UNL     1      -4.795   7.593  14.324  1.00  0.00     0.149 C 
HETATM   19  O1  UNL     1      -3.708   8.167  14.280  1.00  0.00    -0.293 OA
HETATM   20  C6  UNL     1      -5.484   7.446  15.628  1.00  0.00     0.053 C 
HETATM   21  C8  UNL     1      -7.496   6.948  16.970  1.00  0.00     0.035 C 
HETATM   22  C9  UNL     1      -8.749   7.750  16.622  1.00  0.00     0.010 C 
HETATM   23  C17 UNL     1     -10.492   9.481  14.742  1.00  0.00     0.009 C 
HETATM   24  C18 UNL     1     -11.577   9.918  13.752  1.00  0.00     0.047 C 
BRANCH   5  25
HETATM   25  O2  UNL     1     -12.920   8.653  12.193  1.00  0.00    -0.381 OA
HETATM   26  H27 UNL     1     -13.358   7.792  12.045  1.00  0.00     0.211 HD
ENDBRANCH   5  25
ENDBRANCH   3   5
ENDBRANCH   2   3
ENDBRANCH   1   2
BRANCH   1  27
HETATM   27  C22 UNL     1     -16.858   7.160  15.140  1.00  0.00     0.259 C 
HETATM   28  O5  UNL     1     -18.063   7.234  14.915  1.00  0.00    -0.265 OA
BRANCH  27  29
HETATM   29  C23 UNL     1     -16.132   5.849  15.346  1.00  0.00     0.120 C 
BRANCH  29  30
HETATM   30  C24 UNL     1     -16.688   4.681  14.536  1.00  0.00     0.112 C 
BRANCH  30  31
HETATM   31  C25 UNL     1     -15.809   3.452  14.632  1.00  0.00     0.218 C 
HETATM   32  O6  UNL     1     -14.593   3.499  14.799  1.00  0.00    -0.274 OA
HETATM   33  N1  UNL     1     -16.512   2.278  14.538  1.00  0.00    -0.346 N 
HETATM   34  H34 UNL     1     -17.529   2.280  14.530  1.00  0.00     0.163 HD
BRANCH  33  35
HETATM   35  C26 UNL     1     -15.853   0.963  14.560  1.00  0.00     0.186 C 
BRANCH  35  36
HETATM   36  C27 UNL     1     -16.866  -0.129  14.196  1.00  0.00     0.077 C 
BRANCH  36  37
HETATM   37  C28 UNL     1     -16.298  -1.514  14.176  1.00  0.00    -0.028 A 
HETATM   38  C29 UNL     1     -16.459  -2.468  15.162  1.00  0.00     0.096 A 
HETATM   39  N2  UNL     1     -15.775  -3.592  14.790  1.00  0.00    -0.365 N 
HETATM   40  C30 UNL     1     -15.161  -3.396  13.575  1.00  0.00     0.043 A 
HETATM   41  H39 UNL     1     -15.720  -4.444  15.330  1.00  0.00     0.165 HD
HETATM   42  C31 UNL     1     -14.362  -4.263  12.819  1.00  0.00     0.033 A 
HETATM   43  C35 UNL     1     -15.469  -2.097  13.165  1.00  0.00     0.001 A 
HETATM   44  C32 UNL     1     -13.861  -3.788  11.602  1.00  0.00     0.039 A 
HETATM   45  C33 UNL     1     -14.157  -2.499  11.175  1.00  0.00     0.066 A 
HETATM   46  C34 UNL     1     -14.949  -1.641  11.936  1.00  0.00     0.050 A 
BRANCH  45  47
HETATM   47  O7  UNL     1     -13.676  -2.023   9.986  1.00  0.00    -0.361 OA
HETATM   48  H42 UNL     1     -13.186  -2.738   9.546  1.00  0.00     0.217 HD
ENDBRANCH  45  47
ENDBRANCH  36  37
ENDBRANCH  35  36
BRANCH  35  49
HETATM   49  C36 UNL     1     -15.282   0.715  15.959  1.00  0.00     0.163 C 
HETATM   50  O8  UNL     1     -15.890   0.690  17.018  1.00  0.00    -0.648 OA
BRANCH  49  51
HETATM   51  O9  UNL     1     -13.934   0.545  15.968  1.00  0.00    -0.775 OA
HETATM   52  H44 UNL     1     -13.744   0.409  16.922  1.00  0.00     0.167 HD
ENDBRANCH  49  51
ENDBRANCH  35  49
ENDBRANCH  33  35
ENDBRANCH  30  31
ENDBRANCH  29  30
ENDBRANCH  27  29
ENDBRANCH   1  27
TORSDOF 14
ENDMDL
MODEL 8
REMARK minimizedAffinity -9.90360165
REMARK CNNscore 0.278265178
REMARK CNNaffinity 6.65159035
REMARK  14 active torsions:
REMARK  status: ('A' for Active; 'I' for Inactive)
REMARK    1  A    between atoms: C19_20  and  O2_21 
REMARK    2  A    between atoms: C19_20  and  C20_22 
REMARK    3  A    between atoms: C20_22  and  C21_24 
REMARK    4  A    between atoms: C21_24  and  O4_25 
REMARK    5  A    between atoms: O4_25  and  C22_26 
REMARK    6  A    between atoms: C22_26  and  C23_28 
REMARK    7  A    between atoms: C23_28  and  C24_29 
REMARK    8  A    between atoms: C24_29  and  C25_30 
REMARK       I    between atoms: C25_30  and  N1_32 
REMARK    9  A    between atoms: N1_32  and  C26_33 
REMARK   10  A    between atoms: C26_33  and  C27_34 
REMARK   11  A    between atoms: C26_33  and  C36_45 
REMARK   12  A    between atoms: C27_34  and  C28_35 
REMARK   13  A    between atoms: C33_41  and  O7_42 
REMARK   14  A    between atoms: C36_45  and  O9_47 
ROOT
HETATM    1  O4  UNL     1       4.062   7.582   9.896  1.00  0.00    -0.314 OA
ENDROOT
BRANCH   1   2
HETATM    2  C21 UNL     1       4.900   6.674  10.615  1.00  0.00     0.260 C 
BRANCH   2   3
HETATM    3  C20 UNL     1       6.042   7.391  11.344  1.00  0.00     0.185 C 
HETATM    4  O3  UNL     1       7.129   7.564  10.784  1.00  0.00    -0.292 OA
BRANCH   3   5
HETATM    5  C19 UNL     1       5.794   7.774  12.832  1.00  0.00     0.128 C 
HETATM    6  C14 UNL     1       6.161   9.242  13.235  1.00  0.00    -0.002 C 
HETATM    7  C13 UNL     1       5.514   9.620  14.601  1.00  0.00     0.013 C 
HETATM    8  C15 UNL     1       5.714  10.272  12.181  1.00  0.00     0.019 C 
HETATM    9  C16 UNL     1       7.698   9.172  13.370  1.00  0.00     0.002 C 
HETATM   10  C12 UNL     1       6.139  10.846  15.272  1.00  0.00     0.007 C 
HETATM   11  C11 UNL     1       7.656  10.680  15.473  1.00  0.00     0.002 C 
HETATM   12  C2  UNL     1       8.339  11.888  16.216  1.00  0.00    -0.016 C 
HETATM   13  C10 UNL     1       8.328  10.380  14.098  1.00  0.00    -0.004 C 
HETATM   14  C1  UNL     1       8.120  13.228  15.465  1.00  0.00     0.020 C 
HETATM   15  C3  UNL     1       7.785  12.122  17.653  1.00  0.00     0.022 C 
HETATM   16  C7  UNL     1       9.832  11.552  16.282  1.00  0.00    -0.068 C 
HETATM   17  C4  UNL     1       8.271  11.109  18.675  1.00  0.00     0.084 C 
HETATM   18  C5  UNL     1       9.778  11.088  18.700  1.00  0.00     0.149 C 
HETATM   19  O1  UNL     1      10.421  10.837  19.719  1.00  0.00    -0.293 OA
HETATM   20  C6  UNL     1      10.495  11.252  17.414  1.00  0.00     0.053 C 
HETATM   21  C8  UNL     1      10.517  11.388  14.948  1.00  0.00     0.035 C 
HETATM   22  C9  UNL     1       9.859  10.225  14.207  1.00  0.00     0.010 C 
HETATM   23  C17 UNL     1       7.957   7.794  14.007  1.00  0.00     0.009 C 
HETATM   24  C18 UNL     1       6.742   6.916  13.690  1.00  0.00     0.047 C 
BRANCH   5  25
HETATM   25  O2  UNL     1       4.446   7.485  13.199  1.00  0.00    -0.381 OA
HETATM   26  H27 UNL     1       3.871   8.155  12.780  1.00  0.00     0.211 HD
ENDBRANCH   5  25
ENDBRANCH   3   5
ENDBRANCH   2   3
ENDBRANCH   1   2
BRANCH   1  27
HETATM   27  C22 UNL     1       2.986   6.977   9.317  1.00  0.00     0.259 C 
HETATM   28  O5  UNL     1       2.694   7.066   8.128  1.00  0.00    -0.265 OA
BRANCH  27  29
HETATM   29  C23 UNL     1       2.239   6.091  10.289  1.00  0.00     0.120 C 
BRANCH  29  30
HETATM   30  C24 UNL     1       0.780   6.479  10.511  1.00  0.00     0.112 C 
BRANCH  30  31
HETATM   31  C25 UNL     1       0.043   5.464  11.359  1.00  0.00     0.218 C 
HETATM   32  O6  UNL     1       0.245   4.254  11.296  1.00  0.00    -0.274 OA
HETATM   33  N1  UNL     1      -0.855   6.034  12.223  1.00  0.00    -0.346 N 
HETATM   34  H34 UNL     1      -0.900   7.044  12.335  1.00  0.00     0.163 HD
BRANCH  33  35
HETATM   35  C26 UNL     1      -1.714   5.232  13.108  1.00  0.00     0.186 C 
BRANCH  35  36
HETATM   36  C27 UNL     1      -3.173   5.339  12.650  1.00  0.00     0.077 C 
BRANCH  36  37
HETATM   37  C28 UNL     1      -3.746   4.063  12.116  1.00  0.00    -0.028 A 
HETATM   38  C29 UNL     1      -3.097   3.170  11.284  1.00  0.00     0.096 A 
HETATM   39  N2  UNL     1      -3.954   2.144  11.000  1.00  0.00    -0.365 N 
HETATM   40  C30 UNL     1      -5.161   2.344  11.628  1.00  0.00     0.043 A 
HETATM   41  H39 UNL     1      -3.738   1.353  10.409  1.00  0.00     0.165 HD
HETATM   42  C31 UNL     1      -6.321   1.559  11.620  1.00  0.00     0.033 A 
HETATM   43  C35 UNL     1      -5.062   3.544  12.334  1.00  0.00     0.001 A 
HETATM   44  C32 UNL     1      -7.418   2.015  12.359  1.00  0.00     0.039 A 
HETATM   45  C33 UNL     1      -7.340   3.206  13.071  1.00  0.00     0.066 A 
HETATM   46  C34 UNL     1      -6.182   3.983  13.070  1.00  0.00     0.050 A 
BRANCH  45  47
HETATM   47  O7  UNL     1      -8.404   3.663  13.800  1.00  0.00    -0.361 OA
HETATM   48  H42 UNL     1      -9.116   3.003  13.748  1.00  0.00     0.217 HD
ENDBRANCH  45  47
ENDBRANCH  36  37
ENDBRANCH  35  36
BRANCH  35  49
HETATM   49  C36 UNL     1      -1.567   5.745  14.543  1.00  0.00     0.163 C 
HETATM   50  O8  UNL     1      -2.358   6.427  15.175  1.00  0.00    -0.648 OA
BRANCH  49  51
HETATM   51  O9  UNL     1      -0.385   5.402  15.119  1.00  0.00    -0.775 OA
HETATM   52  H44 UNL     1      -0.458   5.810  16.010  1.00  0.00     0.167 HD
ENDBRANCH  49  51
ENDBRANCH  35  49
ENDBRANCH  33  35
ENDBRANCH  30  31
ENDBRANCH  29  30
ENDBRANCH  27  29
ENDBRANCH   1  27
TORSDOF 14
ENDMDL
MODEL 9
REMARK minimizedAffinity -8.54167461
REMARK CNNscore 0.255791098
REMARK CNNaffinity 5.89138603
REMARK  14 active torsions:
REMARK  status: ('A' for Active; 'I' for Inactive)
REMARK    1  A    between atoms: C19_20  and  O2_21 
REMARK    2  A    between atoms: C19_20  and  C20_22 
REMARK    3  A    between atoms: C20_22  and  C21_24 
REMARK    4  A    between atoms: C21_24  and  O4_25 
REMARK    5  A    between atoms: O4_25  and  C22_26 
REMARK    6  A    between atoms: C22_26  and  C23_28 
REMARK    7  A    between atoms: C23_28  and  C24_29 
REMARK    8  A    between atoms: C24_29  and  C25_30 
REMARK       I    between atoms: C25_30  and  N1_32 
REMARK    9  A    between atoms: N1_32  and  C26_33 
REMARK   10  A    between atoms: C26_33  and  C27_34 
REMARK   11  A    between atoms: C26_33  and  C36_45 
REMARK   12  A    between atoms: C27_34  and  C28_35 
REMARK   13  A    between atoms: C33_41  and  O7_42 
REMARK   14  A    between atoms: C36_45  and  O9_47 
ROOT
HETATM    1  O4  UNL     1      -0.229  11.274  16.868  1.00  0.00    -0.314 OA
ENDROOT
BRANCH   1   2
HETATM    2  C21 UNL     1       0.051  12.112  17.991  1.00  0.00     0.260 C 
BRANCH   2   3
HETATM    3  C20 UNL     1       1.028  11.457  18.974  1.00  0.00     0.185 C 
HETATM    4  O3  UNL     1       0.614  10.942  20.017  1.00  0.00    -0.292 OA
BRANCH   3   5
HETATM    5  C19 UNL     1       2.545  11.579  18.643  1.00  0.00     0.128 C 
HETATM    6  C14 UNL     1       3.529  11.399  19.847  1.00  0.00    -0.002 C 
HETATM    7  C13 UNL     1       4.981  11.146  19.344  1.00  0.00     0.013 C 
HETATM    8  C15 UNL     1       3.123  10.234  20.771  1.00  0.00     0.019 C 
HETATM    9  C16 UNL     1       3.436  12.768  20.556  1.00  0.00     0.002 C 
HETATM   10  C12 UNL     1       6.061  11.374  20.405  1.00  0.00     0.007 C 
HETATM   11  C11 UNL     1       5.985  12.789  21.007  1.00  0.00     0.002 C 
HETATM   12  C2  UNL     1       7.113  13.098  22.061  1.00  0.00    -0.016 C 
HETATM   13  C10 UNL     1       4.557  13.026  21.588  1.00  0.00    -0.004 C 
HETATM   14  C1  UNL     1       7.089  12.094  23.244  1.00  0.00     0.020 C 
HETATM   15  C3  UNL     1       8.551  13.008  21.469  1.00  0.00     0.022 C 
HETATM   16  C7  UNL     1       6.843  14.519  22.562  1.00  0.00    -0.068 C 
HETATM   17  C4  UNL     1       8.933  14.187  20.591  1.00  0.00     0.084 C 
HETATM   18  C5  UNL     1       8.769  15.474  21.360  1.00  0.00     0.149 C 
HETATM   19  O1  UNL     1       9.478  16.460  21.160  1.00  0.00    -0.293 OA
HETATM   20  C6  UNL     1       7.627  15.581  22.297  1.00  0.00     0.053 C 
HETATM   21  C8  UNL     1       5.513  14.724  23.242  1.00  0.00     0.035 C 
HETATM   22  C9  UNL     1       4.404  14.418  22.236  1.00  0.00     0.010 C 
HETATM   23  C17 UNL     1       3.337  13.783  19.403  1.00  0.00     0.009 C 
HETATM   24  C18 UNL     1       2.798  13.027  18.184  1.00  0.00     0.047 C 
BRANCH   5  25
HETATM   25  O2  UNL     1       2.893  10.689  17.585  1.00  0.00    -0.381 OA
HETATM   26  H27 UNL     1       2.897   9.781  17.945  1.00  0.00     0.211 HD
ENDBRANCH   5  25
ENDBRANCH   3   5
ENDBRANCH   2   3
ENDBRANCH   1   2
BRANCH   1  27
HETATM   27  C22 UNL     1      -1.392  10.573  16.997  1.00  0.00     0.259 C 
HETATM   28  O5  UNL     1      -2.331  10.909  17.713  1.00  0.00    -0.265 OA
BRANCH  27  29
HETATM   29  C23 UNL     1      -1.441   9.375  16.074  1.00  0.00     0.120 C 
BRANCH  29  30
HETATM   30  C24 UNL     1      -2.294   8.216  16.581  1.00  0.00     0.112 C 
BRANCH  30  31
HETATM   31  C25 UNL     1      -3.342   7.797  15.573  1.00  0.00     0.218 C 
HETATM   32  O6  UNL     1      -3.637   8.463  14.584  1.00  0.00    -0.274 OA
HETATM   33  N1  UNL     1      -3.914   6.585  15.862  1.00  0.00    -0.346 N 
HETATM   34  H34 UNL     1      -3.553   6.007  16.617  1.00  0.00     0.163 HD
BRANCH  33  35
HETATM   35  C26 UNL     1      -4.989   6.006  15.042  1.00  0.00     0.186 C 
BRANCH  35  36
HETATM   36  C27 UNL     1      -4.660   6.187  13.555  1.00  0.00     0.077 C 
BRANCH  36  37
HETATM   37  C28 UNL     1      -4.296   4.920  12.847  1.00  0.00    -0.028 A 
HETATM   38  C29 UNL     1      -3.050   4.607  12.338  1.00  0.00     0.096 A 
HETATM   39  N2  UNL     1      -3.122   3.376  11.747  1.00  0.00    -0.365 N 
HETATM   40  C30 UNL     1      -4.397   2.870  11.854  1.00  0.00     0.043 A 
HETATM   41  H39 UNL     1      -2.354   2.905  11.291  1.00  0.00     0.165 HD
HETATM   42  C31 UNL     1      -4.925   1.656  11.398  1.00  0.00     0.033 A 
HETATM   43  C35 UNL     1      -5.159   3.820  12.537  1.00  0.00     0.001 A 
HETATM   44  C32 UNL     1      -6.278   1.401  11.649  1.00  0.00     0.039 A 
HETATM   45  C33 UNL     1      -7.054   2.333  12.329  1.00  0.00     0.066 A 
HETATM   46  C34 UNL     1      -6.520   3.542  12.776  1.00  0.00     0.050 A 
BRANCH  45  47
HETATM   47  O7  UNL     1      -8.377   2.096  12.584  1.00  0.00    -0.361 OA
HETATM   48  H42 UNL     1      -8.596   1.206  12.261  1.00  0.00     0.217 HD
ENDBRANCH  45  47
ENDBRANCH  36  37
ENDBRANCH  35  36
BRANCH  35  49
HETATM   49  C36 UNL     1      -6.308   6.703  15.385  1.00  0.00     0.163 C 
HETATM   50  O8  UNL     1      -7.073   7.269  14.619  1.00  0.00    -0.648 OA
BRANCH  49  51
HETATM   51  O9  UNL     1      -6.594   6.692  16.713  1.00  0.00    -0.775 OA
HETATM   52  H44 UNL     1      -7.448   7.177  16.750  1.00  0.00     0.167 HD
ENDBRANCH  49  51
ENDBRANCH  35  49
ENDBRANCH  33  35
ENDBRANCH  30  31
ENDBRANCH  29  30
ENDBRANCH  27  29
ENDBRANCH   1  27
TORSDOF 14
ENDMDL
