MODEL 1
REMARK minimizedAffinity -10.0553551
REMARK  7 active torsions:
REMARK  status: ('A' for Active; 'I' for Inactive)
REMARK    1  A    between atoms: C2_2  and  C4_4 
REMARK    2  A    between atoms: C4_4  and  C6_6 
REMARK    3  A    between atoms: C7_7  and  C8_8 
REMARK    4  A    between atoms: C8_8  and  C10_10 
REMARK    5  A    between atoms: C17_17  and  O1_18 
REMARK    6  A    between atoms: C22_23  and  O2_24 
REMARK    7  A    between atoms: C24_26  and  O3_27 
ROOT
HETATM    1  C10 UNL     1      -0.919  49.068 -20.158  1.00  0.00     0.004 C 
HETATM    2  C11 UNL     1      -1.550  47.707 -20.515  1.00  0.00     0.007 C 
HETATM    3  C12 UNL     1      -1.979  47.805 -21.985  1.00  0.00     0.009 C 
HETATM    4  C13 UNL     1      -1.551  49.205 -22.467  1.00  0.00     0.038 C 
HETATM    5  C14 UNL     1      -1.529  50.039 -21.189  1.00  0.00    -0.008 C 
HETATM    6  C15 UNL     1      -0.693  51.310 -21.450  1.00  0.00     0.016 C 
HETATM    7  C16 UNL     1      -0.614  51.690 -22.946  1.00  0.00     0.043 C 
HETATM    8  C17 UNL     1      -1.966  51.501 -23.674  1.00  0.00     0.103 C 
HETATM    9  C18 UNL     1      -1.991  51.812 -25.254  1.00  0.00     0.025 C 
HETATM   10  C19 UNL     1      -3.419  52.372 -25.609  1.00  0.00     0.022 C 
HETATM   11  C20 UNL     1      -0.998  52.939 -25.687  1.00  0.00     0.018 C 
HETATM   12  C21 UNL     1       0.471  52.530 -25.845  1.00  0.00     0.033 C 
HETATM   13  C22 UNL     1       0.662  51.244 -26.639  1.00  0.00     0.121 C 
HETATM   14  C23 UNL     1      -0.248  50.112 -26.155  1.00  0.00     0.074 C 
HETATM   15  C24 UNL     1      -1.729  50.536 -26.131  1.00  0.00     0.088 C 
HETATM   16  C25 UNL     1      -2.606  49.395 -25.710  1.00  0.00     0.010 C 
HETATM   17  C26 UNL     1      -3.026  49.210 -24.452  1.00  0.00     0.013 C 
HETATM   18  C27 UNL     1      -2.552  50.037 -23.297  1.00  0.00     0.115 C 
HETATM   19  O4  UNL     1      -3.634  50.209 -22.358  1.00  0.00    -0.372 OA
HETATM   20  C28 UNL     1      -3.037  50.350 -21.048  1.00  0.00     0.179 C 
ENDROOT
BRANCH   1  21
HETATM   21  C8  UNL     1      -0.949  49.390 -18.642  1.00  0.00     0.009 C 
HETATM   22  C9  UNL     1      -2.329  49.557 -18.004  1.00  0.00     0.014 C 
BRANCH  21  23
HETATM   23  C7  UNL     1      -0.122  50.616 -18.315  1.00  0.00    -0.026 C 
HETATM   24  C6  UNL     1       0.380  50.878 -17.098  1.00  0.00    -0.026 C 
BRANCH  24  25
HETATM   25  C4  UNL     1       1.205  52.103 -16.773  1.00  0.00     0.007 C 
HETATM   26  C5  UNL     1       1.470  52.886 -18.064  1.00  0.00     0.014 C 
BRANCH  25  27
HETATM   27  C2  UNL     1       2.517  51.783 -16.004  1.00  0.00    -0.015 C 
HETATM   28  C1  UNL     1       2.330  51.563 -14.500  1.00  0.00     0.010 C 
HETATM   29  C3  UNL     1       3.580  52.865 -16.235  1.00  0.00     0.010 C 
ENDBRANCH  25  27
ENDBRANCH  24  25
ENDBRANCH  21  23
ENDBRANCH   1  21
BRANCH   8  30
HETATM   30  O1  UNL     1      -2.782  52.529 -23.031  1.00  0.00    -0.385 OA
HETATM   31  H28 UNL     1      -2.442  53.402 -23.285  1.00  0.00     0.210 HD
ENDBRANCH   8  30
BRANCH  15  32
HETATM   32  O3  UNL     1      -2.130  50.792 -27.487  1.00  0.00    -0.385 OA
HETATM   33  H40 UNL     1      -1.354  51.153 -27.964  1.00  0.00     0.211 HD
ENDBRANCH  15  32
BRANCH  13  34
HETATM   34  O2  UNL     1       0.365  51.512 -28.014  1.00  0.00    -0.395 OA
HETATM   35  H37 UNL     1       1.069  52.095 -28.354  1.00  0.00     0.210 HD
ENDBRANCH  13  34
TORSDOF 7
ENDMDL
MODEL 2
REMARK minimizedAffinity -9.56615639
REMARK  7 active torsions:
REMARK  status: ('A' for Active; 'I' for Inactive)
REMARK    1  A    between atoms: C2_2  and  C4_4 
REMARK    2  A    between atoms: C4_4  and  C6_6 
REMARK    3  A    between atoms: C7_7  and  C8_8 
REMARK    4  A    between atoms: C8_8  and  C10_10 
REMARK    5  A    between atoms: C17_17  and  O1_18 
REMARK    6  A    between atoms: C22_23  and  O2_24 
REMARK    7  A    between atoms: C24_26  and  O3_27 
ROOT
HETATM    1  C10 UNL     1      -0.678  52.611 -21.077  1.00  0.00     0.004 C 
HETATM    2  C11 UNL     1      -0.066  52.420 -22.479  1.00  0.00     0.007 C 
HETATM    3  C12 UNL     1      -0.910  51.343 -23.173  1.00  0.00     0.009 C 
HETATM    4  C13 UNL     1      -2.022  50.958 -22.177  1.00  0.00     0.038 C 
HETATM    5  C14 UNL     1      -1.418  51.283 -20.814  1.00  0.00    -0.008 C 
HETATM    6  C15 UNL     1      -2.563  51.377 -19.783  1.00  0.00     0.016 C 
HETATM    7  C16 UNL     1      -3.827  50.595 -20.205  1.00  0.00     0.043 C 
HETATM    8  C17 UNL     1      -3.488  49.229 -20.849  1.00  0.00     0.103 C 
HETATM    9  C18 UNL     1      -4.726  48.348 -21.381  1.00  0.00     0.025 C 
HETATM   10  C19 UNL     1      -4.347  46.831 -21.200  1.00  0.00     0.022 C 
HETATM   11  C20 UNL     1      -6.035  48.538 -20.548  1.00  0.00     0.018 C 
HETATM   12  C21 UNL     1      -6.864  49.792 -20.855  1.00  0.00     0.033 C 
HETATM   13  C22 UNL     1      -7.078  50.028 -22.345  1.00  0.00     0.121 C 
HETATM   14  C23 UNL     1      -5.780  49.931 -23.149  1.00  0.00     0.074 C 
HETATM   15  C24 UNL     1      -5.046  48.600 -22.899  1.00  0.00     0.088 C 
HETATM   16  C25 UNL     1      -3.809  48.502 -23.741  1.00  0.00     0.010 C 
HETATM   17  C26 UNL     1      -2.587  48.827 -23.300  1.00  0.00     0.013 C 
HETATM   18  C27 UNL     1      -2.336  49.461 -21.967  1.00  0.00     0.115 C 
HETATM   19  O4  UNL     1      -1.085  48.974 -21.436  1.00  0.00    -0.372 OA
HETATM   20  C28 UNL     1      -0.543  50.025 -20.603  1.00  0.00     0.179 C 
ENDROOT
BRANCH   1  21
HETATM   21  C8  UNL     1       0.315  53.190 -20.037  1.00  0.00     0.009 C 
HETATM   22  C9  UNL     1       1.648  53.709 -20.577  1.00  0.00     0.014 C 
BRANCH  21  23
HETATM   23  C7  UNL     1       0.604  52.199 -18.929  1.00  0.00    -0.026 C 
HETATM   24  C6  UNL     1       1.089  52.543 -17.724  1.00  0.00    -0.026 C 
BRANCH  24  25
HETATM   25  C4  UNL     1       1.377  51.552 -16.619  1.00  0.00     0.007 C 
HETATM   26  C5  UNL     1       0.060  51.158 -15.942  1.00  0.00     0.014 C 
BRANCH  25  27
HETATM   27  C2  UNL     1       2.433  52.055 -15.594  1.00  0.00    -0.015 C 
HETATM   28  C1  UNL     1       3.777  52.448 -16.214  1.00  0.00     0.010 C 
HETATM   29  C3  UNL     1       2.664  51.026 -14.479  1.00  0.00     0.010 C 
ENDBRANCH  25  27
ENDBRANCH  24  25
ENDBRANCH  21  23
ENDBRANCH   1  21
BRANCH   8  30
HETATM   30  O1  UNL     1      -2.921  48.510 -19.711  1.00  0.00    -0.385 OA
HETATM   31  H28 UNL     1      -3.623  48.351 -19.060  1.00  0.00     0.210 HD
ENDBRANCH   8  30
BRANCH  15  32
HETATM   32  O3  UNL     1      -5.881  47.542 -23.397  1.00  0.00    -0.385 OA
HETATM   33  H40 UNL     1      -6.815  47.811 -23.263  1.00  0.00     0.211 HD
ENDBRANCH  15  32
BRANCH  13  34
HETATM   34  O2  UNL     1      -7.993  49.041 -22.834  1.00  0.00    -0.395 OA
HETATM   35  H37 UNL     1      -8.866  49.237 -22.446  1.00  0.00     0.210 HD
ENDBRANCH  13  34
TORSDOF 7
ENDMDL
MODEL 3
REMARK minimizedAffinity -9.29869366
REMARK  7 active torsions:
REMARK  status: ('A' for Active; 'I' for Inactive)
REMARK    1  A    between atoms: C2_2  and  C4_4 
REMARK    2  A    between atoms: C4_4  and  C6_6 
REMARK    3  A    between atoms: C7_7  and  C8_8 
REMARK    4  A    between atoms: C8_8  and  C10_10 
REMARK    5  A    between atoms: C17_17  and  O1_18 
REMARK    6  A    between atoms: C22_23  and  O2_24 
REMARK    7  A    between atoms: C24_26  and  O3_27 
ROOT
HETATM    1  C10 UNL     1      -0.534  50.729 -21.516  1.00  0.00     0.004 C 
HETATM    2  C11 UNL     1      -0.053  49.566 -20.625  1.00  0.00     0.007 C 
HETATM    3  C12 UNL     1      -1.295  48.720 -20.314  1.00  0.00     0.009 C 
HETATM    4  C13 UNL     1      -2.467  49.384 -21.064  1.00  0.00     0.038 C 
HETATM    5  C14 UNL     1      -2.038  50.842 -21.193  1.00  0.00    -0.008 C 
HETATM    6  C15 UNL     1      -2.887  51.505 -22.300  1.00  0.00     0.016 C 
HETATM    7  C16 UNL     1      -4.232  50.786 -22.546  1.00  0.00     0.043 C 
HETATM    8  C17 UNL     1      -4.909  50.336 -21.230  1.00  0.00     0.103 C 
HETATM    9  C18 UNL     1      -6.294  49.525 -21.364  1.00  0.00     0.025 C 
HETATM   10  C19 UNL     1      -7.183  49.885 -20.116  1.00  0.00     0.022 C 
HETATM   11  C20 UNL     1      -7.150  49.947 -22.602  1.00  0.00     0.018 C 
HETATM   12  C21 UNL     1      -6.733  49.355 -23.954  1.00  0.00     0.033 C 
HETATM   13  C22 UNL     1      -6.473  47.854 -23.905  1.00  0.00     0.121 C 
HETATM   14  C23 UNL     1      -5.560  47.452 -22.744  1.00  0.00     0.074 C 
HETATM   15  C24 UNL     1      -6.089  47.968 -21.392  1.00  0.00     0.088 C 
HETATM   16  C25 UNL     1      -5.211  47.513 -20.265  1.00  0.00     0.010 C 
HETATM   17  C26 UNL     1      -4.231  48.261 -19.742  1.00  0.00     0.013 C 
HETATM   18  C27 UNL     1      -3.805  49.576 -20.318  1.00  0.00     0.115 C 
HETATM   19  O4  UNL     1      -3.414  50.461 -19.246  1.00  0.00    -0.372 OA
HETATM   20  C28 UNL     1      -2.413  51.356 -19.783  1.00  0.00     0.179 C 
ENDROOT
BRANCH   1  21
HETATM   21  C8  UNL     1       0.389  51.973 -21.469  1.00  0.00     0.009 C 
HETATM   22  C9  UNL     1      -0.011  53.087 -20.502  1.00  0.00     0.014 C 
BRANCH  21  23
HETATM   23  C7  UNL     1       0.577  52.581 -22.843  1.00  0.00    -0.026 C 
HETATM   24  C6  UNL     1       0.476  51.888 -23.989  1.00  0.00    -0.026 C 
BRANCH  24  25
HETATM   25  C4  UNL     1       0.665  52.497 -25.361  1.00  0.00     0.007 C 
HETATM   26  C5  UNL     1      -0.618  53.232 -25.763  1.00  0.00     0.014 C 
BRANCH  25  27
HETATM   27  C2  UNL     1       1.113  51.471 -26.439  1.00  0.00    -0.015 C 
HETATM   28  C1  UNL     1       2.614  51.491 -26.744  1.00  0.00     0.010 C 
HETATM   29  C3  UNL     1       0.323  51.649 -27.743  1.00  0.00     0.010 C 
ENDBRANCH  25  27
ENDBRANCH  24  25
ENDBRANCH  21  23
ENDBRANCH   1  21
BRANCH   8  30
HETATM   30  O1  UNL     1      -5.236  51.624 -20.622  1.00  0.00    -0.385 OA
HETATM   31  H28 UNL     1      -5.918  52.059 -21.158  1.00  0.00     0.210 HD
ENDBRANCH   8  30
BRANCH  15  32
HETATM   32  O3  UNL     1      -7.341  47.312 -21.135  1.00  0.00    -0.385 OA
HETATM   33  H40 UNL     1      -7.783  47.165 -21.998  1.00  0.00     0.211 HD
ENDBRANCH  15  32
BRANCH  13  34
HETATM   34  O2  UNL     1      -7.728  47.181 -23.754  1.00  0.00    -0.395 OA
HETATM   35  H37 UNL     1      -8.222  47.298 -24.586  1.00  0.00     0.210 HD
ENDBRANCH  13  34
TORSDOF 7
ENDMDL
MODEL 4
REMARK minimizedAffinity -9.09463501
REMARK  7 active torsions:
REMARK  status: ('A' for Active; 'I' for Inactive)
REMARK    1  A    between atoms: C2_2  and  C4_4 
REMARK    2  A    between atoms: C4_4  and  C6_6 
REMARK    3  A    between atoms: C7_7  and  C8_8 
REMARK    4  A    between atoms: C8_8  and  C10_10 
REMARK    5  A    between atoms: C17_17  and  O1_18 
REMARK    6  A    between atoms: C22_23  and  O2_24 
REMARK    7  A    between atoms: C24_26  and  O3_27 
ROOT
HETATM    1  C10 UNL     1      -1.284  51.763 -22.695  1.00  0.00     0.004 C 
HETATM    2  C11 UNL     1      -2.764  52.088 -22.974  1.00  0.00     0.007 C 
HETATM    3  C12 UNL     1      -3.562  51.502 -21.801  1.00  0.00     0.009 C 
HETATM    4  C13 UNL     1      -2.525  50.883 -20.842  1.00  0.00     0.038 C 
HETATM    5  C14 UNL     1      -1.346  50.546 -21.749  1.00  0.00    -0.008 C 
HETATM    6  C15 UNL     1      -0.093  50.350 -20.868  1.00  0.00     0.016 C 
HETATM    7  C16 UNL     1      -0.430  49.971 -19.409  1.00  0.00     0.043 C 
HETATM    8  C17 UNL     1      -1.595  48.958 -19.316  1.00  0.00     0.103 C 
HETATM    9  C18 UNL     1      -2.073  48.530 -17.839  1.00  0.00     0.025 C 
HETATM   10  C19 UNL     1      -2.568  47.038 -17.909  1.00  0.00     0.022 C 
HETATM   11  C20 UNL     1      -0.919  48.522 -16.785  1.00  0.00     0.018 C 
HETATM   12  C21 UNL     1      -0.516  49.883 -16.204  1.00  0.00     0.033 C 
HETATM   13  C22 UNL     1      -1.703  50.733 -15.766  1.00  0.00     0.121 C 
HETATM   14  C23 UNL     1      -2.794  50.814 -16.837  1.00  0.00     0.074 C 
HETATM   15  C24 UNL     1      -3.252  49.418 -17.299  1.00  0.00     0.088 C 
HETATM   16  C25 UNL     1      -4.361  49.522 -18.303  1.00  0.00     0.010 C 
HETATM   17  C26 UNL     1      -4.165  49.485 -19.627  1.00  0.00     0.013 C 
HETATM   18  C27 UNL     1      -2.807  49.482 -20.258  1.00  0.00     0.115 C 
HETATM   19  O4  UNL     1      -2.837  48.671 -21.452  1.00  0.00    -0.372 OA
HETATM   20  C28 UNL     1      -1.848  49.214 -22.356  1.00  0.00     0.179 C 
ENDROOT
BRANCH   1  21
HETATM   21  C8  UNL     1      -0.400  51.740 -23.969  1.00  0.00     0.009 C 
HETATM   22  C9  UNL     1       0.466  52.973 -24.225  1.00  0.00     0.014 C 
BRANCH  21  23
HETATM   23  C7  UNL     1      -1.221  51.467 -25.212  1.00  0.00    -0.026 C 
HETATM   24  C6  UNL     1      -1.431  50.240 -25.717  1.00  0.00    -0.026 C 
BRANCH  24  25
HETATM   25  C4  UNL     1      -2.250  49.970 -26.959  1.00  0.00     0.007 C 
HETATM   26  C5  UNL     1      -3.091  51.209 -27.285  1.00  0.00     0.014 C 
BRANCH  25  27
HETATM   27  C2  UNL     1      -3.118  48.684 -26.863  1.00  0.00    -0.015 C 
HETATM   28  C1  UNL     1      -4.260  48.615 -27.881  1.00  0.00     0.010 C 
HETATM   29  C3  UNL     1      -3.680  48.493 -25.448  1.00  0.00     0.010 C 
ENDBRANCH  25  27
ENDBRANCH  24  25
ENDBRANCH  21  23
ENDBRANCH   1  21
BRANCH   8  30
HETATM   30  O1  UNL     1      -0.991  47.772 -19.920  1.00  0.00    -0.385 OA
HETATM   31  H28 UNL     1      -0.286  47.449 -19.337  1.00  0.00     0.210 HD
ENDBRANCH   8  30
BRANCH  15  32
HETATM   32  O3  UNL     1      -3.869  48.767 -16.176  1.00  0.00    -0.385 OA
HETATM   33  H40 UNL     1      -3.407  49.071 -15.366  1.00  0.00     0.211 HD
ENDBRANCH  15  32
BRANCH  13  34
HETATM   34  O2  UNL     1      -2.265  50.152 -14.584  1.00  0.00    -0.395 OA
HETATM   35  H37 UNL     1      -1.620  50.278 -13.865  1.00  0.00     0.210 HD
ENDBRANCH  13  34
TORSDOF 7
ENDMDL
MODEL 5
REMARK minimizedAffinity -8.96874523
REMARK  7 active torsions:
REMARK  status: ('A' for Active; 'I' for Inactive)
REMARK    1  A    between atoms: C2_2  and  C4_4 
REMARK    2  A    between atoms: C4_4  and  C6_6 
REMARK    3  A    between atoms: C7_7  and  C8_8 
REMARK    4  A    between atoms: C8_8  and  C10_10 
REMARK    5  A    between atoms: C17_17  and  O1_18 
REMARK    6  A    between atoms: C22_23  and  O2_24 
REMARK    7  A    between atoms: C24_26  and  O3_27 
ROOT
HETATM    1  C10 UNL     1      -2.421  49.308 -26.262  1.00  0.00     0.004 C 
HETATM    2  C11 UNL     1      -1.328  50.371 -26.492  1.00  0.00     0.007 C 
HETATM    3  C12 UNL     1      -0.996  50.952 -25.111  1.00  0.00     0.009 C 
HETATM    4  C13 UNL     1      -1.872  50.187 -24.100  1.00  0.00     0.038 C 
HETATM    5  C14 UNL     1      -3.070  49.730 -24.928  1.00  0.00    -0.008 C 
HETATM    6  C15 UNL     1      -3.782  48.590 -24.168  1.00  0.00     0.016 C 
HETATM    7  C16 UNL     1      -3.511  48.611 -22.647  1.00  0.00     0.043 C 
HETATM    8  C17 UNL     1      -3.528  50.044 -22.065  1.00  0.00     0.103 C 
HETATM    9  C18 UNL     1      -3.202  50.196 -20.495  1.00  0.00     0.025 C 
HETATM   10  C19 UNL     1      -4.031  51.418 -19.950  1.00  0.00     0.022 C 
HETATM   11  C20 UNL     1      -3.671  48.976 -19.637  1.00  0.00     0.018 C 
HETATM   12  C21 UNL     1      -2.763  47.741 -19.652  1.00  0.00     0.033 C 
HETATM   13  C22 UNL     1      -1.289  48.068 -19.448  1.00  0.00     0.121 C 
HETATM   14  C23 UNL     1      -0.807  49.203 -20.355  1.00  0.00     0.074 C 
HETATM   15  C24 UNL     1      -1.680  50.464 -20.211  1.00  0.00     0.088 C 
HETATM   16  C25 UNL     1      -1.155  51.581 -21.064  1.00  0.00     0.010 C 
HETATM   17  C26 UNL     1      -1.618  51.855 -22.290  1.00  0.00     0.013 C 
HETATM   18  C27 UNL     1      -2.609  50.992 -23.007  1.00  0.00     0.115 C 
HETATM   19  O4  UNL     1      -3.482  51.825 -23.800  1.00  0.00    -0.372 OA
HETATM   20  C28 UNL     1      -3.901  51.035 -24.936  1.00  0.00     0.179 C 
ENDROOT
BRANCH   1  21
HETATM   21  C8  UNL     1      -3.287  49.024 -27.516  1.00  0.00     0.009 C 
HETATM   22  C9  UNL     1      -3.533  50.201 -28.460  1.00  0.00     0.014 C 
BRANCH  21  23
HETATM   23  C7  UNL     1      -4.627  48.424 -27.144  1.00  0.00    -0.026 C 
HETATM   24  C6  UNL     1      -5.545  48.030 -28.041  1.00  0.00    -0.026 C 
BRANCH  24  25
HETATM   25  C4  UNL     1      -6.883  47.431 -27.669  1.00  0.00     0.007 C 
HETATM   26  C5  UNL     1      -7.000  47.375 -26.141  1.00  0.00     0.014 C 
BRANCH  25  27
HETATM   27  C2  UNL     1      -7.149  46.047 -28.326  1.00  0.00    -0.015 C 
HETATM   28  C1  UNL     1      -6.720  45.953 -29.793  1.00  0.00     0.010 C 
HETATM   29  C3  UNL     1      -8.623  45.640 -28.195  1.00  0.00     0.010 C 
ENDBRANCH  25  27
ENDBRANCH  24  25
ENDBRANCH  21  23
ENDBRANCH   1  21
BRANCH   8  30
HETATM   30  O1  UNL     1      -4.933  50.406 -22.237  1.00  0.00    -0.385 OA
HETATM   31  H28 UNL     1      -5.473  49.854 -21.649  1.00  0.00     0.210 HD
ENDBRANCH   8  30
BRANCH  15  32
HETATM   32  O3  UNL     1      -1.519  50.955 -18.871  1.00  0.00    -0.385 OA
HETATM   33  H40 UNL     1      -1.385  50.181 -18.284  1.00  0.00     0.211 HD
ENDBRANCH  15  32
BRANCH  13  34
HETATM   34  O2  UNL     1      -1.095  48.460 -18.085  1.00  0.00    -0.395 OA
HETATM   35  H37 UNL     1      -1.229  47.667 -17.534  1.00  0.00     0.210 HD
ENDBRANCH  13  34
TORSDOF 7
ENDMDL
MODEL 6
REMARK minimizedAffinity -8.93701744
REMARK  7 active torsions:
REMARK  status: ('A' for Active; 'I' for Inactive)
REMARK    1  A    between atoms: C2_2  and  C4_4 
REMARK    2  A    between atoms: C4_4  and  C6_6 
REMARK    3  A    between atoms: C7_7  and  C8_8 
REMARK    4  A    between atoms: C8_8  and  C10_10 
REMARK    5  A    between atoms: C17_17  and  O1_18 
REMARK    6  A    between atoms: C22_23  and  O2_24 
REMARK    7  A    between atoms: C24_26  and  O3_27 
ROOT
HETATM    1  C10 UNL     1      -3.405  50.898 -24.587  1.00  0.00     0.004 C 
HETATM    2  C11 UNL     1      -4.918  51.142 -24.415  1.00  0.00     0.007 C 
HETATM    3  C12 UNL     1      -5.247  50.785 -22.959  1.00  0.00     0.009 C 
HETATM    4  C13 UNL     1      -3.913  50.381 -22.302  1.00  0.00     0.038 C 
HETATM    5  C14 UNL     1      -3.065  49.890 -23.471  1.00  0.00    -0.008 C 
HETATM    6  C15 UNL     1      -1.584  49.887 -23.034  1.00  0.00     0.016 C 
HETATM    7  C16 UNL     1      -1.403  49.797 -21.502  1.00  0.00     0.043 C 
HETATM    8  C17 UNL     1      -2.395  48.805 -20.849  1.00  0.00     0.103 C 
HETATM    9  C18 UNL     1      -2.338  48.668 -19.245  1.00  0.00     0.025 C 
HETATM   10  C19 UNL     1      -2.711  47.184 -18.877  1.00  0.00     0.022 C 
HETATM   11  C20 UNL     1      -0.909  48.883 -18.648  1.00  0.00     0.018 C 
HETATM   12  C21 UNL     1      -0.447  50.337 -18.488  1.00  0.00     0.033 C 
HETATM   13  C22 UNL     1      -1.493  51.239 -17.844  1.00  0.00     0.121 C 
HETATM   14  C23 UNL     1      -2.874  51.094 -18.489  1.00  0.00     0.074 C 
HETATM   15  C24 UNL     1      -3.345  49.627 -18.515  1.00  0.00     0.088 C 
HETATM   16  C25 UNL     1      -4.723  49.517 -19.098  1.00  0.00     0.010 C 
HETATM   17  C26 UNL     1      -4.961  49.224 -20.382  1.00  0.00     0.013 C 
HETATM   18  C27 UNL     1      -3.882  49.117 -21.415  1.00  0.00     0.115 C 
HETATM   19  O4  UNL     1      -4.231  48.088 -22.365  1.00  0.00    -0.372 OA
HETATM   20  C28 UNL     1      -3.630  48.458 -23.627  1.00  0.00     0.179 C 
ENDROOT
BRANCH   1  21
HETATM   21  C8  UNL     1      -2.979  50.638 -26.055  1.00  0.00     0.009 C 
HETATM   22  C9  UNL     1      -2.736  49.182 -26.451  1.00  0.00     0.014 C 
BRANCH  21  23
HETATM   23  C7  UNL     1      -1.755  51.445 -26.432  1.00  0.00    -0.026 C 
HETATM   24  C6  UNL     1      -0.567  50.902 -26.746  1.00  0.00    -0.026 C 
BRANCH  24  25
HETATM   25  C4  UNL     1       0.655  51.709 -27.122  1.00  0.00     0.007 C 
HETATM   26  C5  UNL     1       1.860  51.194 -26.326  1.00  0.00     0.014 C 
BRANCH  25  27
HETATM   27  C2  UNL     1       0.461  53.242 -26.962  1.00  0.00    -0.015 C 
HETATM   28  C1  UNL     1       0.055  53.683 -25.552  1.00  0.00     0.010 C 
HETATM   29  C3  UNL     1      -0.549  53.787 -27.980  1.00  0.00     0.010 C 
ENDBRANCH  25  27
ENDBRANCH  24  25
ENDBRANCH  21  23
ENDBRANCH   1  21
BRANCH   8  30
HETATM   30  O1  UNL     1      -1.926  47.532 -21.394  1.00  0.00    -0.385 OA
HETATM   31  H28 UNL     1      -1.048  47.340 -21.028  1.00  0.00     0.210 HD
ENDBRANCH   8  30
BRANCH  15  32
HETATM   32  O3  UNL     1      -3.516  49.201 -17.154  1.00  0.00    -0.385 OA
HETATM   33  H40 UNL     1      -2.843  49.663 -16.610  1.00  0.00     0.211 HD
ENDBRANCH  15  32
BRANCH  13  34
HETATM   34  O2  UNL     1      -1.599  50.893 -16.459  1.00  0.00    -0.395 OA
HETATM   35  H37 UNL     1      -0.768  51.167 -16.028  1.00  0.00     0.210 HD
ENDBRANCH  13  34
TORSDOF 7
ENDMDL
MODEL 7
REMARK minimizedAffinity -8.91478825
REMARK  7 active torsions:
REMARK  status: ('A' for Active; 'I' for Inactive)
REMARK    1  A    between atoms: C2_2  and  C4_4 
REMARK    2  A    between atoms: C4_4  and  C6_6 
REMARK    3  A    between atoms: C7_7  and  C8_8 
REMARK    4  A    between atoms: C8_8  and  C10_10 
REMARK    5  A    between atoms: C17_17  and  O1_18 
REMARK    6  A    between atoms: C22_23  and  O2_24 
REMARK    7  A    between atoms: C24_26  and  O3_27 
ROOT
HETATM    1  C10 UNL     1      -2.340  49.957 -24.440  1.00  0.00     0.004 C 
HETATM    2  C11 UNL     1      -1.722  51.260 -23.896  1.00  0.00     0.007 C 
HETATM    3  C12 UNL     1      -2.089  51.321 -22.406  1.00  0.00     0.009 C 
HETATM    4  C13 UNL     1      -2.877  50.031 -22.104  1.00  0.00     0.038 C 
HETATM    5  C14 UNL     1      -3.484  49.651 -23.451  1.00  0.00    -0.008 C 
HETATM    6  C15 UNL     1      -3.907  48.167 -23.395  1.00  0.00     0.016 C 
HETATM    7  C16 UNL     1      -4.157  47.661 -21.956  1.00  0.00     0.043 C 
HETATM    8  C17 UNL     1      -4.901  48.701 -21.086  1.00  0.00     0.103 C 
HETATM    9  C18 UNL     1      -5.168  48.306 -19.548  1.00  0.00     0.025 C 
HETATM   10  C19 UNL     1      -6.526  48.972 -19.112  1.00  0.00     0.022 C 
HETATM   11  C20 UNL     1      -5.381  46.774 -19.323  1.00  0.00     0.018 C 
HETATM   12  C21 UNL     1      -4.115  45.909 -19.269  1.00  0.00     0.033 C 
HETATM   13  C22 UNL     1      -3.022  46.487 -18.378  1.00  0.00     0.121 C 
HETATM   14  C23 UNL     1      -2.751  47.967 -18.663  1.00  0.00     0.074 C 
HETATM   15  C24 UNL     1      -4.037  48.812 -18.583  1.00  0.00     0.088 C 
HETATM   16  C25 UNL     1      -3.738  50.265 -18.807  1.00  0.00     0.010 C 
HETATM   17  C26 UNL     1      -3.860  50.870 -19.995  1.00  0.00     0.013 C 
HETATM   18  C27 UNL     1      -4.168  50.137 -21.263  1.00  0.00     0.115 C 
HETATM   19  O4  UNL     1      -4.995  50.967 -22.106  1.00  0.00    -0.372 OA
HETATM   20  C28 UNL     1      -4.702  50.604 -23.475  1.00  0.00     0.179 C 
ENDROOT
BRANCH   1  21
HETATM   21  C8  UNL     1      -2.591  49.977 -25.969  1.00  0.00     0.009 C 
HETATM   22  C9  UNL     1      -2.726  48.620 -26.660  1.00  0.00     0.014 C 
BRANCH  21  23
HETATM   23  C7  UNL     1      -1.532  50.778 -26.698  1.00  0.00    -0.026 C 
HETATM   24  C6  UNL     1      -0.239  50.815 -26.336  1.00  0.00    -0.026 C 
BRANCH  24  25
HETATM   25  C4  UNL     1       0.817  51.616 -27.065  1.00  0.00     0.007 C 
HETATM   26  C5  UNL     1       2.198  51.239 -26.518  1.00  0.00     0.014 C 
BRANCH  25  27
HETATM   27  C2  UNL     1       0.570  53.150 -27.024  1.00  0.00    -0.015 C 
HETATM   28  C1  UNL     1       0.143  53.685 -25.654  1.00  0.00     0.010 C 
HETATM   29  C3  UNL     1      -0.452  53.581 -28.084  1.00  0.00     0.010 C 
ENDBRANCH  25  27
ENDBRANCH  24  25
ENDBRANCH  21  23
ENDBRANCH   1  21
BRANCH   8  30
HETATM   30  O1  UNL     1      -6.207  48.740 -21.742  1.00  0.00    -0.385 OA
HETATM   31  H28 UNL     1      -6.650  47.887 -21.606  1.00  0.00     0.210 HD
ENDBRANCH   8  30
BRANCH  15  32
HETATM   32  O3  UNL     1      -4.505  48.766 -17.225  1.00  0.00    -0.385 OA
HETATM   33  H40 UNL     1      -4.277  47.884 -16.862  1.00  0.00     0.211 HD
ENDBRANCH  15  32
BRANCH  13  34
HETATM   34  O2  UNL     1      -3.431  46.352 -17.013  1.00  0.00    -0.395 OA
HETATM   35  H37 UNL     1      -3.418  45.401 -16.799  1.00  0.00     0.210 HD
ENDBRANCH  13  34
TORSDOF 7
ENDMDL
MODEL 8
REMARK minimizedAffinity -8.91277504
REMARK  7 active torsions:
REMARK  status: ('A' for Active; 'I' for Inactive)
REMARK    1  A    between atoms: C2_2  and  C4_4 
REMARK    2  A    between atoms: C4_4  and  C6_6 
REMARK    3  A    between atoms: C7_7  and  C8_8 
REMARK    4  A    between atoms: C8_8  and  C10_10 
REMARK    5  A    between atoms: C17_17  and  O1_18 
REMARK    6  A    between atoms: C22_23  and  O2_24 
REMARK    7  A    between atoms: C24_26  and  O3_27 
ROOT
HETATM    1  C10 UNL     1      -0.144  51.415 -20.814  1.00  0.00     0.004 C 
HETATM    2  C11 UNL     1      -0.517  52.233 -19.562  1.00  0.00     0.007 C 
HETATM    3  C12 UNL     1      -1.804  51.607 -19.007  1.00  0.00     0.009 C 
HETATM    4  C13 UNL     1      -2.132  50.412 -19.923  1.00  0.00     0.038 C 
HETATM    5  C14 UNL     1      -1.481  50.783 -21.252  1.00  0.00    -0.008 C 
HETATM    6  C15 UNL     1      -1.340  49.500 -22.101  1.00  0.00     0.016 C 
HETATM    7  C16 UNL     1      -2.341  48.394 -21.701  1.00  0.00     0.043 C 
HETATM    8  C17 UNL     1      -3.749  48.955 -21.394  1.00  0.00     0.103 C 
HETATM    9  C18 UNL     1      -4.865  47.899 -20.911  1.00  0.00     0.025 C 
HETATM   10  C19 UNL     1      -6.260  48.399 -21.440  1.00  0.00     0.022 C 
HETATM   11  C20 UNL     1      -4.687  46.474 -21.528  1.00  0.00     0.018 C 
HETATM   12  C21 UNL     1      -3.629  45.574 -20.877  1.00  0.00     0.033 C 
HETATM   13  C22 UNL     1      -3.708  45.548 -19.356  1.00  0.00     0.121 C 
HETATM   14  C23 UNL     1      -3.790  46.950 -18.746  1.00  0.00     0.074 C 
HETATM   15  C24 UNL     1      -4.946  47.771 -19.347  1.00  0.00     0.088 C 
HETATM   16  C25 UNL     1      -5.044  49.117 -18.694  1.00  0.00     0.010 C 
HETATM   17  C26 UNL     1      -4.490  50.226 -19.200  1.00  0.00     0.013 C 
HETATM   18  C27 UNL     1      -3.590  50.223 -20.396  1.00  0.00     0.115 C 
HETATM   19  O4  UNL     1      -3.805  51.430 -21.158  1.00  0.00    -0.372 OA
HETATM   20  C28 UNL     1      -2.556  51.741 -21.817  1.00  0.00     0.179 C 
ENDROOT
BRANCH   1  21
HETATM   21  C8  UNL     1       0.742  52.189 -21.823  1.00  0.00     0.009 C 
HETATM   22  C9  UNL     1       1.126  53.619 -21.442  1.00  0.00     0.014 C 
BRANCH  21  23
HETATM   23  C7  UNL     1       0.122  52.215 -23.204  1.00  0.00    -0.026 C 
HETATM   24  C6  UNL     1       0.831  52.294 -24.342  1.00  0.00    -0.026 C 
BRANCH  24  25
HETATM   25  C4  UNL     1       0.211  52.320 -25.721  1.00  0.00     0.007 C 
HETATM   26  C5  UNL     1      -1.266  51.927 -25.614  1.00  0.00     0.014 C 
BRANCH  25  27
HETATM   27  C2  UNL     1       0.973  51.452 -26.762  1.00  0.00    -0.015 C 
HETATM   28  C1  UNL     1       2.499  51.529 -26.652  1.00  0.00     0.010 C 
HETATM   29  C3  UNL     1       0.544  51.792 -28.195  1.00  0.00     0.010 C 
ENDBRANCH  25  27
ENDBRANCH  24  25
ENDBRANCH  21  23
ENDBRANCH   1  21
BRANCH   8  30
HETATM   30  O1  UNL     1      -4.163  49.426 -22.714  1.00  0.00    -0.385 OA
HETATM   31  H28 UNL     1      -4.284  48.660 -23.296  1.00  0.00     0.210 HD
ENDBRANCH   8  30
BRANCH  15  32
HETATM   32  O3  UNL     1      -6.176  47.125 -18.980  1.00  0.00    -0.385 OA
HETATM   33  H40 UNL     1      -6.007  46.159 -18.946  1.00  0.00     0.211 HD
ENDBRANCH  15  32
BRANCH  13  34
HETATM   34  O2  UNL     1      -4.877  44.815 -18.974  1.00  0.00    -0.395 OA
HETATM   35  H37 UNL     1      -4.723  43.881 -19.209  1.00  0.00     0.210 HD
ENDBRANCH  13  34
TORSDOF 7
ENDMDL
MODEL 9
REMARK minimizedAffinity -8.87891388
REMARK  7 active torsions:
REMARK  status: ('A' for Active; 'I' for Inactive)
REMARK    1  A    between atoms: C2_2  and  C4_4 
REMARK    2  A    between atoms: C4_4  and  C6_6 
REMARK    3  A    between atoms: C7_7  and  C8_8 
REMARK    4  A    between atoms: C8_8  and  C10_10 
REMARK    5  A    between atoms: C17_17  and  O1_18 
REMARK    6  A    between atoms: C22_23  and  O2_24 
REMARK    7  A    between atoms: C24_26  and  O3_27 
ROOT
HETATM    1  C10 UNL     1      -1.921  51.716 -22.069  1.00  0.00     0.004 C 
HETATM    2  C11 UNL     1      -2.651  52.589 -23.109  1.00  0.00     0.007 C 
HETATM    3  C12 UNL     1      -4.063  52.003 -23.248  1.00  0.00     0.009 C 
HETATM    4  C13 UNL     1      -4.140  50.826 -22.255  1.00  0.00     0.038 C 
HETATM    5  C14 UNL     1      -2.689  50.379 -22.107  1.00  0.00    -0.008 C 
HETATM    6  C15 UNL     1      -2.568  49.530 -20.823  1.00  0.00     0.016 C 
HETATM    7  C16 UNL     1      -3.907  48.893 -20.387  1.00  0.00     0.043 C 
HETATM    8  C17 UNL     1      -4.720  48.353 -21.587  1.00  0.00     0.103 C 
HETATM    9  C18 UNL     1      -6.163  47.715 -21.260  1.00  0.00     0.025 C 
HETATM   10  C19 UNL     1      -6.424  46.563 -22.300  1.00  0.00     0.022 C 
HETATM   11  C20 UNL     1      -6.238  47.020 -19.862  1.00  0.00     0.018 C 
HETATM   12  C21 UNL     1      -6.430  47.941 -18.651  1.00  0.00     0.033 C 
HETATM   13  C22 UNL     1      -7.524  48.983 -18.847  1.00  0.00     0.121 C 
HETATM   14  C23 UNL     1      -7.396  49.728 -20.179  1.00  0.00     0.074 C 
HETATM   15  C24 UNL     1      -7.331  48.759 -21.375  1.00  0.00     0.088 C 
HETATM   16  C25 UNL     1      -7.265  49.511 -22.671  1.00  0.00     0.010 C 
HETATM   17  C26 UNL     1      -6.120  49.784 -23.310  1.00  0.00     0.013 C 
HETATM   18  C27 UNL     1      -4.769  49.499 -22.733  1.00  0.00     0.115 C 
HETATM   19  O4  UNL     1      -3.868  49.117 -23.794  1.00  0.00    -0.372 OA
HETATM   20  C28 UNL     1      -2.540  49.524 -23.388  1.00  0.00     0.179 C 
ENDROOT
BRANCH   1  21
HETATM   21  C8  UNL     1      -0.377  51.754 -22.197  1.00  0.00     0.009 C 
HETATM   22  C9  UNL     1       0.392  52.387 -21.037  1.00  0.00     0.014 C 
BRANCH  21  23
HETATM   23  C7  UNL     1       0.060  52.428 -23.481  1.00  0.00    -0.026 C 
HETATM   24  C6  UNL     1       0.123  51.806 -24.669  1.00  0.00    -0.026 C 
BRANCH  24  25
HETATM   25  C4  UNL     1       0.561  52.480 -25.951  1.00  0.00     0.007 C 
HETATM   26  C5  UNL     1      -0.631  53.234 -26.552  1.00  0.00     0.014 C 
BRANCH  25  27
HETATM   27  C2  UNL     1       1.214  51.508 -26.973  1.00  0.00    -0.015 C 
HETATM   28  C1  UNL     1       2.740  51.606 -27.051  1.00  0.00     0.010 C 
HETATM   29  C3  UNL     1       0.616  51.687 -28.375  1.00  0.00     0.010 C 
ENDBRANCH  25  27
ENDBRANCH  24  25
ENDBRANCH  21  23
ENDBRANCH   1  21
BRANCH   8  30
HETATM   30  O1  UNL     1      -3.869  47.253 -22.037  1.00  0.00    -0.385 OA
HETATM   31  H28 UNL     1      -3.869  46.560 -21.358  1.00  0.00     0.210 HD
ENDBRANCH   8  30
BRANCH  15  32
HETATM   32  O3  UNL     1      -8.589  48.069 -21.446  1.00  0.00    -0.385 OA
HETATM   33  H40 UNL     1      -8.919  47.956 -20.529  1.00  0.00     0.211 HD
ENDBRANCH  15  32
BRANCH  13  34
HETATM   34  O2  UNL     1      -8.793  48.320 -18.815  1.00  0.00    -0.395 OA
HETATM   35  H37 UNL     1      -8.936  48.012 -17.902  1.00  0.00     0.210 HD
ENDBRANCH  13  34
TORSDOF 7
ENDMDL
