MODEL 1
REMARK minimizedAffinity -10.2093983
REMARK  9 active torsions:
REMARK  status: ('A' for Active; 'I' for Inactive)
REMARK    1  A    between atoms: C2_2  and  C3_3 
REMARK    2  A    between atoms: C2_2  and  C9_12 
REMARK    3  A    between atoms: C3_3  and  C4_4 
REMARK    4  A    between atoms: C4_4  and  C5_5 
REMARK    5  A    between atoms: C5_5  and  O1_6 
REMARK    6  A    between atoms: C5_5  and  C6_7 
REMARK    7  A    between atoms: C6_7  and  O2_9 
REMARK    8  A    between atoms: C6_7  and  C8_10 
REMARK    9  A    between atoms: C8_10  and  O3_11 
ROOT
HETATM    1  C9  UNL     1      -0.523  50.554 -21.621  1.00  0.00    -0.002 C 
HETATM    2  C10 UNL     1      -0.763  50.184 -20.132  1.00  0.00     0.007 C 
HETATM    3  C11 UNL     1      -2.092  49.406 -20.069  1.00  0.00     0.015 C 
HETATM    4  C12 UNL     1      -2.396  49.007 -21.527  1.00  0.00    -0.005 C 
HETATM    5  C13 UNL     1      -1.569  47.718 -21.828  1.00  0.00     0.021 C 
HETATM    6  C14 UNL     1      -3.815  48.654 -21.960  1.00  0.00    -0.000 C 
HETATM    7  C15 UNL     1      -4.235  48.874 -23.235  1.00  0.00    -0.060 C 
HETATM    8  C16 UNL     1      -3.308  49.540 -24.260  1.00  0.00     0.036 C 
HETATM    9  C17 UNL     1      -1.922  50.016 -23.778  1.00  0.00     0.015 C 
HETATM   10  C18 UNL     1      -1.917  50.317 -22.276  1.00  0.00    -0.028 C 
HETATM   11  C19 UNL     1      -2.848  51.538 -22.018  1.00  0.00     0.016 C 
HETATM   12  C20 UNL     1      -5.673  48.537 -23.717  1.00  0.00    -0.014 C 
HETATM   13  C21 UNL     1      -6.484  49.844 -23.557  1.00  0.00     0.020 C 
HETATM   14  C22 UNL     1      -5.692  48.093 -25.202  1.00  0.00     0.021 C 
HETATM   15  C23 UNL     1      -7.059  47.633 -25.682  1.00  0.00     0.080 C 
HETATM   16  C24 UNL     1      -7.576  46.497 -24.836  1.00  0.00     0.135 C 
HETATM   17  O4  UNL     1      -8.077  45.511 -25.379  1.00  0.00    -0.297 OA
HETATM   18  C25 UNL     1      -7.561  46.676 -23.310  1.00  0.00     0.018 C 
HETATM   19  C26 UNL     1      -7.670  45.266 -22.675  1.00  0.00     0.023 C 
HETATM   20  C27 UNL     1      -8.826  47.450 -22.910  1.00  0.00     0.023 C 
HETATM   21  C28 UNL     1      -6.206  47.333 -22.867  1.00  0.00     0.020 C 
HETATM   22  C29 UNL     1      -6.146  47.680 -21.377  1.00  0.00     0.090 C 
HETATM   23  C30 UNL     1      -4.735  48.020 -20.960  1.00  0.00     0.157 C 
HETATM   24  O5  UNL     1      -4.370  47.796 -19.807  1.00  0.00    -0.293 OA
ENDROOT
BRANCH   1  25
HETATM   25  C2  UNL     1       0.310  51.860 -21.812  1.00  0.00    -0.014 C 
HETATM   26  C1  UNL     1       0.367  52.827 -20.623  1.00  0.00     0.010 C 
BRANCH  25  27
HETATM   27  C3  UNL     1      -0.098  52.608 -23.100  1.00  0.00     0.007 C 
BRANCH  27  28
HETATM   28  C4  UNL     1       0.933  52.649 -24.239  1.00  0.00     0.035 C 
BRANCH  28  29
HETATM   29  C5  UNL     1       0.423  52.666 -25.694  1.00  0.00     0.154 C 
BRANCH  29  30
HETATM   30  O1  UNL     1       0.589  53.992 -26.205  1.00  0.00    -0.392 OA
HETATM   31  H10 UNL     1       0.410  53.963 -27.167  1.00  0.00     0.210 HD
ENDBRANCH  29  30
BRANCH  29  32
HETATM   32  C6  UNL     1       0.991  51.565 -26.654  1.00  0.00     0.101 C 
HETATM   33  C7  UNL     1       0.931  52.016 -28.117  1.00  0.00     0.051 C 
BRANCH  32  34
HETATM   34  O2  UNL     1       0.246  50.344 -26.514  1.00  0.00    -0.385 OA
HETATM   35  H14 UNL     1       0.496  49.744 -27.236  1.00  0.00     0.210 HD
ENDBRANCH  32  34
BRANCH  32  36
HETATM   36  C8  UNL     1       2.450  51.222 -26.279  1.00  0.00     0.204 C 
BRANCH  36  37
HETATM   37  O3  UNL     1       3.311  51.469 -27.396  1.00  0.00    -0.398 OA
HETATM   38  H17 UNL     1       3.062  52.361 -27.721  1.00  0.00     0.209 HD
ENDBRANCH  36  37
ENDBRANCH  32  36
ENDBRANCH  29  32
ENDBRANCH  28  29
ENDBRANCH  27  28
ENDBRANCH  25  27
ENDBRANCH   1  25
TORSDOF 9
ENDMDL
MODEL 2
REMARK minimizedAffinity -9.77889538
REMARK  9 active torsions:
REMARK  status: ('A' for Active; 'I' for Inactive)
REMARK    1  A    between atoms: C2_2  and  C3_3 
REMARK    2  A    between atoms: C2_2  and  C9_12 
REMARK    3  A    between atoms: C3_3  and  C4_4 
REMARK    4  A    between atoms: C4_4  and  C5_5 
REMARK    5  A    between atoms: C5_5  and  O1_6 
REMARK    6  A    between atoms: C5_5  and  C6_7 
REMARK    7  A    between atoms: C6_7  and  O2_9 
REMARK    8  A    between atoms: C6_7  and  C8_10 
REMARK    9  A    between atoms: C8_10  and  O3_11 
ROOT
HETATM    1  C9  UNL     1      -0.755  50.120 -21.193  1.00  0.00    -0.002 C 
HETATM    2  C10 UNL     1      -1.022  49.563 -19.768  1.00  0.00     0.007 C 
HETATM    3  C11 UNL     1      -2.347  48.779 -19.830  1.00  0.00     0.015 C 
HETATM    4  C12 UNL     1      -2.620  48.565 -21.333  1.00  0.00    -0.005 C 
HETATM    5  C13 UNL     1      -1.778  47.328 -21.777  1.00  0.00     0.021 C 
HETATM    6  C14 UNL     1      -4.027  48.264 -21.836  1.00  0.00    -0.000 C 
HETATM    7  C15 UNL     1      -4.423  48.642 -23.081  1.00  0.00    -0.060 C 
HETATM    8  C16 UNL     1      -3.480  49.435 -23.995  1.00  0.00     0.036 C 
HETATM    9  C17 UNL     1      -2.108  49.852 -23.428  1.00  0.00     0.015 C 
HETATM   10  C18 UNL     1      -2.134  49.962 -21.900  1.00  0.00    -0.028 C 
HETATM   11  C19 UNL     1      -3.078  51.136 -21.510  1.00  0.00     0.016 C 
HETATM   12  C20 UNL     1      -5.849  48.362 -23.631  1.00  0.00    -0.014 C 
HETATM   13  C21 UNL     1      -6.671  49.635 -23.324  1.00  0.00     0.020 C 
HETATM   14  C22 UNL     1      -5.836  48.110 -25.161  1.00  0.00     0.021 C 
HETATM   15  C23 UNL     1      -7.190  47.709 -25.723  1.00  0.00     0.080 C 
HETATM   16  C24 UNL     1      -7.717  46.473 -25.037  1.00  0.00     0.135 C 
HETATM   17  O4  UNL     1      -8.200  45.561 -25.710  1.00  0.00    -0.297 OA
HETATM   18  C25 UNL     1      -7.733  46.458 -23.501  1.00  0.00     0.018 C 
HETATM   19  C26 UNL     1      -7.845  44.978 -23.051  1.00  0.00     0.023 C 
HETATM   20  C27 UNL     1      -9.011  47.170 -23.032  1.00  0.00     0.023 C 
HETATM   21  C28 UNL     1      -6.391  47.059 -22.951  1.00  0.00     0.020 C 
HETATM   22  C29 UNL     1      -6.362  47.215 -21.428  1.00  0.00     0.090 C 
HETATM   23  C30 UNL     1      -4.962  47.505 -20.942  1.00  0.00     0.157 C 
HETATM   24  O5  UNL     1      -4.620  47.139 -19.820  1.00  0.00    -0.293 OA
ENDROOT
BRANCH   1  25
HETATM   25  C2  UNL     1       0.073  51.442 -21.200  1.00  0.00    -0.014 C 
HETATM   26  C1  UNL     1       0.055  52.279 -19.915  1.00  0.00     0.010 C 
BRANCH  25  27
HETATM   27  C3  UNL     1      -0.273  52.319 -22.423  1.00  0.00     0.007 C 
BRANCH  27  28
HETATM   28  C4  UNL     1       0.660  52.215 -23.641  1.00  0.00     0.035 C 
BRANCH  28  29
HETATM   29  C5  UNL     1       0.362  53.093 -24.873  1.00  0.00     0.154 C 
BRANCH  29  30
HETATM   30  O1  UNL     1       1.110  54.305 -24.744  1.00  0.00    -0.392 OA
HETATM   31  H10 UNL     1       1.040  54.789 -25.592  1.00  0.00     0.210 HD
ENDBRANCH  29  30
BRANCH  29  32
HETATM   32  C6  UNL     1       0.531  52.418 -26.278  1.00  0.00     0.101 C 
HETATM   33  C7  UNL     1       0.080  50.954 -26.252  1.00  0.00     0.051 C 
BRANCH  32  34
HETATM   34  O2  UNL     1       1.904  52.473 -26.700  1.00  0.00    -0.385 OA
HETATM   35  H14 UNL     1       2.013  51.898 -27.476  1.00  0.00     0.210 HD
ENDBRANCH  32  34
BRANCH  32  36
HETATM   36  C8  UNL     1      -0.276  53.188 -27.348  1.00  0.00     0.204 C 
BRANCH  36  37
HETATM   37  O3  UNL     1      -0.217  54.593 -27.086  1.00  0.00    -0.398 OA
HETATM   38  H17 UNL     1       0.732  54.785 -26.923  1.00  0.00     0.209 HD
ENDBRANCH  36  37
ENDBRANCH  32  36
ENDBRANCH  29  32
ENDBRANCH  28  29
ENDBRANCH  27  28
ENDBRANCH  25  27
ENDBRANCH   1  25
TORSDOF 9
ENDMDL
MODEL 3
REMARK minimizedAffinity -9.66319847
REMARK  9 active torsions:
REMARK  status: ('A' for Active; 'I' for Inactive)
REMARK    1  A    between atoms: C2_2  and  C3_3 
REMARK    2  A    between atoms: C2_2  and  C9_12 
REMARK    3  A    between atoms: C3_3  and  C4_4 
REMARK    4  A    between atoms: C4_4  and  C5_5 
REMARK    5  A    between atoms: C5_5  and  O1_6 
REMARK    6  A    between atoms: C5_5  and  C6_7 
REMARK    7  A    between atoms: C6_7  and  O2_9 
REMARK    8  A    between atoms: C6_7  and  C8_10 
REMARK    9  A    between atoms: C8_10  and  O3_11 
ROOT
HETATM    1  C9  UNL     1      -1.447  50.659 -23.068  1.00  0.00    -0.002 C 
HETATM    2  C10 UNL     1      -1.062  52.153 -23.248  1.00  0.00     0.007 C 
HETATM    3  C11 UNL     1      -0.486  52.635 -21.902  1.00  0.00     0.015 C 
HETATM    4  C12 UNL     1      -0.188  51.349 -21.105  1.00  0.00    -0.005 C 
HETATM    5  C13 UNL     1       1.196  50.820 -21.596  1.00  0.00     0.021 C 
HETATM    6  C14 UNL     1      -0.063  51.383 -19.586  1.00  0.00    -0.000 C 
HETATM    7  C15 UNL     1      -0.388  50.299 -18.831  1.00  0.00    -0.060 C 
HETATM    8  C16 UNL     1      -0.948  49.029 -19.485  1.00  0.00     0.036 C 
HETATM    9  C17 UNL     1      -1.198  49.051 -21.007  1.00  0.00     0.015 C 
HETATM   10  C18 UNL     1      -1.441  50.474 -21.522  1.00  0.00    -0.028 C 
HETATM   11  C19 UNL     1      -2.774  50.994 -20.910  1.00  0.00     0.016 C 
HETATM   12  C20 UNL     1      -0.283  50.292 -17.281  1.00  0.00    -0.014 C 
HETATM   13  C21 UNL     1      -1.688  50.682 -16.766  1.00  0.00     0.020 C 
HETATM   14  C22 UNL     1       0.099  48.892 -16.737  1.00  0.00     0.021 C 
HETATM   15  C23 UNL     1       0.336  48.866 -15.236  1.00  0.00     0.080 C 
HETATM   16  C24 UNL     1       1.414  49.844 -14.841  1.00  0.00     0.135 C 
HETATM   17  O4  UNL     1       2.296  49.495 -14.054  1.00  0.00    -0.297 OA
HETATM   18  C25 UNL     1       1.295  51.287 -15.354  1.00  0.00     0.018 C 
HETATM   19  C26 UNL     1       2.696  51.941 -15.235  1.00  0.00     0.023 C 
HETATM   20  C27 UNL     1       0.359  52.053 -14.406  1.00  0.00     0.023 C 
HETATM   21  C28 UNL     1       0.860  51.279 -16.862  1.00  0.00     0.020 C 
HETATM   22  C29 UNL     1       0.580  52.673 -17.431  1.00  0.00     0.090 C 
HETATM   23  C30 UNL     1       0.465  52.627 -18.937  1.00  0.00     0.157 C 
HETATM   24  O5  UNL     1       0.782  53.611 -19.601  1.00  0.00    -0.293 OA
ENDROOT
BRANCH   1  25
HETATM   25  C2  UNL     1      -2.623  50.205 -23.988  1.00  0.00    -0.014 C 
HETATM   26  C1  UNL     1      -3.326  48.893 -23.619  1.00  0.00     0.010 C 
BRANCH  25  27
HETATM   27  C3  UNL     1      -2.206  50.197 -25.475  1.00  0.00     0.007 C 
BRANCH  27  28
HETATM   28  C4  UNL     1      -1.524  51.465 -26.014  1.00  0.00     0.035 C 
BRANCH  28  29
HETATM   29  C5  UNL     1      -0.435  51.312 -27.095  1.00  0.00     0.154 C 
BRANCH  29  30
HETATM   30  O1  UNL     1      -1.042  51.540 -28.371  1.00  0.00    -0.392 OA
HETATM   31  H10 UNL     1      -0.325  51.594 -29.035  1.00  0.00     0.210 HD
ENDBRANCH  29  30
BRANCH  29  32
HETATM   32  C6  UNL     1       0.883  52.135 -26.891  1.00  0.00     0.101 C 
HETATM   33  C7  UNL     1       1.518  51.843 -25.528  1.00  0.00     0.051 C 
BRANCH  32  34
HETATM   34  O2  UNL     1       0.615  53.545 -26.984  1.00  0.00    -0.385 OA
HETATM   35  H14 UNL     1       1.399  54.030 -26.679  1.00  0.00     0.210 HD
ENDBRANCH  32  34
BRANCH  32  36
HETATM   36  C8  UNL     1       1.898  51.817 -28.011  1.00  0.00     0.204 C 
BRANCH  36  37
HETATM   37  O3  UNL     1       3.186  51.557 -27.443  1.00  0.00    -0.398 OA
HETATM   38  H17 UNL     1       3.020  50.927 -26.708  1.00  0.00     0.209 HD
ENDBRANCH  36  37
ENDBRANCH  32  36
ENDBRANCH  29  32
ENDBRANCH  28  29
ENDBRANCH  27  28
ENDBRANCH  25  27
ENDBRANCH   1  25
TORSDOF 9
ENDMDL
MODEL 4
REMARK minimizedAffinity -9.51864529
REMARK  9 active torsions:
REMARK  status: ('A' for Active; 'I' for Inactive)
REMARK    1  A    between atoms: C2_2  and  C3_3 
REMARK    2  A    between atoms: C2_2  and  C9_12 
REMARK    3  A    between atoms: C3_3  and  C4_4 
REMARK    4  A    between atoms: C4_4  and  C5_5 
REMARK    5  A    between atoms: C5_5  and  O1_6 
REMARK    6  A    between atoms: C5_5  and  C6_7 
REMARK    7  A    between atoms: C6_7  and  O2_9 
REMARK    8  A    between atoms: C6_7  and  C8_10 
REMARK    9  A    between atoms: C8_10  and  O3_11 
ROOT
HETATM    1  C9  UNL     1      -3.911  50.308 -24.565  1.00  0.00    -0.002 C 
HETATM    2  C10 UNL     1      -5.383  50.003 -24.172  1.00  0.00     0.007 C 
HETATM    3  C11 UNL     1      -5.423  49.877 -22.637  1.00  0.00     0.015 C 
HETATM    4  C12 UNL     1      -4.093  50.482 -22.146  1.00  0.00    -0.005 C 
HETATM    5  C13 UNL     1      -4.287  52.030 -22.100  1.00  0.00     0.021 C 
HETATM    6  C14 UNL     1      -3.535  50.131 -20.771  1.00  0.00    -0.000 C 
HETATM    7  C15 UNL     1      -2.196  50.132 -20.536  1.00  0.00    -0.060 C 
HETATM    8  C16 UNL     1      -1.203  50.430 -21.667  1.00  0.00     0.036 C 
HETATM    9  C17 UNL     1      -1.769  50.651 -23.085  1.00  0.00     0.015 C 
HETATM   10  C18 UNL     1      -3.117  49.948 -23.273  1.00  0.00    -0.028 C 
HETATM   11  C19 UNL     1      -2.883  48.412 -23.195  1.00  0.00     0.016 C 
HETATM   12  C20 UNL     1      -1.584  49.773 -19.154  1.00  0.00    -0.014 C 
HETATM   13  C21 UNL     1      -1.254  48.264 -19.222  1.00  0.00     0.020 C 
HETATM   14  C22 UNL     1      -0.287  50.575 -18.873  1.00  0.00     0.021 C 
HETATM   15  C23 UNL     1       0.278  50.350 -17.480  1.00  0.00     0.080 C 
HETATM   16  C24 UNL     1      -0.738  50.696 -16.421  1.00  0.00     0.135 C 
HETATM   17  O4  UNL     1      -0.398  51.370 -15.446  1.00  0.00    -0.297 OA
HETATM   18  C25 UNL     1      -2.143  50.087 -16.549  1.00  0.00     0.018 C 
HETATM   19  C26 UNL     1      -3.100  50.934 -15.670  1.00  0.00     0.023 C 
HETATM   20  C27 UNL     1      -2.105  48.676 -15.944  1.00  0.00     0.023 C 
HETATM   21  C28 UNL     1      -2.618  50.163 -18.043  1.00  0.00     0.020 C 
HETATM   22  C29 UNL     1      -3.953  49.458 -18.303  1.00  0.00     0.090 C 
HETATM   23  C30 UNL     1      -4.497  49.819 -19.664  1.00  0.00     0.157 C 
HETATM   24  O5  UNL     1      -5.712  49.830 -19.850  1.00  0.00    -0.293 OA
ENDROOT
BRANCH   1  25
HETATM   25  C2  UNL     1      -3.527  49.793 -25.987  1.00  0.00    -0.014 C 
HETATM   26  C1  UNL     1      -2.976  48.365 -26.083  1.00  0.00     0.010 C 
BRANCH  25  27
HETATM   27  C3  UNL     1      -2.592  50.785 -26.713  1.00  0.00     0.007 C 
BRANCH  27  28
HETATM   28  C4  UNL     1      -1.095  50.707 -26.373  1.00  0.00     0.035 C 
BRANCH  28  29
HETATM   29  C5  UNL     1      -0.079  51.250 -27.398  1.00  0.00     0.154 C 
BRANCH  29  30
HETATM   30  O1  UNL     1      -0.809  51.842 -28.475  1.00  0.00    -0.392 OA
HETATM   31  H10 UNL     1      -0.169  52.318 -29.043  1.00  0.00     0.210 HD
ENDBRANCH  29  30
BRANCH  29  32
HETATM   32  C6  UNL     1       1.054  52.181 -26.844  1.00  0.00     0.101 C 
HETATM   33  C7  UNL     1       1.315  51.918 -25.358  1.00  0.00     0.051 C 
BRANCH  32  34
HETATM   34  O2  UNL     1       0.697  53.563 -27.015  1.00  0.00    -0.385 OA
HETATM   35  H14 UNL     1       1.322  54.108 -26.509  1.00  0.00     0.210 HD
ENDBRANCH  32  34
BRANCH  32  36
HETATM   36  C8  UNL     1       2.362  51.975 -27.641  1.00  0.00     0.204 C 
BRANCH  36  37
HETATM   37  O3  UNL     1       3.300  51.232 -26.856  1.00  0.00    -0.398 OA
HETATM   38  H17 UNL     1       2.792  50.471 -26.500  1.00  0.00     0.209 HD
ENDBRANCH  36  37
ENDBRANCH  32  36
ENDBRANCH  29  32
ENDBRANCH  28  29
ENDBRANCH  27  28
ENDBRANCH  25  27
ENDBRANCH   1  25
TORSDOF 9
ENDMDL
MODEL 5
REMARK minimizedAffinity -9.23527527
REMARK  9 active torsions:
REMARK  status: ('A' for Active; 'I' for Inactive)
REMARK    1  A    between atoms: C2_2  and  C3_3 
REMARK    2  A    between atoms: C2_2  and  C9_12 
REMARK    3  A    between atoms: C3_3  and  C4_4 
REMARK    4  A    between atoms: C4_4  and  C5_5 
REMARK    5  A    between atoms: C5_5  and  O1_6 
REMARK    6  A    between atoms: C5_5  and  C6_7 
REMARK    7  A    between atoms: C6_7  and  O2_9 
REMARK    8  A    between atoms: C6_7  and  C8_10 
REMARK    9  A    between atoms: C8_10  and  O3_11 
ROOT
HETATM    1  C9  UNL     1      -1.532  51.362 -23.234  1.00  0.00    -0.002 C 
HETATM    2  C10 UNL     1      -1.521  50.539 -24.551  1.00  0.00     0.007 C 
HETATM    3  C11 UNL     1      -2.741  49.598 -24.506  1.00  0.00     0.015 C 
HETATM    4  C12 UNL     1      -3.636  50.151 -23.378  1.00  0.00    -0.005 C 
HETATM    5  C13 UNL     1      -4.466  51.323 -23.990  1.00  0.00     0.021 C 
HETATM    6  C14 UNL     1      -4.677  49.265 -22.702  1.00  0.00    -0.000 C 
HETATM    7  C15 UNL     1      -5.039  49.473 -21.407  1.00  0.00    -0.060 C 
HETATM    8  C16 UNL     1      -4.367  50.570 -20.572  1.00  0.00     0.036 C 
HETATM    9  C17 UNL     1      -3.221  51.373 -21.223  1.00  0.00     0.015 C 
HETATM   10  C18 UNL     1      -2.526  50.574 -22.330  1.00  0.00    -0.028 C 
HETATM   11  C19 UNL     1      -1.812  49.354 -21.679  1.00  0.00     0.016 C 
HETATM   12  C20 UNL     1      -6.088  48.591 -20.676  1.00  0.00    -0.014 C 
HETATM   13  C21 UNL     1      -5.276  47.496 -19.945  1.00  0.00     0.020 C 
HETATM   14  C22 UNL     1      -6.905  49.407 -19.641  1.00  0.00     0.021 C 
HETATM   15  C23 UNL     1      -8.028  48.615 -18.991  1.00  0.00     0.080 C 
HETATM   16  C24 UNL     1      -8.976  48.068 -20.029  1.00  0.00     0.135 C 
HETATM   17  O4  UNL     1     -10.193  48.168 -19.856  1.00  0.00    -0.297 OA
HETATM   18  C25 UNL     1      -8.375  47.298 -21.215  1.00  0.00     0.018 C 
HETATM   19  C26 UNL     1      -9.443  47.266 -22.339  1.00  0.00     0.023 C 
HETATM   20  C27 UNL     1      -8.146  45.845 -20.770  1.00  0.00     0.023 C 
HETATM   21  C28 UNL     1      -7.101  48.047 -21.741  1.00  0.00     0.020 C 
HETATM   22  C29 UNL     1      -6.347  47.288 -22.837  1.00  0.00     0.090 C 
HETATM   23  C30 UNL     1      -5.325  48.178 -23.504  1.00  0.00     0.157 C 
HETATM   24  O5  UNL     1      -5.026  47.984 -24.680  1.00  0.00    -0.293 OA
ENDROOT
BRANCH   1  25
HETATM   25  C2  UNL     1      -0.112  51.812 -22.769  1.00  0.00    -0.014 C 
HETATM   26  C1  UNL     1       0.089  52.029 -21.265  1.00  0.00     0.010 C 
BRANCH  25  27
HETATM   27  C3  UNL     1       0.381  53.039 -23.566  1.00  0.00     0.007 C 
BRANCH  27  28
HETATM   28  C4  UNL     1       0.673  52.828 -25.060  1.00  0.00     0.035 C 
BRANCH  28  29
HETATM   29  C5  UNL     1      -0.238  53.521 -26.094  1.00  0.00     0.154 C 
BRANCH  29  30
HETATM   30  O1  UNL     1       0.263  54.843 -26.311  1.00  0.00    -0.392 OA
HETATM   31  H10 UNL     1      -0.220  55.222 -27.073  1.00  0.00     0.210 HD
ENDBRANCH  29  30
BRANCH  29  32
HETATM   32  C6  UNL     1      -0.510  52.744 -27.427  1.00  0.00     0.101 C 
HETATM   33  C7  UNL     1       0.428  51.542 -27.575  1.00  0.00     0.051 C 
BRANCH  32  34
HETATM   34  O2  UNL     1      -0.333  53.612 -28.560  1.00  0.00    -0.385 OA
HETATM   35  H14 UNL     1      -0.330  53.071 -29.367  1.00  0.00     0.210 HD
ENDBRANCH  32  34
BRANCH  32  36
HETATM   36  C8  UNL     1      -1.978  52.262 -27.483  1.00  0.00     0.204 C 
BRANCH  36  37
HETATM   37  O3  UNL     1      -2.775  53.022 -26.569  1.00  0.00    -0.398 OA
HETATM   38  H17 UNL     1      -2.537  53.960 -26.738  1.00  0.00     0.209 HD
ENDBRANCH  36  37
ENDBRANCH  32  36
ENDBRANCH  29  32
ENDBRANCH  28  29
ENDBRANCH  27  28
ENDBRANCH  25  27
ENDBRANCH   1  25
TORSDOF 9
ENDMDL
MODEL 6
REMARK minimizedAffinity -9.18720818
REMARK  9 active torsions:
REMARK  status: ('A' for Active; 'I' for Inactive)
REMARK    1  A    between atoms: C2_2  and  C3_3 
REMARK    2  A    between atoms: C2_2  and  C9_12 
REMARK    3  A    between atoms: C3_3  and  C4_4 
REMARK    4  A    between atoms: C4_4  and  C5_5 
REMARK    5  A    between atoms: C5_5  and  O1_6 
REMARK    6  A    between atoms: C5_5  and  C6_7 
REMARK    7  A    between atoms: C6_7  and  O2_9 
REMARK    8  A    between atoms: C6_7  and  C8_10 
REMARK    9  A    between atoms: C8_10  and  O3_11 
ROOT
HETATM    1  C9  UNL     1      -5.809  48.933 -21.754  1.00  0.00    -0.002 C 
HETATM    2  C10 UNL     1      -4.918  48.799 -20.489  1.00  0.00     0.007 C 
HETATM    3  C11 UNL     1      -3.585  49.508 -20.799  1.00  0.00     0.015 C 
HETATM    4  C12 UNL     1      -3.862  50.358 -22.055  1.00  0.00    -0.005 C 
HETATM    5  C13 UNL     1      -4.539  51.678 -21.571  1.00  0.00     0.021 C 
HETATM    6  C14 UNL     1      -2.718  50.826 -22.949  1.00  0.00    -0.000 C 
HETATM    7  C15 UNL     1      -2.907  51.030 -24.280  1.00  0.00    -0.060 C 
HETATM    8  C16 UNL     1      -4.264  50.738 -24.933  1.00  0.00     0.036 C 
HETATM    9  C17 UNL     1      -5.376  50.136 -24.048  1.00  0.00     0.015 C 
HETATM   10  C18 UNL     1      -4.798  49.363 -22.858  1.00  0.00    -0.028 C 
HETATM   11  C19 UNL     1      -4.035  48.122 -23.405  1.00  0.00     0.016 C 
HETATM   12  C20 UNL     1      -1.769  51.499 -25.229  1.00  0.00    -0.014 C 
HETATM   13  C21 UNL     1      -1.168  50.208 -25.830  1.00  0.00     0.020 C 
HETATM   14  C22 UNL     1      -2.306  52.401 -26.370  1.00  0.00     0.021 C 
HETATM   15  C23 UNL     1      -1.213  52.986 -27.249  1.00  0.00     0.080 C 
HETATM   16  C24 UNL     1      -0.229  53.783 -26.430  1.00  0.00     0.135 C 
HETATM   17  O4  UNL     1       0.139  54.891 -26.828  1.00  0.00    -0.297 OA
HETATM   18  C25 UNL     1       0.368  53.119 -25.181  1.00  0.00     0.018 C 
HETATM   19  C26 UNL     1       0.939  54.246 -24.282  1.00  0.00     0.023 C 
HETATM   20  C27 UNL     1       1.556  52.251 -25.625  1.00  0.00     0.023 C 
HETATM   21  C28 UNL     1      -0.759  52.360 -24.395  1.00  0.00     0.020 C 
HETATM   22  C29 UNL     1      -0.242  51.548 -23.204  1.00  0.00     0.090 C 
HETATM   23  C30 UNL     1      -1.383  51.096 -22.324  1.00  0.00     0.157 C 
HETATM   24  O5  UNL     1      -1.195  50.936 -21.120  1.00  0.00    -0.293 OA
ENDROOT
BRANCH   1  25
HETATM   25  C2  UNL     1      -6.828  47.763 -21.924  1.00  0.00    -0.014 C 
HETATM   26  C1  UNL     1      -6.416  46.397 -21.364  1.00  0.00     0.010 C 
BRANCH  25  27
HETATM   27  C3  UNL     1      -7.295  47.631 -23.390  1.00  0.00     0.007 C 
BRANCH  27  28
HETATM   28  C4  UNL     1      -8.622  48.312 -23.763  1.00  0.00     0.035 C 
BRANCH  28  29
HETATM   29  C5  UNL     1      -9.475  47.695 -24.890  1.00  0.00     0.154 C 
BRANCH  29  30
HETATM   30  O1  UNL     1     -10.776  47.422 -24.361  1.00  0.00    -0.392 OA
HETATM   31  H10 UNL     1     -11.355  47.177 -25.110  1.00  0.00     0.210 HD
ENDBRANCH  29  30
BRANCH  29  32
HETATM   32  C6  UNL     1      -9.519  48.474 -26.249  1.00  0.00     0.101 C 
HETATM   33  C7  UNL     1      -8.298  48.154 -27.116  1.00  0.00     0.051 C 
BRANCH  32  34
HETATM   34  O2  UNL     1      -9.563  49.892 -26.015  1.00  0.00    -0.385 OA
HETATM   35  H14 UNL     1      -9.410  50.349 -26.858  1.00  0.00     0.210 HD
ENDBRANCH  32  34
BRANCH  32  36
HETATM   36  C8  UNL     1     -10.809  48.129 -27.028  1.00  0.00     0.204 C 
BRANCH  36  37
HETATM   37  O3  UNL     1     -11.835  49.077 -26.716  1.00  0.00    -0.398 OA
HETATM   38  H17 UNL     1     -11.406  49.957 -26.798  1.00  0.00     0.209 HD
ENDBRANCH  36  37
ENDBRANCH  32  36
ENDBRANCH  29  32
ENDBRANCH  28  29
ENDBRANCH  27  28
ENDBRANCH  25  27
ENDBRANCH   1  25
TORSDOF 9
ENDMDL
MODEL 7
REMARK minimizedAffinity -9.11807632
REMARK  9 active torsions:
REMARK  status: ('A' for Active; 'I' for Inactive)
REMARK    1  A    between atoms: C2_2  and  C3_3 
REMARK    2  A    between atoms: C2_2  and  C9_12 
REMARK    3  A    between atoms: C3_3  and  C4_4 
REMARK    4  A    between atoms: C4_4  and  C5_5 
REMARK    5  A    between atoms: C5_5  and  O1_6 
REMARK    6  A    between atoms: C5_5  and  C6_7 
REMARK    7  A    between atoms: C6_7  and  O2_9 
REMARK    8  A    between atoms: C6_7  and  C8_10 
REMARK    9  A    between atoms: C8_10  and  O3_11 
ROOT
HETATM    1  C9  UNL     1      -0.638  51.436 -16.838  1.00  0.00    -0.002 C 
HETATM    2  C10 UNL     1       0.885  51.707 -16.979  1.00  0.00     0.007 C 
HETATM    3  C11 UNL     1       1.173  51.895 -18.481  1.00  0.00     0.015 C 
HETATM    4  C12 UNL     1      -0.207  52.116 -19.133  1.00  0.00    -0.005 C 
HETATM    5  C13 UNL     1      -0.567  53.621 -18.936  1.00  0.00     0.021 C 
HETATM    6  C14 UNL     1      -0.414  51.870 -20.624  1.00  0.00    -0.000 C 
HETATM    7  C15 UNL     1      -1.623  51.479 -21.108  1.00  0.00    -0.060 C 
HETATM    8  C16 UNL     1      -2.800  51.218 -20.159  1.00  0.00     0.036 C 
HETATM    9  C17 UNL     1      -2.544  51.338 -18.643  1.00  0.00     0.015 C 
HETATM   10  C18 UNL     1      -1.074  51.090 -18.294  1.00  0.00    -0.028 C 
HETATM   11  C19 UNL     1      -0.738  49.605 -18.618  1.00  0.00     0.016 C 
HETATM   12  C20 UNL     1      -1.878  51.210 -22.617  1.00  0.00    -0.014 C 
HETATM   13  C21 UNL     1      -1.659  49.692 -22.813  1.00  0.00     0.020 C 
HETATM   14  C22 UNL     1      -3.324  51.584 -23.033  1.00  0.00     0.021 C 
HETATM   15  C23 UNL     1      -3.581  51.456 -24.525  1.00  0.00     0.080 C 
HETATM   16  C24 UNL     1      -2.619  52.308 -25.315  1.00  0.00     0.135 C 
HETATM   17  O4  UNL     1      -3.041  53.006 -26.240  1.00  0.00    -0.297 OA
HETATM   18  C25 UNL     1      -1.121  52.176 -25.002  1.00  0.00     0.018 C 
HETATM   19  C26 UNL     1      -0.415  53.439 -25.562  1.00  0.00     0.023 C 
HETATM   20  C27 UNL     1      -0.576  50.971 -25.784  1.00  0.00     0.023 C 
HETATM   21  C28 UNL     1      -0.908  52.118 -23.448  1.00  0.00     0.020 C 
HETATM   22  C29 UNL     1       0.542  51.850 -23.033  1.00  0.00     0.090 C 
HETATM   23  C30 UNL     1       0.735  52.104 -21.557  1.00  0.00     0.157 C 
HETATM   24  O5  UNL     1       1.831  52.474 -21.143  1.00  0.00    -0.293 OA
ENDROOT
BRANCH   1  25
HETATM   25  C2  UNL     1      -1.004  50.565 -15.597  1.00  0.00    -0.014 C 
HETATM   26  C1  UNL     1      -0.427  49.145 -15.551  1.00  0.00     0.010 C 
BRANCH  25  27
HETATM   27  C3  UNL     1      -2.529  50.539 -15.354  1.00  0.00     0.007 C 
BRANCH  27  28
HETATM   28  C4  UNL     1      -3.093  51.559 -14.352  1.00  0.00     0.035 C 
BRANCH  28  29
HETATM   29  C5  UNL     1      -2.353  51.764 -13.015  1.00  0.00     0.154 C 
BRANCH  29  30
HETATM   30  O1  UNL     1      -1.443  52.856 -13.174  1.00  0.00    -0.392 OA
HETATM   31  H10 UNL     1      -1.091  53.081 -12.290  1.00  0.00     0.210 HD
ENDBRANCH  29  30
BRANCH  29  32
HETATM   32  C6  UNL     1      -3.241  51.891 -11.730  1.00  0.00     0.101 C 
HETATM   33  C7  UNL     1      -2.408  51.713 -10.456  1.00  0.00     0.051 C 
BRANCH  32  34
HETATM   34  O2  UNL     1      -4.286  50.904 -11.741  1.00  0.00    -0.385 OA
HETATM   35  H14 UNL     1      -4.704  50.886 -10.865  1.00  0.00     0.210 HD
ENDBRANCH  32  34
BRANCH  32  36
HETATM   36  C8  UNL     1      -3.949  53.264 -11.695  1.00  0.00     0.204 C 
BRANCH  36  37
HETATM   37  O3  UNL     1      -4.220  53.706 -13.029  1.00  0.00    -0.398 OA
HETATM   38  H17 UNL     1      -4.624  52.933 -13.480  1.00  0.00     0.209 HD
ENDBRANCH  36  37
ENDBRANCH  32  36
ENDBRANCH  29  32
ENDBRANCH  28  29
ENDBRANCH  27  28
ENDBRANCH  25  27
ENDBRANCH   1  25
TORSDOF 9
ENDMDL
MODEL 8
REMARK minimizedAffinity -9.10069656
REMARK  9 active torsions:
REMARK  status: ('A' for Active; 'I' for Inactive)
REMARK    1  A    between atoms: C2_2  and  C3_3 
REMARK    2  A    between atoms: C2_2  and  C9_12 
REMARK    3  A    between atoms: C3_3  and  C4_4 
REMARK    4  A    between atoms: C4_4  and  C5_5 
REMARK    5  A    between atoms: C5_5  and  O1_6 
REMARK    6  A    between atoms: C5_5  and  C6_7 
REMARK    7  A    between atoms: C6_7  and  O2_9 
REMARK    8  A    between atoms: C6_7  and  C8_10 
REMARK    9  A    between atoms: C8_10  and  O3_11 
ROOT
HETATM    1  C9  UNL     1      -2.061  50.646 -22.060  1.00  0.00    -0.002 C 
HETATM    2  C10 UNL     1      -1.543  52.084 -22.337  1.00  0.00     0.007 C 
HETATM    3  C11 UNL     1      -0.716  52.510 -21.108  1.00  0.00     0.015 C 
HETATM    4  C12 UNL     1      -0.444  51.206 -20.331  1.00  0.00    -0.005 C 
HETATM    5  C13 UNL     1       0.780  50.517 -21.012  1.00  0.00     0.021 C 
HETATM    6  C14 UNL     1      -0.082  51.240 -18.850  1.00  0.00    -0.000 C 
HETATM    7  C15 UNL     1      -0.406  50.208 -18.025  1.00  0.00    -0.060 C 
HETATM    8  C16 UNL     1      -1.198  49.004 -18.551  1.00  0.00     0.036 C 
HETATM    9  C17 UNL     1      -1.677  49.040 -20.017  1.00  0.00     0.015 C 
HETATM   10  C18 UNL     1      -1.836  50.476 -20.528  1.00  0.00    -0.028 C 
HETATM   11  C19 UNL     1      -2.992  51.151 -19.735  1.00  0.00     0.016 C 
HETATM   12  C20 UNL     1      -0.064  50.204 -16.510  1.00  0.00    -0.014 C 
HETATM   13  C21 UNL     1      -1.320  50.757 -15.797  1.00  0.00     0.020 C 
HETATM   14  C22 UNL     1       0.239  48.775 -15.992  1.00  0.00     0.021 C 
HETATM   15  C23 UNL     1       0.701  48.737 -14.545  1.00  0.00     0.080 C 
HETATM   16  C24 UNL     1       1.929  49.589 -14.346  1.00  0.00     0.135 C 
HETATM   17  O4  UNL     1       2.878  49.149 -13.694  1.00  0.00    -0.297 OA
HETATM   18  C25 UNL     1       1.894  51.031 -14.874  1.00  0.00     0.018 C 
HETATM   19  C26 UNL     1       3.361  51.521 -14.989  1.00  0.00     0.023 C 
HETATM   20  C27 UNL     1       1.207  51.908 -13.815  1.00  0.00     0.023 C 
HETATM   21  C28 UNL     1       1.233  51.058 -16.297  1.00  0.00     0.020 C 
HETATM   22  C29 UNL     1       1.026  52.469 -16.855  1.00  0.00     0.090 C 
HETATM   23  C30 UNL     1       0.675  52.422 -18.323  1.00  0.00     0.157 C 
HETATM   24  O5  UNL     1       0.993  53.356 -19.055  1.00  0.00    -0.293 OA
ENDROOT
BRANCH   1  25
HETATM   25  C2  UNL     1      -3.408  50.319 -22.777  1.00  0.00    -0.014 C 
HETATM   26  C1  UNL     1      -3.452  49.041 -23.622  1.00  0.00     0.010 C 
BRANCH  25  27
HETATM   27  C3  UNL     1      -3.920  51.527 -23.591  1.00  0.00     0.007 C 
BRANCH  27  28
HETATM   28  C4  UNL     1      -4.142  51.308 -25.097  1.00  0.00     0.035 C 
BRANCH  28  29
HETATM   29  C5  UNL     1      -3.167  51.974 -26.089  1.00  0.00     0.154 C 
BRANCH  29  30
HETATM   30  O1  UNL     1      -2.429  52.975 -25.381  1.00  0.00    -0.392 OA
HETATM   31  H10 UNL     1      -1.711  53.285 -25.968  1.00  0.00     0.210 HD
ENDBRANCH  29  30
BRANCH  29  32
HETATM   32  C6  UNL     1      -2.250  51.017 -26.926  1.00  0.00     0.101 C 
HETATM   33  C7  UNL     1      -1.008  50.599 -26.132  1.00  0.00     0.051 C 
BRANCH  32  34
HETATM   34  O2  UNL     1      -1.829  51.661 -28.141  1.00  0.00    -0.385 OA
HETATM   35  H14 UNL     1      -1.128  51.125 -28.548  1.00  0.00     0.210 HD
ENDBRANCH  32  34
BRANCH  32  36
HETATM   36  C8  UNL     1      -3.034  49.758 -27.358  1.00  0.00     0.204 C 
BRANCH  36  37
HETATM   37  O3  UNL     1      -3.706  50.003 -28.597  1.00  0.00    -0.398 OA
HETATM   38  H17 UNL     1      -3.030  50.411 -29.181  1.00  0.00     0.209 HD
ENDBRANCH  36  37
ENDBRANCH  32  36
ENDBRANCH  29  32
ENDBRANCH  28  29
ENDBRANCH  27  28
ENDBRANCH  25  27
ENDBRANCH   1  25
TORSDOF 9
ENDMDL
MODEL 9
REMARK minimizedAffinity -8.98720264
REMARK  9 active torsions:
REMARK  status: ('A' for Active; 'I' for Inactive)
REMARK    1  A    between atoms: C2_2  and  C3_3 
REMARK    2  A    between atoms: C2_2  and  C9_12 
REMARK    3  A    between atoms: C3_3  and  C4_4 
REMARK    4  A    between atoms: C4_4  and  C5_5 
REMARK    5  A    between atoms: C5_5  and  O1_6 
REMARK    6  A    between atoms: C5_5  and  C6_7 
REMARK    7  A    between atoms: C6_7  and  O2_9 
REMARK    8  A    between atoms: C6_7  and  C8_10 
REMARK    9  A    between atoms: C8_10  and  O3_11 
ROOT
HETATM    1  C9  UNL     1      -2.060  48.859 -18.372  1.00  0.00    -0.002 C 
HETATM    2  C10 UNL     1      -2.966  47.759 -18.989  1.00  0.00     0.007 C 
HETATM    3  C11 UNL     1      -2.995  48.000 -20.511  1.00  0.00     0.015 C 
HETATM    4  C12 UNL     1      -1.826  48.965 -20.791  1.00  0.00    -0.005 C 
HETATM    5  C13 UNL     1      -0.531  48.099 -20.875  1.00  0.00     0.021 C 
HETATM    6  C14 UNL     1      -1.798  49.811 -22.059  1.00  0.00    -0.000 C 
HETATM    7  C15 UNL     1      -1.180  51.023 -22.080  1.00  0.00    -0.060 C 
HETATM    8  C16 UNL     1      -0.543  51.600 -20.809  1.00  0.00     0.036 C 
HETATM    9  C17 UNL     1      -0.694  50.799 -19.500  1.00  0.00     0.015 C 
HETATM   10  C18 UNL     1      -1.938  49.905 -19.521  1.00  0.00    -0.028 C 
HETATM   11  C19 UNL     1      -3.197  50.820 -19.553  1.00  0.00     0.016 C 
HETATM   12  C20 UNL     1      -1.133  51.921 -23.348  1.00  0.00    -0.014 C 
HETATM   13  C21 UNL     1      -2.335  52.886 -23.220  1.00  0.00     0.020 C 
HETATM   14  C22 UNL     1       0.182  52.738 -23.425  1.00  0.00     0.021 C 
HETATM   15  C23 UNL     1       0.328  53.536 -24.711  1.00  0.00     0.080 C 
HETATM   16  C24 UNL     1       0.250  52.635 -25.919  1.00  0.00     0.135 C 
HETATM   17  O4  UNL     1       1.067  52.768 -26.832  1.00  0.00    -0.297 OA
HETATM   18  C25 UNL     1      -0.932  51.658 -26.009  1.00  0.00     0.018 C 
HETATM   19  C26 UNL     1      -0.549  50.557 -27.032  1.00  0.00     0.023 C 
HETATM   20  C27 UNL     1      -2.133  52.418 -26.593  1.00  0.00     0.023 C 
HETATM   21  C28 UNL     1      -1.177  50.992 -24.609  1.00  0.00     0.020 C 
HETATM   22  C29 UNL     1      -2.422  50.101 -24.558  1.00  0.00     0.090 C 
HETATM   23  C30 UNL     1      -2.434  49.264 -23.301  1.00  0.00     0.157 C 
HETATM   24  O5  UNL     1      -2.982  48.164 -23.309  1.00  0.00    -0.293 OA
ENDROOT
BRANCH   1  25
HETATM   25  C2  UNL     1      -2.440  49.228 -16.905  1.00  0.00    -0.014 C 
HETATM   26  C1  UNL     1      -3.072  50.607 -16.677  1.00  0.00     0.010 C 
BRANCH  25  27
HETATM   27  C3  UNL     1      -1.253  49.009 -15.942  1.00  0.00     0.007 C 
BRANCH  27  28
HETATM   28  C4  UNL     1      -0.035  49.931 -16.116  1.00  0.00     0.035 C 
BRANCH  28  29
HETATM   29  C5  UNL     1       0.804  50.286 -14.872  1.00  0.00     0.154 C 
BRANCH  29  30
HETATM   30  O1  UNL     1       1.521  49.114 -14.472  1.00  0.00    -0.392 OA
HETATM   31  H10 UNL     1       2.163  49.379 -13.784  1.00  0.00     0.210 HD
ENDBRANCH  29  30
BRANCH  29  32
HETATM   32  C6  UNL     1       1.718  51.555 -14.975  1.00  0.00     0.101 C 
HETATM   33  C7  UNL     1       3.123  51.277 -14.432  1.00  0.00     0.051 C 
BRANCH  32  34
HETATM   34  O2  UNL     1       1.144  52.649 -14.239  1.00  0.00    -0.385 OA
HETATM   35  H14 UNL     1       1.806  53.356 -14.170  1.00  0.00     0.210 HD
ENDBRANCH  32  34
BRANCH  32  36
HETATM   36  C8  UNL     1       1.817  52.032 -16.442  1.00  0.00     0.204 C 
BRANCH  36  37
HETATM   37  O3  UNL     1       2.430  53.324 -16.494  1.00  0.00    -0.398 OA
HETATM   38  H17 UNL     1       3.225  53.255 -15.922  1.00  0.00     0.209 HD
ENDBRANCH  36  37
ENDBRANCH  32  36
ENDBRANCH  29  32
ENDBRANCH  28  29
ENDBRANCH  27  28
ENDBRANCH  25  27
ENDBRANCH   1  25
TORSDOF 9
ENDMDL
