MODEL 1
REMARK minimizedAffinity -9.17027283
REMARK  8 active torsions:
REMARK  status: ('A' for Active; 'I' for Inactive)
REMARK    1  A    between atoms: C2_2  and  C3_3 
REMARK    2  A    between atoms: C2_2  and  C9_12 
REMARK    3  A    between atoms: C3_3  and  C4_4 
REMARK    4  A    between atoms: C4_4  and  C5_5 
REMARK    5  A    between atoms: C6_6  and  C7_7 
REMARK    6  A    between atoms: C6_6  and  C8_9 
REMARK    7  A    between atoms: C7_7  and  O1_8 
REMARK    8  A    between atoms: C8_9  and  O3_11 
ROOT
HETATM    1  C9  UNL     1      -2.996   7.831  14.016  1.00  0.00    -0.002 C 
HETATM    2  C10 UNL     1      -2.271   8.422  15.265  1.00  0.00     0.006 C 
HETATM    3  C11 UNL     1      -0.804   7.938  15.212  1.00  0.00     0.011 C 
HETATM    4  C12 UNL     1      -0.616   7.437  13.771  1.00  0.00    -0.032 C 
HETATM    5  C13 UNL     1      -0.381   8.711  12.900  1.00  0.00     0.016 C 
HETATM    6  C14 UNL     1       0.544   6.424  13.521  1.00  0.00     0.004 C 
HETATM    7  C15 UNL     1       1.935   6.889  13.959  1.00  0.00     0.007 C 
HETATM    8  C16 UNL     1       2.843   7.562  12.935  1.00  0.00     0.007 C 
HETATM    9  C17 UNL     1       2.429   7.560  11.453  1.00  0.00     0.010 C 
HETATM   10  C18 UNL     1       3.653   7.705  10.486  1.00  0.00     0.018 C 
HETATM   11  C19 UNL     1       4.429   9.005  10.789  1.00  0.00     0.023 C 
HETATM   12  C20 UNL     1       4.645   6.528  10.551  1.00  0.00     0.023 C 
HETATM   13  C21 UNL     1       3.115   7.778   9.049  1.00  0.00     0.135 C 
HETATM   14  O4  UNL     1       3.462   8.648   8.249  1.00  0.00    -0.297 OA
HETATM   15  C22 UNL     1       2.181   6.677   8.618  1.00  0.00     0.080 C 
HETATM   16  C23 UNL     1       1.018   6.576   9.586  1.00  0.00     0.018 C 
HETATM   17  C24 UNL     1       1.482   6.430  11.031  1.00  0.00    -0.026 A 
HETATM   18  C25 UNL     1       1.645   5.038  11.589  1.00  0.00     0.021 A 
HETATM   19  C26 UNL     1       0.484   5.891  12.077  1.00  0.00    -0.027 A 
HETATM   20  C27 UNL     1      -0.907   5.374  11.675  1.00  0.00     0.011 C 
HETATM   21  C28 UNL     1      -2.071   6.313  12.048  1.00  0.00     0.011 C 
HETATM   22  C29 UNL     1      -2.012   6.722  13.530  1.00  0.00    -0.032 C 
HETATM   23  C30 UNL     1      -2.232   5.438  14.385  1.00  0.00     0.016 C 
ENDROOT
BRANCH   1  24
HETATM   24  C2  UNL     1      -4.526   7.596  14.228  1.00  0.00    -0.014 C 
HETATM   25  C1  UNL     1      -5.211   8.473  15.283  1.00  0.00     0.010 C 
BRANCH  24  26
HETATM   26  C3  UNL     1      -4.830   6.094  14.447  1.00  0.00     0.008 C 
BRANCH  26  27
HETATM   27  C4  UNL     1      -6.012   5.528  13.643  1.00  0.00     0.028 C 
BRANCH  27  28
HETATM   28  C5  UNL     1      -5.647   4.480  12.631  1.00  0.00    -0.011 C 
HETATM   29  C6  UNL     1      -6.237   3.274  12.487  1.00  0.00     0.035 C 
BRANCH  29  30
HETATM   30  C7  UNL     1      -7.430   2.807  13.266  1.00  0.00     0.209 C 
BRANCH  30  31
HETATM   31  O1  UNL     1      -8.166   1.882  12.474  1.00  0.00    -0.396 OA
HETATM   32  H12 UNL     1      -9.016   1.742  12.925  1.00  0.00     0.209 HD
ENDBRANCH  30  31
ENDBRANCH  29  30
BRANCH  29  33
HETATM   33  C8  UNL     1      -5.764   2.319  11.453  1.00  0.00     0.173 C 
HETATM   34  O2  UNL     1      -5.743   1.105  11.563  1.00  0.00    -0.646 OA
BRANCH  33  35
HETATM   35  O3  UNL     1      -5.342   2.907  10.320  1.00  0.00    -0.773 OA
HETATM   36  H13 UNL     1      -5.050   2.154   9.766  1.00  0.00     0.167 HD
ENDBRANCH  33  35
ENDBRANCH  29  33
ENDBRANCH  27  28
ENDBRANCH  26  27
ENDBRANCH  24  26
ENDBRANCH   1  24
TORSDOF 8
ENDMDL
MODEL 2
REMARK minimizedAffinity -8.98352814
REMARK  8 active torsions:
REMARK  status: ('A' for Active; 'I' for Inactive)
REMARK    1  A    between atoms: C2_2  and  C3_3 
REMARK    2  A    between atoms: C2_2  and  C9_12 
REMARK    3  A    between atoms: C3_3  and  C4_4 
REMARK    4  A    between atoms: C4_4  and  C5_5 
REMARK    5  A    between atoms: C6_6  and  C7_7 
REMARK    6  A    between atoms: C6_6  and  C8_9 
REMARK    7  A    between atoms: C7_7  and  O1_8 
REMARK    8  A    between atoms: C8_9  and  O3_11 
ROOT
HETATM    1  C9  UNL     1      -2.690   8.220  14.276  1.00  0.00    -0.002 C 
HETATM    2  C10 UNL     1      -1.884   8.794  15.483  1.00  0.00     0.006 C 
HETATM    3  C11 UNL     1      -0.439   8.260  15.361  1.00  0.00     0.011 C 
HETATM    4  C12 UNL     1      -0.340   7.742  13.917  1.00  0.00    -0.032 C 
HETATM    5  C13 UNL     1      -0.106   9.002  13.025  1.00  0.00     0.016 C 
HETATM    6  C14 UNL     1       0.770   6.688  13.619  1.00  0.00     0.004 C 
HETATM    7  C15 UNL     1       2.196   7.108  13.983  1.00  0.00     0.007 C 
HETATM    8  C16 UNL     1       3.075   7.742  12.909  1.00  0.00     0.007 C 
HETATM    9  C17 UNL     1       2.588   7.744  11.450  1.00  0.00     0.010 C 
HETATM   10  C18 UNL     1       3.766   7.840  10.422  1.00  0.00     0.018 C 
HETATM   11  C19 UNL     1       4.600   9.114  10.675  1.00  0.00     0.023 C 
HETATM   12  C20 UNL     1       4.719   6.630  10.448  1.00  0.00     0.023 C 
HETATM   13  C21 UNL     1       3.160   7.922   9.012  1.00  0.00     0.135 C 
HETATM   14  O4  UNL     1       3.497   8.774   8.189  1.00  0.00    -0.297 OA
HETATM   15  C22 UNL     1       2.168   6.851   8.638  1.00  0.00     0.080 C 
HETATM   16  C23 UNL     1       1.053   6.797   9.663  1.00  0.00     0.018 C 
HETATM   17  C24 UNL     1       1.582   6.645  11.085  1.00  0.00    -0.026 A 
HETATM   18  C25 UNL     1       1.725   5.252  11.646  1.00  0.00     0.021 A 
HETATM   19  C26 UNL     1       0.620   6.148  12.183  1.00  0.00    -0.027 A 
HETATM   20  C27 UNL     1      -0.806   5.677  11.855  1.00  0.00     0.011 C 
HETATM   21  C28 UNL     1      -1.917   6.658  12.278  1.00  0.00     0.011 C 
HETATM   22  C29 UNL     1      -1.770   7.074  13.752  1.00  0.00    -0.032 C 
HETATM   23  C30 UNL     1      -1.991   5.805  14.627  1.00  0.00     0.016 C 
ENDROOT
BRANCH   1  24
HETATM   24  C2  UNL     1      -4.215   8.040  14.566  1.00  0.00    -0.014 C 
HETATM   25  C1  UNL     1      -4.850   9.050  15.528  1.00  0.00     0.010 C 
BRANCH  24  26
HETATM   26  C3  UNL     1      -4.531   6.581  14.976  1.00  0.00     0.008 C 
BRANCH  26  27
HETATM   27  C4  UNL     1      -5.113   5.687  13.869  1.00  0.00     0.028 C 
BRANCH  27  28
HETATM   28  C5  UNL     1      -6.480   6.081  13.386  1.00  0.00    -0.011 C 
HETATM   29  C6  UNL     1      -7.541   5.258  13.245  1.00  0.00     0.035 C 
BRANCH  29  30
HETATM   30  C7  UNL     1      -7.559   3.811  13.635  1.00  0.00     0.209 C 
BRANCH  30  31
HETATM   31  O1  UNL     1      -8.641   3.167  12.972  1.00  0.00    -0.396 OA
HETATM   32  H12 UNL     1      -8.736   2.290  13.381  1.00  0.00     0.209 HD
ENDBRANCH  30  31
ENDBRANCH  29  30
BRANCH  29  33
HETATM   33  C8  UNL     1      -8.836   5.775  12.736  1.00  0.00     0.173 C 
HETATM   34  O2  UNL     1      -9.107   5.989  11.567  1.00  0.00    -0.646 OA
BRANCH  33  35
HETATM   35  O3  UNL     1      -9.749   6.000  13.698  1.00  0.00    -0.773 OA
HETATM   36  H13 UNL     1     -10.519   6.351  13.206  1.00  0.00     0.167 HD
ENDBRANCH  33  35
ENDBRANCH  29  33
ENDBRANCH  27  28
ENDBRANCH  26  27
ENDBRANCH  24  26
ENDBRANCH   1  24
TORSDOF 8
ENDMDL
MODEL 3
REMARK minimizedAffinity -8.94135284
REMARK  8 active torsions:
REMARK  status: ('A' for Active; 'I' for Inactive)
REMARK    1  A    between atoms: C2_2  and  C3_3 
REMARK    2  A    between atoms: C2_2  and  C9_12 
REMARK    3  A    between atoms: C3_3  and  C4_4 
REMARK    4  A    between atoms: C4_4  and  C5_5 
REMARK    5  A    between atoms: C6_6  and  C7_7 
REMARK    6  A    between atoms: C6_6  and  C8_9 
REMARK    7  A    between atoms: C7_7  and  O1_8 
REMARK    8  A    between atoms: C8_9  and  O3_11 
ROOT
HETATM    1  C9  UNL     1      -6.831   7.069  14.015  1.00  0.00    -0.002 C 
HETATM    2  C10 UNL     1      -6.668   8.444  14.736  1.00  0.00     0.006 C 
HETATM    3  C11 UNL     1      -5.193   8.553  15.183  1.00  0.00     0.011 C 
HETATM    4  C12 UNL     1      -4.466   7.462  14.381  1.00  0.00    -0.032 C 
HETATM    5  C13 UNL     1      -4.232   8.061  12.957  1.00  0.00     0.016 C 
HETATM    6  C14 UNL     1      -3.107   6.952  14.952  1.00  0.00     0.004 C 
HETATM    7  C15 UNL     1      -2.047   8.028  15.201  1.00  0.00     0.007 C 
HETATM    8  C16 UNL     1      -1.019   8.315  14.111  1.00  0.00     0.007 C 
HETATM    9  C17 UNL     1      -0.938   7.378  12.894  1.00  0.00     0.010 C 
HETATM   10  C18 UNL     1       0.472   7.399  12.211  1.00  0.00     0.018 C 
HETATM   11  C19 UNL     1       0.835   8.832  11.767  1.00  0.00     0.023 C 
HETATM   12  C20 UNL     1       1.609   6.872  13.106  1.00  0.00     0.023 C 
HETATM   13  C21 UNL     1       0.409   6.501  10.966  1.00  0.00     0.135 C 
HETATM   14  O4  UNL     1       0.806   6.865   9.859  1.00  0.00    -0.297 OA
HETATM   15  C22 UNL     1      -0.101   5.097  11.169  1.00  0.00     0.080 C 
HETATM   16  C23 UNL     1      -1.464   5.132  11.834  1.00  0.00     0.018 C 
HETATM   17  C24 UNL     1      -1.457   5.952  13.119  1.00  0.00    -0.026 A 
HETATM   18  C25 UNL     1      -1.201   5.234  14.421  1.00  0.00     0.021 A 
HETATM   19  C26 UNL     1      -2.603   5.749  14.132  1.00  0.00    -0.027 A 
HETATM   20  C27 UNL     1      -3.663   4.652  13.942  1.00  0.00     0.011 C 
HETATM   21  C28 UNL     1      -5.049   5.170  13.512  1.00  0.00     0.011 C 
HETATM   22  C29 UNL     1      -5.541   6.297  14.436  1.00  0.00    -0.032 C 
HETATM   23  C30 UNL     1      -5.755   5.688  15.854  1.00  0.00     0.016 C 
ENDROOT
BRANCH   1  24
HETATM   24  C2  UNL     1      -8.269   6.469  14.119  1.00  0.00    -0.014 C 
HETATM   25  C1  UNL     1      -8.854   5.873  12.833  1.00  0.00     0.010 C 
BRANCH  24  26
HETATM   26  C3  UNL     1      -9.243   7.476  14.777  1.00  0.00     0.008 C 
BRANCH  26  27
HETATM   27  C4  UNL     1     -10.727   7.306  14.413  1.00  0.00     0.028 C 
BRANCH  27  28
HETATM   28  C5  UNL     1     -11.384   8.528  13.838  1.00  0.00    -0.011 C 
HETATM   29  C6  UNL     1     -12.563   8.562  13.180  1.00  0.00     0.035 C 
BRANCH  29  30
HETATM   30  C7  UNL     1     -13.469   7.384  12.988  1.00  0.00     0.209 C 
BRANCH  30  31
HETATM   31  O1  UNL     1     -14.588   7.783  12.204  1.00  0.00    -0.396 OA
HETATM   32  H12 UNL     1     -15.235   7.060  12.253  1.00  0.00     0.209 HD
ENDBRANCH  30  31
ENDBRANCH  29  30
BRANCH  29  33
HETATM   33  C8  UNL     1     -13.092   9.841  12.643  1.00  0.00     0.173 C 
HETATM   34  O2  UNL     1     -13.863  10.589  13.219  1.00  0.00    -0.646 OA
BRANCH  33  35
HETATM   35  O3  UNL     1     -12.639  10.146  11.414  1.00  0.00    -0.773 OA
HETATM   36  H13 UNL     1     -13.092  10.988  11.205  1.00  0.00     0.167 HD
ENDBRANCH  33  35
ENDBRANCH  29  33
ENDBRANCH  27  28
ENDBRANCH  26  27
ENDBRANCH  24  26
ENDBRANCH   1  24
TORSDOF 8
ENDMDL
MODEL 4
REMARK minimizedAffinity -8.89264393
REMARK  8 active torsions:
REMARK  status: ('A' for Active; 'I' for Inactive)
REMARK    1  A    between atoms: C2_2  and  C3_3 
REMARK    2  A    between atoms: C2_2  and  C9_12 
REMARK    3  A    between atoms: C3_3  and  C4_4 
REMARK    4  A    between atoms: C4_4  and  C5_5 
REMARK    5  A    between atoms: C6_6  and  C7_7 
REMARK    6  A    between atoms: C6_6  and  C8_9 
REMARK    7  A    between atoms: C7_7  and  O1_8 
REMARK    8  A    between atoms: C8_9  and  O3_11 
ROOT
HETATM    1  C9  UNL     1      -1.378   6.378  13.286  1.00  0.00    -0.002 C 
HETATM    2  C10 UNL     1      -1.370   5.699  11.881  1.00  0.00     0.006 C 
HETATM    3  C11 UNL     1      -0.231   6.351  11.066  1.00  0.00     0.011 C 
HETATM    4  C12 UNL     1       0.628   7.076  12.115  1.00  0.00    -0.032 C 
HETATM    5  C13 UNL     1       1.525   5.978  12.769  1.00  0.00     0.016 C 
HETATM    6  C14 UNL     1       1.531   8.241  11.607  1.00  0.00     0.004 C 
HETATM    7  C15 UNL     1       2.507   7.881  10.484  1.00  0.00     0.007 C 
HETATM    8  C16 UNL     1       3.931   7.473  10.848  1.00  0.00     0.007 C 
HETATM    9  C17 UNL     1       4.409   7.644  12.300  1.00  0.00     0.010 C 
HETATM   10  C18 UNL     1       5.967   7.784  12.409  1.00  0.00     0.018 C 
HETATM   11  C19 UNL     1       6.663   6.552  11.792  1.00  0.00     0.023 C 
HETATM   12  C20 UNL     1       6.530   9.045  11.727  1.00  0.00     0.023 C 
HETATM   13  C21 UNL     1       6.332   7.861  13.899  1.00  0.00     0.135 C 
HETATM   14  O4  UNL     1       7.210   7.162  14.408  1.00  0.00    -0.297 OA
HETATM   15  C22 UNL     1       5.612   8.898  14.722  1.00  0.00     0.080 C 
HETATM   16  C23 UNL     1       4.113   8.722  14.580  1.00  0.00     0.018 C 
HETATM   17  C24 UNL     1       3.669   8.707  13.122  1.00  0.00    -0.026 A 
HETATM   18  C25 UNL     1       3.247  10.012  12.493  1.00  0.00     0.021 A 
HETATM   19  C26 UNL     1       2.184   8.969  12.798  1.00  0.00    -0.027 A 
HETATM   20  C27 UNL     1       1.179   9.375  13.889  1.00  0.00     0.011 C 
HETATM   21  C28 UNL     1       0.191   8.264  14.295  1.00  0.00     0.011 C 
HETATM   22  C29 UNL     1      -0.505   7.653  13.065  1.00  0.00    -0.032 C 
HETATM   23  C30 UNL     1      -1.383   8.764  12.416  1.00  0.00     0.016 C 
ENDROOT
BRANCH   1  24
HETATM   24  C2  UNL     1      -2.784   6.402  13.966  1.00  0.00    -0.014 C 
HETATM   25  C1  UNL     1      -2.839   6.941  15.400  1.00  0.00     0.010 C 
BRANCH  24  26
HETATM   26  C3  UNL     1      -3.482   5.026  13.845  1.00  0.00     0.008 C 
BRANCH  26  27
HETATM   27  C4  UNL     1      -4.463   4.876  12.671  1.00  0.00     0.028 C 
BRANCH  27  28
HETATM   28  C5  UNL     1      -5.701   4.081  12.974  1.00  0.00    -0.011 C 
HETATM   29  C6  UNL     1      -6.243   3.123  12.192  1.00  0.00     0.035 C 
BRANCH  29  30
HETATM   30  C7  UNL     1      -5.642   2.622  10.914  1.00  0.00     0.209 C 
BRANCH  30  31
HETATM   31  O1  UNL     1      -5.004   1.375  11.160  1.00  0.00    -0.396 OA
HETATM   32  H12 UNL     1      -4.476   1.170  10.370  1.00  0.00     0.209 HD
ENDBRANCH  30  31
ENDBRANCH  29  30
BRANCH  29  33
HETATM   33  C8  UNL     1      -7.487   2.425  12.604  1.00  0.00     0.173 C 
HETATM   34  O2  UNL     1      -8.530   2.965  12.927  1.00  0.00    -0.646 OA
BRANCH  33  35
HETATM   35  O3  UNL     1      -7.389   1.084  12.591  1.00  0.00    -0.773 OA
HETATM   36  H13 UNL     1      -8.269   0.787  12.903  1.00  0.00     0.167 HD
ENDBRANCH  33  35
ENDBRANCH  29  33
ENDBRANCH  27  28
ENDBRANCH  26  27
ENDBRANCH  24  26
ENDBRANCH   1  24
TORSDOF 8
ENDMDL
MODEL 5
REMARK minimizedAffinity -8.80479527
REMARK  8 active torsions:
REMARK  status: ('A' for Active; 'I' for Inactive)
REMARK    1  A    between atoms: C2_2  and  C3_3 
REMARK    2  A    between atoms: C2_2  and  C9_12 
REMARK    3  A    between atoms: C3_3  and  C4_4 
REMARK    4  A    between atoms: C4_4  and  C5_5 
REMARK    5  A    between atoms: C6_6  and  C7_7 
REMARK    6  A    between atoms: C6_6  and  C8_9 
REMARK    7  A    between atoms: C7_7  and  O1_8 
REMARK    8  A    between atoms: C8_9  and  O3_11 
ROOT
HETATM    1  C9  UNL     1      -1.273   6.558  13.314  1.00  0.00    -0.002 C 
HETATM    2  C10 UNL     1      -1.249   5.912  11.893  1.00  0.00     0.006 C 
HETATM    3  C11 UNL     1      -0.105   6.587  11.105  1.00  0.00     0.011 C 
HETATM    4  C12 UNL     1       0.740   7.291  12.179  1.00  0.00    -0.032 C 
HETATM    5  C13 UNL     1       1.636   6.182  12.816  1.00  0.00     0.016 C 
HETATM    6  C14 UNL     1       1.643   8.471  11.706  1.00  0.00     0.004 C 
HETATM    7  C15 UNL     1       2.632   8.141  10.584  1.00  0.00     0.007 C 
HETATM    8  C16 UNL     1       4.054   7.731  10.953  1.00  0.00     0.007 C 
HETATM    9  C17 UNL     1       4.518   7.870  12.413  1.00  0.00     0.010 C 
HETATM   10  C18 UNL     1       6.073   8.014  12.540  1.00  0.00     0.018 C 
HETATM   11  C19 UNL     1       6.780   6.800  11.902  1.00  0.00     0.023 C 
HETATM   12  C20 UNL     1       6.638   9.293  11.893  1.00  0.00     0.023 C 
HETATM   13  C21 UNL     1       6.424   8.058  14.035  1.00  0.00     0.135 C 
HETATM   14  O4  UNL     1       7.300   7.352  14.536  1.00  0.00    -0.297 OA
HETATM   15  C22 UNL     1       5.692   9.073  14.874  1.00  0.00     0.080 C 
HETATM   16  C23 UNL     1       4.195   8.894  14.714  1.00  0.00     0.018 C 
HETATM   17  C24 UNL     1       3.765   8.911  13.251  1.00  0.00    -0.026 A 
HETATM   18  C25 UNL     1       3.343  10.229  12.649  1.00  0.00     0.021 A 
HETATM   19  C26 UNL     1       2.281   9.174  12.920  1.00  0.00    -0.027 A 
HETATM   20  C27 UNL     1       1.264   9.551  14.010  1.00  0.00     0.011 C 
HETATM   21  C28 UNL     1       0.277   8.427  14.380  1.00  0.00     0.011 C 
HETATM   22  C29 UNL     1      -0.404   7.841  13.131  1.00  0.00    -0.032 C 
HETATM   23  C30 UNL     1      -1.280   8.963  12.499  1.00  0.00     0.016 C 
ENDROOT
BRANCH   1  24
HETATM   24  C2  UNL     1      -2.686   6.561  13.981  1.00  0.00    -0.014 C 
HETATM   25  C1  UNL     1      -2.752   7.038  15.436  1.00  0.00     0.010 C 
BRANCH  24  26
HETATM   26  C3  UNL     1      -3.390   5.195  13.793  1.00  0.00     0.008 C 
BRANCH  26  27
HETATM   27  C4  UNL     1      -4.747   5.237  13.072  1.00  0.00     0.028 C 
BRANCH  27  28
HETATM   28  C5  UNL     1      -5.206   3.923  12.507  1.00  0.00    -0.011 C 
HETATM   29  C6  UNL     1      -6.443   3.394  12.627  1.00  0.00     0.035 C 
BRANCH  29  30
HETATM   30  C7  UNL     1      -7.606   4.079  13.279  1.00  0.00     0.209 C 
BRANCH  30  31
HETATM   31  O1  UNL     1      -8.775   3.291  13.083  1.00  0.00    -0.396 OA
HETATM   32  H12 UNL     1      -9.530   3.842  13.351  1.00  0.00     0.209 HD
ENDBRANCH  30  31
ENDBRANCH  29  30
BRANCH  29  33
HETATM   33  C8  UNL     1      -6.760   2.071  12.034  1.00  0.00     0.173 C 
HETATM   34  O2  UNL     1      -6.197   1.568  11.077  1.00  0.00    -0.646 OA
BRANCH  33  35
HETATM   35  O3  UNL     1      -7.758   1.419  12.656  1.00  0.00    -0.773 OA
HETATM   36  H13 UNL     1      -7.853   0.594  12.137  1.00  0.00     0.167 HD
ENDBRANCH  33  35
ENDBRANCH  29  33
ENDBRANCH  27  28
ENDBRANCH  26  27
ENDBRANCH  24  26
ENDBRANCH   1  24
TORSDOF 8
ENDMDL
MODEL 6
REMARK minimizedAffinity -8.74120712
REMARK  8 active torsions:
REMARK  status: ('A' for Active; 'I' for Inactive)
REMARK    1  A    between atoms: C2_2  and  C3_3 
REMARK    2  A    between atoms: C2_2  and  C9_12 
REMARK    3  A    between atoms: C3_3  and  C4_4 
REMARK    4  A    between atoms: C4_4  and  C5_5 
REMARK    5  A    between atoms: C6_6  and  C7_7 
REMARK    6  A    between atoms: C6_6  and  C8_9 
REMARK    7  A    between atoms: C7_7  and  O1_8 
REMARK    8  A    between atoms: C8_9  and  O3_11 
ROOT
HETATM    1  C9  UNL     1      -5.172   8.190  14.362  1.00  0.00    -0.002 C 
HETATM    2  C10 UNL     1      -4.748   9.184  15.488  1.00  0.00     0.006 C 
HETATM    3  C11 UNL     1      -3.263   8.901  15.811  1.00  0.00     0.011 C 
HETATM    4  C12 UNL     1      -2.764   8.060  14.625  1.00  0.00    -0.032 C 
HETATM    5  C13 UNL     1      -2.473   9.073  13.473  1.00  0.00     0.016 C 
HETATM    6  C14 UNL     1      -1.500   7.179  14.865  1.00  0.00     0.004 C 
HETATM    7  C15 UNL     1      -0.260   7.923  15.367  1.00  0.00     0.007 C 
HETATM    8  C16 UNL     1       0.768   8.409  14.351  1.00  0.00     0.007 C 
HETATM    9  C17 UNL     1       0.645   7.955  12.886  1.00  0.00     0.010 C 
HETATM   10  C18 UNL     1       2.015   7.994  12.127  1.00  0.00     0.018 C 
HETATM   11  C19 UNL     1       2.611   9.418  12.163  1.00  0.00     0.023 C 
HETATM   12  C20 UNL     1       3.069   7.019  12.686  1.00  0.00     0.023 C 
HETATM   13  C21 UNL     1       1.757   7.607  10.663  1.00  0.00     0.135 C 
HETATM   14  O4  UNL     1       2.177   8.268   9.713  1.00  0.00    -0.297 OA
HETATM   15  C22 UNL     1       1.014   6.318  10.424  1.00  0.00     0.080 C 
HETATM   16  C23 UNL     1      -0.300   6.329  11.181  1.00  0.00     0.018 C 
HETATM   17  C24 UNL     1      -0.109   6.639  12.662  1.00  0.00    -0.026 A 
HETATM   18  C25 UNL     1       0.057   5.481  13.616  1.00  0.00     0.021 A 
HETATM   19  C26 UNL     1      -1.241   6.275  13.645  1.00  0.00    -0.027 A 
HETATM   20  C27 UNL     1      -2.484   5.491  13.192  1.00  0.00     0.011 C 
HETATM   21  C28 UNL     1      -3.770   6.334  13.088  1.00  0.00     0.011 C 
HETATM   22  C29 UNL     1      -4.026   7.130  14.380  1.00  0.00    -0.032 C 
HETATM   23  C30 UNL     1      -4.300   6.106  15.521  1.00  0.00     0.016 C 
ENDROOT
BRANCH   1  24
HETATM   24  C2  UNL     1      -6.690   7.821  14.386  1.00  0.00    -0.014 C 
HETATM   25  C1  UNL     1      -7.607   8.760  15.179  1.00  0.00     0.010 C 
BRANCH  24  26
HETATM   26  C3  UNL     1      -6.894   6.342  14.793  1.00  0.00     0.008 C 
BRANCH  26  27
HETATM   27  C4  UNL     1      -7.525   5.436  13.724  1.00  0.00     0.028 C 
BRANCH  27  28
HETATM   28  C5  UNL     1      -6.555   4.835  12.748  1.00  0.00    -0.011 C 
HETATM   29  C6  UNL     1      -6.453   3.526  12.431  1.00  0.00     0.035 C 
BRANCH  29  30
HETATM   30  C7  UNL     1      -7.362   2.449  12.942  1.00  0.00     0.209 C 
BRANCH  30  31
HETATM   31  O1  UNL     1      -8.713   2.860  12.762  1.00  0.00    -0.396 OA
HETATM   32  H12 UNL     1      -9.264   2.235  13.261  1.00  0.00     0.209 HD
ENDBRANCH  30  31
ENDBRANCH  29  30
BRANCH  29  33
HETATM   33  C8  UNL     1      -5.432   3.060  11.460  1.00  0.00     0.173 C 
HETATM   34  O2  UNL     1      -5.575   3.005  10.251  1.00  0.00    -0.646 OA
BRANCH  33  35
HETATM   35  O3  UNL     1      -4.270   2.689  12.025  1.00  0.00    -0.773 OA
HETATM   36  H13 UNL     1      -3.728   2.394  11.265  1.00  0.00     0.167 HD
ENDBRANCH  33  35
ENDBRANCH  29  33
ENDBRANCH  27  28
ENDBRANCH  26  27
ENDBRANCH  24  26
ENDBRANCH   1  24
TORSDOF 8
ENDMDL
MODEL 7
REMARK minimizedAffinity -8.37853718
REMARK  8 active torsions:
REMARK  status: ('A' for Active; 'I' for Inactive)
REMARK    1  A    between atoms: C2_2  and  C3_3 
REMARK    2  A    between atoms: C2_2  and  C9_12 
REMARK    3  A    between atoms: C3_3  and  C4_4 
REMARK    4  A    between atoms: C4_4  and  C5_5 
REMARK    5  A    between atoms: C6_6  and  C7_7 
REMARK    6  A    between atoms: C6_6  and  C8_9 
REMARK    7  A    between atoms: C7_7  and  O1_8 
REMARK    8  A    between atoms: C8_9  and  O3_11 
ROOT
HETATM    1  C9  UNL     1      -5.015   6.402  14.539  1.00  0.00    -0.002 C 
HETATM    2  C10 UNL     1      -4.050   5.629  13.586  1.00  0.00     0.006 C 
HETATM    3  C11 UNL     1      -2.874   6.578  13.262  1.00  0.00     0.011 C 
HETATM    4  C12 UNL     1      -2.971   7.689  14.320  1.00  0.00    -0.032 C 
HETATM    5  C13 UNL     1      -2.331   7.101  15.618  1.00  0.00     0.016 C 
HETATM    6  C14 UNL     1      -2.288   9.049  13.982  1.00  0.00     0.004 C 
HETATM    7  C15 UNL     1      -0.800   8.973  13.629  1.00  0.00     0.007 C 
HETATM    8  C16 UNL     1       0.231   9.191  14.732  1.00  0.00     0.007 C 
HETATM    9  C17 UNL     1      -0.241   9.691  16.108  1.00  0.00     0.010 C 
HETATM   10  C18 UNL     1       0.890  10.433  16.899  1.00  0.00     0.018 C 
HETATM   11  C19 UNL     1       2.110   9.507  17.092  1.00  0.00     0.023 C 
HETATM   12  C20 UNL     1       1.376  11.731  16.227  1.00  0.00     0.023 C 
HETATM   13  C21 UNL     1       0.334  10.808  18.281  1.00  0.00     0.135 C 
HETATM   14  O4  UNL     1       0.932  10.563  19.330  1.00  0.00    -0.297 OA
HETATM   15  C22 UNL     1      -0.966  11.569  18.305  1.00  0.00     0.080 C 
HETATM   16  C23 UNL     1      -2.024  10.813  17.525  1.00  0.00     0.018 C 
HETATM   17  C24 UNL     1      -1.564  10.468  16.113  1.00  0.00    -0.026 A 
HETATM   18  C25 UNL     1      -1.897  11.431  15.001  1.00  0.00     0.021 A 
HETATM   19  C26 UNL     1      -2.627  10.098  15.059  1.00  0.00    -0.027 A 
HETATM   20  C27 UNL     1      -4.131  10.201  15.357  1.00  0.00     0.011 C 
HETATM   21  C28 UNL     1      -4.839   8.846  15.554  1.00  0.00     0.011 C 
HETATM   22  C29 UNL     1      -4.544   7.883  14.391  1.00  0.00    -0.032 C 
HETATM   23  C30 UNL     1      -5.175   8.490  13.102  1.00  0.00     0.016 C 
ENDROOT
BRANCH   1  24
HETATM   24  C2  UNL     1      -6.508   5.955  14.422  1.00  0.00    -0.014 C 
HETATM   25  C1  UNL     1      -7.006   4.960  15.476  1.00  0.00     0.010 C 
BRANCH  24  26
HETATM   26  C3  UNL     1      -6.832   5.478  12.986  1.00  0.00     0.008 C 
BRANCH  26  27
HETATM   27  C4  UNL     1      -6.733   3.962  12.748  1.00  0.00     0.028 C 
BRANCH  27  28
HETATM   28  C5  UNL     1      -5.342   3.445  12.514  1.00  0.00    -0.011 C 
HETATM   29  C6  UNL     1      -5.006   2.382  11.752  1.00  0.00     0.035 C 
BRANCH  29  30
HETATM   30  C7  UNL     1      -5.969   1.583  10.927  1.00  0.00     0.209 C 
BRANCH  30  31
HETATM   31  O1  UNL     1      -6.856   0.888  11.797  1.00  0.00    -0.396 OA
HETATM   32  H12 UNL     1      -7.339   0.247  11.248  1.00  0.00     0.209 HD
ENDBRANCH  30  31
ENDBRANCH  29  30
BRANCH  29  33
HETATM   33  C8  UNL     1      -3.587   1.964  11.621  1.00  0.00     0.173 C 
HETATM   34  O2  UNL     1      -2.620   2.701  11.696  1.00  0.00    -0.646 OA
BRANCH  33  35
HETATM   35  O3  UNL     1      -3.425   0.646  11.410  1.00  0.00    -0.773 OA
HETATM   36  H13 UNL     1      -2.454   0.545  11.327  1.00  0.00     0.167 HD
ENDBRANCH  33  35
ENDBRANCH  29  33
ENDBRANCH  27  28
ENDBRANCH  26  27
ENDBRANCH  24  26
ENDBRANCH   1  24
TORSDOF 8
ENDMDL
MODEL 8
REMARK minimizedAffinity -8.33098602
REMARK  8 active torsions:
REMARK  status: ('A' for Active; 'I' for Inactive)
REMARK    1  A    between atoms: C2_2  and  C3_3 
REMARK    2  A    between atoms: C2_2  and  C9_12 
REMARK    3  A    between atoms: C3_3  and  C4_4 
REMARK    4  A    between atoms: C4_4  and  C5_5 
REMARK    5  A    between atoms: C6_6  and  C7_7 
REMARK    6  A    between atoms: C6_6  and  C8_9 
REMARK    7  A    between atoms: C7_7  and  O1_8 
REMARK    8  A    between atoms: C8_9  and  O3_11 
ROOT
HETATM    1  C9  UNL     1       0.436   7.640  15.171  1.00  0.00    -0.002 C 
HETATM    2  C10 UNL     1       0.335   8.756  16.257  1.00  0.00     0.006 C 
HETATM    3  C11 UNL     1      -1.062   9.403  16.117  1.00  0.00     0.011 C 
HETATM    4  C12 UNL     1      -1.862   8.410  15.259  1.00  0.00    -0.032 C 
HETATM    5  C13 UNL     1      -2.322   7.277  16.230  1.00  0.00     0.016 C 
HETATM    6  C14 UNL     1      -3.104   8.972  14.502  1.00  0.00     0.004 C 
HETATM    7  C15 UNL     1      -4.152   9.670  15.373  1.00  0.00     0.007 C 
HETATM    8  C16 UNL     1      -5.337   8.860  15.889  1.00  0.00     0.007 C 
HETATM    9  C17 UNL     1      -5.564   7.438  15.348  1.00  0.00     0.010 C 
HETATM   10  C18 UNL     1      -7.059   6.982  15.461  1.00  0.00     0.018 C 
HETATM   11  C19 UNL     1      -7.531   7.042  16.930  1.00  0.00     0.023 C 
HETATM   12  C20 UNL     1      -8.034   7.817  14.610  1.00  0.00     0.023 C 
HETATM   13  C21 UNL     1      -7.149   5.528  14.975  1.00  0.00     0.135 C 
HETATM   14  O4  UNL     1      -7.716   4.643  15.618  1.00  0.00    -0.297 OA
HETATM   15  C22 UNL     1      -6.568   5.230  13.617  1.00  0.00     0.080 C 
HETATM   16  C23 UNL     1      -5.125   5.692  13.558  1.00  0.00     0.018 C 
HETATM   17  C24 UNL     1      -4.971   7.154  13.962  1.00  0.00    -0.026 A 
HETATM   18  C25 UNL     1      -5.009   8.200  12.876  1.00  0.00     0.021 A 
HETATM   19  C26 UNL     1      -3.683   7.900  13.558  1.00  0.00    -0.027 A 
HETATM   20  C27 UNL     1      -2.625   7.253  12.649  1.00  0.00     0.011 C 
HETATM   21  C28 UNL     1      -1.335   6.823  13.374  1.00  0.00     0.011 C 
HETATM   22  C29 UNL     1      -0.751   7.972  14.214  1.00  0.00    -0.032 C 
HETATM   23  C30 UNL     1      -0.312   9.100  13.233  1.00  0.00     0.016 C 
ENDROOT
BRANCH   1  24
HETATM   24  C2  UNL     1       1.893   7.370  14.678  1.00  0.00    -0.014 C 
HETATM   25  C1  UNL     1       3.022   7.777  15.633  1.00  0.00     0.010 C 
BRANCH  24  26
HETATM   26  C3  UNL     1       2.112   7.942  13.257  1.00  0.00     0.008 C 
BRANCH  26  27
HETATM   27  C4  UNL     1       2.143   6.909  12.118  1.00  0.00     0.028 C 
BRANCH  27  28
HETATM   28  C5  UNL     1       1.797   7.449  10.760  1.00  0.00    -0.011 C 
HETATM   29  C6  UNL     1       2.674   7.879   9.828  1.00  0.00     0.035 C 
BRANCH  29  30
HETATM   30  C7  UNL     1       4.166   7.805   9.959  1.00  0.00     0.209 C 
BRANCH  30  31
HETATM   31  O1  UNL     1       4.580   6.457   9.770  1.00  0.00    -0.396 OA
HETATM   32  H12 UNL     1       5.513   6.412  10.040  1.00  0.00     0.209 HD
ENDBRANCH  30  31
ENDBRANCH  29  30
BRANCH  29  33
HETATM   33  C8  UNL     1       2.195   8.410   8.527  1.00  0.00     0.173 C 
HETATM   34  O2  UNL     1       2.886   8.606   7.542  1.00  0.00    -0.646 OA
BRANCH  33  35
HETATM   35  O3  UNL     1       0.876   8.671   8.497  1.00  0.00    -0.773 OA
HETATM   36  H13 UNL     1       0.734   9.028   7.596  1.00  0.00     0.167 HD
ENDBRANCH  33  35
ENDBRANCH  29  33
ENDBRANCH  27  28
ENDBRANCH  26  27
ENDBRANCH  24  26
ENDBRANCH   1  24
TORSDOF 8
ENDMDL
MODEL 9
REMARK minimizedAffinity -8.2962389
REMARK  8 active torsions:
REMARK  status: ('A' for Active; 'I' for Inactive)
REMARK    1  A    between atoms: C2_2  and  C3_3 
REMARK    2  A    between atoms: C2_2  and  C9_12 
REMARK    3  A    between atoms: C3_3  and  C4_4 
REMARK    4  A    between atoms: C4_4  and  C5_5 
REMARK    5  A    between atoms: C6_6  and  C7_7 
REMARK    6  A    between atoms: C6_6  and  C8_9 
REMARK    7  A    between atoms: C7_7  and  O1_8 
REMARK    8  A    between atoms: C8_9  and  O3_11 
ROOT
HETATM    1  C9  UNL     1      -1.135   6.063  13.695  1.00  0.00    -0.002 C 
HETATM    2  C10 UNL     1       0.312   5.846  13.151  1.00  0.00     0.006 C 
HETATM    3  C11 UNL     1       1.086   7.164  13.379  1.00  0.00     0.011 C 
HETATM    4  C12 UNL     1       0.226   7.948  14.383  1.00  0.00    -0.032 C 
HETATM    5  C13 UNL     1       0.549   7.345  15.787  1.00  0.00     0.016 C 
HETATM    6  C14 UNL     1       0.427   9.494  14.430  1.00  0.00     0.004 C 
HETATM    7  C15 UNL     1       1.859   9.968  14.687  1.00  0.00     0.007 C 
HETATM    8  C16 UNL     1       2.288  10.274  16.119  1.00  0.00     0.007 C 
HETATM    9  C17 UNL     1       1.222  10.310  17.227  1.00  0.00     0.010 C 
HETATM   10  C18 UNL     1       1.649  11.197  18.446  1.00  0.00     0.018 C 
HETATM   11  C19 UNL     1       2.978  10.687  19.044  1.00  0.00     0.023 C 
HETATM   12  C20 UNL     1       1.818  12.689  18.105  1.00  0.00     0.023 C 
HETATM   13  C21 UNL     1       0.555  11.088  19.519  1.00  0.00     0.135 C 
HETATM   14  O4  UNL     1       0.800  10.839  20.700  1.00  0.00    -0.297 OA
HETATM   15  C22 UNL     1      -0.858  11.375  19.078  1.00  0.00     0.080 C 
HETATM   16  C23 UNL     1      -1.220  10.495  17.897  1.00  0.00     0.018 C 
HETATM   17  C24 UNL     1      -0.209  10.608  16.762  1.00  0.00    -0.026 A 
HETATM   18  C25 UNL     1      -0.471  11.619  15.673  1.00  0.00     0.021 A 
HETATM   19  C26 UNL     1      -0.625  10.140  15.352  1.00  0.00    -0.027 A 
HETATM   20  C27 UNL     1      -2.064   9.697  15.040  1.00  0.00     0.011 C 
HETATM   21  C28 UNL     1      -2.239   8.177  14.853  1.00  0.00     0.011 C 
HETATM   22  C29 UNL     1      -1.227   7.614  13.840  1.00  0.00    -0.032 C 
HETATM   23  C30 UNL     1      -1.552   8.236  12.450  1.00  0.00     0.016 C 
ENDROOT
BRANCH   1  24
HETATM   24  C2  UNL     1      -2.216   5.198  12.970  1.00  0.00    -0.014 C 
HETATM   25  C1  UNL     1      -1.816   4.601  11.616  1.00  0.00     0.010 C 
BRANCH  24  26
HETATM   26  C3  UNL     1      -3.565   5.952  12.888  1.00  0.00     0.008 C 
BRANCH  26  27
HETATM   27  C4  UNL     1      -4.767   5.243  13.534  1.00  0.00     0.028 C 
BRANCH  27  28
HETATM   28  C5  UNL     1      -5.281   4.050  12.782  1.00  0.00    -0.011 C 
HETATM   29  C6  UNL     1      -6.452   3.414  13.001  1.00  0.00     0.035 C 
BRANCH  29  30
HETATM   30  C7  UNL     1      -7.491   3.854  13.988  1.00  0.00     0.209 C 
BRANCH  30  31
HETATM   31  O1  UNL     1      -8.572   4.454  13.285  1.00  0.00    -0.396 OA
HETATM   32  H12 UNL     1      -9.133   4.887  13.951  1.00  0.00     0.209 HD
ENDBRANCH  30  31
ENDBRANCH  29  30
BRANCH  29  33
HETATM   33  C8  UNL     1      -6.832   2.228  12.194  1.00  0.00     0.173 C 
HETATM   34  O2  UNL     1      -6.156   1.720  11.316  1.00  0.00    -0.646 OA
BRANCH  33  35
HETATM   35  O3  UNL     1      -8.033   1.713  12.512  1.00  0.00    -0.773 OA
HETATM   36  H13 UNL     1      -8.137   0.969  11.885  1.00  0.00     0.167 HD
ENDBRANCH  33  35
ENDBRANCH  29  33
ENDBRANCH  27  28
ENDBRANCH  26  27
ENDBRANCH  24  26
ENDBRANCH   1  24
TORSDOF 8
ENDMDL
