MODEL 1
REMARK minimizedAffinity -9.66723156
REMARK  8 active torsions:
REMARK  status: ('A' for Active; 'I' for Inactive)
REMARK    1  A    between atoms: C4_4  and  C5_5 
REMARK    2  A    between atoms: C5_5  and  C6_6 
REMARK    3  A    between atoms: C6_6  and  C7_7 
REMARK    4  A    between atoms: C7_7  and  C9_9 
REMARK    5  A    between atoms: C25_26  and  C27_28 
REMARK    6  A    between atoms: C27_28  and  O3_30 
REMARK    7  A    between atoms: C28_31  and  O4_32 
REMARK    8  A    between atoms: C30_34  and  O5_35 
ROOT
HETATM    1  C9  UNL     1      -2.257  48.820 -18.477  1.00  0.00    -0.002 C 
HETATM    2  C10 UNL     1      -3.264  47.825 -19.121  1.00  0.00     0.007 C 
HETATM    3  C11 UNL     1      -3.252  48.085 -20.640  1.00  0.00     0.015 C 
HETATM    4  C12 UNL     1      -1.983  48.920 -20.898  1.00  0.00    -0.005 C 
HETATM    5  C13 UNL     1      -0.785  47.920 -20.975  1.00  0.00     0.021 C 
HETATM    6  C14 UNL     1      -1.848  49.766 -22.162  1.00  0.00    -0.000 C 
HETATM    7  C15 UNL     1      -1.099  50.902 -22.172  1.00  0.00    -0.058 C 
HETATM    8  C16 UNL     1      -0.425  51.398 -20.879  1.00  0.00     0.036 C 
HETATM    9  C17 UNL     1      -0.677  50.604 -19.582  1.00  0.00     0.015 C 
HETATM   10  C18 UNL     1      -2.010  49.854 -19.620  1.00  0.00    -0.028 C 
HETATM   11  C19 UNL     1      -3.155  50.906 -19.672  1.00  0.00     0.016 C 
HETATM   12  C20 UNL     1      -0.909  51.800 -23.437  1.00  0.00     0.011 C 
HETATM   13  C21 UNL     1      -1.927  52.954 -23.269  1.00  0.00     0.023 C 
HETATM   14  C22 UNL     1      -1.158  50.934 -24.717  1.00  0.00     0.029 C 
HETATM   15  C23 UNL     1      -2.481  50.170 -24.637  1.00  0.00     0.090 C 
HETATM   16  C24 UNL     1      -2.544  49.305 -23.405  1.00  0.00     0.157 C 
HETATM   17  O1  UNL     1      -3.204  48.266 -23.424  1.00  0.00    -0.293 OA
HETATM   18  C25 UNL     1      -0.937  51.648 -26.107  1.00  0.00     0.072 C 
HETATM   19  C26 UNL     1      -0.324  50.606 -27.085  1.00  0.00     0.030 C 
HETATM   20  C28 UNL     1       0.003  52.877 -25.975  1.00  0.00     0.139 C 
HETATM   21  C29 UNL     1       1.094  52.656 -24.934  1.00  0.00     0.065 C 
HETATM   22  C30 UNL     1       0.567  52.343 -23.529  1.00  0.00     0.133 C 
ENDROOT
BRANCH   1  23
HETATM   23  C7  UNL     1      -2.650  49.202 -17.018  1.00  0.00    -0.014 C 
HETATM   24  C8  UNL     1      -2.974  50.682 -16.766  1.00  0.00     0.010 C 
BRANCH  23  25
HETATM   25  C6  UNL     1      -1.672  48.724 -15.914  1.00  0.00     0.008 C 
BRANCH  25  26
HETATM   26  C5  UNL     1      -0.179  48.792 -16.275  1.00  0.00     0.028 C 
BRANCH  26  27
HETATM   27  C4  UNL     1       0.345  50.180 -16.502  1.00  0.00    -0.025 C 
HETATM   28  C2  UNL     1       1.227  50.870 -15.752  1.00  0.00    -0.091 C 
HETATM   29  C1  UNL     1       1.874  50.370 -14.490  1.00  0.00     0.042 C 
HETATM   30  C3  UNL     1       1.661  52.254 -16.159  1.00  0.00     0.042 C 
ENDBRANCH  26  27
ENDBRANCH  25  26
ENDBRANCH  23  25
ENDBRANCH   1  23
BRANCH  22  31
HETATM   31  O5  UNL     1       0.768  53.495 -22.704  1.00  0.00    -0.394 OA
HETATM   32  H46 UNL     1       0.296  54.251 -23.094  1.00  0.00     0.210 HD
ENDBRANCH  22  31
BRANCH  18  33
HETATM   33  C27 UNL     1      -2.254  52.108 -26.742  1.00  0.00     0.151 C 
HETATM   34  O2  UNL     1      -3.018  52.963 -26.329  1.00  0.00    -0.649 OA
BRANCH  33  35
HETATM   35  O3  UNL     1      -2.536  51.511 -27.915  1.00  0.00    -0.776 OA
HETATM   36  H40 UNL     1      -3.394  51.913 -28.172  1.00  0.00     0.167 HD
ENDBRANCH  33  35
ENDBRANCH  18  33
BRANCH  20  37
HETATM   37  O4  UNL     1       0.630  53.173 -27.227  1.00  0.00    -0.394 OA
HETATM   38  H42 UNL     1       1.126  54.005 -27.127  1.00  0.00     0.210 HD
ENDBRANCH  20  37
TORSDOF 8
ENDMDL
MODEL 2
REMARK minimizedAffinity -9.37474918
REMARK  8 active torsions:
REMARK  status: ('A' for Active; 'I' for Inactive)
REMARK    1  A    between atoms: C4_4  and  C5_5 
REMARK    2  A    between atoms: C5_5  and  C6_6 
REMARK    3  A    between atoms: C6_6  and  C7_7 
REMARK    4  A    between atoms: C7_7  and  C9_9 
REMARK    5  A    between atoms: C25_26  and  C27_28 
REMARK    6  A    between atoms: C27_28  and  O3_30 
REMARK    7  A    between atoms: C28_31  and  O4_32 
REMARK    8  A    between atoms: C30_34  and  O5_35 
ROOT
HETATM    1  C9  UNL     1      -4.971  47.848 -19.895  1.00  0.00    -0.002 C 
HETATM    2  C10 UNL     1      -5.654  47.033 -21.030  1.00  0.00     0.007 C 
HETATM    3  C11 UNL     1      -5.042  47.506 -22.362  1.00  0.00     0.015 C 
HETATM    4  C12 UNL     1      -3.764  48.274 -21.971  1.00  0.00    -0.005 C 
HETATM    5  C13 UNL     1      -2.644  47.210 -21.738  1.00  0.00     0.021 C 
HETATM    6  C14 UNL     1      -3.133  49.281 -22.929  1.00  0.00    -0.000 C 
HETATM    7  C15 UNL     1      -2.428  50.348 -22.465  1.00  0.00    -0.058 C 
HETATM    8  C16 UNL     1      -2.312  50.602 -20.951  1.00  0.00     0.036 C 
HETATM    9  C17 UNL     1      -3.064  49.651 -19.999  1.00  0.00     0.015 C 
HETATM   10  C18 UNL     1      -4.282  49.015 -20.670  1.00  0.00    -0.028 C 
HETATM   11  C19 UNL     1      -5.302  50.144 -20.992  1.00  0.00     0.016 C 
HETATM   12  C20 UNL     1      -1.745  51.403 -23.396  1.00  0.00     0.011 C 
HETATM   13  C21 UNL     1      -2.733  52.593 -23.451  1.00  0.00     0.023 C 
HETATM   14  C22 UNL     1      -1.479  50.751 -24.794  1.00  0.00     0.029 C 
HETATM   15  C23 UNL     1      -2.735  50.083 -25.356  1.00  0.00     0.090 C 
HETATM   16  C24 UNL     1      -3.288  49.056 -24.402  1.00  0.00     0.157 C 
HETATM   17  O1  UNL     1      -3.898  48.082 -24.842  1.00  0.00    -0.293 OA
HETATM   18  C25 UNL     1      -0.721  51.639 -25.855  1.00  0.00     0.072 C 
HETATM   19  C26 UNL     1       0.217  50.706 -26.673  1.00  0.00     0.030 C 
HETATM   20  C28 UNL     1       0.105  52.764 -25.173  1.00  0.00     0.139 C 
HETATM   21  C29 UNL     1       0.695  52.315 -23.841  1.00  0.00     0.065 C 
HETATM   22  C30 UNL     1      -0.346  51.843 -22.820  1.00  0.00     0.133 C 
ENDROOT
BRANCH   1  23
HETATM   23  C7  UNL     1      -5.903  48.044 -18.661  1.00  0.00    -0.014 C 
HETATM   24  C8  UNL     1      -5.602  47.166 -17.437  1.00  0.00     0.010 C 
BRANCH  23  25
HETATM   25  C6  UNL     1      -7.423  47.968 -18.952  1.00  0.00     0.008 C 
BRANCH  25  26
HETATM   26  C5  UNL     1      -8.314  48.855 -18.065  1.00  0.00     0.028 C 
BRANCH  26  27
HETATM   27  C4  UNL     1      -9.484  48.145 -17.450  1.00  0.00    -0.025 C 
HETATM   28  C2  UNL     1     -10.645  47.789 -18.037  1.00  0.00    -0.091 C 
HETATM   29  C1  UNL     1     -11.011  48.053 -19.472  1.00  0.00     0.042 C 
HETATM   30  C3  UNL     1     -11.701  47.048 -17.259  1.00  0.00     0.042 C 
ENDBRANCH  26  27
ENDBRANCH  25  26
ENDBRANCH  23  25
ENDBRANCH   1  23
BRANCH  22  31
HETATM   31  O5  UNL     1      -0.474  52.847 -21.808  1.00  0.00    -0.394 OA
HETATM   32  H46 UNL     1      -0.745  53.684 -22.222  1.00  0.00     0.210 HD
ENDBRANCH  22  31
BRANCH  18  33
HETATM   33  C27 UNL     1      -1.675  52.282 -26.867  1.00  0.00     0.151 C 
HETATM   34  O2  UNL     1      -2.555  53.095 -26.644  1.00  0.00    -0.649 OA
BRANCH  33  35
HETATM   35  O3  UNL     1      -1.449  51.917 -28.143  1.00  0.00    -0.776 OA
HETATM   36  H40 UNL     1      -2.137  52.409 -28.643  1.00  0.00     0.167 HD
ENDBRANCH  33  35
ENDBRANCH  18  33
BRANCH  20  37
HETATM   37  O4  UNL     1       1.178  53.189 -26.019  1.00  0.00    -0.394 OA
HETATM   38  H42 UNL     1       1.603  53.960 -25.602  1.00  0.00     0.210 HD
ENDBRANCH  20  37
TORSDOF 8
ENDMDL
MODEL 3
REMARK minimizedAffinity -9.23300457
REMARK  8 active torsions:
REMARK  status: ('A' for Active; 'I' for Inactive)
REMARK    1  A    between atoms: C4_4  and  C5_5 
REMARK    2  A    between atoms: C5_5  and  C6_6 
REMARK    3  A    between atoms: C6_6  and  C7_7 
REMARK    4  A    between atoms: C7_7  and  C9_9 
REMARK    5  A    between atoms: C25_26  and  C27_28 
REMARK    6  A    between atoms: C27_28  and  O3_30 
REMARK    7  A    between atoms: C28_31  and  O4_32 
REMARK    8  A    between atoms: C30_34  and  O5_35 
ROOT
HETATM    1  C9  UNL     1      -1.242  50.943 -23.048  1.00  0.00    -0.002 C 
HETATM    2  C10 UNL     1      -0.644  52.379 -23.062  1.00  0.00     0.007 C 
HETATM    3  C11 UNL     1      -0.150  52.680 -21.635  1.00  0.00     0.015 C 
HETATM    4  C12 UNL     1      -0.096  51.312 -20.927  1.00  0.00    -0.005 C 
HETATM    5  C13 UNL     1       1.250  50.636 -21.340  1.00  0.00     0.021 C 
HETATM    6  C14 UNL     1      -0.112  51.219 -19.403  1.00  0.00    -0.000 C 
HETATM    7  C15 UNL     1      -0.638  50.136 -18.769  1.00  0.00    -0.058 C 
HETATM    8  C16 UNL     1      -1.298  49.007 -19.582  1.00  0.00     0.036 C 
HETATM    9  C17 UNL     1      -1.391  49.176 -21.111  1.00  0.00     0.015 C 
HETATM   10  C18 UNL     1      -1.404  50.649 -21.524  1.00  0.00    -0.028 C 
HETATM   11  C19 UNL     1      -2.708  51.294 -20.972  1.00  0.00     0.016 C 
HETATM   12  C20 UNL     1      -0.668  49.976 -17.214  1.00  0.00     0.011 C 
HETATM   13  C21 UNL     1      -2.091  50.411 -16.790  1.00  0.00     0.023 C 
HETATM   14  C22 UNL     1       0.463  50.860 -16.591  1.00  0.00     0.029 C 
HETATM   15  C23 UNL     1       0.411  52.298 -17.111  1.00  0.00     0.090 C 
HETATM   16  C24 UNL     1       0.489  52.342 -18.615  1.00  0.00     0.157 C 
HETATM   17  O1  UNL     1       0.994  53.318 -19.170  1.00  0.00    -0.293 OA
HETATM   18  C25 UNL     1       0.646  50.774 -15.026  1.00  0.00     0.072 C 
HETATM   19  C26 UNL     1       2.167  50.874 -14.718  1.00  0.00     0.030 C 
HETATM   20  C28 UNL     1       0.070  49.448 -14.456  1.00  0.00     0.139 C 
HETATM   21  C29 UNL     1       0.264  48.280 -15.415  1.00  0.00     0.065 C 
HETATM   22  C30 UNL     1      -0.372  48.487 -16.794  1.00  0.00     0.133 C 
ENDROOT
BRANCH   1  23
HETATM   23  C7  UNL     1      -2.374  50.760 -24.104  1.00  0.00    -0.014 C 
HETATM   24  C8  UNL     1      -2.847  49.320 -24.351  1.00  0.00     0.010 C 
BRANCH  23  25
HETATM   25  C6  UNL     1      -2.122  51.432 -25.478  1.00  0.00     0.008 C 
BRANCH  25  26
HETATM   26  C5  UNL     1      -1.311  50.599 -26.485  1.00  0.00     0.028 C 
BRANCH  26  27
HETATM   27  C4  UNL     1       0.178  50.702 -26.324  1.00  0.00    -0.025 C 
HETATM   28  C2  UNL     1       1.043  51.453 -27.034  1.00  0.00    -0.091 C 
HETATM   29  C1  UNL     1       0.673  52.359 -28.177  1.00  0.00     0.042 C 
HETATM   30  C3  UNL     1       2.512  51.450 -26.703  1.00  0.00     0.042 C 
ENDBRANCH  26  27
ENDBRANCH  25  26
ENDBRANCH  23  25
ENDBRANCH   1  23
BRANCH  22  31
HETATM   31  O5  UNL     1      -1.538  47.662 -16.882  1.00  0.00    -0.394 OA
HETATM   32  H46 UNL     1      -2.155  47.907 -16.172  1.00  0.00     0.210 HD
ENDBRANCH  22  31
BRANCH  18  33
HETATM   33  C27 UNL     1      -0.018  51.946 -14.295  1.00  0.00     0.151 C 
HETATM   34  O2  UNL     1      -1.167  52.016 -13.894  1.00  0.00    -0.649 OA
BRANCH  33  35
HETATM   35  O3  UNL     1       0.811  52.976 -14.043  1.00  0.00    -0.776 OA
HETATM   36  H40 UNL     1       0.232  53.623 -13.583  1.00  0.00     0.167 HD
ENDBRANCH  33  35
ENDBRANCH  18  33
BRANCH  20  37
HETATM   37  O4  UNL     1       0.696  49.117 -13.212  1.00  0.00    -0.394 OA
HETATM   38  H42 UNL     1       0.237  48.342 -12.840  1.00  0.00     0.210 HD
ENDBRANCH  20  37
TORSDOF 8
ENDMDL
MODEL 4
REMARK minimizedAffinity -9.18826962
REMARK  8 active torsions:
REMARK  status: ('A' for Active; 'I' for Inactive)
REMARK    1  A    between atoms: C4_4  and  C5_5 
REMARK    2  A    between atoms: C5_5  and  C6_6 
REMARK    3  A    between atoms: C6_6  and  C7_7 
REMARK    4  A    between atoms: C7_7  and  C9_9 
REMARK    5  A    between atoms: C25_26  and  C27_28 
REMARK    6  A    between atoms: C27_28  and  O3_30 
REMARK    7  A    between atoms: C28_31  and  O4_32 
REMARK    8  A    between atoms: C30_34  and  O5_35 
ROOT
HETATM    1  C9  UNL     1      -0.568  51.491 -16.989  1.00  0.00    -0.002 C 
HETATM    2  C10 UNL     1       0.940  51.867 -17.038  1.00  0.00     0.007 C 
HETATM    3  C11 UNL     1       1.285  52.176 -18.508  1.00  0.00     0.015 C 
HETATM    4  C12 UNL     1      -0.073  52.365 -19.212  1.00  0.00    -0.005 C 
HETATM    5  C13 UNL     1      -0.536  53.829 -18.926  1.00  0.00     0.021 C 
HETATM    6  C14 UNL     1      -0.196  52.221 -20.727  1.00  0.00    -0.000 C 
HETATM    7  C15 UNL     1      -1.356  51.805 -21.303  1.00  0.00    -0.058 C 
HETATM    8  C16 UNL     1      -2.555  51.399 -20.426  1.00  0.00     0.036 C 
HETATM    9  C17 UNL     1      -2.373  51.425 -18.896  1.00  0.00     0.015 C 
HETATM   10  C18 UNL     1      -0.911  51.232 -18.490  1.00  0.00    -0.028 C 
HETATM   11  C19 UNL     1      -0.476  49.801 -18.918  1.00  0.00     0.016 C 
HETATM   12  C20 UNL     1      -1.548  51.654 -22.847  1.00  0.00     0.011 C 
HETATM   13  C21 UNL     1      -1.335  50.148 -23.135  1.00  0.00     0.023 C 
HETATM   14  C22 UNL     1      -0.518  52.578 -23.580  1.00  0.00     0.029 C 
HETATM   15  C23 UNL     1       0.906  52.362 -23.062  1.00  0.00     0.090 C 
HETATM   16  C24 UNL     1       0.989  52.572 -21.573  1.00  0.00     0.157 C 
HETATM   17  O1  UNL     1       2.039  52.977 -21.073  1.00  0.00    -0.293 OA
HETATM   18  C25 UNL     1      -0.605  52.624 -25.154  1.00  0.00     0.072 C 
HETATM   19  C26 UNL     1      -0.287  54.077 -25.606  1.00  0.00     0.030 C 
HETATM   20  C28 UNL     1      -2.011  52.201 -25.661  1.00  0.00     0.139 C 
HETATM   21  C29 UNL     1      -3.121  52.655 -24.720  1.00  0.00     0.065 C 
HETATM   22  C30 UNL     1      -2.984  52.127 -23.287  1.00  0.00     0.133 C 
ENDROOT
BRANCH   1  23
HETATM   23  C7  UNL     1      -0.896  50.502 -15.830  1.00  0.00    -0.014 C 
HETATM   24  C8  UNL     1      -0.315  49.086 -15.959  1.00  0.00     0.010 C 
BRANCH  23  25
HETATM   25  C6  UNL     1      -2.396  50.380 -15.458  1.00  0.00     0.008 C 
BRANCH  25  26
HETATM   26  C5  UNL     1      -2.706  50.339 -13.952  1.00  0.00     0.028 C 
BRANCH  26  27
HETATM   27  C4  UNL     1      -3.072  51.666 -13.354  1.00  0.00    -0.025 C 
HETATM   28  C2  UNL     1      -3.548  51.920 -12.119  1.00  0.00    -0.091 C 
HETATM   29  C1  UNL     1      -3.825  50.884 -11.064  1.00  0.00     0.042 C 
HETATM   30  C3  UNL     1      -3.831  53.333 -11.682  1.00  0.00     0.042 C 
ENDBRANCH  26  27
ENDBRANCH  25  26
ENDBRANCH  23  25
ENDBRANCH   1  23
BRANCH  22  31
HETATM   31  O5  UNL     1      -3.971  51.110 -23.084  1.00  0.00    -0.394 OA
HETATM   32  H46 UNL     1      -3.832  50.399 -23.734  1.00  0.00     0.210 HD
ENDBRANCH  22  31
BRANCH  18  33
HETATM   33  C27 UNL     1       0.442  51.727 -25.824  1.00  0.00     0.151 C 
HETATM   34  O2  UNL     1       0.339  50.546 -26.103  1.00  0.00    -0.649 OA
BRANCH  33  35
HETATM   35  O3  UNL     1       1.573  52.371 -26.171  1.00  0.00    -0.776 OA
HETATM   36  H40 UNL     1       2.120  51.661 -26.574  1.00  0.00     0.167 HD
ENDBRANCH  33  35
ENDBRANCH  18  33
BRANCH  20  37
HETATM   37  O4  UNL     1      -2.269  52.749 -26.957  1.00  0.00    -0.394 OA
HETATM   38  H42 UNL     1      -3.110  52.378 -27.280  1.00  0.00     0.210 HD
ENDBRANCH  20  37
TORSDOF 8
ENDMDL
MODEL 5
REMARK minimizedAffinity -9.16419125
REMARK  8 active torsions:
REMARK  status: ('A' for Active; 'I' for Inactive)
REMARK    1  A    between atoms: C4_4  and  C5_5 
REMARK    2  A    between atoms: C5_5  and  C6_6 
REMARK    3  A    between atoms: C6_6  and  C7_7 
REMARK    4  A    between atoms: C7_7  and  C9_9 
REMARK    5  A    between atoms: C25_26  and  C27_28 
REMARK    6  A    between atoms: C27_28  and  O3_30 
REMARK    7  A    between atoms: C28_31  and  O4_32 
REMARK    8  A    between atoms: C30_34  and  O5_35 
ROOT
HETATM    1  C9  UNL     1      -0.569  50.466 -21.668  1.00  0.00    -0.002 C 
HETATM    2  C10 UNL     1      -0.534  50.108 -20.154  1.00  0.00     0.007 C 
HETATM    3  C11 UNL     1      -1.838  49.351 -19.835  1.00  0.00     0.015 C 
HETATM    4  C12 UNL     1      -2.411  48.935 -21.204  1.00  0.00    -0.005 C 
HETATM    5  C13 UNL     1      -1.663  47.634 -21.637  1.00  0.00     0.021 C 
HETATM    6  C14 UNL     1      -3.889  48.589 -21.360  1.00  0.00    -0.000 C 
HETATM    7  C15 UNL     1      -4.539  48.790 -22.538  1.00  0.00    -0.058 C 
HETATM    8  C16 UNL     1      -3.807  49.442 -23.726  1.00  0.00     0.036 C 
HETATM    9  C17 UNL     1      -2.353  49.906 -23.512  1.00  0.00     0.015 C 
HETATM   10  C18 UNL     1      -2.066  50.231 -22.046  1.00  0.00    -0.028 C 
HETATM   11  C19 UNL     1      -2.937  51.456 -21.643  1.00  0.00     0.016 C 
HETATM   12  C20 UNL     1      -6.047  48.441 -22.765  1.00  0.00     0.011 C 
HETATM   13  C21 UNL     1      -6.803  49.779 -22.583  1.00  0.00     0.023 C 
HETATM   14  C22 UNL     1      -6.473  47.341 -21.735  1.00  0.00     0.029 C 
HETATM   15  C23 UNL     1      -6.086  47.724 -20.305  1.00  0.00     0.090 C 
HETATM   16  C24 UNL     1      -4.610  47.998 -20.187  1.00  0.00     0.157 C 
HETATM   17  O1  UNL     1      -4.033  47.783 -19.121  1.00  0.00    -0.293 OA
HETATM   18  C25 UNL     1      -7.949  46.796 -21.853  1.00  0.00     0.072 C 
HETATM   19  C26 UNL     1      -7.924  45.278 -21.521  1.00  0.00     0.030 C 
HETATM   20  C28 UNL     1      -8.529  47.024 -23.276  1.00  0.00     0.139 C 
HETATM   21  C29 UNL     1      -7.465  46.882 -24.358  1.00  0.00     0.065 C 
HETATM   22  C30 UNL     1      -6.278  47.839 -24.201  1.00  0.00     0.133 C 
ENDROOT
BRANCH   1  23
HETATM   23  C7  UNL     1       0.224  51.768 -21.988  1.00  0.00    -0.014 C 
HETATM   24  C8  UNL     1       0.316  52.804 -20.857  1.00  0.00     0.010 C 
BRANCH  23  25
HETATM   25  C6  UNL     1      -0.193  52.504 -23.287  1.00  0.00     0.008 C 
BRANCH  25  26
HETATM   26  C5  UNL     1       0.889  52.593 -24.377  1.00  0.00     0.028 C 
BRANCH  26  27
HETATM   27  C4  UNL     1       0.401  52.302 -25.766  1.00  0.00    -0.025 C 
HETATM   28  C2  UNL     1       1.109  51.849 -26.820  1.00  0.00    -0.091 C 
HETATM   29  C1  UNL     1       2.582  51.547 -26.812  1.00  0.00     0.042 C 
HETATM   30  C3  UNL     1       0.433  51.585 -28.140  1.00  0.00     0.042 C 
ENDBRANCH  26  27
ENDBRANCH  25  26
ENDBRANCH  23  25
ENDBRANCH   1  23
BRANCH  22  31
HETATM   31  O5  UNL     1      -6.384  48.858 -25.200  1.00  0.00    -0.394 OA
HETATM   32  H46 UNL     1      -7.229  49.327 -25.087  1.00  0.00     0.210 HD
ENDBRANCH  22  31
BRANCH  18  33
HETATM   33  C27 UNL     1      -8.894  47.443 -20.835  1.00  0.00     0.151 C 
HETATM   34  O2  UNL     1     -10.062  47.166 -20.625  1.00  0.00    -0.649 OA
BRANCH  33  35
HETATM   35  O3  UNL     1      -8.313  48.387 -20.070  1.00  0.00    -0.776 OA
HETATM   36  H40 UNL     1      -9.046  48.689 -19.490  1.00  0.00     0.167 HD
ENDBRANCH  33  35
ENDBRANCH  18  33
BRANCH  20  37
HETATM   37  O4  UNL     1      -9.577  46.089 -23.552  1.00  0.00    -0.394 OA
HETATM   38  H42 UNL     1      -9.980  46.331 -24.405  1.00  0.00     0.210 HD
ENDBRANCH  20  37
TORSDOF 8
ENDMDL
MODEL 6
REMARK minimizedAffinity -9.06864166
REMARK  8 active torsions:
REMARK  status: ('A' for Active; 'I' for Inactive)
REMARK    1  A    between atoms: C4_4  and  C5_5 
REMARK    2  A    between atoms: C5_5  and  C6_6 
REMARK    3  A    between atoms: C6_6  and  C7_7 
REMARK    4  A    between atoms: C7_7  and  C9_9 
REMARK    5  A    between atoms: C25_26  and  C27_28 
REMARK    6  A    between atoms: C27_28  and  O3_30 
REMARK    7  A    between atoms: C28_31  and  O4_32 
REMARK    8  A    between atoms: C30_34  and  O5_35 
ROOT
HETATM    1  C9  UNL     1      -1.959  51.002 -22.180  1.00  0.00    -0.002 C 
HETATM    2  C10 UNL     1      -1.269  52.384 -22.367  1.00  0.00     0.007 C 
HETATM    3  C11 UNL     1      -0.459  52.665 -21.087  1.00  0.00     0.015 C 
HETATM    4  C12 UNL     1      -0.362  51.309 -20.362  1.00  0.00    -0.005 C 
HETATM    5  C13 UNL     1       0.809  50.517 -21.028  1.00  0.00     0.021 C 
HETATM    6  C14 UNL     1      -0.059  51.241 -18.868  1.00  0.00    -0.000 C 
HETATM    7  C15 UNL     1      -0.520  50.215 -18.102  1.00  0.00    -0.058 C 
HETATM    8  C16 UNL     1      -1.423  49.131 -18.719  1.00  0.00     0.036 C 
HETATM    9  C17 UNL     1      -1.827  49.284 -20.198  1.00  0.00     0.015 C 
HETATM   10  C18 UNL     1      -1.815  50.746 -20.647  1.00  0.00    -0.028 C 
HETATM   11  C19 UNL     1      -2.916  51.505 -19.853  1.00  0.00     0.016 C 
HETATM   12  C20 UNL     1      -0.229  50.082 -16.571  1.00  0.00     0.011 C 
HETATM   13  C21 UNL     1      -1.492  50.640 -15.870  1.00  0.00     0.023 C 
HETATM   14  C22 UNL     1       1.073  50.880 -16.230  1.00  0.00     0.029 C 
HETATM   15  C23 UNL     1       1.023  52.308 -16.775  1.00  0.00     0.090 C 
HETATM   16  C24 UNL     1       0.781  52.323 -18.261  1.00  0.00     0.157 C 
HETATM   17  O1  UNL     1       1.230  53.245 -18.943  1.00  0.00    -0.293 OA
HETATM   18  C25 UNL     1       1.579  50.803 -14.737  1.00  0.00     0.072 C 
HETATM   19  C26 UNL     1       3.133  50.783 -14.761  1.00  0.00     0.030 C 
HETATM   20  C28 UNL     1       1.037  49.539 -14.015  1.00  0.00     0.139 C 
HETATM   21  C29 UNL     1       0.931  48.343 -14.954  1.00  0.00     0.065 C 
HETATM   22  C30 UNL     1       0.034  48.581 -16.174  1.00  0.00     0.133 C 
ENDROOT
BRANCH   1  23
HETATM   23  C7  UNL     1      -3.300  50.897 -22.966  1.00  0.00    -0.014 C 
HETATM   24  C8  UNL     1      -4.397  51.899 -22.575  1.00  0.00     0.010 C 
BRANCH  23  25
HETATM   25  C6  UNL     1      -3.932  49.483 -23.026  1.00  0.00     0.008 C 
BRANCH  25  26
HETATM   26  C5  UNL     1      -3.113  48.421 -23.778  1.00  0.00     0.028 C 
BRANCH  26  27
HETATM   27  C4  UNL     1      -3.123  48.568 -25.272  1.00  0.00    -0.025 C 
HETATM   28  C2  UNL     1      -4.168  48.442 -26.114  1.00  0.00    -0.091 C 
HETATM   29  C1  UNL     1      -5.577  48.106 -25.708  1.00  0.00     0.042 C 
HETATM   30  C3  UNL     1      -3.990  48.658 -27.594  1.00  0.00     0.042 C 
ENDBRANCH  26  27
ENDBRANCH  25  26
ENDBRANCH  23  25
ENDBRANCH   1  23
BRANCH  22  31
HETATM   31  O5  UNL     1      -1.185  47.853 -15.987  1.00  0.00    -0.394 OA
HETATM   32  H46 UNL     1      -1.616  48.160 -15.170  1.00  0.00     0.210 HD
ENDBRANCH  22  31
BRANCH  18  33
HETATM   33  C27 UNL     1       1.178  52.037 -13.921  1.00  0.00     0.151 C 
HETATM   34  O2  UNL     1       0.094  52.594 -13.901  1.00  0.00    -0.649 OA
BRANCH  33  35
HETATM   35  O3  UNL     1       2.149  52.497 -13.110  1.00  0.00    -0.776 OA
HETATM   36  H40 UNL     1       1.731  53.273 -12.676  1.00  0.00     0.167 HD
ENDBRANCH  33  35
ENDBRANCH  18  33
BRANCH  20  37
HETATM   37  O4  UNL     1       1.886  49.177 -12.922  1.00  0.00    -0.394 OA
HETATM   38  H42 UNL     1       1.459  48.448 -12.436  1.00  0.00     0.210 HD
ENDBRANCH  20  37
TORSDOF 8
ENDMDL
MODEL 7
REMARK minimizedAffinity -9.00693512
REMARK  8 active torsions:
REMARK  status: ('A' for Active; 'I' for Inactive)
REMARK    1  A    between atoms: C4_4  and  C5_5 
REMARK    2  A    between atoms: C5_5  and  C6_6 
REMARK    3  A    between atoms: C6_6  and  C7_7 
REMARK    4  A    between atoms: C7_7  and  C9_9 
REMARK    5  A    between atoms: C25_26  and  C27_28 
REMARK    6  A    between atoms: C27_28  and  O3_30 
REMARK    7  A    between atoms: C28_31  and  O4_32 
REMARK    8  A    between atoms: C30_34  and  O5_35 
ROOT
HETATM    1  C9  UNL     1      -3.568  47.731 -19.402  1.00  0.00    -0.002 C 
HETATM    2  C10 UNL     1      -4.473  46.925 -20.378  1.00  0.00     0.007 C 
HETATM    3  C11 UNL     1      -4.205  47.463 -21.797  1.00  0.00     0.015 C 
HETATM    4  C12 UNL     1      -2.896  48.269 -21.685  1.00  0.00    -0.005 C 
HETATM    5  C13 UNL     1      -1.720  47.244 -21.761  1.00  0.00     0.021 C 
HETATM    6  C14 UNL     1      -2.539  49.329 -22.723  1.00  0.00    -0.000 C 
HETATM    7  C15 UNL     1      -1.779  50.408 -22.395  1.00  0.00    -0.058 C 
HETATM    8  C16 UNL     1      -1.320  50.620 -20.940  1.00  0.00     0.036 C 
HETATM    9  C17 UNL     1      -1.797  49.611 -19.878  1.00  0.00     0.015 C 
HETATM   10  C18 UNL     1      -3.118  48.947 -20.271  1.00  0.00    -0.028 C 
HETATM   11  C19 UNL     1      -4.220  50.045 -20.300  1.00  0.00     0.016 C 
HETATM   12  C20 UNL     1      -1.367  51.518 -23.417  1.00  0.00     0.011 C 
HETATM   13  C21 UNL     1      -2.378  52.669 -23.193  1.00  0.00     0.023 C 
HETATM   14  C22 UNL     1      -1.416  50.920 -24.863  1.00  0.00     0.029 C 
HETATM   15  C23 UNL     1      -2.748  50.220 -25.142  1.00  0.00     0.090 C 
HETATM   16  C24 UNL     1      -3.028  49.144 -24.127  1.00  0.00     0.157 C 
HETATM   17  O1  UNL     1      -3.694  48.160 -24.451  1.00  0.00    -0.293 OA
HETATM   18  C25 UNL     1      -0.957  51.870 -26.036  1.00  0.00     0.072 C 
HETATM   19  C26 UNL     1      -0.208  51.001 -27.086  1.00  0.00     0.030 C 
HETATM   20  C28 UNL     1      -0.030  53.006 -25.522  1.00  0.00     0.139 C 
HETATM   21  C29 UNL     1       0.870  52.540 -24.383  1.00  0.00     0.065 C 
HETATM   22  C30 UNL     1       0.113  51.996 -23.167  1.00  0.00     0.133 C 
ENDROOT
BRANCH   1  23
HETATM   23  C7  UNL     1      -4.190  47.851 -17.978  1.00  0.00    -0.014 C 
HETATM   24  C8  UNL     1      -5.714  47.677 -17.886  1.00  0.00     0.010 C 
BRANCH  23  25
HETATM   25  C6  UNL     1      -3.796  49.120 -17.181  1.00  0.00     0.008 C 
BRANCH  25  26
HETATM   26  C5  UNL     1      -2.877  48.884 -15.970  1.00  0.00     0.028 C 
BRANCH  26  27
HETATM   27  C4  UNL     1      -2.425  50.136 -15.278  1.00  0.00    -0.025 C 
HETATM   28  C2  UNL     1      -2.561  50.465 -13.977  1.00  0.00    -0.091 C 
HETATM   29  C1  UNL     1      -3.226  49.615 -12.930  1.00  0.00     0.042 C 
HETATM   30  C3  UNL     1      -2.009  51.766 -13.454  1.00  0.00     0.042 C 
ENDBRANCH  26  27
ENDBRANCH  25  26
ENDBRANCH  23  25
ENDBRANCH   1  23
BRANCH  22  31
HETATM   31  O5  UNL     1       0.195  52.962 -22.114  1.00  0.00    -0.394 OA
HETATM   32  H46 UNL     1      -0.192  53.800 -22.420  1.00  0.00     0.210 HD
ENDBRANCH  22  31
BRANCH  18  33
HETATM   33  C27 UNL     1      -2.142  52.505 -26.771  1.00  0.00     0.151 C 
HETATM   34  O2  UNL     1      -2.104  53.294 -27.699  1.00  0.00    -0.649 OA
BRANCH  33  35
HETATM   35  O3  UNL     1      -3.345  52.078 -26.344  1.00  0.00    -0.776 OA
HETATM   36  H40 UNL     1      -3.974  52.578 -26.908  1.00  0.00     0.167 HD
ENDBRANCH  33  35
ENDBRANCH  18  33
BRANCH  20  37
HETATM   37  O4  UNL     1       0.800  53.499 -26.577  1.00  0.00    -0.394 OA
HETATM   38  H42 UNL     1       1.287  54.273 -26.241  1.00  0.00     0.210 HD
ENDBRANCH  20  37
TORSDOF 8
ENDMDL
MODEL 8
REMARK minimizedAffinity -8.96407032
REMARK  8 active torsions:
REMARK  status: ('A' for Active; 'I' for Inactive)
REMARK    1  A    between atoms: C4_4  and  C5_5 
REMARK    2  A    between atoms: C5_5  and  C6_6 
REMARK    3  A    between atoms: C6_6  and  C7_7 
REMARK    4  A    between atoms: C7_7  and  C9_9 
REMARK    5  A    between atoms: C25_26  and  C27_28 
REMARK    6  A    between atoms: C27_28  and  O3_30 
REMARK    7  A    between atoms: C28_31  and  O4_32 
REMARK    8  A    between atoms: C30_34  and  O5_35 
ROOT
HETATM    1  C9  UNL     1       6.836  65.912 -35.766  1.00  0.00    -0.002 C 
HETATM    2  C10 UNL     1       7.756  66.077 -37.010  1.00  0.00     0.007 C 
HETATM    3  C11 UNL     1       6.889  66.659 -38.143  1.00  0.00     0.015 C 
HETATM    4  C12 UNL     1       5.618  67.189 -37.450  1.00  0.00    -0.005 C 
HETATM    5  C13 UNL     1       5.965  68.600 -36.877  1.00  0.00     0.021 C 
HETATM    6  C14 UNL     1       4.331  67.410 -38.240  1.00  0.00    -0.000 C 
HETATM    7  C15 UNL     1       3.112  67.299 -37.645  1.00  0.00    -0.058 C 
HETATM    8  C16 UNL     1       3.005  66.876 -36.168  1.00  0.00     0.036 C 
HETATM    9  C17 UNL     1       4.307  66.530 -35.420  1.00  0.00     0.015 C 
HETATM   10  C18 UNL     1       5.404  66.049 -36.371  1.00  0.00    -0.028 C 
HETATM   11  C19 UNL     1       4.940  64.706 -37.004  1.00  0.00     0.016 C 
HETATM   12  C20 UNL     1       1.760  67.530 -38.397  1.00  0.00     0.011 C 
HETATM   13  C21 UNL     1       1.259  66.113 -38.769  1.00  0.00     0.023 C 
HETATM   14  C22 UNL     1       2.020  68.443 -39.641  1.00  0.00     0.029 C 
HETATM   15  C23 UNL     1       3.176  67.921 -40.497  1.00  0.00     0.090 C 
HETATM   16  C24 UNL     1       4.438  67.775 -39.688  1.00  0.00     0.157 C 
HETATM   17  O1  UNL     1       5.532  67.907 -40.238  1.00  0.00    -0.293 OA
HETATM   18  C25 UNL     1       0.756  68.856 -40.491  1.00  0.00     0.072 C 
HETATM   19  C26 UNL     1       0.970  70.315 -40.983  1.00  0.00     0.030 C 
HETATM   20  C28 UNL     1      -0.550  68.757 -39.656  1.00  0.00     0.139 C 
HETATM   21  C29 UNL     1      -0.328  69.136 -38.197  1.00  0.00     0.065 C 
HETATM   22  C30 UNL     1       0.726  68.285 -37.480  1.00  0.00     0.133 C 
ENDROOT
BRANCH   1  23
HETATM   23  C7  UNL     1       7.291  64.742 -34.842  1.00  0.00    -0.014 C 
HETATM   24  C8  UNL     1       7.738  65.130 -33.424  1.00  0.00     0.010 C 
BRANCH  23  25
HETATM   25  C6  UNL     1       8.355  63.790 -35.443  1.00  0.00     0.008 C 
BRANCH  25  26
HETATM   26  C5  UNL     1       8.950  62.758 -34.470  1.00  0.00     0.028 C 
BRANCH  26  27
HETATM   27  C4  UNL     1       8.598  61.333 -34.780  1.00  0.00    -0.025 C 
HETATM   28  C2  UNL     1       7.377  60.761 -34.797  1.00  0.00    -0.091 C 
HETATM   29  C1  UNL     1       6.084  61.463 -34.487  1.00  0.00     0.042 C 
HETATM   30  C3  UNL     1       7.216  59.309 -35.167  1.00  0.00     0.042 C 
ENDBRANCH  26  27
ENDBRANCH  25  26
ENDBRANCH  23  25
ENDBRANCH   1  23
BRANCH  22  31
HETATM   31  O5  UNL     1       0.053  67.395 -36.583  1.00  0.00    -0.394 OA
HETATM   32  H46 UNL     1      -0.562  66.837 -37.090  1.00  0.00     0.210 HD
ENDBRANCH  22  31
BRANCH  18  33
HETATM   33  C27 UNL     1       0.594  67.998 -41.750  1.00  0.00     0.151 C 
HETATM   34  O2  UNL     1      -0.208  67.100 -41.939  1.00  0.00    -0.649 OA
BRANCH  33  35
HETATM   35  O3  UNL     1       1.419  68.341 -42.758  1.00  0.00    -0.776 OA
HETATM   36  H40 UNL     1       1.186  67.702 -43.466  1.00  0.00     0.167 HD
ENDBRANCH  33  35
ENDBRANCH  18  33
BRANCH  20  37
HETATM   37  O4  UNL     1      -1.561  69.615 -40.194  1.00  0.00    -0.394 OA
HETATM   38  H42 UNL     1      -2.389  69.447 -39.709  1.00  0.00     0.210 HD
ENDBRANCH  20  37
TORSDOF 8
ENDMDL
MODEL 9
REMARK minimizedAffinity -8.92151642
REMARK  8 active torsions:
REMARK  status: ('A' for Active; 'I' for Inactive)
REMARK    1  A    between atoms: C4_4  and  C5_5 
REMARK    2  A    between atoms: C5_5  and  C6_6 
REMARK    3  A    between atoms: C6_6  and  C7_7 
REMARK    4  A    between atoms: C7_7  and  C9_9 
REMARK    5  A    between atoms: C25_26  and  C27_28 
REMARK    6  A    between atoms: C27_28  and  O3_30 
REMARK    7  A    between atoms: C28_31  and  O4_32 
REMARK    8  A    between atoms: C30_34  and  O5_35 
ROOT
HETATM    1  C9  UNL     1      -0.411  50.851 -22.065  1.00  0.00    -0.002 C 
HETATM    2  C10 UNL     1      -0.089  51.303 -20.612  1.00  0.00     0.007 C 
HETATM    3  C11 UNL     1      -1.180  50.712 -19.699  1.00  0.00     0.015 C 
HETATM    4  C12 UNL     1      -1.871  49.624 -20.545  1.00  0.00    -0.005 C 
HETATM    5  C13 UNL     1      -0.983  48.342 -20.454  1.00  0.00     0.021 C 
HETATM    6  C14 UNL     1      -3.274  49.135 -20.195  1.00  0.00    -0.000 C 
HETATM    7  C15 UNL     1      -4.117  48.669 -21.156  1.00  0.00    -0.058 C 
HETATM    8  C16 UNL     1      -3.694  48.692 -22.637  1.00  0.00     0.036 C 
HETATM    9  C17 UNL     1      -2.327  49.309 -22.988  1.00  0.00     0.015 C 
HETATM   10  C18 UNL     1      -1.884  50.346 -21.954  1.00  0.00    -0.028 C 
HETATM   11  C19 UNL     1      -2.883  51.537 -22.007  1.00  0.00     0.016 C 
HETATM   12  C20 UNL     1      -5.558  48.139 -20.858  1.00  0.00     0.011 C 
HETATM   13  C21 UNL     1      -6.499  49.327 -21.178  1.00  0.00     0.023 C 
HETATM   14  C22 UNL     1      -5.630  47.675 -19.365  1.00  0.00     0.029 C 
HETATM   15  C23 UNL     1      -5.107  48.751 -18.411  1.00  0.00     0.090 C 
HETATM   16  C24 UNL     1      -3.699  49.158 -18.759  1.00  0.00     0.157 C 
HETATM   17  O1  UNL     1      -2.942  49.551 -17.871  1.00  0.00    -0.293 OA
HETATM   18  C25 UNL     1      -6.991  47.034 -18.889  1.00  0.00     0.072 C 
HETATM   19  C26 UNL     1      -6.655  45.893 -17.888  1.00  0.00     0.030 C 
HETATM   20  C28 UNL     1      -7.807  46.473 -20.086  1.00  0.00     0.139 C 
HETATM   21  C29 UNL     1      -6.908  45.889 -21.170  1.00  0.00     0.065 C 
HETATM   22  C30 UNL     1      -5.894  46.883 -21.747  1.00  0.00     0.133 C 
ENDROOT
BRANCH   1  23
HETATM   23  C7  UNL     1       0.089  51.874 -23.130  1.00  0.00    -0.014 C 
HETATM   24  C8  UNL     1       0.590  53.223 -22.593  1.00  0.00     0.010 C 
BRANCH  23  25
HETATM   25  C6  UNL     1      -0.886  52.149 -24.303  1.00  0.00     0.008 C 
BRANCH  25  26
HETATM   26  C5  UNL     1      -0.714  51.246 -25.536  1.00  0.00     0.028 C 
BRANCH  26  27
HETATM   27  C4  UNL     1       0.678  51.213 -26.095  1.00  0.00    -0.025 C 
HETATM   28  C2  UNL     1       1.136  51.792 -27.224  1.00  0.00    -0.091 C 
HETATM   29  C1  UNL     1       0.308  52.604 -28.182  1.00  0.00     0.042 C 
HETATM   30  C3  UNL     1       2.587  51.674 -27.611  1.00  0.00     0.042 C 
ENDBRANCH  26  27
ENDBRANCH  25  26
ENDBRANCH  23  25
ENDBRANCH   1  23
BRANCH  22  31
HETATM   31  O5  UNL     1      -6.322  47.254 -23.061  1.00  0.00    -0.394 OA
HETATM   32  H46 UNL     1      -7.209  47.651 -23.006  1.00  0.00     0.210 HD
ENDBRANCH  22  31
BRANCH  18  33
HETATM   33  C27 UNL     1      -7.871  48.030 -18.126  1.00  0.00     0.151 C 
HETATM   34  O2  UNL     1      -8.571  48.912 -18.592  1.00  0.00    -0.649 OA
BRANCH  33  35
HETATM   35  O3  UNL     1      -7.882  47.843 -16.793  1.00  0.00    -0.776 OA
HETATM   36  H40 UNL     1      -8.479  48.553 -16.471  1.00  0.00     0.167 HD
ENDBRANCH  33  35
ENDBRANCH  18  33
BRANCH  20  37
HETATM   37  O4  UNL     1      -8.708  45.450 -19.650  1.00  0.00    -0.394 OA
HETATM   38  H42 UNL     1      -9.269  45.200 -20.406  1.00  0.00     0.210 HD
ENDBRANCH  20  37
TORSDOF 8
ENDMDL
