MODEL 1
REMARK minimizedAffinity -8.19121647
REMARK CNNscore 0.593994975
REMARK CNNaffinity 7.21180916
REMARK  11 active torsions:
REMARK  status: ('A' for Active; 'I' for Inactive)
REMARK    1  A    between atoms: C2_2  and  C4_4 
REMARK    2  A    between atoms: C4_4  and  C6_6 
REMARK    3  A    between atoms: C7_7  and  C8_8 
REMARK    4  A    between atoms: C8_8  and  C10_10 
REMARK    5  A    between atoms: C24_24  and  O1_25 
REMARK    6  A    between atoms: O1_25  and  C25_26 
REMARK    7  A    between atoms: C26_28  and  C27_29 
REMARK    8  A    between atoms: C27_29  and  O3_30 
REMARK    9  A    between atoms: C28_31  and  O4_32 
REMARK   10  A    between atoms: C29_33  and  O5_34 
REMARK   11  A    between atoms: C30_35  and  O6_36 
ROOT
HETATM    1  C10 UNL     1      -1.521  50.041 -23.568  1.00  0.00     0.001 C 
HETATM    2  C11 UNL     1      -0.692  51.070 -22.771  1.00  0.00     0.006 C 
HETATM    3  C12 UNL     1      -1.718  51.907 -22.045  1.00  0.00     0.009 C 
HETATM    4  C13 UNL     1      -2.826  50.932 -21.612  1.00  0.00     0.036 C 
HETATM    5  C14 UNL     1      -2.712  49.693 -22.569  1.00  0.00    -0.033 C 
HETATM    6  C15 UNL     1      -4.082  49.451 -23.236  1.00  0.00     0.016 C 
HETATM    7  C16 UNL     1      -2.393  48.386 -21.785  1.00  0.00     0.010 C 
HETATM    8  C17 UNL     1      -1.337  48.522 -20.697  1.00  0.00     0.010 C 
HETATM    9  C18 UNL     1      -1.636  49.642 -19.685  1.00  0.00     0.039 C 
HETATM   10  C19 UNL     1      -2.812  50.583 -20.103  1.00  0.00     0.123 C 
HETATM   11  C20 UNL     1      -4.158  50.083 -19.618  1.00  0.00     0.014 C 
HETATM   12  C21 UNL     1      -4.232  49.943 -18.287  1.00  0.00     0.014 C 
HETATM   13  C22 UNL     1      -2.912  50.172 -17.578  1.00  0.00     0.124 C 
HETATM   14  C23 UNL     1      -3.064  50.094 -16.056  1.00  0.00     0.078 C 
HETATM   15  C24 UNL     1      -1.731  50.000 -15.298  1.00  0.00     0.128 C 
HETATM   16  C31 UNL     1      -0.504  50.230 -16.182  1.00  0.00     0.033 C 
HETATM   17  C32 UNL     1      -0.476  49.301 -17.398  1.00  0.00     0.015 C 
HETATM   18  C33 UNL     1      -1.834  49.192 -18.165  1.00  0.00     0.001 C 
HETATM   19  C34 UNL     1      -2.325  47.723 -18.022  1.00  0.00     0.019 C 
HETATM   20  O7  UNL     1      -2.473  51.521 -17.896  1.00  0.00    -0.223 OA
HETATM   21  O8  UNL     1      -2.646  51.817 -19.349  1.00  0.00    -0.224 OA
ENDROOT
BRANCH  15  22
HETATM   22  O1  UNL     1      -1.674  48.687 -14.728  1.00  0.00    -0.353 OA
BRANCH  22  23
HETATM   23  C25 UNL     1      -2.471  48.500 -13.560  1.00  0.00     0.292 C 
HETATM   24  O2  UNL     1      -2.309  49.660 -12.741  1.00  0.00    -0.348 OA
HETATM   25  C26 UNL     1      -3.012  49.579 -11.497  1.00  0.00     0.179 C 
HETATM   26  C28 UNL     1      -2.478  48.404 -10.664  1.00  0.00     0.180 C 
HETATM   27  C29 UNL     1      -2.644  47.110 -11.458  1.00  0.00     0.183 C 
HETATM   28  C30 UNL     1      -1.982  47.223 -12.832  1.00  0.00     0.204 C 
BRANCH  25  29
HETATM   29  C27 UNL     1      -2.855  50.909 -10.746  1.00  0.00     0.198 C 
BRANCH  29  30
HETATM   30  O3  UNL     1      -3.876  51.094  -9.771  1.00  0.00    -0.398 OA
HETATM   31  H41 UNL     1      -3.968  50.241  -9.292  1.00  0.00     0.209 HD
ENDBRANCH  29  30
ENDBRANCH  25  29
BRANCH  26  32
HETATM   32  O4  UNL     1      -3.171  48.288  -9.415  1.00  0.00    -0.390 OA
HETATM   33  H43 UNL     1      -2.895  47.417  -9.055  1.00  0.00     0.210 HD
ENDBRANCH  26  32
BRANCH  27  34
HETATM   34  O5  UNL     1      -2.076  46.025 -10.705  1.00  0.00    -0.390 OA
HETATM   35  H45 UNL     1      -1.916  45.305 -11.350  1.00  0.00     0.210 HD
ENDBRANCH  27  34
BRANCH  28  36
HETATM   36  O6  UNL     1      -2.250  46.009 -13.556  1.00  0.00    -0.388 OA
HETATM   37  H47 UNL     1      -3.165  46.037 -13.883  1.00  0.00     0.210 HD
ENDBRANCH  28  36
ENDBRANCH  22  23
ENDBRANCH  15  22
BRANCH   1  38
HETATM   38  C8  UNL     1      -1.912  50.558 -24.996  1.00  0.00     0.008 C 
HETATM   39  C9  UNL     1      -2.238  49.406 -25.962  1.00  0.00     0.014 C 
BRANCH  38  40
HETATM   40  C7  UNL     1      -0.799  51.339 -25.670  1.00  0.00    -0.026 C 
HETATM   41  C6  UNL     1      -0.945  52.586 -26.150  1.00  0.00    -0.026 C 
BRANCH  41  42
HETATM   42  C4  UNL     1       0.167  53.355 -26.831  1.00  0.00     0.007 C 
HETATM   43  C5  UNL     1      -0.439  54.402 -27.771  1.00  0.00     0.014 C 
BRANCH  42  44
HETATM   44  C2  UNL     1       1.174  52.390 -27.515  1.00  0.00    -0.015 C 
HETATM   45  C1  UNL     1       1.999  51.547 -26.536  1.00  0.00     0.010 C 
HETATM   46  C3  UNL     1       0.478  51.468 -28.521  1.00  0.00     0.010 C 
ENDBRANCH  42  44
ENDBRANCH  41  42
ENDBRANCH  38  40
ENDBRANCH   1  38
TORSDOF 11
ENDMDL
MODEL 2
REMARK minimizedAffinity -8.14224815
REMARK CNNscore 0.458082974
REMARK CNNaffinity 6.02202606
REMARK  11 active torsions:
REMARK  status: ('A' for Active; 'I' for Inactive)
REMARK    1  A    between atoms: C2_2  and  C4_4 
REMARK    2  A    between atoms: C4_4  and  C6_6 
REMARK    3  A    between atoms: C7_7  and  C8_8 
REMARK    4  A    between atoms: C8_8  and  C10_10 
REMARK    5  A    between atoms: C24_24  and  O1_25 
REMARK    6  A    between atoms: O1_25  and  C25_26 
REMARK    7  A    between atoms: C26_28  and  C27_29 
REMARK    8  A    between atoms: C27_29  and  O3_30 
REMARK    9  A    between atoms: C28_31  and  O4_32 
REMARK   10  A    between atoms: C29_33  and  O5_34 
REMARK   11  A    between atoms: C30_35  and  O6_36 
ROOT
HETATM    1  C10 UNL     1      -5.657  47.419 -28.112  1.00  0.00     0.001 C 
HETATM    2  C11 UNL     1      -7.087  47.104 -27.626  1.00  0.00     0.006 C 
HETATM    3  C12 UNL     1      -7.961  48.114 -28.331  1.00  0.00     0.009 C 
HETATM    4  C13 UNL     1      -7.371  48.268 -29.743  1.00  0.00     0.036 C 
HETATM    5  C14 UNL     1      -5.876  47.801 -29.642  1.00  0.00    -0.033 C 
HETATM    6  C15 UNL     1      -4.966  48.926 -30.178  1.00  0.00     0.016 C 
HETATM    7  C16 UNL     1      -5.594  46.568 -30.551  1.00  0.00     0.010 C 
HETATM    8  C17 UNL     1      -6.661  45.484 -30.526  1.00  0.00     0.010 C 
HETATM    9  C18 UNL     1      -8.077  46.007 -30.830  1.00  0.00     0.039 C 
HETATM   10  C19 UNL     1      -8.191  47.564 -30.854  1.00  0.00     0.123 C 
HETATM   11  C20 UNL     1      -7.916  48.148 -32.225  1.00  0.00     0.014 C 
HETATM   12  C21 UNL     1      -8.736  47.688 -33.180  1.00  0.00     0.014 C 
HETATM   13  C22 UNL     1      -9.656  46.580 -32.708  1.00  0.00     0.124 C 
HETATM   14  C23 UNL     1     -10.636  46.150 -33.804  1.00  0.00     0.078 C 
HETATM   15  C24 UNL     1     -11.372  44.835 -33.506  1.00  0.00     0.128 C 
HETATM   16  C31 UNL     1     -11.159  44.323 -32.080  1.00  0.00     0.033 C 
HETATM   17  C32 UNL     1      -9.678  44.181 -31.724  1.00  0.00     0.015 C 
HETATM   18  C33 UNL     1      -8.792  45.404 -32.126  1.00  0.00     0.001 C 
HETATM   19  C34 UNL     1      -7.786  44.907 -33.204  1.00  0.00     0.019 C 
HETATM   20  O7  UNL     1     -10.447  47.107 -31.608  1.00  0.00    -0.223 OA
HETATM   21  O8  UNL     1      -9.599  47.882 -30.656  1.00  0.00    -0.224 OA
ENDROOT
BRANCH  15  22
HETATM   22  O1  UNL     1     -10.883  43.868 -34.443  1.00  0.00    -0.353 OA
BRANCH  22  23
HETATM   23  C25 UNL     1     -10.892  44.289 -35.805  1.00  0.00     0.292 C 
HETATM   24  O2  UNL     1     -11.943  45.247 -35.950  1.00  0.00    -0.348 OA
HETATM   25  C26 UNL     1     -12.106  45.711 -37.294  1.00  0.00     0.179 C 
HETATM   26  C28 UNL     1     -12.481  44.541 -38.215  1.00  0.00     0.180 C 
HETATM   27  C29 UNL     1     -11.387  43.478 -38.145  1.00  0.00     0.183 C 
HETATM   28  C30 UNL     1     -11.135  43.048 -36.700  1.00  0.00     0.204 C 
BRANCH  25  29
HETATM   29  C27 UNL     1     -13.184  46.805 -37.318  1.00  0.00     0.198 C 
BRANCH  29  30
HETATM   30  O3  UNL     1     -13.521  47.192 -38.646  1.00  0.00    -0.398 OA
HETATM   31  H41 UNL     1     -13.616  46.364 -39.167  1.00  0.00     0.209 HD
ENDBRANCH  29  30
ENDBRANCH  25  29
BRANCH  26  32
HETATM   32  O4  UNL     1     -12.640  44.972 -39.572  1.00  0.00    -0.390 OA
HETATM   33  H43 UNL     1     -12.686  44.141 -40.096  1.00  0.00     0.210 HD
ENDBRANCH  26  32
BRANCH  27  34
HETATM   34  O5  UNL     1     -11.778  42.353 -38.951  1.00  0.00    -0.390 OA
HETATM   35  H45 UNL     1     -11.236  41.599 -38.641  1.00  0.00     0.210 HD
ENDBRANCH  27  34
BRANCH  28  36
HETATM   36  O6  UNL     1     -10.039  42.115 -36.698  1.00  0.00    -0.388 OA
HETATM   37  H47 UNL     1      -9.208  42.610 -36.803  1.00  0.00     0.210 HD
ENDBRANCH  28  36
ENDBRANCH  22  23
ENDBRANCH  15  22
BRANCH   1  38
HETATM   38  C8  UNL     1      -4.933  48.476 -27.207  1.00  0.00     0.008 C 
HETATM   39  C9  UNL     1      -3.406  48.448 -27.388  1.00  0.00     0.014 C 
BRANCH  38  40
HETATM   40  C7  UNL     1      -5.161  48.245 -25.725  1.00  0.00    -0.026 C 
HETATM   41  C6  UNL     1      -4.267  48.559 -24.772  1.00  0.00    -0.026 C 
BRANCH  41  42
HETATM   42  C4  UNL     1      -4.497  48.315 -23.296  1.00  0.00     0.007 C 
HETATM   43  C5  UNL     1      -5.482  49.357 -22.755  1.00  0.00     0.014 C 
BRANCH  42  44
HETATM   44  C2  UNL     1      -3.150  48.250 -22.525  1.00  0.00    -0.015 C 
HETATM   45  C1  UNL     1      -2.747  49.567 -21.852  1.00  0.00     0.010 C 
HETATM   46  C3  UNL     1      -3.150  47.124 -21.486  1.00  0.00     0.010 C 
ENDBRANCH  42  44
ENDBRANCH  41  42
ENDBRANCH  38  40
ENDBRANCH   1  38
TORSDOF 11
ENDMDL
MODEL 3
REMARK minimizedAffinity -10.0163422
REMARK CNNscore 0.418374181
REMARK CNNaffinity 7.45779037
REMARK  11 active torsions:
REMARK  status: ('A' for Active; 'I' for Inactive)
REMARK    1  A    between atoms: C2_2  and  C4_4 
REMARK    2  A    between atoms: C4_4  and  C6_6 
REMARK    3  A    between atoms: C7_7  and  C8_8 
REMARK    4  A    between atoms: C8_8  and  C10_10 
REMARK    5  A    between atoms: C24_24  and  O1_25 
REMARK    6  A    between atoms: O1_25  and  C25_26 
REMARK    7  A    between atoms: C26_28  and  C27_29 
REMARK    8  A    between atoms: C27_29  and  O3_30 
REMARK    9  A    between atoms: C28_31  and  O4_32 
REMARK   10  A    between atoms: C29_33  and  O5_34 
REMARK   11  A    between atoms: C30_35  and  O6_36 
ROOT
HETATM    1  C10 UNL     1      -1.912  49.646 -24.304  1.00  0.00     0.001 C 
HETATM    2  C11 UNL     1      -1.291  50.945 -23.749  1.00  0.00     0.006 C 
HETATM    3  C12 UNL     1      -2.439  51.661 -23.079  1.00  0.00     0.009 C 
HETATM    4  C13 UNL     1      -3.284  50.566 -22.409  1.00  0.00     0.036 C 
HETATM    5  C14 UNL     1      -2.949  49.233 -23.167  1.00  0.00    -0.033 C 
HETATM    6  C15 UNL     1      -4.263  48.602 -23.671  1.00  0.00     0.016 C 
HETATM    7  C16 UNL     1      -2.313  48.174 -22.219  1.00  0.00     0.010 C 
HETATM    8  C17 UNL     1      -1.261  48.709 -21.258  1.00  0.00     0.010 C 
HETATM    9  C18 UNL     1      -1.749  49.898 -20.411  1.00  0.00     0.039 C 
HETATM   10  C19 UNL     1      -3.121  50.489 -20.870  1.00  0.00     0.123 C 
HETATM   11  C20 UNL     1      -4.300  49.811 -20.202  1.00  0.00     0.014 C 
HETATM   12  C21 UNL     1      -4.276  49.886 -18.864  1.00  0.00     0.014 C 
HETATM   13  C22 UNL     1      -3.006  50.501 -18.312  1.00  0.00     0.124 C 
HETATM   14  C23 UNL     1      -3.063  50.653 -16.789  1.00  0.00     0.078 C 
HETATM   15  C24 UNL     1      -1.707  50.968 -16.140  1.00  0.00     0.128 C 
HETATM   16  C31 UNL     1      -0.604  51.294 -17.149  1.00  0.00     0.033 C 
HETATM   17  C32 UNL     1      -0.433  50.199 -18.204  1.00  0.00     0.015 C 
HETATM   18  C33 UNL     1      -1.769  49.682 -18.828  1.00  0.00     0.001 C 
HETATM   19  C34 UNL     1      -1.920  48.189 -18.418  1.00  0.00     0.019 C 
HETATM   20  O7  UNL     1      -2.888  51.838 -18.872  1.00  0.00    -0.223 OA
HETATM   21  O8  UNL     1      -3.192  51.841 -20.333  1.00  0.00    -0.224 OA
ENDROOT
BRANCH  15  22
HETATM   22  O1  UNL     1      -1.336  49.812 -15.380  1.00  0.00    -0.353 OA
BRANCH  22  23
HETATM   23  C25 UNL     1      -1.410  49.971 -13.965  1.00  0.00     0.292 C 
HETATM   24  O2  UNL     1      -2.693  49.500 -13.548  1.00  0.00    -0.348 OA
HETATM   25  C26 UNL     1      -2.928  49.659 -12.145  1.00  0.00     0.179 C 
HETATM   26  C28 UNL     1      -2.889  51.148 -11.768  1.00  0.00     0.180 C 
HETATM   27  C29 UNL     1      -1.528  51.725 -12.152  1.00  0.00     0.183 C 
HETATM   28  C30 UNL     1      -1.224  51.471 -13.629  1.00  0.00     0.204 C 
BRANCH  25  29
HETATM   29  C27 UNL     1      -4.285  49.032 -11.791  1.00  0.00     0.198 C 
BRANCH  29  30
HETATM   30  O3  UNL     1      -4.710  48.092 -12.772  1.00  0.00    -0.398 OA
HETATM   31  H41 UNL     1      -3.928  47.537 -12.990  1.00  0.00     0.209 HD
ENDBRANCH  29  30
ENDBRANCH  25  29
BRANCH  26  32
HETATM   32  O4  UNL     1      -3.109  51.339 -10.365  1.00  0.00    -0.390 OA
HETATM   33  H43 UNL     1      -2.877  52.280 -10.201  1.00  0.00     0.210 HD
ENDBRANCH  26  32
BRANCH  27  34
HETATM   34  O5  UNL     1      -1.523  53.134 -11.865  1.00  0.00    -0.390 OA
HETATM   35  H45 UNL     1      -0.792  53.514 -12.396  1.00  0.00     0.210 HD
ENDBRANCH  27  34
BRANCH  28  36
HETATM   36  O6  UNL     1       0.102  51.962 -13.900  1.00  0.00    -0.388 OA
HETATM   37  H47 UNL     1       0.747  51.323 -13.552  1.00  0.00     0.210 HD
ENDBRANCH  28  36
ENDBRANCH  22  23
ENDBRANCH  15  22
BRANCH   1  38
HETATM   38  C8  UNL     1      -2.476  49.820 -25.757  1.00  0.00     0.008 C 
HETATM   39  C9  UNL     1      -2.688  48.471 -26.464  1.00  0.00     0.014 C 
BRANCH  38  40
HETATM   40  C7  UNL     1      -1.545  50.602 -26.665  1.00  0.00    -0.026 C 
HETATM   41  C6  UNL     1      -0.296  50.966 -26.323  1.00  0.00    -0.026 C 
BRANCH  41  42
HETATM   42  C4  UNL     1       0.623  51.755 -27.230  1.00  0.00     0.007 C 
HETATM   43  C5  UNL     1       2.079  51.409 -26.905  1.00  0.00     0.014 C 
BRANCH  42  44
HETATM   44  C2  UNL     1       0.299  53.273 -27.167  1.00  0.00    -0.015 C 
HETATM   45  C1  UNL     1      -0.801  53.720 -28.137  1.00  0.00     0.010 C 
HETATM   46  C3  UNL     1      -0.063  53.714 -25.746  1.00  0.00     0.010 C 
ENDBRANCH  42  44
ENDBRANCH  41  42
ENDBRANCH  38  40
ENDBRANCH   1  38
TORSDOF 11
ENDMDL
MODEL 4
REMARK minimizedAffinity -7.98072577
REMARK CNNscore 0.34498778
REMARK CNNaffinity 6.56621408
REMARK  11 active torsions:
REMARK  status: ('A' for Active; 'I' for Inactive)
REMARK    1  A    between atoms: C2_2  and  C4_4 
REMARK    2  A    between atoms: C4_4  and  C6_6 
REMARK    3  A    between atoms: C7_7  and  C8_8 
REMARK    4  A    between atoms: C8_8  and  C10_10 
REMARK    5  A    between atoms: C24_24  and  O1_25 
REMARK    6  A    between atoms: O1_25  and  C25_26 
REMARK    7  A    between atoms: C26_28  and  C27_29 
REMARK    8  A    between atoms: C27_29  and  O3_30 
REMARK    9  A    between atoms: C28_31  and  O4_32 
REMARK   10  A    between atoms: C29_33  and  O5_34 
REMARK   11  A    between atoms: C30_35  and  O6_36 
ROOT
HETATM    1  C10 UNL     1      -3.950  50.116 -23.673  1.00  0.00     0.001 C 
HETATM    2  C11 UNL     1      -5.457  50.060 -23.998  1.00  0.00     0.006 C 
HETATM    3  C12 UNL     1      -5.782  48.587 -24.048  1.00  0.00     0.009 C 
HETATM    4  C13 UNL     1      -4.954  47.935 -22.929  1.00  0.00     0.036 C 
HETATM    5  C14 UNL     1      -3.763  48.916 -22.642  1.00  0.00    -0.033 C 
HETATM    6  C15 UNL     1      -2.436  48.139 -22.767  1.00  0.00     0.016 C 
HETATM    7  C16 UNL     1      -3.797  49.452 -21.180  1.00  0.00     0.010 C 
HETATM    8  C17 UNL     1      -5.170  49.861 -20.668  1.00  0.00     0.010 C 
HETATM    9  C18 UNL     1      -6.234  48.757 -20.813  1.00  0.00     0.039 C 
HETATM   10  C19 UNL     1      -5.778  47.539 -21.677  1.00  0.00     0.123 C 
HETATM   11  C20 UNL     1      -5.090  46.467 -20.855  1.00  0.00     0.014 C 
HETATM   12  C21 UNL     1      -5.852  45.974 -19.869  1.00  0.00     0.014 C 
HETATM   13  C22 UNL     1      -7.172  46.700 -19.701  1.00  0.00     0.124 C 
HETATM   14  C23 UNL     1      -8.047  46.046 -18.627  1.00  0.00     0.078 C 
HETATM   15  C24 UNL     1      -9.243  46.903 -18.187  1.00  0.00     0.128 C 
HETATM   16  C31 UNL     1      -9.465  48.141 -19.058  1.00  0.00     0.033 C 
HETATM   17  C32 UNL     1      -8.213  49.014 -19.165  1.00  0.00     0.015 C 
HETATM   18  C33 UNL     1      -6.895  48.227 -19.458  1.00  0.00     0.001 C 
HETATM   19  C34 UNL     1      -5.971  48.402 -18.218  1.00  0.00     0.019 C 
HETATM   20  O7  UNL     1      -7.891  46.597 -20.961  1.00  0.00    -0.223 OA
HETATM   21  O8  UNL     1      -6.990  46.865 -22.120  1.00  0.00    -0.224 OA
ENDROOT
BRANCH  15  22
HETATM   22  O1  UNL     1      -8.986  47.305 -16.836  1.00  0.00    -0.353 OA
BRANCH  22  23
HETATM   23  C25 UNL     1      -9.728  46.599 -15.844  1.00  0.00     0.292 C 
HETATM   24  O2  UNL     1      -9.006  45.403 -15.541  1.00  0.00    -0.348 OA
HETATM   25  C26 UNL     1      -9.673  44.561 -14.596  1.00  0.00     0.179 C 
HETATM   26  C28 UNL     1     -11.024  44.099 -15.162  1.00  0.00     0.180 C 
HETATM   27  C29 UNL     1     -11.878  45.323 -15.484  1.00  0.00     0.183 C 
HETATM   28  C30 UNL     1     -11.131  46.280 -16.416  1.00  0.00     0.204 C 
BRANCH  25  29
HETATM   29  C27 UNL     1      -8.769  43.364 -14.267  1.00  0.00     0.198 C 
BRANCH  29  30
HETATM   30  O3  UNL     1      -7.796  43.686 -13.279  1.00  0.00    -0.398 OA
HETATM   31  H41 UNL     1      -8.264  44.186 -12.574  1.00  0.00     0.209 HD
ENDBRANCH  29  30
ENDBRANCH  25  29
BRANCH  26  32
HETATM   32  O4  UNL     1     -11.724  43.262 -14.233  1.00  0.00    -0.390 OA
HETATM   33  H43 UNL     1     -12.631  43.183 -14.600  1.00  0.00     0.210 HD
ENDBRANCH  26  32
BRANCH  27  34
HETATM   34  O5  UNL     1     -13.111  44.888 -16.082  1.00  0.00    -0.390 OA
HETATM   35  H45 UNL     1     -13.474  45.669 -16.548  1.00  0.00     0.210 HD
ENDBRANCH  27  34
BRANCH  28  36
HETATM   36  O6  UNL     1     -11.954  47.445 -16.607  1.00  0.00    -0.388 OA
HETATM   37  H47 UNL     1     -11.889  48.005 -15.814  1.00  0.00     0.210 HD
ENDBRANCH  28  36
ENDBRANCH  22  23
ENDBRANCH  15  22
BRANCH   1  38
HETATM   38  C8  UNL     1      -3.054  50.099 -24.960  1.00  0.00     0.008 C 
HETATM   39  C9  UNL     1      -2.911  48.686 -25.551  1.00  0.00     0.014 C 
BRANCH  38  40
HETATM   40  C7  UNL     1      -1.634  50.567 -24.701  1.00  0.00    -0.026 C 
HETATM   41  C6  UNL     1      -1.015  51.517 -25.424  1.00  0.00    -0.026 C 
BRANCH  41  42
HETATM   42  C4  UNL     1       0.405  51.971 -25.166  1.00  0.00     0.007 C 
HETATM   43  C5  UNL     1       0.386  53.271 -24.356  1.00  0.00     0.014 C 
BRANCH  42  44
HETATM   44  C2  UNL     1       1.212  52.058 -26.492  1.00  0.00    -0.015 C 
HETATM   45  C1  UNL     1       2.548  51.309 -26.463  1.00  0.00     0.010 C 
HETATM   46  C3  UNL     1       0.383  51.578 -27.687  1.00  0.00     0.010 C 
ENDBRANCH  42  44
ENDBRANCH  41  42
ENDBRANCH  38  40
ENDBRANCH   1  38
TORSDOF 11
ENDMDL
MODEL 5
REMARK minimizedAffinity -8.77529526
REMARK CNNscore 0.319562942
REMARK CNNaffinity 6.26046228
REMARK  11 active torsions:
REMARK  status: ('A' for Active; 'I' for Inactive)
REMARK    1  A    between atoms: C2_2  and  C4_4 
REMARK    2  A    between atoms: C4_4  and  C6_6 
REMARK    3  A    between atoms: C7_7  and  C8_8 
REMARK    4  A    between atoms: C8_8  and  C10_10 
REMARK    5  A    between atoms: C24_24  and  O1_25 
REMARK    6  A    between atoms: O1_25  and  C25_26 
REMARK    7  A    between atoms: C26_28  and  C27_29 
REMARK    8  A    between atoms: C27_29  and  O3_30 
REMARK    9  A    between atoms: C28_31  and  O4_32 
REMARK   10  A    between atoms: C29_33  and  O5_34 
REMARK   11  A    between atoms: C30_35  and  O6_36 
ROOT
HETATM    1  C10 UNL     1      -9.566  47.195 -20.753  1.00  0.00     0.001 C 
HETATM    2  C11 UNL     1      -9.134  48.224 -19.687  1.00  0.00     0.006 C 
HETATM    3  C12 UNL     1      -7.996  47.557 -18.953  1.00  0.00     0.009 C 
HETATM    4  C13 UNL     1      -7.195  46.795 -20.021  1.00  0.00     0.036 C 
HETATM    5  C14 UNL     1      -8.181  46.562 -21.219  1.00  0.00    -0.033 C 
HETATM    6  C15 UNL     1      -8.221  45.054 -21.545  1.00  0.00     0.016 C 
HETATM    7  C16 UNL     1      -7.683  47.257 -22.521  1.00  0.00     0.010 C 
HETATM    8  C17 UNL     1      -7.135  48.665 -22.337  1.00  0.00     0.010 C 
HETATM    9  C18 UNL     1      -6.028  48.761 -21.273  1.00  0.00     0.039 C 
HETATM   10  C19 UNL     1      -5.855  47.468 -20.412  1.00  0.00     0.123 C 
HETATM   11  C20 UNL     1      -4.878  46.486 -21.027  1.00  0.00     0.014 C 
HETATM   12  C21 UNL     1      -3.651  46.992 -21.211  1.00  0.00     0.014 C 
HETATM   13  C22 UNL     1      -3.552  48.473 -20.903  1.00  0.00     0.124 C 
HETATM   14  C23 UNL     1      -2.115  48.986 -21.038  1.00  0.00     0.078 C 
HETATM   15  C24 UNL     1      -1.996  50.517 -21.052  1.00  0.00     0.128 C 
HETATM   16  C31 UNL     1      -3.300  51.238 -20.704  1.00  0.00     0.033 C 
HETATM   17  C32 UNL     1      -4.466  50.800 -21.592  1.00  0.00     0.015 C 
HETATM   18  C33 UNL     1      -4.595  49.253 -21.781  1.00  0.00     0.001 C 
HETATM   19  C34 UNL     1      -4.345  48.952 -23.287  1.00  0.00     0.019 C 
HETATM   20  O7  UNL     1      -3.945  48.658 -19.516  1.00  0.00    -0.223 OA
HETATM   21  O8  UNL     1      -5.170  47.869 -19.191  1.00  0.00    -0.224 OA
ENDROOT
BRANCH  15  22
HETATM   22  O1  UNL     1      -1.582  50.885 -22.373  1.00  0.00    -0.353 OA
BRANCH  22  23
HETATM   23  C25 UNL     1      -0.324  51.554 -22.448  1.00  0.00     0.292 C 
HETATM   24  O2  UNL     1      -0.115  52.212 -21.196  1.00  0.00    -0.348 OA
HETATM   25  C26 UNL     1       1.092  52.980 -21.154  1.00  0.00     0.179 C 
HETATM   26  C28 UNL     1       1.045  54.096 -22.208  1.00  0.00     0.180 C 
HETATM   27  C29 UNL     1       0.856  53.473 -23.589  1.00  0.00     0.183 C 
HETATM   28  C30 UNL     1      -0.377  52.569 -23.616  1.00  0.00     0.204 C 
BRANCH  25  29
HETATM   29  C27 UNL     1       1.268  53.557 -19.741  1.00  0.00     0.198 C 
BRANCH  29  30
HETATM   30  O3  UNL     1       0.018  53.843 -19.122  1.00  0.00    -0.398 OA
HETATM   31  H41 UNL     1      -0.566  53.072 -19.294  1.00  0.00     0.209 HD
ENDBRANCH  29  30
ENDBRANCH  25  29
BRANCH  26  32
HETATM   32  O4  UNL     1       2.247  54.877 -22.199  1.00  0.00    -0.390 OA
HETATM   33  H43 UNL     1       2.198  55.422 -23.014  1.00  0.00     0.210 HD
ENDBRANCH  26  32
BRANCH  27  34
HETATM   34  O5  UNL     1       0.739  54.524 -24.563  1.00  0.00    -0.390 OA
HETATM   35  H45 UNL     1       0.316  54.119 -25.347  1.00  0.00     0.210 HD
ENDBRANCH  27  34
BRANCH  28  36
HETATM   36  O6  UNL     1      -0.446  51.950 -24.914  1.00  0.00    -0.388 OA
HETATM   37  H47 UNL     1       0.207  51.231 -24.950  1.00  0.00     0.210 HD
ENDBRANCH  28  36
ENDBRANCH  22  23
ENDBRANCH  15  22
BRANCH   1  38
HETATM   38  C8  UNL     1     -10.663  46.206 -20.226  1.00  0.00     0.008 C 
HETATM   39  C9  UNL     1     -11.643  45.781 -21.332  1.00  0.00     0.014 C 
BRANCH  38  40
HETATM   40  C7  UNL     1     -11.531  46.808 -19.136  1.00  0.00    -0.026 C 
HETATM   41  C6  UNL     1     -12.797  47.218 -19.329  1.00  0.00    -0.026 C 
BRANCH  41  42
HETATM   42  C4  UNL     1     -13.654  47.828 -18.240  1.00  0.00     0.007 C 
HETATM   43  C5  UNL     1     -13.832  46.816 -17.105  1.00  0.00     0.014 C 
BRANCH  42  44
HETATM   44  C2  UNL     1     -14.986  48.376 -18.822  1.00  0.00    -0.015 C 
HETATM   45  C1  UNL     1     -16.101  47.330 -18.930  1.00  0.00     0.010 C 
HETATM   46  C3  UNL     1     -15.494  49.583 -18.026  1.00  0.00     0.010 C 
ENDBRANCH  42  44
ENDBRANCH  41  42
ENDBRANCH  38  40
ENDBRANCH   1  38
TORSDOF 11
ENDMDL
MODEL 6
REMARK minimizedAffinity -9.80831909
REMARK CNNscore 0.316966474
REMARK CNNaffinity 7.1242981
REMARK  11 active torsions:
REMARK  status: ('A' for Active; 'I' for Inactive)
REMARK    1  A    between atoms: C2_2  and  C4_4 
REMARK    2  A    between atoms: C4_4  and  C6_6 
REMARK    3  A    between atoms: C7_7  and  C8_8 
REMARK    4  A    between atoms: C8_8  and  C10_10 
REMARK    5  A    between atoms: C24_24  and  O1_25 
REMARK    6  A    between atoms: O1_25  and  C25_26 
REMARK    7  A    between atoms: C26_28  and  C27_29 
REMARK    8  A    between atoms: C27_29  and  O3_30 
REMARK    9  A    between atoms: C28_31  and  O4_32 
REMARK   10  A    between atoms: C29_33  and  O5_34 
REMARK   11  A    between atoms: C30_35  and  O6_36 
ROOT
HETATM    1  C10 UNL     1      -1.869  49.706 -24.098  1.00  0.00     0.001 C 
HETATM    2  C11 UNL     1      -1.261  50.982 -23.479  1.00  0.00     0.006 C 
HETATM    3  C12 UNL     1      -2.415  51.648 -22.767  1.00  0.00     0.009 C 
HETATM    4  C13 UNL     1      -3.243  50.508 -22.152  1.00  0.00     0.036 C 
HETATM    5  C14 UNL     1      -2.895  49.222 -22.980  1.00  0.00    -0.033 C 
HETATM    6  C15 UNL     1      -4.204  48.601 -23.510  1.00  0.00     0.016 C 
HETATM    7  C16 UNL     1      -2.242  48.122 -22.091  1.00  0.00     0.010 C 
HETATM    8  C17 UNL     1      -1.192  48.619 -21.108  1.00  0.00     0.010 C 
HETATM    9  C18 UNL     1      -1.690  49.757 -20.198  1.00  0.00     0.039 C 
HETATM   10  C19 UNL     1      -3.071  50.354 -20.619  1.00  0.00     0.123 C 
HETATM   11  C20 UNL     1      -4.238  49.626 -19.983  1.00  0.00     0.014 C 
HETATM   12  C21 UNL     1      -4.209  49.633 -18.643  1.00  0.00     0.014 C 
HETATM   13  C22 UNL     1      -2.944  50.234 -18.065  1.00  0.00     0.124 C 
HETATM   14  C23 UNL     1      -2.995  50.305 -16.536  1.00  0.00     0.078 C 
HETATM   15  C24 UNL     1      -1.640  50.603 -15.877  1.00  0.00     0.128 C 
HETATM   16  C31 UNL     1      -0.546  50.995 -16.873  1.00  0.00     0.033 C 
HETATM   17  C32 UNL     1      -0.367  49.959 -17.984  1.00  0.00     0.015 C 
HETATM   18  C33 UNL     1      -1.700  49.458 -18.629  1.00  0.00     0.001 C 
HETATM   19  C34 UNL     1      -1.830  47.944 -18.296  1.00  0.00     0.019 C 
HETATM   20  O7  UNL     1      -2.846  51.600 -18.555  1.00  0.00    -0.223 OA
HETATM   21  O8  UNL     1      -3.156  51.675 -20.013  1.00  0.00    -0.224 OA
ENDROOT
BRANCH  15  22
HETATM   22  O1  UNL     1      -1.251  49.414 -15.180  1.00  0.00    -0.353 OA
BRANCH  22  23
HETATM   23  C25 UNL     1       0.066  49.436 -14.635  1.00  0.00     0.292 C 
HETATM   24  O2  UNL     1       0.635  48.140 -14.836  1.00  0.00    -0.348 OA
HETATM   25  C26 UNL     1       1.945  48.002 -14.278  1.00  0.00     0.179 C 
HETATM   26  C28 UNL     1       1.894  48.201 -12.755  1.00  0.00     0.180 C 
HETATM   27  C29 UNL     1       1.325  49.586 -12.451  1.00  0.00     0.183 C 
HETATM   28  C30 UNL     1      -0.032  49.780 -13.128  1.00  0.00     0.204 C 
BRANCH  25  29
HETATM   29  C27 UNL     1       2.498  46.615 -14.638  1.00  0.00     0.198 C 
BRANCH  29  30
HETATM   30  O3  UNL     1       1.479  45.741 -15.111  1.00  0.00    -0.398 OA
HETATM   31  H41 UNL     1       0.935  46.258 -15.745  1.00  0.00     0.209 HD
ENDBRANCH  29  30
ENDBRANCH  25  29
BRANCH  26  32
HETATM   32  O4  UNL     1       3.194  48.081 -12.166  1.00  0.00    -0.390 OA
HETATM   33  H43 UNL     1       3.085  48.408 -11.247  1.00  0.00     0.210 HD
ENDBRANCH  26  32
BRANCH  27  34
HETATM   34  O5  UNL     1       1.211  49.739 -11.026  1.00  0.00    -0.390 OA
HETATM   35  H45 UNL     1       0.574  50.470 -10.884  1.00  0.00     0.210 HD
ENDBRANCH  27  34
BRANCH  28  36
HETATM   36  O6  UNL     1      -0.467  51.128 -12.872  1.00  0.00    -0.388 OA
HETATM   37  H47 UNL     1       0.025  51.730 -13.457  1.00  0.00     0.210 HD
ENDBRANCH  28  36
ENDBRANCH  22  23
ENDBRANCH  15  22
BRANCH   1  38
HETATM   38  C8  UNL     1      -2.442  49.949 -25.538  1.00  0.00     0.008 C 
HETATM   39  C9  UNL     1      -2.696  48.633 -26.292  1.00  0.00     0.014 C 
BRANCH  38  40
HETATM   40  C7  UNL     1      -1.500  50.740 -26.426  1.00  0.00    -0.026 C 
HETATM   41  C6  UNL     1      -0.186  50.886 -26.180  1.00  0.00    -0.026 C 
BRANCH  41  42
HETATM   42  C4  UNL     1       0.746  51.686 -27.065  1.00  0.00     0.007 C 
HETATM   43  C5  UNL     1       2.197  51.322 -26.736  1.00  0.00     0.014 C 
BRANCH  42  44
HETATM   44  C2  UNL     1       0.432  53.205 -26.976  1.00  0.00    -0.015 C 
HETATM   45  C1  UNL     1      -0.664  53.676 -27.937  1.00  0.00     0.010 C 
HETATM   46  C3  UNL     1       0.074  53.623 -25.547  1.00  0.00     0.010 C 
ENDBRANCH  42  44
ENDBRANCH  41  42
ENDBRANCH  38  40
ENDBRANCH   1  38
TORSDOF 11
ENDMDL
MODEL 7
REMARK minimizedAffinity -8.4715271
REMARK CNNscore 0.308017939
REMARK CNNaffinity 6.69277048
REMARK  11 active torsions:
REMARK  status: ('A' for Active; 'I' for Inactive)
REMARK    1  A    between atoms: C2_2  and  C4_4 
REMARK    2  A    between atoms: C4_4  and  C6_6 
REMARK    3  A    between atoms: C7_7  and  C8_8 
REMARK    4  A    between atoms: C8_8  and  C10_10 
REMARK    5  A    between atoms: C24_24  and  O1_25 
REMARK    6  A    between atoms: O1_25  and  C25_26 
REMARK    7  A    between atoms: C26_28  and  C27_29 
REMARK    8  A    between atoms: C27_29  and  O3_30 
REMARK    9  A    between atoms: C28_31  and  O4_32 
REMARK   10  A    between atoms: C29_33  and  O5_34 
REMARK   11  A    between atoms: C30_35  and  O6_36 
ROOT
HETATM    1  C10 UNL     1      -2.495  50.453 -24.418  1.00  0.00     0.001 C 
HETATM    2  C11 UNL     1      -1.787  51.517 -23.554  1.00  0.00     0.006 C 
HETATM    3  C12 UNL     1      -2.872  52.063 -22.656  1.00  0.00     0.009 C 
HETATM    4  C13 UNL     1      -3.751  50.860 -22.278  1.00  0.00     0.036 C 
HETATM    5  C14 UNL     1      -3.513  49.781 -23.393  1.00  0.00    -0.033 C 
HETATM    6  C15 UNL     1      -4.875  49.371 -23.989  1.00  0.00     0.016 C 
HETATM    7  C16 UNL     1      -2.902  48.472 -22.809  1.00  0.00     0.010 C 
HETATM    8  C17 UNL     1      -1.791  48.672 -21.788  1.00  0.00     0.010 C 
HETATM    9  C18 UNL     1      -2.186  49.595 -20.622  1.00  0.00     0.039 C 
HETATM   10  C19 UNL     1      -3.539  50.348 -20.831  1.00  0.00     0.123 C 
HETATM   11  C20 UNL     1      -4.729  49.558 -20.323  1.00  0.00     0.014 C 
HETATM   12  C21 UNL     1      -4.656  49.254 -19.020  1.00  0.00     0.014 C 
HETATM   13  C22 UNL     1      -3.336  49.637 -18.380  1.00  0.00     0.124 C 
HETATM   14  C23 UNL     1      -3.333  49.357 -16.874  1.00  0.00     0.078 C 
HETATM   15  C24 UNL     1      -1.940  49.421 -16.229  1.00  0.00     0.128 C 
HETATM   16  C31 UNL     1      -0.857  49.972 -17.158  1.00  0.00     0.033 C 
HETATM   17  C32 UNL     1      -0.780  49.210 -18.483  1.00  0.00     0.015 C 
HETATM   18  C33 UNL     1      -2.163  48.945 -19.162  1.00  0.00     0.001 C 
HETATM   19  C34 UNL     1      -2.379  47.404 -19.178  1.00  0.00     0.019 C 
HETATM   20  O7  UNL     1      -3.167  51.071 -18.550  1.00  0.00    -0.223 OA
HETATM   21  O8  UNL     1      -3.520  51.496 -19.937  1.00  0.00    -0.224 OA
ENDROOT
BRANCH  15  22
HETATM   22  O1  UNL     1      -1.605  48.084 -15.839  1.00  0.00    -0.353 OA
BRANCH  22  23
HETATM   23  C25 UNL     1      -0.830  47.978 -14.647  1.00  0.00     0.292 C 
HETATM   24  O2  UNL     1       0.462  47.492 -15.019  1.00  0.00    -0.348 OA
HETATM   25  C26 UNL     1       1.331  47.278 -13.903  1.00  0.00     0.179 C 
HETATM   26  C28 UNL     1       0.739  46.212 -12.969  1.00  0.00     0.180 C 
HETATM   27  C29 UNL     1      -0.638  46.671 -12.495  1.00  0.00     0.183 C 
HETATM   28  C30 UNL     1      -1.543  46.998 -13.683  1.00  0.00     0.204 C 
BRANCH  25  29
HETATM   29  C27 UNL     1       2.715  46.858 -14.419  1.00  0.00     0.198 C 
BRANCH  29  30
HETATM   30  O3  UNL     1       2.798  45.454 -14.639  1.00  0.00    -0.398 OA
HETATM   31  H41 UNL     1       1.974  45.191 -15.105  1.00  0.00     0.209 HD
ENDBRANCH  29  30
ENDBRANCH  25  29
BRANCH  26  32
HETATM   32  O4  UNL     1       1.582  45.983 -11.833  1.00  0.00    -0.390 OA
HETATM   33  H43 UNL     1       1.035  45.444 -11.220  1.00  0.00     0.210 HD
ENDBRANCH  26  32
BRANCH  27  34
HETATM   34  O5  UNL     1      -1.219  45.637 -11.681  1.00  0.00    -0.390 OA
HETATM   35  H45 UNL     1      -2.181  45.817 -11.664  1.00  0.00     0.210 HD
ENDBRANCH  27  34
BRANCH  28  36
HETATM   36  O6  UNL     1      -2.789  47.503 -13.167  1.00  0.00    -0.388 OA
HETATM   37  H47 UNL     1      -2.657  48.424 -12.883  1.00  0.00     0.210 HD
ENDBRANCH  28  36
ENDBRANCH  22  23
ENDBRANCH  15  22
BRANCH   1  38
HETATM   38  C8  UNL     1      -3.099  51.051 -25.736  1.00  0.00     0.008 C 
HETATM   39  C9  UNL     1      -3.374  49.968 -26.793  1.00  0.00     0.014 C 
BRANCH  38  40
HETATM   40  C7  UNL     1      -2.173  52.042 -26.416  1.00  0.00    -0.026 C 
HETATM   41  C6  UNL     1      -0.847  52.099 -26.199  1.00  0.00    -0.026 C 
BRANCH  41  42
HETATM   42  C4  UNL     1       0.069  53.098 -26.872  1.00  0.00     0.007 C 
HETATM   43  C5  UNL     1      -0.707  53.848 -27.960  1.00  0.00     0.014 C 
BRANCH  42  44
HETATM   44  C2  UNL     1       1.369  52.411 -27.374  1.00  0.00    -0.015 C 
HETATM   45  C1  UNL     1       2.075  51.556 -26.316  1.00  0.00     0.010 C 
HETATM   46  C3  UNL     1       1.113  51.567 -28.627  1.00  0.00     0.010 C 
ENDBRANCH  42  44
ENDBRANCH  41  42
ENDBRANCH  38  40
ENDBRANCH   1  38
TORSDOF 11
ENDMDL
MODEL 8
REMARK minimizedAffinity -7.96950769
REMARK CNNscore 0.306407839
REMARK CNNaffinity 6.27857447
REMARK  11 active torsions:
REMARK  status: ('A' for Active; 'I' for Inactive)
REMARK    1  A    between atoms: C2_2  and  C4_4 
REMARK    2  A    between atoms: C4_4  and  C6_6 
REMARK    3  A    between atoms: C7_7  and  C8_8 
REMARK    4  A    between atoms: C8_8  and  C10_10 
REMARK    5  A    between atoms: C24_24  and  O1_25 
REMARK    6  A    between atoms: O1_25  and  C25_26 
REMARK    7  A    between atoms: C26_28  and  C27_29 
REMARK    8  A    between atoms: C27_29  and  O3_30 
REMARK    9  A    between atoms: C28_31  and  O4_32 
REMARK   10  A    between atoms: C29_33  and  O5_34 
REMARK   11  A    between atoms: C30_35  and  O6_36 
ROOT
HETATM    1  C10 UNL     1       5.999  56.152  -6.086  1.00  0.00     0.001 C 
HETATM    2  C11 UNL     1       4.779  57.092  -6.190  1.00  0.00     0.006 C 
HETATM    3  C12 UNL     1       4.676  57.422  -7.660  1.00  0.00     0.009 C 
HETATM    4  C13 UNL     1       5.034  56.127  -8.408  1.00  0.00     0.036 C 
HETATM    5  C14 UNL     1       5.878  55.265  -7.404  1.00  0.00    -0.033 C 
HETATM    6  C15 UNL     1       7.217  54.890  -8.072  1.00  0.00     0.016 C 
HETATM    7  C16 UNL     1       5.180  53.911  -7.079  1.00  0.00     0.010 C 
HETATM    8  C17 UNL     1       3.681  53.995  -6.832  1.00  0.00     0.010 C 
HETATM    9  C18 UNL     1       2.907  54.687  -7.968  1.00  0.00     0.039 C 
HETATM   10  C19 UNL     1       3.818  55.392  -9.024  1.00  0.00     0.123 C 
HETATM   11  C20 UNL     1       4.221  54.467 -10.155  1.00  0.00     0.014 C 
HETATM   12  C21 UNL     1       3.180  53.953 -10.826  1.00  0.00     0.014 C 
HETATM   13  C22 UNL     1       1.836  54.291 -10.214  1.00  0.00     0.124 C 
HETATM   14  C23 UNL     1       0.676  53.764 -11.064  1.00  0.00     0.078 C 
HETATM   15  C24 UNL     1      -0.685  53.792 -10.352  1.00  0.00     0.128 C 
HETATM   16  C31 UNL     1      -0.666  54.546  -9.022  1.00  0.00     0.033 C 
HETATM   17  C32 UNL     1       0.408  54.023  -8.066  1.00  0.00     0.015 C 
HETATM   18  C33 UNL     1       1.810  53.803  -8.722  1.00  0.00     0.001 C 
HETATM   19  C34 UNL     1       2.110  52.277  -8.663  1.00  0.00     0.019 C 
HETATM   20  O7  UNL     1       1.721  55.741 -10.186  1.00  0.00    -0.223 OA
HETATM   21  O8  UNL     1       2.985  56.373  -9.704  1.00  0.00    -0.224 OA
ENDROOT
BRANCH  15  22
HETATM   22  O1  UNL     1      -1.059  52.427 -10.126  1.00  0.00    -0.353 OA
BRANCH  22  23
HETATM   23  C25 UNL     1      -1.984  51.890 -11.069  1.00  0.00     0.292 C 
HETATM   24  O2  UNL     1      -1.225  51.254 -12.099  1.00  0.00    -0.348 OA
HETATM   25  C26 UNL     1      -2.032  50.721 -13.153  1.00  0.00     0.179 C 
HETATM   26  C28 UNL     1      -2.809  51.850 -13.847  1.00  0.00     0.180 C 
HETATM   27  C29 UNL     1      -3.679  52.566 -12.816  1.00  0.00     0.183 C 
HETATM   28  C30 UNL     1      -2.838  53.052 -11.635  1.00  0.00     0.204 C 
BRANCH  25  29
HETATM   29  C27 UNL     1      -1.130  49.975 -14.147  1.00  0.00     0.198 C 
BRANCH  29  30
HETATM   30  O3  UNL     1      -0.131  50.826 -14.702  1.00  0.00    -0.398 OA
HETATM   31  H41 UNL     1       0.243  51.346 -13.957  1.00  0.00     0.209 HD
ENDBRANCH  29  30
ENDBRANCH  25  29
BRANCH  26  32
HETATM   32  O4  UNL     1      -3.639  51.345 -14.901  1.00  0.00    -0.390 OA
HETATM   33  H43 UNL     1      -4.222  52.098 -15.143  1.00  0.00     0.210 HD
ENDBRANCH  26  32
BRANCH  27  34
HETATM   34  O5  UNL     1      -4.347  53.667 -13.454  1.00  0.00    -0.390 OA
HETATM   35  H45 UNL     1      -4.626  54.267 -12.732  1.00  0.00     0.210 HD
ENDBRANCH  27  34
BRANCH  28  36
HETATM   36  O6  UNL     1      -3.727  53.638 -10.667  1.00  0.00    -0.388 OA
HETATM   37  H47 UNL     1      -4.176  52.922 -10.184  1.00  0.00     0.210 HD
ENDBRANCH  28  36
ENDBRANCH  22  23
ENDBRANCH  15  22
BRANCH   1  38
HETATM   38  C8  UNL     1       7.343  56.930  -5.869  1.00  0.00     0.008 C 
HETATM   39  C9  UNL     1       8.349  56.129  -5.025  1.00  0.00     0.014 C 
BRANCH  38  40
HETATM   40  C7  UNL     1       7.157  58.240  -5.126  1.00  0.00    -0.026 C 
HETATM   41  C6  UNL     1       8.169  58.960  -4.613  1.00  0.00    -0.026 C 
BRANCH  41  42
HETATM   42  C4  UNL     1       7.975  60.261  -3.864  1.00  0.00     0.007 C 
HETATM   43  C5  UNL     1       6.491  60.640  -3.878  1.00  0.00     0.014 C 
BRANCH  42  44
HETATM   44  C2  UNL     1       8.922  61.365  -4.411  1.00  0.00    -0.015 C 
HETATM   45  C1  UNL     1       9.665  60.975  -5.693  1.00  0.00     0.010 C 
HETATM   46  C3  UNL     1       8.178  62.686  -4.633  1.00  0.00     0.010 C 
ENDBRANCH  42  44
ENDBRANCH  41  42
ENDBRANCH  38  40
ENDBRANCH   1  38
TORSDOF 11
ENDMDL
MODEL 9
REMARK minimizedAffinity -8.3118782
REMARK CNNscore 0.255234957
REMARK CNNaffinity 6.70444632
REMARK  11 active torsions:
REMARK  status: ('A' for Active; 'I' for Inactive)
REMARK    1  A    between atoms: C2_2  and  C4_4 
REMARK    2  A    between atoms: C4_4  and  C6_6 
REMARK    3  A    between atoms: C7_7  and  C8_8 
REMARK    4  A    between atoms: C8_8  and  C10_10 
REMARK    5  A    between atoms: C24_24  and  O1_25 
REMARK    6  A    between atoms: O1_25  and  C25_26 
REMARK    7  A    between atoms: C26_28  and  C27_29 
REMARK    8  A    between atoms: C27_29  and  O3_30 
REMARK    9  A    between atoms: C28_31  and  O4_32 
REMARK   10  A    between atoms: C29_33  and  O5_34 
REMARK   11  A    between atoms: C30_35  and  O6_36 
ROOT
HETATM    1  C10 UNL     1      -7.495  46.456 -19.381  1.00  0.00     0.001 C 
HETATM    2  C11 UNL     1      -7.633  47.989 -19.278  1.00  0.00     0.006 C 
HETATM    3  C12 UNL     1      -6.477  48.419 -18.406  1.00  0.00     0.009 C 
HETATM    4  C13 UNL     1      -5.293  47.524 -18.808  1.00  0.00     0.036 C 
HETATM    5  C14 UNL     1      -5.918  46.245 -19.468  1.00  0.00    -0.033 C 
HETATM    6  C15 UNL     1      -5.379  44.996 -18.741  1.00  0.00     0.016 C 
HETATM    7  C16 UNL     1      -5.477  46.088 -20.953  1.00  0.00     0.010 C 
HETATM    8  C17 UNL     1      -5.490  47.369 -21.775  1.00  0.00     0.010 C 
HETATM    9  C18 UNL     1      -4.682  48.515 -21.140  1.00  0.00     0.039 C 
HETATM   10  C19 UNL     1      -4.223  48.237 -19.673  1.00  0.00     0.123 C 
HETATM   11  C20 UNL     1      -2.877  47.543 -19.606  1.00  0.00     0.014 C 
HETATM   12  C21 UNL     1      -1.888  48.229 -20.196  1.00  0.00     0.014 C 
HETATM   13  C22 UNL     1      -2.361  49.471 -20.924  1.00  0.00     0.124 C 
HETATM   14  C23 UNL     1      -1.190  50.271 -21.502  1.00  0.00     0.078 C 
HETATM   15  C24 UNL     1      -1.607  51.353 -22.510  1.00  0.00     0.128 C 
HETATM   16  C31 UNL     1      -3.118  51.579 -22.577  1.00  0.00     0.033 C 
HETATM   17  C32 UNL     1      -3.892  50.288 -22.851  1.00  0.00     0.015 C 
HETATM   18  C33 UNL     1      -3.444  49.065 -21.987  1.00  0.00     0.001 C 
HETATM   19  C34 UNL     1      -2.853  48.006 -22.962  1.00  0.00     0.019 C 
HETATM   20  O7  UNL     1      -3.024  50.323 -19.951  1.00  0.00    -0.223 OA
HETATM   21  O8  UNL     1      -3.937  49.533 -19.073  1.00  0.00    -0.224 OA
ENDROOT
BRANCH  15  22
HETATM   22  O1  UNL     1      -1.127  50.928 -23.791  1.00  0.00    -0.353 OA
BRANCH  22  23
HETATM   23  C25 UNL     1      -2.039  51.115 -24.870  1.00  0.00     0.292 C 
HETATM   24  O2  UNL     1      -2.236  49.842 -25.490  1.00  0.00    -0.348 OA
HETATM   25  C26 UNL     1      -3.089  49.895 -26.637  1.00  0.00     0.179 C 
HETATM   26  C28 UNL     1      -2.467  50.791 -27.718  1.00  0.00     0.180 C 
HETATM   27  C29 UNL     1      -2.252  52.190 -27.146  1.00  0.00     0.183 C 
HETATM   28  C30 UNL     1      -1.424  52.134 -25.861  1.00  0.00     0.204 C 
BRANCH  25  29
HETATM   29  C27 UNL     1      -3.314  48.469 -27.160  1.00  0.00     0.198 C 
BRANCH  29  30
HETATM   30  O3  UNL     1      -4.437  48.391 -28.032  1.00  0.00    -0.398 OA
HETATM   31  H41 UNL     1      -4.374  49.159 -28.642  1.00  0.00     0.209 HD
ENDBRANCH  29  30
ENDBRANCH  25  29
BRANCH  26  32
HETATM   32  O4  UNL     1      -3.305  50.875 -28.877  1.00  0.00    -0.390 OA
HETATM   33  H43 UNL     1      -2.920  51.603 -29.413  1.00  0.00     0.210 HD
ENDBRANCH  26  32
BRANCH  27  34
HETATM   34  O5  UNL     1      -1.601  53.004 -28.137  1.00  0.00    -0.390 OA
HETATM   35  H45 UNL     1      -1.207  53.757 -27.650  1.00  0.00     0.210 HD
ENDBRANCH  27  34
BRANCH  28  36
HETATM   36  O6  UNL     1      -1.333  53.469 -25.332  1.00  0.00    -0.388 OA
HETATM   37  H47 UNL     1      -2.176  53.690 -24.899  1.00  0.00     0.210 HD
ENDBRANCH  28  36
ENDBRANCH  22  23
ENDBRANCH  15  22
BRANCH   1  38
HETATM   38  C8  UNL     1      -8.255  45.704 -18.234  1.00  0.00     0.008 C 
HETATM   39  C9  UNL     1      -8.120  44.176 -18.350  1.00  0.00     0.014 C 
BRANCH  38  40
HETATM   40  C7  UNL     1      -9.749  45.971 -18.237  1.00  0.00    -0.026 C 
HETATM   41  C6  UNL     1     -10.296  47.167 -17.958  1.00  0.00    -0.026 C 
BRANCH  41  42
HETATM   42  C4  UNL     1     -11.787  47.424 -17.953  1.00  0.00     0.007 C 
HETATM   43  C5  UNL     1     -12.464  46.476 -16.958  1.00  0.00     0.014 C 
BRANCH  42  44
HETATM   44  C2  UNL     1     -12.369  47.360 -19.392  1.00  0.00    -0.015 C 
HETATM   45  C1  UNL     1     -13.079  46.043 -19.724  1.00  0.00     0.010 C 
HETATM   46  C3  UNL     1     -13.311  48.534 -19.672  1.00  0.00     0.010 C 
ENDBRANCH  42  44
ENDBRANCH  41  42
ENDBRANCH  38  40
ENDBRANCH   1  38
TORSDOF 11
ENDMDL
