MODEL 1
REMARK minimizedAffinity -7.76359367
REMARK  12 active torsions:
REMARK  status: ('A' for Active; 'I' for Inactive)
REMARK    1  A    between atoms: C3_3  and  O1_4 
REMARK    2  A    between atoms: O1_4  and  C4_5 
REMARK    3  A    between atoms: C5_7  and  C6_8 
REMARK    4  A    between atoms: C6_8  and  O3_9 
REMARK    5  A    between atoms: C7_10  and  O4_11 
REMARK    6  A    between atoms: C8_12  and  O5_13 
REMARK    7  A    between atoms: C9_14  and  O6_15 
REMARK    8  A    between atoms: C10_16  and  O7_17 
REMARK    9  A    between atoms: C15_22  and  O8_23 
REMARK   10  A    between atoms: C15_22  and  C16_24 
REMARK   11  A    between atoms: C17_25  and  C18_26 
REMARK   12  A    between atoms: C18_26  and  O9_28 
ROOT
HETATM    1  C1  UNL     1       2.419   7.384  14.402  1.00  0.00     0.016 C 
HETATM    2  C2  UNL     1       1.265   6.473  13.958  1.00  0.00     0.052 C 
HETATM    3  C3  UNL     1       1.485   5.918  12.539  1.00  0.00     0.160 C 
HETATM    4  C10 UNL     1       0.449   4.792  12.239  1.00  0.00     0.148 C 
HETATM    5  C11 UNL     1      -0.811   4.827  13.117  1.00  0.00     0.046 C 
HETATM    6  C12 UNL     1      -1.312   6.253  13.449  1.00  0.00    -0.010 C 
HETATM    7  C13 UNL     1      -2.607   6.104  14.292  1.00  0.00     0.018 C 
HETATM    8  C14 UNL     1      -1.739   6.959  12.137  1.00  0.00     0.018 C 
HETATM    9  C15 UNL     1      -0.180   7.033  14.247  1.00  0.00     0.088 C 
ENDROOT
BRANCH   3  10
HETATM   10  O1  UNL     1       1.492   6.982  11.582  1.00  0.00    -0.350 OA
BRANCH  10  11
HETATM   11  C4  UNL     1       2.817   7.419  11.243  1.00  0.00     0.292 C 
HETATM   12  O2  UNL     1       2.732   8.242  10.068  1.00  0.00    -0.348 OA
HETATM   13  C5  UNL     1       3.012   7.585   8.824  1.00  0.00     0.179 C 
HETATM   14  C7  UNL     1       2.598   6.109   8.859  1.00  0.00     0.180 C 
HETATM   15  C8  UNL     1       3.541   5.394   9.829  1.00  0.00     0.183 C 
HETATM   16  C9  UNL     1       3.754   6.190  11.127  1.00  0.00     0.204 C 
BRANCH  13  17
HETATM   17  C6  UNL     1       2.297   8.374   7.725  1.00  0.00     0.198 C 
BRANCH  17  18
HETATM   18  O3  UNL     1       1.788   7.487   6.730  1.00  0.00    -0.398 OA
HETATM   19  H10 UNL     1       1.201   6.874   7.214  1.00  0.00     0.209 HD
ENDBRANCH  17  18
ENDBRANCH  13  17
BRANCH  14  20
HETATM   20  O4  UNL     1       2.692   5.462   7.583  1.00  0.00    -0.390 OA
HETATM   21  H12 UNL     1       1.948   5.800   7.049  1.00  0.00     0.210 HD
ENDBRANCH  14  20
BRANCH  15  22
HETATM   22  O5  UNL     1       3.047   4.075  10.104  1.00  0.00    -0.390 OA
HETATM   23  H14 UNL     1       2.877   3.681   9.227  1.00  0.00     0.210 HD
ENDBRANCH  15  22
BRANCH  16  24
HETATM   24  O6  UNL     1       5.129   6.635  11.155  1.00  0.00    -0.388 OA
HETATM   25  H16 UNL     1       5.661   5.853  11.390  1.00  0.00     0.210 HD
ENDBRANCH  16  24
ENDBRANCH  10  11
ENDBRANCH   3  10
BRANCH   4  26
HETATM   26  O7  UNL     1       0.084   4.751  10.857  1.00  0.00    -0.393 OA
HETATM   27  H18 UNL     1      -0.556   4.026  10.741  1.00  0.00     0.210 HD
ENDBRANCH   4  26
BRANCH   9  28
HETATM   28  O8  UNL     1      -0.348   6.697  15.654  1.00  0.00    -0.385 OA
HETATM   29  H27 UNL     1       0.135   7.366  16.170  1.00  0.00     0.211 HD
ENDBRANCH   9  28
BRANCH   9  30
HETATM   30  C16 UNL     1      -0.438   8.529  14.222  1.00  0.00     0.010 C 
HETATM   31  C17 UNL     1      -1.144   9.276  15.088  1.00  0.00     0.003 C 
BRANCH  31  32
HETATM   32  C18 UNL     1      -1.356  10.764  15.024  1.00  0.00     0.136 C 
HETATM   33  C19 UNL     1      -0.284  11.505  15.811  1.00  0.00     0.043 C 
BRANCH  32  34
HETATM   34  O9  UNL     1      -1.345  11.212  13.674  1.00  0.00    -0.392 OA
HETATM   35  H34 UNL     1      -1.452  12.177  13.690  1.00  0.00     0.210 HD
ENDBRANCH  32  34
ENDBRANCH  31  32
ENDBRANCH   9  30
TORSDOF 12
ENDMDL
MODEL 2
REMARK minimizedAffinity -7.37878609
REMARK  12 active torsions:
REMARK  status: ('A' for Active; 'I' for Inactive)
REMARK    1  A    between atoms: C3_3  and  O1_4 
REMARK    2  A    between atoms: O1_4  and  C4_5 
REMARK    3  A    between atoms: C5_7  and  C6_8 
REMARK    4  A    between atoms: C6_8  and  O3_9 
REMARK    5  A    between atoms: C7_10  and  O4_11 
REMARK    6  A    between atoms: C8_12  and  O5_13 
REMARK    7  A    between atoms: C9_14  and  O6_15 
REMARK    8  A    between atoms: C10_16  and  O7_17 
REMARK    9  A    between atoms: C15_22  and  O8_23 
REMARK   10  A    between atoms: C15_22  and  C16_24 
REMARK   11  A    between atoms: C17_25  and  C18_26 
REMARK   12  A    between atoms: C18_26  and  O9_28 
ROOT
HETATM    1  C1  UNL     1       0.773   5.007  11.116  1.00  0.00     0.016 C 
HETATM    2  C2  UNL     1       1.560   5.836  12.142  1.00  0.00     0.052 C 
HETATM    3  C3  UNL     1       0.654   6.368  13.266  1.00  0.00     0.160 C 
HETATM    4  C10 UNL     1       1.523   6.956  14.420  1.00  0.00     0.148 C 
HETATM    5  C11 UNL     1       2.950   7.351  14.012  1.00  0.00     0.046 C 
HETATM    6  C12 UNL     1       3.059   7.957  12.593  1.00  0.00    -0.010 C 
HETATM    7  C13 UNL     1       4.546   8.341  12.365  1.00  0.00     0.018 C 
HETATM    8  C14 UNL     1       2.266   9.288  12.548  1.00  0.00     0.018 C 
HETATM    9  C15 UNL     1       2.561   6.888  11.527  1.00  0.00     0.088 C 
ENDROOT
BRANCH   3  10
HETATM   10  O1  UNL     1      -0.317   7.277  12.738  1.00  0.00    -0.350 OA
BRANCH  10  11
HETATM   11  C4  UNL     1      -1.592   6.660  12.507  1.00  0.00     0.292 C 
HETATM   12  O2  UNL     1      -2.613   7.657  12.682  1.00  0.00    -0.348 OA
HETATM   13  C5  UNL     1      -3.252   7.679  13.966  1.00  0.00     0.179 C 
HETATM   14  C7  UNL     1      -2.296   7.238  15.081  1.00  0.00     0.180 C 
HETATM   15  C8  UNL     1      -2.014   5.747  14.877  1.00  0.00     0.183 C 
HETATM   16  C9  UNL     1      -1.731   5.404  13.406  1.00  0.00     0.204 C 
BRANCH  13  17
HETATM   17  C6  UNL     1      -3.795   9.094  14.178  1.00  0.00     0.198 C 
BRANCH  17  18
HETATM   18  O3  UNL     1      -5.211   9.061  14.346  1.00  0.00    -0.398 OA
HETATM   19  H10 UNL     1      -5.361   8.468  15.109  1.00  0.00     0.209 HD
ENDBRANCH  17  18
ENDBRANCH  13  17
BRANCH  14  20
HETATM   20  O4  UNL     1      -2.835   7.417  16.396  1.00  0.00    -0.390 OA
HETATM   21  H12 UNL     1      -2.816   8.378  16.572  1.00  0.00     0.210 HD
ENDBRANCH  14  20
BRANCH  15  22
HETATM   22  O5  UNL     1      -0.930   5.337  15.724  1.00  0.00    -0.390 OA
HETATM   23  H14 UNL     1      -1.169   5.661  16.615  1.00  0.00     0.210 HD
ENDBRANCH  15  22
BRANCH  16  24
HETATM   24  O6  UNL     1      -2.822   4.589  12.921  1.00  0.00    -0.388 OA
HETATM   25  H16 UNL     1      -2.681   3.700  13.294  1.00  0.00     0.210 HD
ENDBRANCH  16  24
ENDBRANCH  10  11
ENDBRANCH   3  10
BRANCH   4  26
HETATM   26  O7  UNL     1       0.879   8.052  15.074  1.00  0.00    -0.393 OA
HETATM   27  H18 UNL     1       1.470   8.364  15.782  1.00  0.00     0.210 HD
ENDBRANCH   4  26
BRANCH   9  28
HETATM   28  O8  UNL     1       3.706   6.048  11.205  1.00  0.00    -0.385 OA
HETATM   29  H27 UNL     1       3.502   5.590  10.371  1.00  0.00     0.211 HD
ENDBRANCH   9  28
BRANCH   9  30
HETATM   30  C16 UNL     1       2.246   7.556  10.200  1.00  0.00     0.010 C 
HETATM   31  C17 UNL     1       2.909   7.467   9.034  1.00  0.00     0.003 C 
BRANCH  31  32
HETATM   32  C18 UNL     1       2.543   8.141   7.741  1.00  0.00     0.136 C 
HETATM   33  C19 UNL     1       1.980   7.141   6.740  1.00  0.00     0.043 C 
BRANCH  32  34
HETATM   34  O9  UNL     1       1.588   9.170   7.968  1.00  0.00    -0.392 OA
HETATM   35  H34 UNL     1       1.363   9.550   7.103  1.00  0.00     0.210 HD
ENDBRANCH  32  34
ENDBRANCH  31  32
ENDBRANCH   9  30
TORSDOF 12
ENDMDL
MODEL 3
REMARK minimizedAffinity -7.25073004
REMARK  12 active torsions:
REMARK  status: ('A' for Active; 'I' for Inactive)
REMARK    1  A    between atoms: C3_3  and  O1_4 
REMARK    2  A    between atoms: O1_4  and  C4_5 
REMARK    3  A    between atoms: C5_7  and  C6_8 
REMARK    4  A    between atoms: C6_8  and  O3_9 
REMARK    5  A    between atoms: C7_10  and  O4_11 
REMARK    6  A    between atoms: C8_12  and  O5_13 
REMARK    7  A    between atoms: C9_14  and  O6_15 
REMARK    8  A    between atoms: C10_16  and  O7_17 
REMARK    9  A    between atoms: C15_22  and  O8_23 
REMARK   10  A    between atoms: C15_22  and  C16_24 
REMARK   11  A    between atoms: C17_25  and  C18_26 
REMARK   12  A    between atoms: C18_26  and  O9_28 
ROOT
HETATM    1  C1  UNL     1      -0.768   8.142  16.063  1.00  0.00     0.016 C 
HETATM    2  C2  UNL     1      -2.138   7.574  15.662  1.00  0.00     0.052 C 
HETATM    3  C3  UNL     1      -2.013   6.471  14.597  1.00  0.00     0.160 C 
HETATM    4  C10 UNL     1      -3.377   5.734  14.426  1.00  0.00     0.148 C 
HETATM    5  C11 UNL     1      -4.601   6.530  14.906  1.00  0.00     0.046 C 
HETATM    6  C12 UNL     1      -4.516   8.050  14.630  1.00  0.00    -0.010 C 
HETATM    7  C13 UNL     1      -5.842   8.686  15.128  1.00  0.00     0.018 C 
HETATM    8  C14 UNL     1      -4.483   8.286  13.099  1.00  0.00     0.018 C 
HETATM    9  C15 UNL     1      -3.257   8.652  15.390  1.00  0.00     0.088 C 
ENDROOT
BRANCH   3  10
HETATM   10  O1  UNL     1      -1.477   7.007  13.383  1.00  0.00    -0.350 OA
BRANCH  10  11
HETATM   11  C4  UNL     1      -0.451   6.180  12.813  1.00  0.00     0.292 C 
HETATM   12  O2  UNL     1       0.719   6.282  13.641  1.00  0.00    -0.348 OA
HETATM   13  C5  UNL     1       1.717   7.214  13.200  1.00  0.00     0.179 C 
HETATM   14  C7  UNL     1       1.093   8.404  12.461  1.00  0.00     0.180 C 
HETATM   15  C8  UNL     1       0.527   7.876  11.141  1.00  0.00     0.183 C 
HETATM   16  C9  UNL     1      -0.246   6.560  11.324  1.00  0.00     0.204 C 
BRANCH  13  17
HETATM   17  C6  UNL     1       2.519   7.637  14.433  1.00  0.00     0.198 C 
BRANCH  17  18
HETATM   18  O3  UNL     1       2.539   6.584  15.395  1.00  0.00    -0.398 OA
HETATM   19  H10 UNL     1       2.923   5.818  14.925  1.00  0.00     0.209 HD
ENDBRANCH  17  18
ENDBRANCH  13  17
BRANCH  14  20
HETATM   20  O4  UNL     1       2.032   9.444  12.163  1.00  0.00    -0.390 OA
HETATM   21  H12 UNL     1       2.223   9.893  13.010  1.00  0.00     0.210 HD
ENDBRANCH  14  20
BRANCH  15  22
HETATM   22  O5  UNL     1      -0.294   8.881  10.528  1.00  0.00    -0.390 OA
HETATM   23  H14 UNL     1       0.255   9.688  10.523  1.00  0.00     0.210 HD
ENDBRANCH  15  22
BRANCH  16  24
HETATM   24  O6  UNL     1       0.497   5.512  10.663  1.00  0.00    -0.388 OA
HETATM   25  H16 UNL     1       0.337   5.628   9.709  1.00  0.00     0.210 HD
ENDBRANCH  16  24
ENDBRANCH  10  11
ENDBRANCH   3  10
BRANCH   4  26
HETATM   26  O7  UNL     1      -3.581   5.283  13.085  1.00  0.00    -0.393 OA
HETATM   27  H18 UNL     1      -4.442   4.830  13.053  1.00  0.00     0.210 HD
ENDBRANCH   4  26
BRANCH   9  28
HETATM   28  O8  UNL     1      -3.692   8.969  16.743  1.00  0.00    -0.385 OA
HETATM   29  H27 UNL     1      -3.038   9.583  17.120  1.00  0.00     0.211 HD
ENDBRANCH   9  28
BRANCH   9  30
HETATM   30  C16 UNL     1      -2.885  10.011  14.825  1.00  0.00     0.010 C 
HETATM   31  C17 UNL     1      -2.752  11.183  15.470  1.00  0.00     0.003 C 
BRANCH  31  32
HETATM   32  C18 UNL     1      -2.365  12.503  14.861  1.00  0.00     0.136 C 
HETATM   33  C19 UNL     1      -1.823  13.457  15.916  1.00  0.00     0.043 C 
BRANCH  32  34
HETATM   34  O9  UNL     1      -1.388  12.316  13.845  1.00  0.00    -0.392 OA
HETATM   35  H34 UNL     1      -1.151  13.196  13.509  1.00  0.00     0.210 HD
ENDBRANCH  32  34
ENDBRANCH  31  32
ENDBRANCH   9  30
TORSDOF 12
ENDMDL
MODEL 4
REMARK minimizedAffinity -7.09911251
REMARK  12 active torsions:
REMARK  status: ('A' for Active; 'I' for Inactive)
REMARK    1  A    between atoms: C3_3  and  O1_4 
REMARK    2  A    between atoms: O1_4  and  C4_5 
REMARK    3  A    between atoms: C5_7  and  C6_8 
REMARK    4  A    between atoms: C6_8  and  O3_9 
REMARK    5  A    between atoms: C7_10  and  O4_11 
REMARK    6  A    between atoms: C8_12  and  O5_13 
REMARK    7  A    between atoms: C9_14  and  O6_15 
REMARK    8  A    between atoms: C10_16  and  O7_17 
REMARK    9  A    between atoms: C15_22  and  O8_23 
REMARK   10  A    between atoms: C15_22  and  C16_24 
REMARK   11  A    between atoms: C17_25  and  C18_26 
REMARK   12  A    between atoms: C18_26  and  O9_28 
ROOT
HETATM    1  C1  UNL     1      -1.098   8.554  16.322  1.00  0.00     0.016 C 
HETATM    2  C2  UNL     1      -2.363   7.870  15.784  1.00  0.00     0.052 C 
HETATM    3  C3  UNL     1      -2.032   6.790  14.739  1.00  0.00     0.160 C 
HETATM    4  C10 UNL     1      -3.300   5.936  14.430  1.00  0.00     0.148 C 
HETATM    5  C11 UNL     1      -4.632   6.616  14.781  1.00  0.00     0.046 C 
HETATM    6  C12 UNL     1      -4.656   8.140  14.512  1.00  0.00    -0.010 C 
HETATM    7  C13 UNL     1      -6.077   8.652  14.871  1.00  0.00     0.018 C 
HETATM    8  C14 UNL     1      -4.487   8.390  12.992  1.00  0.00     0.018 C 
HETATM    9  C15 UNL     1      -3.539   8.846  15.397  1.00  0.00     0.088 C 
ENDROOT
BRANCH   3  10
HETATM   10  O1  UNL     1      -1.424   7.381  13.585  1.00  0.00    -0.350 OA
BRANCH  10  11
HETATM   11  C4  UNL     1      -0.006   7.549  13.726  1.00  0.00     0.292 C 
HETATM   12  O2  UNL     1       0.476   8.278  12.585  1.00  0.00    -0.348 OA
HETATM   13  C5  UNL     1       1.031   7.485  11.526  1.00  0.00     0.179 C 
HETATM   14  C7  UNL     1       0.355   6.111  11.434  1.00  0.00     0.180 C 
HETATM   15  C8  UNL     1       0.754   5.322  12.683  1.00  0.00     0.183 C 
HETATM   16  C9  UNL     1       0.660   6.169  13.962  1.00  0.00     0.204 C 
BRANCH  13  17
HETATM   17  C6  UNL     1       0.901   8.297  10.236  1.00  0.00     0.198 C 
BRANCH  17  18
HETATM   18  O3  UNL     1      -0.378   8.925  10.174  1.00  0.00    -0.398 OA
HETATM   19  H10 UNL     1      -0.432   9.470  10.984  1.00  0.00     0.209 HD
ENDBRANCH  17  18
ENDBRANCH  13  17
BRANCH  14  20
HETATM   20  O4  UNL     1       0.753   5.358  10.281  1.00  0.00    -0.390 OA
HETATM   21  H12 UNL     1       0.315   5.778   9.516  1.00  0.00     0.210 HD
ENDBRANCH  14  20
BRANCH  15  22
HETATM   22  O5  UNL     1      -0.048   4.137  12.785  1.00  0.00    -0.390 OA
HETATM   23  H14 UNL     1       0.019   3.709  11.909  1.00  0.00     0.210 HD
ENDBRANCH  15  22
BRANCH  16  24
HETATM   24  O6  UNL     1       2.001   6.367  14.465  1.00  0.00    -0.388 OA
HETATM   25  H16 UNL     1       2.259   5.525  14.882  1.00  0.00     0.210 HD
ENDBRANCH  16  24
ENDBRANCH  10  11
ENDBRANCH   3  10
BRANCH   4  26
HETATM   26  O7  UNL     1      -3.324   5.478  13.076  1.00  0.00    -0.393 OA
HETATM   27  H18 UNL     1      -4.134   4.951  12.956  1.00  0.00     0.210 HD
ENDBRANCH   4  26
BRANCH   9  28
HETATM   28  O8  UNL     1      -4.137   9.113  16.697  1.00  0.00    -0.385 OA
HETATM   29  H27 UNL     1      -3.582   9.779  17.138  1.00  0.00     0.211 HD
ENDBRANCH   9  28
BRANCH   9  30
HETATM   30  C16 UNL     1      -3.235  10.237  14.870  1.00  0.00     0.010 C 
HETATM   31  C17 UNL     1      -2.975  11.360  15.561  1.00  0.00     0.003 C 
BRANCH  31  32
HETATM   32  C18 UNL     1      -2.663  12.715  14.986  1.00  0.00     0.136 C 
HETATM   33  C19 UNL     1      -2.111  13.650  16.053  1.00  0.00     0.043 C 
BRANCH  32  34
HETATM   34  O9  UNL     1      -1.724  12.602  13.925  1.00  0.00    -0.392 OA
HETATM   35  H34 UNL     1      -1.533  13.501  13.612  1.00  0.00     0.210 HD
ENDBRANCH  32  34
ENDBRANCH  31  32
ENDBRANCH   9  30
TORSDOF 12
ENDMDL
MODEL 5
REMARK minimizedAffinity -7.07231331
REMARK  12 active torsions:
REMARK  status: ('A' for Active; 'I' for Inactive)
REMARK    1  A    between atoms: C3_3  and  O1_4 
REMARK    2  A    between atoms: O1_4  and  C4_5 
REMARK    3  A    between atoms: C5_7  and  C6_8 
REMARK    4  A    between atoms: C6_8  and  O3_9 
REMARK    5  A    between atoms: C7_10  and  O4_11 
REMARK    6  A    between atoms: C8_12  and  O5_13 
REMARK    7  A    between atoms: C9_14  and  O6_15 
REMARK    8  A    between atoms: C10_16  and  O7_17 
REMARK    9  A    between atoms: C15_22  and  O8_23 
REMARK   10  A    between atoms: C15_22  and  C16_24 
REMARK   11  A    between atoms: C17_25  and  C18_26 
REMARK   12  A    between atoms: C18_26  and  O9_28 
ROOT
HETATM    1  C1  UNL     1      -2.086   8.844  12.404  1.00  0.00     0.016 C 
HETATM    2  C2  UNL     1      -3.034   8.862  13.612  1.00  0.00     0.052 C 
HETATM    3  C3  UNL     1      -2.268   8.960  14.943  1.00  0.00     0.160 C 
HETATM    4  C10 UNL     1      -3.258   9.257  16.110  1.00  0.00     0.148 C 
HETATM    5  C11 UNL     1      -4.721   8.886  15.821  1.00  0.00     0.046 C 
HETATM    6  C12 UNL     1      -4.895   7.597  14.985  1.00  0.00    -0.010 C 
HETATM    7  C13 UNL     1      -6.419   7.346  14.831  1.00  0.00     0.018 C 
HETATM    8  C14 UNL     1      -4.347   6.392  15.791  1.00  0.00     0.018 C 
HETATM    9  C15 UNL     1      -4.187   7.787  13.574  1.00  0.00     0.088 C 
ENDROOT
BRANCH   3  10
HETATM   10  O1  UNL     1      -1.457   7.797  15.139  1.00  0.00    -0.350 OA
BRANCH  10  11
HETATM   11  C4  UNL     1      -0.354   8.029  16.027  1.00  0.00     0.292 C 
HETATM   12  O2  UNL     1      -0.175   9.449  16.159  1.00  0.00    -0.348 OA
HETATM   13  C5  UNL     1       0.834  10.032  15.321  1.00  0.00     0.179 C 
HETATM   14  C7  UNL     1       0.971   9.278  13.993  1.00  0.00     0.180 C 
HETATM   15  C8  UNL     1       1.559   7.901  14.309  1.00  0.00     0.183 C 
HETATM   16  C9  UNL     1       0.888   7.247  15.528  1.00  0.00     0.204 C 
BRANCH  13  17
HETATM   17  C6  UNL     1       0.468  11.506  15.130  1.00  0.00     0.198 C 
BRANCH  17  18
HETATM   18  O3  UNL     1      -0.516  11.643  14.106  1.00  0.00    -0.398 OA
HETATM   19  H10 UNL     1      -1.266  11.090  14.401  1.00  0.00     0.209 HD
ENDBRANCH  17  18
ENDBRANCH  13  17
BRANCH  14  20
HETATM   20  O4  UNL     1       1.836   9.931  13.056  1.00  0.00    -0.390 OA
HETATM   21  H12 UNL     1       1.344  10.707  12.723  1.00  0.00     0.210 HD
ENDBRANCH  14  20
BRANCH  15  22
HETATM   22  O5  UNL     1       1.468   7.057  13.152  1.00  0.00    -0.390 OA
HETATM   23  H14 UNL     1       1.852   7.584  12.424  1.00  0.00     0.210 HD
ENDBRANCH  15  22
BRANCH  16  24
HETATM   24  O6  UNL     1       1.866   7.178  16.590  1.00  0.00    -0.388 OA
HETATM   25  H16 UNL     1       2.464   6.444  16.358  1.00  0.00     0.210 HD
ENDBRANCH  16  24
ENDBRANCH  10  11
ENDBRANCH   3  10
BRANCH   4  26
HETATM   26  O7  UNL     1      -2.835   8.661  17.339  1.00  0.00    -0.393 OA
HETATM   27  H18 UNL     1      -3.491   8.891  18.021  1.00  0.00     0.210 HD
ENDBRANCH   4  26
BRANCH   9  28
HETATM   28  O8  UNL     1      -5.157   8.430  12.699  1.00  0.00    -0.385 OA
HETATM   29  H27 UNL     1      -4.853   8.296  11.784  1.00  0.00     0.211 HD
ENDBRANCH   9  28
BRANCH   9  30
HETATM   30  C16 UNL     1      -3.958   6.446  12.901  1.00  0.00     0.010 C 
HETATM   31  C17 UNL     1      -2.978   5.552  13.117  1.00  0.00     0.003 C 
BRANCH  31  32
HETATM   32  C18 UNL     1      -2.807   4.225  12.429  1.00  0.00     0.136 C 
HETATM   33  C19 UNL     1      -4.153   3.564  12.167  1.00  0.00     0.043 C 
BRANCH  32  34
HETATM   34  O9  UNL     1      -2.114   4.388  11.198  1.00  0.00    -0.392 OA
HETATM   35  H34 UNL     1      -2.058   3.512  10.781  1.00  0.00     0.210 HD
ENDBRANCH  32  34
ENDBRANCH  31  32
ENDBRANCH   9  30
TORSDOF 12
ENDMDL
MODEL 6
REMARK minimizedAffinity -7.01527882
REMARK  12 active torsions:
REMARK  status: ('A' for Active; 'I' for Inactive)
REMARK    1  A    between atoms: C3_3  and  O1_4 
REMARK    2  A    between atoms: O1_4  and  C4_5 
REMARK    3  A    between atoms: C5_7  and  C6_8 
REMARK    4  A    between atoms: C6_8  and  O3_9 
REMARK    5  A    between atoms: C7_10  and  O4_11 
REMARK    6  A    between atoms: C8_12  and  O5_13 
REMARK    7  A    between atoms: C9_14  and  O6_15 
REMARK    8  A    between atoms: C10_16  and  O7_17 
REMARK    9  A    between atoms: C15_22  and  O8_23 
REMARK   10  A    between atoms: C15_22  and  C16_24 
REMARK   11  A    between atoms: C17_25  and  C18_26 
REMARK   12  A    between atoms: C18_26  and  O9_28 
ROOT
HETATM    1  C1  UNL     1      -2.898 -13.415   6.395  1.00  0.00     0.016 C 
HETATM    2  C2  UNL     1      -2.764 -12.133   5.559  1.00  0.00     0.052 C 
HETATM    3  C3  UNL     1      -2.964 -10.868   6.412  1.00  0.00     0.160 C 
HETATM    4  C10 UNL     1      -2.547  -9.604   5.600  1.00  0.00     0.148 C 
HETATM    5  C11 UNL     1      -2.538  -9.794   4.076  1.00  0.00     0.046 C 
HETATM    6  C12 UNL     1      -3.673 -10.700   3.543  1.00  0.00    -0.010 C 
HETATM    7  C13 UNL     1      -3.546 -10.742   1.996  1.00  0.00     0.018 C 
HETATM    8  C14 UNL     1      -5.039 -10.027   3.837  1.00  0.00     0.018 C 
HETATM    9  C15 UNL     1      -3.532 -12.148   4.182  1.00  0.00     0.088 C 
ENDROOT
BRANCH   3  10
HETATM   10  O1  UNL     1      -4.298 -10.821   6.931  1.00  0.00    -0.350 OA
BRANCH  10  11
HETATM   11  C4  UNL     1      -4.657  -9.523   7.428  1.00  0.00     0.292 C 
HETATM   12  O2  UNL     1      -4.341  -9.475   8.829  1.00  0.00    -0.348 OA
HETATM   13  C5  UNL     1      -5.432  -9.732   9.725  1.00  0.00     0.179 C 
HETATM   14  C7  UNL     1      -6.446 -10.708   9.116  1.00  0.00     0.180 C 
HETATM   15  C8  UNL     1      -7.134  -9.985   7.955  1.00  0.00     0.183 C 
HETATM   16  C9  UNL     1      -6.136  -9.223   7.070  1.00  0.00     0.204 C 
BRANCH  13  17
HETATM   17  C6  UNL     1      -4.830 -10.245  11.035  1.00  0.00     0.198 C 
BRANCH  17  18
HETATM   18  O3  UNL     1      -3.860  -9.322  11.529  1.00  0.00    -0.398 OA
HETATM   19  H10 UNL     1      -4.342  -8.477  11.626  1.00  0.00     0.209 HD
ENDBRANCH  17  18
ENDBRANCH  13  17
BRANCH  14  20
HETATM   20  O4  UNL     1      -7.454 -11.131  10.043  1.00  0.00    -0.390 OA
HETATM   21  H12 UNL     1      -7.018 -11.752  10.657  1.00  0.00     0.210 HD
ENDBRANCH  14  20
BRANCH  15  22
HETATM   22  O5  UNL     1      -7.900 -10.923   7.186  1.00  0.00    -0.390 OA
HETATM   23  H14 UNL     1      -8.445 -11.402   7.840  1.00  0.00     0.210 HD
ENDBRANCH  15  22
BRANCH  16  24
HETATM   24  O6  UNL     1      -6.386  -7.809   7.233  1.00  0.00    -0.388 OA
HETATM   25  H16 UNL     1      -7.192  -7.617   6.719  1.00  0.00     0.210 HD
ENDBRANCH  16  24
ENDBRANCH  10  11
ENDBRANCH   3  10
BRANCH   4  26
HETATM   26  O7  UNL     1      -3.329  -8.459   5.947  1.00  0.00    -0.393 OA
HETATM   27  H18 UNL     1      -3.013  -7.710   5.411  1.00  0.00     0.210 HD
ENDBRANCH   4  26
BRANCH   9  28
HETATM   28  O8  UNL     1      -2.606 -12.892   3.340  1.00  0.00    -0.385 OA
HETATM   29  H27 UNL     1      -2.727 -13.836   3.543  1.00  0.00     0.211 HD
ENDBRANCH   9  28
BRANCH   9  30
HETATM   30  C16 UNL     1      -4.826 -12.929   4.038  1.00  0.00     0.010 C 
HETATM   31  C17 UNL     1      -6.034 -12.661   4.563  1.00  0.00     0.003 C 
BRANCH  31  32
HETATM   32  C18 UNL     1      -7.292 -13.465   4.375  1.00  0.00     0.136 C 
HETATM   33  C19 UNL     1      -7.006 -14.766   3.638  1.00  0.00     0.043 C 
BRANCH  32  34
HETATM   34  O9  UNL     1      -7.891 -13.755   5.631  1.00  0.00    -0.392 OA
HETATM   35  H34 UNL     1      -8.676 -14.299   5.457  1.00  0.00     0.210 HD
ENDBRANCH  32  34
ENDBRANCH  31  32
ENDBRANCH   9  30
TORSDOF 12
ENDMDL
MODEL 7
REMARK minimizedAffinity -6.97892427
REMARK  12 active torsions:
REMARK  status: ('A' for Active; 'I' for Inactive)
REMARK    1  A    between atoms: C3_3  and  O1_4 
REMARK    2  A    between atoms: O1_4  and  C4_5 
REMARK    3  A    between atoms: C5_7  and  C6_8 
REMARK    4  A    between atoms: C6_8  and  O3_9 
REMARK    5  A    between atoms: C7_10  and  O4_11 
REMARK    6  A    between atoms: C8_12  and  O5_13 
REMARK    7  A    between atoms: C9_14  and  O6_15 
REMARK    8  A    between atoms: C10_16  and  O7_17 
REMARK    9  A    between atoms: C15_22  and  O8_23 
REMARK   10  A    between atoms: C15_22  and  C16_24 
REMARK   11  A    between atoms: C17_25  and  C18_26 
REMARK   12  A    between atoms: C18_26  and  O9_28 
ROOT
HETATM    1  C1  UNL     1       1.826   5.902  11.607  1.00  0.00     0.016 C 
HETATM    2  C2  UNL     1       3.051   6.593  12.226  1.00  0.00     0.052 C 
HETATM    3  C3  UNL     1       2.691   7.348  13.519  1.00  0.00     0.160 C 
HETATM    4  C10 UNL     1       3.991   7.791  14.258  1.00  0.00     0.148 C 
HETATM    5  C11 UNL     1       5.242   7.864  13.370  1.00  0.00     0.046 C 
HETATM    6  C12 UNL     1       4.971   8.374  11.935  1.00  0.00    -0.010 C 
HETATM    7  C13 UNL     1       6.337   8.432  11.198  1.00  0.00     0.018 C 
HETATM    8  C14 UNL     1       4.465   9.837  12.003  1.00  0.00     0.018 C 
HETATM    9  C15 UNL     1       3.957   7.387  11.210  1.00  0.00     0.088 C 
ENDROOT
BRANCH   3  10
HETATM   10  O1  UNL     1       1.781   8.415  13.237  1.00  0.00    -0.350 OA
BRANCH  10  11
HETATM   11  C4  UNL     1       0.409   8.050  13.453  1.00  0.00     0.292 C 
HETATM   12  O2  UNL     1      -0.356   9.256  13.619  1.00  0.00    -0.348 OA
HETATM   13  C5  UNL     1      -0.615   9.649  14.974  1.00  0.00     0.179 C 
HETATM   14  C7  UNL     1       0.522   9.228  15.913  1.00  0.00     0.180 C 
HETATM   15  C8  UNL     1       0.499   7.701  16.001  1.00  0.00     0.183 C 
HETATM   16  C9  UNL     1       0.320   7.040  14.625  1.00  0.00     0.204 C 
BRANCH  13  17
HETATM   17  C6  UNL     1      -0.850  11.161  14.970  1.00  0.00     0.198 C 
BRANCH  17  18
HETATM   18  O3  UNL     1      -1.405  11.572  13.721  1.00  0.00    -0.398 OA
HETATM   19  H10 UNL     1      -2.226  11.050  13.625  1.00  0.00     0.209 HD
ENDBRANCH  17  18
ENDBRANCH  13  17
BRANCH  14  20
HETATM   20  O4  UNL     1       0.391   9.757  17.238  1.00  0.00    -0.390 OA
HETATM   21  H12 UNL     1       0.608  10.708  17.177  1.00  0.00     0.210 HD
ENDBRANCH  14  20
BRANCH  15  22
HETATM   22  O5  UNL     1       1.691   7.234  16.650  1.00  0.00    -0.390 OA
HETATM   23  H14 UNL     1       1.754   7.759  17.472  1.00  0.00     0.210 HD
ENDBRANCH  15  22
BRANCH  16  24
HETATM   24  O6  UNL     1      -0.976   6.400  14.605  1.00  0.00    -0.388 OA
HETATM   25  H16 UNL     1      -0.883   5.586  15.132  1.00  0.00     0.210 HD
ENDBRANCH  16  24
ENDBRANCH  10  11
ENDBRANCH   3  10
BRANCH   4  26
HETATM   26  O7  UNL     1       3.816   9.023  14.961  1.00  0.00    -0.393 OA
HETATM   27  H18 UNL     1       4.658   9.235  15.402  1.00  0.00     0.210 HD
ENDBRANCH   4  26
BRANCH   9  28
HETATM   28  O8  UNL     1       4.753   6.315  10.629  1.00  0.00    -0.385 OA
HETATM   29  H27 UNL     1       4.199   5.875   9.961  1.00  0.00     0.211 HD
ENDBRANCH   9  28
BRANCH   9  30
HETATM   30  C16 UNL     1       3.338   8.050   9.992  1.00  0.00     0.010 C 
HETATM   31  C17 UNL     1       3.091   7.522   8.781  1.00  0.00     0.003 C 
BRANCH  31  32
HETATM   32  C18 UNL     1       2.459   8.222   7.609  1.00  0.00     0.136 C 
HETATM   33  C19 UNL     1       1.898   7.221   6.609  1.00  0.00     0.043 C 
BRANCH  32  34
HETATM   34  O9  UNL     1       1.419   9.087   8.047  1.00  0.00    -0.392 OA
HETATM   35  H34 UNL     1       1.025   9.488   7.255  1.00  0.00     0.210 HD
ENDBRANCH  32  34
ENDBRANCH  31  32
ENDBRANCH   9  30
TORSDOF 12
ENDMDL
MODEL 8
REMARK minimizedAffinity -6.9632411
REMARK  12 active torsions:
REMARK  status: ('A' for Active; 'I' for Inactive)
REMARK    1  A    between atoms: C3_3  and  O1_4 
REMARK    2  A    between atoms: O1_4  and  C4_5 
REMARK    3  A    between atoms: C5_7  and  C6_8 
REMARK    4  A    between atoms: C6_8  and  O3_9 
REMARK    5  A    between atoms: C7_10  and  O4_11 
REMARK    6  A    between atoms: C8_12  and  O5_13 
REMARK    7  A    between atoms: C9_14  and  O6_15 
REMARK    8  A    between atoms: C10_16  and  O7_17 
REMARK    9  A    between atoms: C15_22  and  O8_23 
REMARK   10  A    between atoms: C15_22  and  C16_24 
REMARK   11  A    between atoms: C17_25  and  C18_26 
REMARK   12  A    between atoms: C18_26  and  O9_28 
ROOT
HETATM    1  C1  UNL     1      -0.468   5.587  14.411  1.00  0.00     0.016 C 
HETATM    2  C2  UNL     1       0.133   6.568  13.393  1.00  0.00     0.052 C 
HETATM    3  C3  UNL     1      -0.700   7.857  13.278  1.00  0.00     0.160 C 
HETATM    4  C10 UNL     1       0.083   8.929  12.460  1.00  0.00     0.148 C 
HETATM    5  C11 UNL     1       1.186   8.364  11.551  1.00  0.00     0.046 C 
HETATM    6  C12 UNL     1       0.831   7.011  10.890  1.00  0.00    -0.010 C 
HETATM    7  C13 UNL     1       2.022   6.614   9.977  1.00  0.00     0.018 C 
HETATM    8  C14 UNL     1      -0.380   7.211   9.944  1.00  0.00     0.018 C 
HETATM    9  C15 UNL     1       0.574   5.925  12.023  1.00  0.00     0.088 C 
ENDROOT
BRANCH   3  10
HETATM   10  O1  UNL     1      -2.005   7.565  12.769  1.00  0.00    -0.350 OA
BRANCH  10  11
HETATM   11  C4  UNL     1      -3.011   8.463  13.263  1.00  0.00     0.292 C 
HETATM   12  O2  UNL     1      -2.598   8.929  14.559  1.00  0.00    -0.348 OA
HETATM   13  C5  UNL     1      -3.166   8.239  15.681  1.00  0.00     0.179 C 
HETATM   14  C7  UNL     1      -3.443   6.765  15.357  1.00  0.00     0.180 C 
HETATM   15  C8  UNL     1      -4.582   6.729  14.336  1.00  0.00     0.183 C 
HETATM   16  C9  UNL     1      -4.395   7.767  13.218  1.00  0.00     0.204 C 
BRANCH  13  17
HETATM   17  C6  UNL     1      -2.201   8.415  16.856  1.00  0.00     0.198 C 
BRANCH  17  18
HETATM   18  O3  UNL     1      -2.767   9.285  17.835  1.00  0.00    -0.398 OA
HETATM   19  H10 UNL     1      -3.614   8.866  18.086  1.00  0.00     0.209 HD
ENDBRANCH  17  18
ENDBRANCH  13  17
BRANCH  14  20
HETATM   20  O4  UNL     1      -3.839   5.997  16.500  1.00  0.00    -0.390 OA
HETATM   21  H12 UNL     1      -3.034   5.870  17.038  1.00  0.00     0.210 HD
ENDBRANCH  14  20
BRANCH  15  22
HETATM   22  O5  UNL     1      -4.712   5.405  13.800  1.00  0.00    -0.390 OA
HETATM   23  H14 UNL     1      -4.752   4.818  14.580  1.00  0.00     0.210 HD
ENDBRANCH  15  22
BRANCH  16  24
HETATM   24  O6  UNL     1      -5.433   8.763  13.356  1.00  0.00    -0.388 OA
HETATM   25  H16 UNL     1      -6.250   8.350  13.020  1.00  0.00     0.210 HD
ENDBRANCH  16  24
ENDBRANCH  10  11
ENDBRANCH   3  10
BRANCH   4  26
HETATM   26  O7  UNL     1      -0.789   9.774  11.705  1.00  0.00    -0.393 OA
HETATM   27  H18 UNL     1      -0.238  10.418  11.227  1.00  0.00     0.210 HD
ENDBRANCH   4  26
BRANCH   9  28
HETATM   28  O8  UNL     1       1.872   5.363  12.369  1.00  0.00    -0.385 OA
HETATM   29  H27 UNL     1       1.707   4.524  12.835  1.00  0.00     0.211 HD
ENDBRANCH   9  28
BRANCH   9  30
HETATM   30  C16 UNL     1      -0.176   4.730  11.463  1.00  0.00     0.010 C 
HETATM   31  C17 UNL     1      -0.140   3.449  11.868  1.00  0.00     0.003 C 
BRANCH  31  32
HETATM   32  C18 UNL     1      -0.920   2.302  11.284  1.00  0.00     0.136 C 
HETATM   33  C19 UNL     1      -2.118   2.802  10.488  1.00  0.00     0.043 C 
BRANCH  32  34
HETATM   34  O9  UNL     1      -0.090   1.512  10.443  1.00  0.00    -0.392 OA
HETATM   35  H34 UNL     1      -0.646   0.809  10.069  1.00  0.00     0.210 HD
ENDBRANCH  32  34
ENDBRANCH  31  32
ENDBRANCH   9  30
TORSDOF 12
ENDMDL
MODEL 9
REMARK minimizedAffinity -6.83807516
REMARK  12 active torsions:
REMARK  status: ('A' for Active; 'I' for Inactive)
REMARK    1  A    between atoms: C3_3  and  O1_4 
REMARK    2  A    between atoms: O1_4  and  C4_5 
REMARK    3  A    between atoms: C5_7  and  C6_8 
REMARK    4  A    between atoms: C6_8  and  O3_9 
REMARK    5  A    between atoms: C7_10  and  O4_11 
REMARK    6  A    between atoms: C8_12  and  O5_13 
REMARK    7  A    between atoms: C9_14  and  O6_15 
REMARK    8  A    between atoms: C10_16  and  O7_17 
REMARK    9  A    between atoms: C15_22  and  O8_23 
REMARK   10  A    between atoms: C15_22  and  C16_24 
REMARK   11  A    between atoms: C17_25  and  C18_26 
REMARK   12  A    between atoms: C18_26  and  O9_28 
ROOT
HETATM    1  C1  UNL     1      -0.000   8.441  10.563  1.00  0.00     0.016 C 
HETATM    2  C2  UNL     1       0.438   8.400  12.035  1.00  0.00     0.052 C 
HETATM    3  C3  UNL     1       1.887   7.907  12.189  1.00  0.00     0.160 C 
HETATM    4  C10 UNL     1       2.382   8.145  13.649  1.00  0.00     0.148 C 
HETATM    5  C11 UNL     1       1.262   8.304  14.688  1.00  0.00     0.046 C 
HETATM    6  C12 UNL     1       0.033   7.398  14.439  1.00  0.00    -0.010 C 
HETATM    7  C13 UNL     1      -0.970   7.648  15.597  1.00  0.00     0.018 C 
HETATM    8  C14 UNL     1       0.462   5.915  14.564  1.00  0.00     0.018 C 
HETATM    9  C15 UNL     1      -0.604   7.755  13.026  1.00  0.00     0.088 C 
ENDROOT
BRANCH   3  10
HETATM   10  O1  UNL     1       2.004   6.552  11.741  1.00  0.00    -0.350 OA
BRANCH  10  11
HETATM   11  C4  UNL     1       3.354   6.184  11.421  1.00  0.00     0.292 C 
HETATM   12  O2  UNL     1       4.176   7.359  11.527  1.00  0.00    -0.348 OA
HETATM   13  C5  UNL     1       4.445   8.046  10.296  1.00  0.00     0.179 C 
HETATM   14  C7  UNL     1       3.282   7.909   9.306  1.00  0.00     0.180 C 
HETATM   15  C8  UNL     1       3.229   6.445   8.863  1.00  0.00     0.183 C 
HETATM   16  C9  UNL     1       3.386   5.474  10.044  1.00  0.00     0.204 C 
BRANCH  13  17
HETATM   17  C6  UNL     1       4.754   9.503  10.648  1.00  0.00     0.198 C 
BRANCH  17  18
HETATM   18  O3  UNL     1       5.792  10.005   9.809  1.00  0.00    -0.398 OA
HETATM   19  H10 UNL     1       5.459   9.887   8.897  1.00  0.00     0.209 HD
ENDBRANCH  17  18
ENDBRANCH  13  17
BRANCH  14  20
HETATM   20  O4  UNL     1       3.430   8.727   8.138  1.00  0.00    -0.390 OA
HETATM   21  H12 UNL     1       3.260   9.645   8.424  1.00  0.00     0.210 HD
ENDBRANCH  14  20
BRANCH  15  22
HETATM   22  O5  UNL     1       2.011   6.198   8.145  1.00  0.00    -0.390 OA
HETATM   23  H14 UNL     1       1.968   6.903   7.470  1.00  0.00     0.210 HD
ENDBRANCH  15  22
BRANCH  16  24
HETATM   24  O6  UNL     1       4.649   4.787   9.891  1.00  0.00    -0.388 OA
HETATM   25  H16 UNL     1       4.512   4.124   9.190  1.00  0.00     0.210 HD
ENDBRANCH  16  24
ENDBRANCH  10  11
ENDBRANCH   3  10
BRANCH   4  26
HETATM   26  O7  UNL     1       3.307   7.141  14.074  1.00  0.00    -0.393 OA
HETATM   27  H18 UNL     1       3.577   7.354  14.985  1.00  0.00     0.210 HD
ENDBRANCH   4  26
BRANCH   9  28
HETATM   28  O8  UNL     1      -1.523   8.863  13.246  1.00  0.00    -0.385 OA
HETATM   29  H27 UNL     1      -2.116   8.902  12.475  1.00  0.00     0.211 HD
ENDBRANCH   9  28
BRANCH   9  30
HETATM   30  C16 UNL     1      -1.521   6.641  12.552  1.00  0.00     0.010 C 
HETATM   31  C17 UNL     1      -2.329   5.850  13.277  1.00  0.00     0.003 C 
BRANCH  31  32
HETATM   32  C18 UNL     1      -3.232   4.767  12.751  1.00  0.00     0.136 C 
HETATM   33  C19 UNL     1      -4.696   5.165  12.874  1.00  0.00     0.043 C 
BRANCH  32  34
HETATM   34  O9  UNL     1      -2.931   4.485  11.391  1.00  0.00    -0.392 OA
HETATM   35  H34 UNL     1      -3.559   3.807  11.092  1.00  0.00     0.210 HD
ENDBRANCH  32  34
ENDBRANCH  31  32
ENDBRANCH   9  30
TORSDOF 12
ENDMDL
