MODEL 1
REMARK minimizedAffinity -9.64686298
REMARK CNNscore 0.648218095
REMARK CNNaffinity 7.26740408
REMARK  11 active torsions:
REMARK  status: ('A' for Active; 'I' for Inactive)
REMARK    1  A    between atoms: C2_2  and  O2_4 
REMARK    2  A    between atoms: O2_4  and  C3_5 
REMARK    3  A    between atoms: C4_6  and  O3_7 
REMARK    4  A    between atoms: O3_7  and  C5_8 
REMARK    5  A    between atoms: C15_18  and  C16_19 
REMARK    6  A    between atoms: C20_23  and  C21_24 
REMARK    7  A    between atoms: C21_24  and  O4_27 
REMARK    8  A    between atoms: C24_29  and  O6_30 
REMARK    9  A    between atoms: C30_36  and  O7_37 
REMARK   10  A    between atoms: C36_44  and  O9_45 
REMARK   11  A    between atoms: C37_46  and  O10_47 
ROOT
HETATM    1  C5  UNL     1      -3.495  48.274 -23.180  1.00  0.00     0.133 C 
HETATM    2  C6  UNL     1      -4.903  48.275 -23.788  1.00  0.00     0.034 C 
HETATM    3  C7  UNL     1      -6.006  48.708 -22.833  1.00  0.00     0.013 C 
HETATM    4  C8  UNL     1      -5.922  47.971 -21.510  1.00  0.00    -0.025 A 
HETATM    5  C9  UNL     1      -6.713  46.694 -21.415  1.00  0.00     0.021 A 
HETATM    6  C10 UNL     1      -7.181  47.891 -20.606  1.00  0.00    -0.027 A 
HETATM    7  C11 UNL     1      -8.529  48.460 -21.028  1.00  0.00     0.011 C 
HETATM    8  C12 UNL     1      -9.712  47.801 -20.287  1.00  0.00     0.011 C 
HETATM    9  C13 UNL     1      -9.349  47.122 -18.942  1.00  0.00    -0.028 C 
HETATM   10  C14 UNL     1      -8.948  45.653 -19.231  1.00  0.00     0.016 C 
HETATM   11  C15 UNL     1     -10.459  47.102 -17.829  1.00  0.00     0.057 C 
HETATM   12  C24 UNL     1      -9.632  46.959 -16.503  1.00  0.00     0.126 C 
HETATM   13  C25 UNL     1      -8.150  47.260 -16.863  1.00  0.00     0.042 C 
HETATM   14  C26 UNL     1      -8.215  47.963 -18.233  1.00  0.00    -0.029 C 
HETATM   15  C27 UNL     1      -8.642  49.450 -17.906  1.00  0.00     0.016 C 
HETATM   16  C28 UNL     1      -6.911  48.090 -19.106  1.00  0.00     0.006 C 
HETATM   17  C29 UNL     1      -5.664  47.335 -18.637  1.00  0.00     0.038 C 
HETATM   18  C30 UNL     1      -4.426  47.914 -19.347  1.00  0.00     0.124 C 
HETATM   19  C31 UNL     1      -4.487  47.843 -20.903  1.00  0.00     0.034 C 
HETATM   20  C32 UNL     1      -3.426  48.709 -21.681  1.00  0.00    -0.015 C 
HETATM   21  C33 UNL     1      -1.996  48.381 -21.175  1.00  0.00     0.018 C 
HETATM   22  C34 UNL     1      -3.617  50.234 -21.494  1.00  0.00     0.018 C 
ENDROOT
BRANCH   1  23
HETATM   23  O3  UNL     1      -2.652  49.101 -23.993  1.00  0.00    -0.352 OA
BRANCH  23  24
HETATM   24  C4  UNL     1      -3.302  49.565 -25.185  1.00  0.00     0.292 C 
HETATM   25  C3  UNL     1      -2.556  50.820 -25.672  1.00  0.00     0.218 C 
HETATM   26  C37 UNL     1      -3.099  51.242 -27.041  1.00  0.00     0.183 C 
HETATM   27  C36 UNL     1      -3.107  50.061 -28.017  1.00  0.00     0.173 C 
HETATM   28  C35 UNL     1      -3.832  48.875 -27.397  1.00  0.00     0.205 C 
HETATM   29  O8  UNL     1      -3.260  48.512 -26.145  1.00  0.00    -0.356 OA
BRANCH  25  30
HETATM   30  O2  UNL     1      -2.781  51.886 -24.717  1.00  0.00    -0.309 OA
BRANCH  30  31
HETATM   31  C2  UNL     1      -1.695  52.630 -24.392  1.00  0.00     0.255 C 
HETATM   32  C1  UNL     1      -1.144  52.204 -23.063  1.00  0.00     0.126 C 
HETATM   33  O1  UNL     1      -1.249  53.547 -25.073  1.00  0.00    -0.266 OA
ENDBRANCH  30  31
ENDBRANCH  25  30
BRANCH  26  34
HETATM   34  O10 UNL     1      -2.369  52.319 -27.653  1.00  0.00    -0.390 OA
HETATM   35  H60 UNL     1      -1.531  52.455 -27.161  1.00  0.00     0.210 HD
ENDBRANCH  26  34
BRANCH  27  36
HETATM   36  O9  UNL     1      -3.754  50.447 -29.230  1.00  0.00    -0.391 OA
HETATM   37  H58 UNL     1      -3.403  51.340 -29.434  1.00  0.00     0.210 HD
ENDBRANCH  27  36
ENDBRANCH  23  24
ENDBRANCH   1  23
BRANCH  18  38
HETATM   38  O7  UNL     1      -4.210  49.246 -18.881  1.00  0.00    -0.395 OA
HETATM   39  H47 UNL     1      -4.116  49.209 -17.912  1.00  0.00     0.210 HD
ENDBRANCH  18  38
BRANCH  11  40
HETATM   40  C16 UNL     1     -11.761  46.256 -17.951  1.00  0.00     0.065 C 
HETATM   41  C17 UNL     1     -11.470  44.910 -18.648  1.00  0.00     0.046 C 
HETATM   42  C18 UNL     1     -12.610  45.999 -16.700  1.00  0.00     0.041 C 
HETATM   43  C19 UNL     1     -14.035  46.344 -17.078  1.00  0.00     0.038 C 
HETATM   44  C20 UNL     1     -13.990  46.630 -18.565  1.00  0.00     0.156 C 
HETATM   45  O5  UNL     1     -12.630  47.005 -18.845  1.00  0.00    -0.372 OA
BRANCH  44  46
HETATM   46  C21 UNL     1     -14.960  47.714 -19.092  1.00  0.00     0.076 C 
HETATM   47  C22 UNL     1     -16.344  47.128 -19.384  1.00  0.00     0.048 C 
HETATM   48  C23 UNL     1     -15.077  48.940 -18.178  1.00  0.00     0.048 C 
BRANCH  46  49
HETATM   49  O4  UNL     1     -14.430  48.181 -20.345  1.00  0.00    -0.388 OA
HETATM   50  H35 UNL     1     -13.573  48.589 -20.123  1.00  0.00     0.210 HD
ENDBRANCH  46  49
ENDBRANCH  44  46
ENDBRANCH  11  40
BRANCH  12  51
HETATM   51  O6  UNL     1      -9.704  45.676 -15.901  1.00  0.00    -0.395 OA
HETATM   52  H37 UNL     1      -9.222  45.730 -15.055  1.00  0.00     0.210 HD
ENDBRANCH  12  51
TORSDOF 11
ENDMDL
MODEL 2
REMARK minimizedAffinity -8.43783665
REMARK CNNscore 0.637742102
REMARK CNNaffinity 7.03261805
REMARK  11 active torsions:
REMARK  status: ('A' for Active; 'I' for Inactive)
REMARK    1  A    between atoms: C2_2  and  O2_4 
REMARK    2  A    between atoms: O2_4  and  C3_5 
REMARK    3  A    between atoms: C4_6  and  O3_7 
REMARK    4  A    between atoms: O3_7  and  C5_8 
REMARK    5  A    between atoms: C15_18  and  C16_19 
REMARK    6  A    between atoms: C20_23  and  C21_24 
REMARK    7  A    between atoms: C21_24  and  O4_27 
REMARK    8  A    between atoms: C24_29  and  O6_30 
REMARK    9  A    between atoms: C30_36  and  O7_37 
REMARK   10  A    between atoms: C36_44  and  O9_45 
REMARK   11  A    between atoms: C37_46  and  O10_47 
ROOT
HETATM    1  C5  UNL     1      -1.948  49.766 -22.197  1.00  0.00     0.133 C 
HETATM    2  C6  UNL     1      -3.214  50.615 -22.372  1.00  0.00     0.034 C 
HETATM    3  C7  UNL     1      -4.286  50.377 -21.318  1.00  0.00     0.013 C 
HETATM    4  C8  UNL     1      -4.572  48.899 -21.135  1.00  0.00    -0.025 A 
HETATM    5  C9  UNL     1      -5.671  48.329 -21.993  1.00  0.00     0.021 A 
HETATM    6  C10 UNL     1      -5.920  48.462 -20.501  1.00  0.00    -0.027 A 
HETATM    7  C11 UNL     1      -7.007  49.458 -20.120  1.00  0.00     0.011 C 
HETATM    8  C12 UNL     1      -8.408  48.813 -20.053  1.00  0.00     0.011 C 
HETATM    9  C13 UNL     1      -8.416  47.278 -19.847  1.00  0.00    -0.028 C 
HETATM   10  C14 UNL     1      -8.371  46.599 -21.240  1.00  0.00     0.016 C 
HETATM   11  C15 UNL     1      -9.633  46.668 -19.061  1.00  0.00     0.057 C 
HETATM   12  C24 UNL     1      -9.056  45.320 -18.500  1.00  0.00     0.126 C 
HETATM   13  C25 UNL     1      -7.512  45.388 -18.667  1.00  0.00     0.042 C 
HETATM   14  C26 UNL     1      -7.210  46.880 -18.907  1.00  0.00    -0.029 C 
HETATM   15  C27 UNL     1      -7.280  47.544 -17.474  1.00  0.00     0.016 C 
HETATM   16  C28 UNL     1      -5.812  47.307 -19.492  1.00  0.00     0.006 C 
HETATM   17  C29 UNL     1      -4.875  46.197 -19.980  1.00  0.00     0.038 C 
HETATM   18  C30 UNL     1      -3.447  46.759 -20.100  1.00  0.00     0.124 C 
HETATM   19  C31 UNL     1      -3.314  47.975 -21.067  1.00  0.00     0.034 C 
HETATM   20  C32 UNL     1      -1.972  48.793 -20.975  1.00  0.00    -0.015 C 
HETATM   21  C33 UNL     1      -0.755  47.841 -21.125  1.00  0.00     0.018 C 
HETATM   22  C34 UNL     1      -1.787  49.529 -19.625  1.00  0.00     0.018 C 
ENDROOT
BRANCH   1  23
HETATM   23  O3  UNL     1      -0.820  50.648 -22.130  1.00  0.00    -0.352 OA
BRANCH  23  24
HETATM   24  C4  UNL     1      -0.819  51.641 -23.166  1.00  0.00     0.292 C 
HETATM   25  C3  UNL     1       0.289  52.659 -22.844  1.00  0.00     0.218 C 
HETATM   26  C37 UNL     1       0.449  53.632 -24.016  1.00  0.00     0.183 C 
HETATM   27  C36 UNL     1       0.612  52.877 -25.338  1.00  0.00     0.173 C 
HETATM   28  C35 UNL     1      -0.518  51.872 -25.511  1.00  0.00     0.205 C 
HETATM   29  O8  UNL     1      -0.593  50.978 -24.407  1.00  0.00    -0.356 OA
BRANCH  25  30
HETATM   30  O2  UNL     1      -0.096  53.396 -21.657  1.00  0.00    -0.309 OA
BRANCH  30  31
HETATM   31  C2  UNL     1       0.883  53.601 -20.742  1.00  0.00     0.255 C 
HETATM   32  C1  UNL     1       0.658  52.746 -19.529  1.00  0.00     0.126 C 
HETATM   33  O1  UNL     1       1.805  54.399 -20.873  1.00  0.00    -0.266 OA
ENDBRANCH  30  31
ENDBRANCH  25  30
BRANCH  26  34
HETATM   34  O10 UNL     1       1.560  54.535 -23.879  1.00  0.00    -0.390 OA
HETATM   35  H60 UNL     1       2.131  54.226 -23.144  1.00  0.00     0.210 HD
ENDBRANCH  26  34
BRANCH  27  36
HETATM   36  O9  UNL     1       0.610  53.805 -26.424  1.00  0.00    -0.391 OA
HETATM   37  H58 UNL     1       1.180  54.547 -26.128  1.00  0.00     0.210 HD
ENDBRANCH  27  36
ENDBRANCH  23  24
ENDBRANCH   1  23
BRANCH  18  38
HETATM   38  O7  UNL     1      -2.960  47.061 -18.793  1.00  0.00    -0.395 OA
HETATM   39  H47 UNL     1      -3.010  46.245 -18.262  1.00  0.00     0.210 HD
ENDBRANCH  18  38
BRANCH  11  40
HETATM   40  C16 UNL     1     -11.081  46.639 -19.637  1.00  0.00     0.065 C 
HETATM   41  C17 UNL     1     -11.779  47.997 -19.418  1.00  0.00     0.046 C 
HETATM   42  C18 UNL     1     -11.303  46.187 -21.085  1.00  0.00     0.041 C 
HETATM   43  C19 UNL     1     -12.412  45.157 -21.041  1.00  0.00     0.038 C 
HETATM   44  C20 UNL     1     -12.900  45.165 -19.607  1.00  0.00     0.156 C 
HETATM   45  O5  UNL     1     -11.801  45.668 -18.828  1.00  0.00    -0.372 OA
BRANCH  44  46
HETATM   46  C21 UNL     1     -13.385  43.812 -19.032  1.00  0.00     0.076 C 
HETATM   47  C22 UNL     1     -14.468  44.015 -17.971  1.00  0.00     0.048 C 
HETATM   48  C23 UNL     1     -13.857  42.818 -20.101  1.00  0.00     0.048 C 
BRANCH  46  49
HETATM   49  O4  UNL     1     -12.259  43.207 -18.373  1.00  0.00    -0.388 OA
HETATM   50  H35 UNL     1     -11.605  43.047 -19.078  1.00  0.00     0.210 HD
ENDBRANCH  46  49
ENDBRANCH  44  46
ENDBRANCH  11  40
BRANCH  12  51
HETATM   51  O6  UNL     1      -9.536  44.157 -19.157  1.00  0.00    -0.395 OA
HETATM   52  H37 UNL     1      -9.175  43.389 -18.678  1.00  0.00     0.210 HD
ENDBRANCH  12  51
TORSDOF 11
ENDMDL
MODEL 3
REMARK minimizedAffinity -8.99218082
REMARK CNNscore 0.631505251
REMARK CNNaffinity 7.35842514
REMARK  11 active torsions:
REMARK  status: ('A' for Active; 'I' for Inactive)
REMARK    1  A    between atoms: C2_2  and  O2_4 
REMARK    2  A    between atoms: O2_4  and  C3_5 
REMARK    3  A    between atoms: C4_6  and  O3_7 
REMARK    4  A    between atoms: O3_7  and  C5_8 
REMARK    5  A    between atoms: C15_18  and  C16_19 
REMARK    6  A    between atoms: C20_23  and  C21_24 
REMARK    7  A    between atoms: C21_24  and  O4_27 
REMARK    8  A    between atoms: C24_29  and  O6_30 
REMARK    9  A    between atoms: C30_36  and  O7_37 
REMARK   10  A    between atoms: C36_44  and  O9_45 
REMARK   11  A    between atoms: C37_46  and  O10_47 
ROOT
HETATM    1  C5  UNL     1      -2.174  50.521 -22.986  1.00  0.00     0.133 C 
HETATM    2  C6  UNL     1      -1.792  49.335 -22.092  1.00  0.00     0.034 C 
HETATM    3  C7  UNL     1      -2.863  48.260 -21.974  1.00  0.00     0.013 C 
HETATM    4  C8  UNL     1      -4.217  48.854 -21.639  1.00  0.00    -0.025 A 
HETATM    5  C9  UNL     1      -4.547  48.962 -20.174  1.00  0.00     0.021 A 
HETATM    6  C10 UNL     1      -5.307  47.946 -21.009  1.00  0.00    -0.027 A 
HETATM    7  C11 UNL     1      -5.048  46.492 -20.639  1.00  0.00     0.011 C 
HETATM    8  C12 UNL     1      -6.018  45.971 -19.556  1.00  0.00     0.011 C 
HETATM    9  C13 UNL     1      -7.346  46.759 -19.430  1.00  0.00    -0.028 C 
HETATM   10  C14 UNL     1      -7.132  47.916 -18.422  1.00  0.00     0.016 C 
HETATM   11  C15 UNL     1      -8.614  45.953 -18.967  1.00  0.00     0.057 C 
HETATM   12  C24 UNL     1      -9.805  46.805 -19.533  1.00  0.00     0.126 C 
HETATM   13  C25 UNL     1      -9.196  47.804 -20.556  1.00  0.00     0.042 C 
HETATM   14  C26 UNL     1      -7.795  47.241 -20.866  1.00  0.00    -0.029 C 
HETATM   15  C27 UNL     1      -8.049  46.056 -21.881  1.00  0.00     0.016 C 
HETATM   16  C28 UNL     1      -6.724  48.160 -21.565  1.00  0.00     0.006 C 
HETATM   17  C29 UNL     1      -7.062  49.645 -21.735  1.00  0.00     0.038 C 
HETATM   18  C30 UNL     1      -6.121  50.259 -22.788  1.00  0.00     0.124 C 
HETATM   19  C31 UNL     1      -4.605  50.136 -22.445  1.00  0.00     0.034 C 
HETATM   20  C32 UNL     1      -3.600  50.435 -23.619  1.00  0.00    -0.015 C 
HETATM   21  C33 UNL     1      -3.907  51.822 -24.244  1.00  0.00     0.018 C 
HETATM   22  C34 UNL     1      -3.676  49.408 -24.775  1.00  0.00     0.018 C 
ENDROOT
BRANCH   1  23
HETATM   23  O3  UNL     1      -1.170  50.664 -23.999  1.00  0.00    -0.352 OA
BRANCH  23  24
HETATM   24  C4  UNL     1      -1.172  51.961 -24.614  1.00  0.00     0.292 C 
HETATM   25  C3  UNL     1      -0.007  52.769 -24.015  1.00  0.00     0.218 C 
HETATM   26  C37 UNL     1       0.144  54.091 -24.773  1.00  0.00     0.183 C 
HETATM   27  C36 UNL     1       0.217  53.854 -26.284  1.00  0.00     0.173 C 
HETATM   28  C35 UNL     1      -0.963  53.005 -26.738  1.00  0.00     0.205 C 
HETATM   29  O8  UNL     1      -1.028  51.779 -26.020  1.00  0.00    -0.356 OA
BRANCH  25  30
HETATM   30  O2  UNL     1      -0.309  53.044 -22.624  1.00  0.00    -0.309 OA
BRANCH  30  31
HETATM   31  C2  UNL     1       0.661  52.724 -21.732  1.00  0.00     0.255 C 
HETATM   32  C1  UNL     1       1.107  53.943 -20.978  1.00  0.00     0.126 C 
HETATM   33  O1  UNL     1       1.134  51.602 -21.588  1.00  0.00    -0.266 OA
ENDBRANCH  30  31
ENDBRANCH  25  30
BRANCH  26  34
HETATM   34  O10 UNL     1       1.298  54.859 -24.387  1.00  0.00    -0.390 OA
HETATM   35  H60 UNL     1       1.886  54.294 -23.841  1.00  0.00     0.210 HD
ENDBRANCH  26  34
BRANCH  27  36
HETATM   36  O9  UNL     1       0.207  55.108 -26.967  1.00  0.00    -0.391 OA
HETATM   37  H58 UNL     1       0.821  55.681 -26.460  1.00  0.00     0.210 HD
ENDBRANCH  27  36
ENDBRANCH  23  24
ENDBRANCH   1  23
BRANCH  18  38
HETATM   38  O7  UNL     1      -6.427  49.695 -24.063  1.00  0.00    -0.395 OA
HETATM   39  H47 UNL     1      -7.370  49.864 -24.243  1.00  0.00     0.210 HD
ENDBRANCH  18  38
BRANCH  11  40
HETATM   40  C16 UNL     1      -8.770  45.380 -17.526  1.00  0.00     0.065 C 
HETATM   41  C17 UNL     1      -7.823  44.181 -17.314  1.00  0.00     0.046 C 
HETATM   42  C18 UNL     1      -8.657  46.327 -16.326  1.00  0.00     0.041 C 
HETATM   43  C19 UNL     1      -9.859  46.046 -15.451  1.00  0.00     0.038 C 
HETATM   44  C20 UNL     1     -10.535  44.847 -16.083  1.00  0.00     0.156 C 
HETATM   45  O5  UNL     1     -10.124  44.855 -17.461  1.00  0.00    -0.372 OA
BRANCH  44  46
HETATM   46  C21 UNL     1     -12.078  44.790 -15.988  1.00  0.00     0.076 C 
HETATM   47  C22 UNL     1     -12.734  45.252 -17.290  1.00  0.00     0.048 C 
HETATM   48  C23 UNL     1     -12.623  43.418 -15.568  1.00  0.00     0.048 C 
BRANCH  46  49
HETATM   49  O4  UNL     1     -12.473  45.722 -14.966  1.00  0.00    -0.388 OA
HETATM   50  H35 UNL     1     -12.081  45.378 -14.142  1.00  0.00     0.210 HD
ENDBRANCH  46  49
ENDBRANCH  44  46
ENDBRANCH  11  40
BRANCH  12  51
HETATM   51  O6  UNL     1     -10.523  47.536 -18.553  1.00  0.00    -0.395 OA
HETATM   52  H37 UNL     1     -11.276  47.957 -19.005  1.00  0.00     0.210 HD
ENDBRANCH  12  51
TORSDOF 11
ENDMDL
MODEL 4
REMARK minimizedAffinity -8.85234833
REMARK CNNscore 0.631150603
REMARK CNNaffinity 6.4671917
REMARK  11 active torsions:
REMARK  status: ('A' for Active; 'I' for Inactive)
REMARK    1  A    between atoms: C2_2  and  O2_4 
REMARK    2  A    between atoms: O2_4  and  C3_5 
REMARK    3  A    between atoms: C4_6  and  O3_7 
REMARK    4  A    between atoms: O3_7  and  C5_8 
REMARK    5  A    between atoms: C15_18  and  C16_19 
REMARK    6  A    between atoms: C20_23  and  C21_24 
REMARK    7  A    between atoms: C21_24  and  O4_27 
REMARK    8  A    between atoms: C24_29  and  O6_30 
REMARK    9  A    between atoms: C30_36  and  O7_37 
REMARK   10  A    between atoms: C36_44  and  O9_45 
REMARK   11  A    between atoms: C37_46  and  O10_47 
ROOT
HETATM    1  C5  UNL     1     -14.701  44.727 -25.888  1.00  0.00     0.133 C 
HETATM    2  C6  UNL     1     -14.036  43.641 -26.743  1.00  0.00     0.034 C 
HETATM    3  C7  UNL     1     -12.527  43.776 -26.877  1.00  0.00     0.013 C 
HETATM    4  C8  UNL     1     -12.123  45.184 -27.271  1.00  0.00    -0.025 A 
HETATM    5  C9  UNL     1     -12.006  45.447 -28.749  1.00  0.00     0.021 A 
HETATM    6  C10 UNL     1     -10.733  45.419 -27.920  1.00  0.00    -0.027 A 
HETATM    7  C11 UNL     1      -9.780  44.279 -28.251  1.00  0.00     0.011 C 
HETATM    8  C12 UNL     1      -8.768  44.650 -29.356  1.00  0.00     0.011 C 
HETATM    9  C13 UNL     1      -8.529  46.169 -29.545  1.00  0.00    -0.028 C 
HETATM   10  C14 UNL     1      -9.564  46.701 -30.569  1.00  0.00     0.016 C 
HETATM   11  C15 UNL     1      -7.103  46.612 -30.036  1.00  0.00     0.057 C 
HETATM   12  C24 UNL     1      -6.996  48.095 -29.530  1.00  0.00     0.126 C 
HETATM   13  C25 UNL     1      -8.148  48.304 -28.507  1.00  0.00     0.042 C 
HETATM   14  C26 UNL     1      -8.605  46.880 -28.136  1.00  0.00    -0.029 C 
HETATM   15  C27 UNL     1      -7.523  46.361 -27.107  1.00  0.00     0.016 C 
HETATM   16  C28 UNL     1      -9.991  46.669 -27.419  1.00  0.00     0.006 C 
HETATM   17  C29 UNL     1     -10.919  47.881 -27.292  1.00  0.00     0.038 C 
HETATM   18  C30 UNL     1     -11.985  47.591 -26.220  1.00  0.00     0.124 C 
HETATM   19  C31 UNL     1     -12.858  46.332 -26.506  1.00  0.00     0.034 C 
HETATM   20  C32 UNL     1     -13.722  45.796 -25.304  1.00  0.00    -0.015 C 
HETATM   21  C33 UNL     1     -14.591  46.941 -24.719  1.00  0.00     0.018 C 
HETATM   22  C34 UNL     1     -12.874  45.247 -24.130  1.00  0.00     0.018 C 
ENDROOT
BRANCH   1  23
HETATM   23  O3  UNL     1     -15.444  44.086 -24.843  1.00  0.00    -0.352 OA
BRANCH  23  24
HETATM   24  C4  UNL     1     -16.787  43.756 -25.229  1.00  0.00     0.292 C 
HETATM   25  C3  UNL     1     -17.279  44.841 -26.202  1.00  0.00     0.218 C 
HETATM   26  C37 UNL     1     -18.636  44.432 -26.784  1.00  0.00     0.183 C 
HETATM   27  C36 UNL     1     -18.584  43.011 -27.353  1.00  0.00     0.173 C 
HETATM   28  C35 UNL     1     -18.037  42.048 -26.310  1.00  0.00     0.205 C 
HETATM   29  O8  UNL     1     -16.762  42.465 -25.834  1.00  0.00    -0.356 OA
BRANCH  25  30
HETATM   30  O2  UNL     1     -17.425  46.082 -25.469  1.00  0.00    -0.309 OA
BRANCH  30  31
HETATM   31  C2  UNL     1     -18.594  46.241 -24.799  1.00  0.00     0.255 C 
HETATM   32  C1  UNL     1     -18.450  45.788 -23.375  1.00  0.00     0.126 C 
HETATM   33  O1  UNL     1     -19.632  46.663 -25.297  1.00  0.00    -0.266 OA
ENDBRANCH  30  31
ENDBRANCH  25  30
BRANCH  26  34
HETATM   34  O10 UNL     1     -19.118  45.308 -27.818  1.00  0.00    -0.390 OA
HETATM   35  H60 UNL     1     -18.388  45.902 -28.096  1.00  0.00     0.210 HD
ENDBRANCH  26  34
BRANCH  27  36
HETATM   36  O9  UNL     1     -19.895  42.606 -27.751  1.00  0.00    -0.391 OA
HETATM   37  H58 UNL     1     -20.273  43.383 -28.216  1.00  0.00     0.210 HD
ENDBRANCH  27  36
ENDBRANCH  23  24
ENDBRANCH   1  23
BRANCH  18  38
HETATM   38  O7  UNL     1     -11.346  47.518 -24.945  1.00  0.00    -0.395 OA
HETATM   39  H47 UNL     1     -10.875  48.359 -24.801  1.00  0.00     0.210 HD
ENDBRANCH  18  38
BRANCH  11  40
HETATM   40  C16 UNL     1      -6.572  46.309 -31.469  1.00  0.00     0.065 C 
HETATM   41  C17 UNL     1      -7.417  47.048 -32.528  1.00  0.00     0.046 C 
HETATM   42  C18 UNL     1      -5.085  46.520 -31.779  1.00  0.00     0.041 C 
HETATM   43  C19 UNL     1      -4.612  45.253 -32.459  1.00  0.00     0.038 C 
HETATM   44  C20 UNL     1      -5.863  44.425 -32.664  1.00  0.00     0.156 C 
HETATM   45  O5  UNL     1      -6.799  44.888 -31.676  1.00  0.00    -0.372 OA
BRANCH  44  46
HETATM   46  C21 UNL     1      -5.702  42.889 -32.567  1.00  0.00     0.076 C 
HETATM   47  C22 UNL     1      -6.594  42.170 -33.581  1.00  0.00     0.048 C 
HETATM   48  C23 UNL     1      -4.250  42.409 -32.691  1.00  0.00     0.048 C 
BRANCH  46  49
HETATM   49  O4  UNL     1      -6.157  42.499 -31.259  1.00  0.00    -0.388 OA
HETATM   50  H35 UNL     1      -5.544  42.933 -30.636  1.00  0.00     0.210 HD
ENDBRANCH  46  49
ENDBRANCH  44  46
ENDBRANCH  11  40
BRANCH  12  51
HETATM   51  O6  UNL     1      -7.109  49.074 -30.550  1.00  0.00    -0.395 OA
HETATM   52  H37 UNL     1      -6.950  49.940 -30.133  1.00  0.00     0.210 HD
ENDBRANCH  12  51
TORSDOF 11
ENDMDL
MODEL 5
REMARK minimizedAffinity -10.2009287
REMARK CNNscore 0.580842137
REMARK CNNaffinity 7.58180475
REMARK  11 active torsions:
REMARK  status: ('A' for Active; 'I' for Inactive)
REMARK    1  A    between atoms: C2_2  and  O2_4 
REMARK    2  A    between atoms: O2_4  and  C3_5 
REMARK    3  A    between atoms: C4_6  and  O3_7 
REMARK    4  A    between atoms: O3_7  and  C5_8 
REMARK    5  A    between atoms: C15_18  and  C16_19 
REMARK    6  A    between atoms: C20_23  and  C21_24 
REMARK    7  A    between atoms: C21_24  and  O4_27 
REMARK    8  A    between atoms: C24_29  and  O6_30 
REMARK    9  A    between atoms: C30_36  and  O7_37 
REMARK   10  A    between atoms: C36_44  and  O9_45 
REMARK   11  A    between atoms: C37_46  and  O10_47 
ROOT
HETATM    1  C5  UNL     1      -0.094  49.503 -15.676  1.00  0.00     0.133 C 
HETATM    2  C6  UNL     1       0.678  50.326 -16.716  1.00  0.00     0.034 C 
HETATM    3  C7  UNL     1      -0.189  50.950 -17.799  1.00  0.00     0.013 C 
HETATM    4  C8  UNL     1      -1.133  49.936 -18.415  1.00  0.00    -0.025 A 
HETATM    5  C9  UNL     1      -0.617  49.206 -19.627  1.00  0.00     0.021 A 
HETATM    6  C10 UNL     1      -1.735  50.217 -19.818  1.00  0.00    -0.027 A 
HETATM    7  C11 UNL     1      -1.356  51.440 -20.642  1.00  0.00     0.011 C 
HETATM    8  C12 UNL     1      -1.603  51.240 -22.153  1.00  0.00     0.011 C 
HETATM    9  C13 UNL     1      -2.632  50.139 -22.511  1.00  0.00    -0.028 C 
HETATM   10  C14 UNL     1      -1.878  48.791 -22.642  1.00  0.00     0.016 C 
HETATM   11  C15 UNL     1      -3.471  50.343 -23.824  1.00  0.00     0.057 C 
HETATM   12  C24 UNL     1      -4.756  49.480 -23.565  1.00  0.00     0.126 C 
HETATM   13  C25 UNL     1      -4.768  49.136 -22.049  1.00  0.00     0.042 C 
HETATM   14  C26 UNL     1      -3.771  50.125 -21.416  1.00  0.00    -0.029 C 
HETATM   15  C27 UNL     1      -4.564  51.489 -21.312  1.00  0.00     0.016 C 
HETATM   16  C28 UNL     1      -3.222  49.855 -19.965  1.00  0.00     0.006 C 
HETATM   17  C29 UNL     1      -3.558  48.510 -19.315  1.00  0.00     0.038 C 
HETATM   18  C30 UNL     1      -3.317  48.608 -17.797  1.00  0.00     0.124 C 
HETATM   19  C31 UNL     1      -1.860  48.994 -17.402  1.00  0.00     0.034 C 
HETATM   20  C32 UNL     1      -1.638  49.435 -15.906  1.00  0.00    -0.015 C 
HETATM   21  C33 UNL     1      -2.196  48.353 -14.943  1.00  0.00     0.018 C 
HETATM   22  C34 UNL     1      -2.353  50.758 -15.539  1.00  0.00     0.018 C 
ENDROOT
BRANCH   1  23
HETATM   23  O3  UNL     1       0.209  50.022 -14.375  1.00  0.00    -0.352 OA
BRANCH  23  24
HETATM   24  C4  UNL     1       1.424  49.491 -13.826  1.00  0.00     0.292 C 
HETATM   25  C3  UNL     1       2.055  50.576 -12.937  1.00  0.00     0.218 C 
HETATM   26  C37 UNL     1       3.254  49.992 -12.185  1.00  0.00     0.183 C 
HETATM   27  C36 UNL     1       2.874  48.693 -11.468  1.00  0.00     0.173 C 
HETATM   28  C35 UNL     1       2.218  47.728 -12.445  1.00  0.00     0.205 C 
HETATM   29  O8  UNL     1       1.094  48.318 -13.086  1.00  0.00    -0.356 OA
BRANCH  25  30
HETATM   30  O2  UNL     1       2.504  51.661 -13.788  1.00  0.00    -0.309 OA
BRANCH  30  31
HETATM   31  C2  UNL     1       3.576  51.394 -14.574  1.00  0.00     0.255 C 
HETATM   32  C1  UNL     1       3.609  52.323 -15.752  1.00  0.00     0.126 C 
HETATM   33  O1  UNL     1       4.385  50.496 -14.368  1.00  0.00    -0.266 OA
ENDBRANCH  30  31
ENDBRANCH  25  30
BRANCH  26  34
HETATM   34  O10 UNL     1       3.828  50.884 -11.214  1.00  0.00    -0.390 OA
HETATM   35  H60 UNL     1       3.216  51.638 -11.076  1.00  0.00     0.210 HD
ENDBRANCH  26  34
BRANCH  27  36
HETATM   36  O9  UNL     1       4.042  48.097 -10.903  1.00  0.00    -0.391 OA
HETATM   37  H58 UNL     1       4.535  48.839 -10.494  1.00  0.00     0.210 HD
ENDBRANCH  27  36
ENDBRANCH  23  24
ENDBRANCH   1  23
BRANCH  18  38
HETATM   38  O7  UNL     1      -4.277  49.503 -17.236  1.00  0.00    -0.395 OA
HETATM   39  H47 UNL     1      -5.164  49.168 -17.465  1.00  0.00     0.210 HD
ENDBRANCH  18  38
BRANCH  11  40
HETATM   40  C16 UNL     1      -2.841  50.273 -25.247  1.00  0.00     0.065 C 
HETATM   41  C17 UNL     1      -2.800  48.815 -25.751  1.00  0.00     0.046 C 
HETATM   42  C18 UNL     1      -3.395  51.172 -26.359  1.00  0.00     0.041 C 
HETATM   43  C19 UNL     1      -2.198  51.847 -26.993  1.00  0.00     0.038 C 
HETATM   44  C20 UNL     1      -0.992  51.202 -26.343  1.00  0.00     0.156 C 
HETATM   45  O5  UNL     1      -1.459  50.693 -25.082  1.00  0.00    -0.372 OA
BRANCH  44  46
HETATM   46  C21 UNL     1       0.247  52.104 -26.128  1.00  0.00     0.076 C 
HETATM   47  C22 UNL     1       1.498  51.494 -26.765  1.00  0.00     0.048 C 
HETATM   48  C23 UNL     1       0.051  53.549 -26.604  1.00  0.00     0.048 C 
BRANCH  46  49
HETATM   49  O4  UNL     1       0.484  52.163 -24.711  1.00  0.00    -0.388 OA
HETATM   50  H35 UNL     1      -0.305  52.597 -24.338  1.00  0.00     0.210 HD
ENDBRANCH  46  49
ENDBRANCH  44  46
ENDBRANCH  11  40
BRANCH  12  51
HETATM   51  O6  UNL     1      -4.813  48.272 -24.308  1.00  0.00    -0.395 OA
HETATM   52  H37 UNL     1      -5.679  47.866 -24.126  1.00  0.00     0.210 HD
ENDBRANCH  12  51
TORSDOF 11
ENDMDL
MODEL 6
REMARK minimizedAffinity -10.0323029
REMARK CNNscore 0.5704391
REMARK CNNaffinity 6.99388885
REMARK  11 active torsions:
REMARK  status: ('A' for Active; 'I' for Inactive)
REMARK    1  A    between atoms: C2_2  and  O2_4 
REMARK    2  A    between atoms: O2_4  and  C3_5 
REMARK    3  A    between atoms: C4_6  and  O3_7 
REMARK    4  A    between atoms: O3_7  and  C5_8 
REMARK    5  A    between atoms: C15_18  and  C16_19 
REMARK    6  A    between atoms: C20_23  and  C21_24 
REMARK    7  A    between atoms: C21_24  and  O4_27 
REMARK    8  A    between atoms: C24_29  and  O6_30 
REMARK    9  A    between atoms: C30_36  and  O7_37 
REMARK   10  A    between atoms: C36_44  and  O9_45 
REMARK   11  A    between atoms: C37_46  and  O10_47 
ROOT
HETATM    1  C5  UNL     1      -9.724  47.078 -19.758  1.00  0.00     0.133 C 
HETATM    2  C6  UNL     1      -9.704  46.839 -21.274  1.00  0.00     0.034 C 
HETATM    3  C7  UNL     1      -8.312  46.739 -21.881  1.00  0.00     0.013 C 
HETATM    4  C8  UNL     1      -7.425  47.887 -21.441  1.00  0.00    -0.025 A 
HETATM    5  C9  UNL     1      -7.430  49.103 -22.329  1.00  0.00     0.021 A 
HETATM    6  C10 UNL     1      -6.176  48.247 -22.289  1.00  0.00    -0.027 A 
HETATM    7  C11 UNL     1      -5.842  47.540 -23.595  1.00  0.00     0.011 C 
HETATM    8  C12 UNL     1      -4.943  48.389 -24.519  1.00  0.00     0.011 C 
HETATM    9  C13 UNL     1      -4.127  49.496 -23.806  1.00  0.00    -0.028 C 
HETATM   10  C14 UNL     1      -4.988  50.785 -23.763  1.00  0.00     0.016 C 
HETATM   11  C15 UNL     1      -2.736  49.875 -24.432  1.00  0.00     0.057 C 
HETATM   12  C24 UNL     1      -1.951  50.483 -23.216  1.00  0.00     0.126 C 
HETATM   13  C25 UNL     1      -2.747  50.107 -21.934  1.00  0.00     0.042 C 
HETATM   14  C26 UNL     1      -3.692  48.975 -22.379  1.00  0.00    -0.029 C 
HETATM   15  C27 UNL     1      -2.783  47.683 -22.429  1.00  0.00     0.016 C 
HETATM   16  C28 UNL     1      -4.918  48.582 -21.472  1.00  0.00     0.006 C 
HETATM   17  C29 UNL     1      -5.229  49.478 -20.269  1.00  0.00     0.038 C 
HETATM   18  C30 UNL     1      -6.148  48.716 -19.296  1.00  0.00     0.124 C 
HETATM   19  C31 UNL     1      -7.496  48.246 -19.921  1.00  0.00     0.034 C 
HETATM   20  C32 UNL     1      -8.316  47.187 -19.091  1.00  0.00    -0.015 C 
HETATM   21  C33 UNL     1      -8.535  47.699 -17.642  1.00  0.00     0.018 C 
HETATM   22  C34 UNL     1      -7.608  45.816 -18.969  1.00  0.00     0.018 C 
ENDROOT
BRANCH   1  23
HETATM   23  O3  UNL     1     -10.502  46.040 -19.149  1.00  0.00    -0.352 OA
BRANCH  23  24
HETATM   24  C4  UNL     1     -11.252  46.493 -18.012  1.00  0.00     0.292 C 
HETATM   25  C3  UNL     1     -12.644  46.924 -18.507  1.00  0.00     0.218 C 
HETATM   26  C37 UNL     1     -13.541  47.240 -17.307  1.00  0.00     0.183 C 
HETATM   27  C36 UNL     1     -13.530  46.091 -16.294  1.00  0.00     0.173 C 
HETATM   28  C35 UNL     1     -12.097  45.732 -15.926  1.00  0.00     0.205 C 
HETATM   29  O8  UNL     1     -11.326  45.418 -17.080  1.00  0.00    -0.356 OA
BRANCH  25  30
HETATM   30  O2  UNL     1     -12.493  48.115 -19.320  1.00  0.00    -0.309 OA
BRANCH  30  31
HETATM   31  C2  UNL     1     -13.482  48.350 -20.217  1.00  0.00     0.255 C 
HETATM   32  C1  UNL     1     -13.396  47.384 -21.362  1.00  0.00     0.126 C 
HETATM   33  O1  UNL     1     -14.310  49.250 -20.122  1.00  0.00    -0.266 OA
ENDBRANCH  30  31
ENDBRANCH  25  30
BRANCH  26  34
HETATM   34  O10 UNL     1     -14.910  47.513 -17.654  1.00  0.00    -0.390 OA
HETATM   35  H60 UNL     1     -15.058  47.252 -18.588  1.00  0.00     0.210 HD
ENDBRANCH  26  34
BRANCH  27  36
HETATM   36  O9  UNL     1     -14.252  46.476 -15.124  1.00  0.00    -0.391 OA
HETATM   37  H58 UNL     1     -15.060  46.921 -15.457  1.00  0.00     0.210 HD
ENDBRANCH  27  36
ENDBRANCH  23  24
ENDBRANCH   1  23
BRANCH  18  38
HETATM   38  O7  UNL     1      -5.415  47.631 -18.728  1.00  0.00    -0.395 OA
HETATM   39  H47 UNL     1      -4.622  48.001 -18.299  1.00  0.00     0.210 HD
ENDBRANCH  18  38
BRANCH  11  40
HETATM   40  C16 UNL     1      -2.597  50.601 -25.804  1.00  0.00     0.065 C 
HETATM   41  C17 UNL     1      -3.119  49.705 -26.946  1.00  0.00     0.046 C 
HETATM   42  C18 UNL     1      -3.175  52.012 -25.969  1.00  0.00     0.041 C 
HETATM   43  C19 UNL     1      -2.076  52.848 -26.588  1.00  0.00     0.038 C 
HETATM   44  C20 UNL     1      -0.967  51.868 -26.907  1.00  0.00     0.156 C 
HETATM   45  O5  UNL     1      -1.167  50.755 -26.019  1.00  0.00    -0.372 OA
BRANCH  44  46
HETATM   46  C21 UNL     1       0.483  52.395 -26.781  1.00  0.00     0.076 C 
HETATM   47  C22 UNL     1       1.040  52.163 -25.375  1.00  0.00     0.048 C 
HETATM   48  C23 UNL     1       1.441  51.833 -27.840  1.00  0.00     0.048 C 
BRANCH  46  49
HETATM   49  O4  UNL     1       0.433  53.819 -26.982  1.00  0.00    -0.388 OA
HETATM   50  H35 UNL     1       0.120  53.936 -27.899  1.00  0.00     0.210 HD
ENDBRANCH  46  49
ENDBRANCH  44  46
ENDBRANCH  11  40
BRANCH  12  51
HETATM   51  O6  UNL     1      -1.798  51.893 -23.261  1.00  0.00    -0.395 OA
HETATM   52  H37 UNL     1      -1.235  52.143 -22.506  1.00  0.00     0.210 HD
ENDBRANCH  12  51
TORSDOF 11
ENDMDL
MODEL 7
REMARK minimizedAffinity -9.52855396
REMARK CNNscore 0.569570243
REMARK CNNaffinity 6.99991846
REMARK  11 active torsions:
REMARK  status: ('A' for Active; 'I' for Inactive)
REMARK    1  A    between atoms: C2_2  and  O2_4 
REMARK    2  A    between atoms: O2_4  and  C3_5 
REMARK    3  A    between atoms: C4_6  and  O3_7 
REMARK    4  A    between atoms: O3_7  and  C5_8 
REMARK    5  A    between atoms: C15_18  and  C16_19 
REMARK    6  A    between atoms: C20_23  and  C21_24 
REMARK    7  A    between atoms: C21_24  and  O4_27 
REMARK    8  A    between atoms: C24_29  and  O6_30 
REMARK    9  A    between atoms: C30_36  and  O7_37 
REMARK   10  A    between atoms: C36_44  and  O9_45 
REMARK   11  A    between atoms: C37_46  and  O10_47 
ROOT
HETATM    1  C5  UNL     1      -2.281  50.225 -23.463  1.00  0.00     0.133 C 
HETATM    2  C6  UNL     1      -1.863  49.211 -22.391  1.00  0.00     0.034 C 
HETATM    3  C7  UNL     1      -2.716  47.952 -22.343  1.00  0.00     0.013 C 
HETATM    4  C8  UNL     1      -4.196  48.280 -22.317  1.00  0.00    -0.025 A 
HETATM    5  C9  UNL     1      -4.816  48.426 -20.953  1.00  0.00     0.021 A 
HETATM    6  C10 UNL     1      -5.198  47.218 -21.790  1.00  0.00    -0.027 A 
HETATM    7  C11 UNL     1      -4.748  45.878 -21.222  1.00  0.00     0.011 C 
HETATM    8  C12 UNL     1      -5.793  45.251 -20.275  1.00  0.00     0.011 C 
HETATM    9  C13 UNL     1      -7.244  45.758 -20.470  1.00  0.00    -0.028 C 
HETATM   10  C14 UNL     1      -7.449  47.006 -19.573  1.00  0.00     0.016 C 
HETATM   11  C15 UNL     1      -8.404  44.747 -20.148  1.00  0.00     0.057 C 
HETATM   12  C24 UNL     1      -9.602  45.293 -21.004  1.00  0.00     0.126 C 
HETATM   13  C25 UNL     1      -9.005  46.318 -22.009  1.00  0.00     0.042 C 
HETATM   14  C26 UNL     1      -7.490  46.032 -22.006  1.00  0.00    -0.029 C 
HETATM   15  C27 UNL     1      -7.318  44.748 -22.912  1.00  0.00     0.016 C 
HETATM   16  C28 UNL     1      -6.496  47.096 -22.605  1.00  0.00     0.006 C 
HETATM   17  C29 UNL     1      -7.066  48.463 -22.994  1.00  0.00     0.038 C 
HETATM   18  C30 UNL     1      -6.072  49.178 -23.928  1.00  0.00     0.124 C 
HETATM   19  C31 UNL     1      -4.655  49.392 -23.315  1.00  0.00     0.034 C 
HETATM   20  C32 UNL     1      -3.516  49.803 -24.322  1.00  0.00    -0.015 C 
HETATM   21  C33 UNL     1      -3.951  51.049 -25.140  1.00  0.00     0.018 C 
HETATM   22  C34 UNL     1      -3.175  48.700 -25.353  1.00  0.00     0.018 C 
ENDROOT
BRANCH   1  23
HETATM   23  O3  UNL     1      -1.145  50.495 -24.296  1.00  0.00    -0.352 OA
BRANCH  23  24
HETATM   24  C4  UNL     1      -1.182  51.800 -24.892  1.00  0.00     0.292 C 
HETATM   25  C3  UNL     1      -0.078  52.649 -24.238  1.00  0.00     0.218 C 
HETATM   26  C37 UNL     1       0.042  53.989 -24.971  1.00  0.00     0.183 C 
HETATM   27  C36 UNL     1       0.181  53.778 -26.481  1.00  0.00     0.173 C 
HETATM   28  C35 UNL     1      -0.942  52.886 -26.992  1.00  0.00     0.205 C 
HETATM   29  O8  UNL     1      -0.979  51.646 -26.294  1.00  0.00    -0.356 OA
BRANCH  25  30
HETATM   30  O2  UNL     1      -0.443  52.889 -22.856  1.00  0.00    -0.309 OA
BRANCH  30  31
HETATM   31  C2  UNL     1       0.576  52.864 -21.961  1.00  0.00     0.255 C 
HETATM   32  C1  UNL     1       0.641  51.532 -21.273  1.00  0.00     0.126 C 
HETATM   33  O1  UNL     1       1.318  53.811 -21.722  1.00  0.00    -0.266 OA
ENDBRANCH  30  31
ENDBRANCH  25  30
BRANCH  26  34
HETATM   34  O10 UNL     1       1.145  54.800 -24.531  1.00  0.00    -0.390 OA
HETATM   35  H60 UNL     1       1.737  54.253 -23.972  1.00  0.00     0.210 HD
ENDBRANCH  26  34
BRANCH  27  36
HETATM   36  O9  UNL     1       0.140  55.041 -27.147  1.00  0.00    -0.391 OA
HETATM   37  H58 UNL     1       0.709  55.632 -26.609  1.00  0.00     0.210 HD
ENDBRANCH  27  36
ENDBRANCH  23  24
ENDBRANCH   1  23
BRANCH  18  38
HETATM   38  O7  UNL     1      -6.016  48.470 -25.167  1.00  0.00    -0.395 OA
HETATM   39  H47 UNL     1      -6.921  48.429 -25.526  1.00  0.00     0.210 HD
ENDBRANCH  18  38
BRANCH  11  40
HETATM   40  C16 UNL     1      -8.724  44.262 -18.702  1.00  0.00     0.065 C 
HETATM   41  C17 UNL     1      -9.822  43.178 -18.725  1.00  0.00     0.046 C 
HETATM   42  C18 UNL     1      -7.579  43.798 -17.795  1.00  0.00     0.041 C 
HETATM   43  C19 UNL     1      -7.762  44.523 -16.479  1.00  0.00     0.038 C 
HETATM   44  C20 UNL     1      -9.083  45.252 -16.611  1.00  0.00     0.156 C 
HETATM   45  O5  UNL     1      -9.295  45.415 -18.024  1.00  0.00    -0.372 OA
BRANCH  44  46
HETATM   46  C21 UNL     1      -9.197  46.618 -15.894  1.00  0.00     0.076 C 
HETATM   47  C22 UNL     1     -10.151  47.558 -16.634  1.00  0.00     0.048 C 
HETATM   48  C23 UNL     1      -9.587  46.511 -14.414  1.00  0.00     0.048 C 
BRANCH  46  49
HETATM   49  O4  UNL     1      -7.894  47.226 -15.935  1.00  0.00    -0.388 OA
HETATM   50  H35 UNL     1      -7.319  46.632 -15.418  1.00  0.00     0.210 HD
ENDBRANCH  46  49
ENDBRANCH  44  46
ENDBRANCH  11  40
BRANCH  12  51
HETATM   51  O6  UNL     1     -10.619  45.932 -20.250  1.00  0.00    -0.395 OA
HETATM   52  H37 UNL     1     -11.336  46.156 -20.870  1.00  0.00     0.210 HD
ENDBRANCH  12  51
TORSDOF 11
ENDMDL
MODEL 8
REMARK minimizedAffinity -8.62958145
REMARK CNNscore 0.542907953
REMARK CNNaffinity 7.19889784
REMARK  11 active torsions:
REMARK  status: ('A' for Active; 'I' for Inactive)
REMARK    1  A    between atoms: C2_2  and  O2_4 
REMARK    2  A    between atoms: O2_4  and  C3_5 
REMARK    3  A    between atoms: C4_6  and  O3_7 
REMARK    4  A    between atoms: O3_7  and  C5_8 
REMARK    5  A    between atoms: C15_18  and  C16_19 
REMARK    6  A    between atoms: C20_23  and  C21_24 
REMARK    7  A    between atoms: C21_24  and  O4_27 
REMARK    8  A    between atoms: C24_29  and  O6_30 
REMARK    9  A    between atoms: C30_36  and  O7_37 
REMARK   10  A    between atoms: C36_44  and  O9_45 
REMARK   11  A    between atoms: C37_46  and  O10_47 
ROOT
HETATM    1  C5  UNL     1      -5.762  44.906 -19.377  1.00  0.00     0.133 C 
HETATM    2  C6  UNL     1      -4.337  45.350 -19.021  1.00  0.00     0.034 C 
HETATM    3  C7  UNL     1      -4.055  46.825 -19.263  1.00  0.00     0.013 C 
HETATM    4  C8  UNL     1      -4.491  47.259 -20.648  1.00  0.00    -0.025 A 
HETATM    5  C9  UNL     1      -3.449  47.161 -21.730  1.00  0.00     0.021 A 
HETATM    6  C10 UNL     1      -3.877  48.543 -21.269  1.00  0.00    -0.027 A 
HETATM    7  C11 UNL     1      -2.790  49.350 -20.572  1.00  0.00     0.011 C 
HETATM    8  C12 UNL     1      -1.956  50.199 -21.555  1.00  0.00     0.011 C 
HETATM    9  C13 UNL     1      -2.648  50.511 -22.905  1.00  0.00    -0.028 C 
HETATM   10  C14 UNL     1      -2.317  49.367 -23.898  1.00  0.00     0.016 C 
HETATM   11  C15 UNL     1      -2.275  51.869 -23.603  1.00  0.00     0.057 C 
HETATM   12  C24 UNL     1      -3.522  52.158 -24.512  1.00  0.00     0.126 C 
HETATM   13  C25 UNL     1      -4.652  51.199 -24.042  1.00  0.00     0.042 C 
HETATM   14  C26 UNL     1      -4.196  50.707 -22.654  1.00  0.00    -0.029 C 
HETATM   15  C27 UNL     1      -4.531  51.899 -21.671  1.00  0.00     0.016 C 
HETATM   16  C28 UNL     1      -4.878  49.440 -22.015  1.00  0.00     0.006 C 
HETATM   17  C29 UNL     1      -5.841  48.632 -22.889  1.00  0.00     0.038 C 
HETATM   18  C30 UNL     1      -6.705  47.730 -21.989  1.00  0.00     0.124 C 
HETATM   19  C31 UNL     1      -5.892  46.736 -21.105  1.00  0.00     0.034 C 
HETATM   20  C32 UNL     1      -6.682  46.037 -19.936  1.00  0.00    -0.015 C 
HETATM   21  C33 UNL     1      -7.961  45.354 -20.492  1.00  0.00     0.018 C 
HETATM   22  C34 UNL     1      -7.154  47.018 -18.836  1.00  0.00     0.018 C 
ENDROOT
BRANCH   1  23
HETATM   23  O3  UNL     1      -6.345  44.293 -18.220  1.00  0.00    -0.352 OA
BRANCH  23  24
HETATM   24  C4  UNL     1      -5.651  43.110 -17.799  1.00  0.00     0.292 C 
HETATM   25  C3  UNL     1      -5.332  42.278 -19.054  1.00  0.00     0.218 C 
HETATM   26  C37 UNL     1      -4.431  41.100 -18.673  1.00  0.00     0.183 C 
HETATM   27  C36 UNL     1      -3.215  41.574 -17.872  1.00  0.00     0.173 C 
HETATM   28  C35 UNL     1      -3.664  42.423 -16.691  1.00  0.00     0.205 C 
HETATM   29  O8  UNL     1      -4.470  43.517 -17.113  1.00  0.00    -0.356 OA
BRANCH  25  30
HETATM   30  O2  UNL     1      -6.577  41.774 -19.597  1.00  0.00    -0.309 OA
BRANCH  30  31
HETATM   31  C2  UNL     1      -6.544  41.388 -20.897  1.00  0.00     0.255 C 
HETATM   32  C1  UNL     1      -6.703  42.575 -21.803  1.00  0.00     0.126 C 
HETATM   33  O1  UNL     1      -6.435  40.228 -21.278  1.00  0.00    -0.266 OA
ENDBRANCH  30  31
ENDBRANCH  25  30
BRANCH  26  34
HETATM   34  O10 UNL     1      -3.953  40.341 -19.798  1.00  0.00    -0.390 OA
HETATM   35  H60 UNL     1      -4.139  40.842 -20.620  1.00  0.00     0.210 HD
ENDBRANCH  26  34
BRANCH  27  36
HETATM   36  O9  UNL     1      -2.476  40.444 -17.407  1.00  0.00    -0.391 OA
HETATM   37  H58 UNL     1      -2.439  39.830 -18.171  1.00  0.00     0.210 HD
ENDBRANCH  27  36
ENDBRANCH  23  24
ENDBRANCH   1  23
BRANCH  18  38
HETATM   38  O7  UNL     1      -7.570  48.554 -21.208  1.00  0.00    -0.395 OA
HETATM   39  H47 UNL     1      -8.093  49.101 -21.822  1.00  0.00     0.210 HD
ENDBRANCH  18  38
BRANCH  11  40
HETATM   40  C16 UNL     1      -0.869  52.145 -24.214  1.00  0.00     0.065 C 
HETATM   41  C17 UNL     1       0.096  52.678 -23.135  1.00  0.00     0.046 C 
HETATM   42  C18 UNL     1      -0.168  51.041 -25.014  1.00  0.00     0.041 C 
HETATM   43  C19 UNL     1       0.288  51.680 -26.308  1.00  0.00     0.038 C 
HETATM   44  C20 UNL     1      -0.016  53.155 -26.147  1.00  0.00     0.156 C 
HETATM   45  O5  UNL     1      -1.064  53.228 -25.165  1.00  0.00    -0.372 OA
BRANCH  44  46
HETATM   46  C21 UNL     1      -0.431  53.921 -27.426  1.00  0.00     0.076 C 
HETATM   47  C22 UNL     1      -0.194  55.425 -27.276  1.00  0.00     0.048 C 
HETATM   48  C23 UNL     1       0.233  53.396 -28.706  1.00  0.00     0.048 C 
BRANCH  46  49
HETATM   49  O4  UNL     1      -1.848  53.735 -27.589  1.00  0.00    -0.388 OA
HETATM   50  H35 UNL     1      -1.965  52.776 -27.729  1.00  0.00     0.210 HD
ENDBRANCH  46  49
ENDBRANCH  44  46
ENDBRANCH  11  40
BRANCH  12  51
HETATM   51  O6  UNL     1      -3.298  51.955 -25.898  1.00  0.00    -0.395 OA
HETATM   52  H37 UNL     1      -4.107  52.238 -26.362  1.00  0.00     0.210 HD
ENDBRANCH  12  51
TORSDOF 11
ENDMDL
MODEL 9
REMARK minimizedAffinity -8.95855427
REMARK CNNscore 0.529960096
REMARK CNNaffinity 7.3676877
REMARK  11 active torsions:
REMARK  status: ('A' for Active; 'I' for Inactive)
REMARK    1  A    between atoms: C2_2  and  O2_4 
REMARK    2  A    between atoms: O2_4  and  C3_5 
REMARK    3  A    between atoms: C4_6  and  O3_7 
REMARK    4  A    between atoms: O3_7  and  C5_8 
REMARK    5  A    between atoms: C15_18  and  C16_19 
REMARK    6  A    between atoms: C20_23  and  C21_24 
REMARK    7  A    between atoms: C21_24  and  O4_27 
REMARK    8  A    between atoms: C24_29  and  O6_30 
REMARK    9  A    between atoms: C30_36  and  O7_37 
REMARK   10  A    between atoms: C36_44  and  O9_45 
REMARK   11  A    between atoms: C37_46  and  O10_47 
ROOT
HETATM    1  C5  UNL     1      -0.920  50.421 -22.737  1.00  0.00     0.133 C 
HETATM    2  C6  UNL     1      -1.808  49.509 -23.593  1.00  0.00     0.034 C 
HETATM    3  C7  UNL     1      -3.110  49.086 -22.929  1.00  0.00     0.013 C 
HETATM    4  C8  UNL     1      -2.877  48.555 -21.528  1.00  0.00    -0.025 A 
HETATM    5  C9  UNL     1      -2.651  47.071 -21.413  1.00  0.00     0.021 A 
HETATM    6  C10 UNL     1      -3.950  47.645 -20.874  1.00  0.00    -0.027 A 
HETATM    7  C11 UNL     1      -5.203  47.196 -21.614  1.00  0.00     0.011 C 
HETATM    8  C12 UNL     1      -5.811  45.903 -21.028  1.00  0.00     0.011 C 
HETATM    9  C13 UNL     1      -5.417  45.599 -19.561  1.00  0.00    -0.028 C 
HETATM   10  C14 UNL     1      -4.110  44.764 -19.570  1.00  0.00     0.016 C 
HETATM   11  C15 UNL     1      -6.468  44.827 -18.684  1.00  0.00     0.057 C 
HETATM   12  C24 UNL     1      -6.077  45.232 -17.218  1.00  0.00     0.126 C 
HETATM   13  C25 UNL     1      -5.108  46.442 -17.330  1.00  0.00     0.042 C 
HETATM   14  C26 UNL     1      -5.295  46.961 -18.769  1.00  0.00    -0.029 C 
HETATM   15  C27 UNL     1      -6.639  47.791 -18.730  1.00  0.00     0.016 C 
HETATM   16  C28 UNL     1      -4.226  47.936 -19.390  1.00  0.00     0.006 C 
HETATM   17  C29 UNL     1      -2.937  48.177 -18.598  1.00  0.00     0.038 C 
HETATM   18  C30 UNL     1      -2.245  49.444 -19.134  1.00  0.00     0.124 C 
HETATM   19  C31 UNL     1      -1.887  49.389 -20.650  1.00  0.00     0.034 C 
HETATM   20  C32 UNL     1      -1.494  50.757 -21.323  1.00  0.00    -0.015 C 
HETATM   21  C33 UNL     1      -0.356  51.439 -20.518  1.00  0.00     0.018 C 
HETATM   22  C34 UNL     1      -2.659  51.775 -21.381  1.00  0.00     0.018 C 
ENDROOT
BRANCH   1  23
HETATM   23  O3  UNL     1      -0.652  51.617 -23.480  1.00  0.00    -0.352 OA
BRANCH  23  24
HETATM   24  C4  UNL     1      -0.788  51.440 -24.898  1.00  0.00     0.292 C 
HETATM   25  C3  UNL     1      -1.338  52.751 -25.486  1.00  0.00     0.218 C 
HETATM   26  C37 UNL     1      -1.324  52.672 -27.016  1.00  0.00     0.183 C 
HETATM   27  C36 UNL     1       0.053  52.246 -27.533  1.00  0.00     0.173 C 
HETATM   28  C35 UNL     1       0.500  50.967 -26.838  1.00  0.00     0.205 C 
HETATM   29  O8  UNL     1       0.497  51.115 -25.423  1.00  0.00    -0.356 OA
BRANCH  25  30
HETATM   30  O2  UNL     1      -2.701  52.923 -25.026  1.00  0.00    -0.309 OA
BRANCH  30  31
HETATM   31  C2  UNL     1      -3.599  52.012 -25.477  1.00  0.00     0.255 C 
HETATM   32  C1  UNL     1      -4.714  51.837 -24.487  1.00  0.00     0.126 C 
HETATM   33  O1  UNL     1      -3.496  51.393 -26.530  1.00  0.00    -0.266 OA
ENDBRANCH  30  31
ENDBRANCH  25  30
BRANCH  26  34
HETATM   34  O10 UNL     1      -1.682  53.903 -27.668  1.00  0.00    -0.390 OA
HETATM   35  H60 UNL     1      -1.679  54.626 -27.005  1.00  0.00     0.210 HD
ENDBRANCH  26  34
BRANCH  27  36
HETATM   36  O9  UNL     1      -0.008  52.038 -28.944  1.00  0.00    -0.391 OA
HETATM   37  H58 UNL     1      -0.527  52.794 -29.292  1.00  0.00     0.210 HD
ENDBRANCH  27  36
ENDBRANCH  23  24
ENDBRANCH   1  23
BRANCH  18  38
HETATM   38  O7  UNL     1      -3.053  50.578 -18.817  1.00  0.00    -0.395 OA
HETATM   39  H47 UNL     1      -3.183  50.588 -17.852  1.00  0.00     0.210 HD
ENDBRANCH  18  38
BRANCH  11  40
HETATM   40  C16 UNL     1      -6.844  43.336 -18.934  1.00  0.00     0.065 C 
HETATM   41  C17 UNL     1      -8.080  42.940 -18.100  1.00  0.00     0.046 C 
HETATM   42  C18 UNL     1      -7.031  42.840 -20.373  1.00  0.00     0.041 C 
HETATM   43  C19 UNL     1      -6.209  41.574 -20.494  1.00  0.00     0.038 C 
HETATM   44  C20 UNL     1      -5.710  41.293 -19.092  1.00  0.00     0.156 C 
HETATM   45  O5  UNL     1      -5.728  42.561 -18.414  1.00  0.00    -0.372 OA
BRANCH  44  46
HETATM   46  C21 UNL     1      -4.310  40.645 -18.971  1.00  0.00     0.076 C 
HETATM   47  C22 UNL     1      -3.238  41.689 -18.651  1.00  0.00     0.048 C 
HETATM   48  C23 UNL     1      -4.249  39.485 -17.969  1.00  0.00     0.048 C 
BRANCH  46  49
HETATM   49  O4  UNL     1      -3.987  40.095 -20.260  1.00  0.00    -0.388 OA
HETATM   50  H35 UNL     1      -4.656  39.403 -20.418  1.00  0.00     0.210 HD
ENDBRANCH  46  49
ENDBRANCH  44  46
ENDBRANCH  11  40
BRANCH  12  51
HETATM   51  O6  UNL     1      -5.440  44.204 -16.475  1.00  0.00    -0.395 OA
HETATM   52  H37 UNL     1      -5.318  44.542 -15.569  1.00  0.00     0.210 HD
ENDBRANCH  12  51
TORSDOF 11
ENDMDL
