MODEL 1
REMARK minimizedAffinity -7.80188084
REMARK CNNscore 0.575009346
REMARK CNNaffinity 6.46006536
REMARK  11 active torsions:
REMARK  status: ('A' for Active; 'I' for Inactive)
REMARK    1  A    between atoms: C3_4  and  O2_5 
REMARK    2  A    between atoms: O2_5  and  C4_6 
REMARK    3  A    between atoms: C7_9  and  C8_10 
REMARK    4  A    between atoms: N1_11  and  C9_13 
REMARK    5  A    between atoms: C9_13  and  C10_14 
REMARK    6  A    between atoms: C10_14  and  O3_15 
REMARK    7  A    between atoms: C16_21  and  C17_22 
REMARK    8  A    between atoms: C23_30  and  O6_31 
REMARK    9  A    between atoms: C27_35  and  O7_36 
REMARK   10  A    between atoms: C30_39  and  O8_40 
REMARK   11  A    between atoms: C31_41  and  O9_42 
ROOT
HETATM    1  C4  UNL     1      -3.656  44.790 -19.167  1.00  0.00     0.127 C 
HETATM    2  C5  UNL     1      -3.931  45.174 -20.624  1.00  0.00     0.033 C 
HETATM    3  C6  UNL     1      -5.080  46.176 -20.749  1.00  0.00     0.021 C 
HETATM    4  C7  UNL     1      -4.857  47.477 -19.931  1.00  0.00     0.026 C 
HETATM    5  C11 UNL     1      -3.651  48.345 -20.480  1.00  0.00     0.009 C 
HETATM    6  C12 UNL     1      -3.718  48.702 -21.980  1.00  0.00     0.007 C 
HETATM    7  C13 UNL     1      -2.500  49.499 -22.443  1.00  0.00     0.013 C 
HETATM    8  C14 UNL     1      -2.318  50.817 -21.652  1.00  0.00    -0.005 C 
HETATM    9  C15 UNL     1      -3.436  51.805 -22.033  1.00  0.00     0.019 C 
HETATM   10  C16 UNL     1      -0.904  51.444 -21.875  1.00  0.00     0.028 C 
HETATM   11  C21 UNL     1       0.024  50.578 -20.999  1.00  0.00     0.013 C 
HETATM   12  C22 UNL     1      -0.857  49.974 -19.897  1.00  0.00     0.040 C 
HETATM   13  C23 UNL     1      -2.279  50.524 -20.125  1.00  0.00     0.070 C 
HETATM   14  C24 UNL     1      -3.418  49.606 -19.607  1.00  0.00     0.026 C 
HETATM   15  C25 UNL     1      -3.185  49.217 -18.133  1.00  0.00     0.011 C 
HETATM   16  C26 UNL     1      -4.292  48.333 -17.578  1.00  0.00     0.039 C 
HETATM   17  C27 UNL     1      -4.587  47.087 -18.434  1.00  0.00     0.073 C 
HETATM   18  C28 UNL     1      -3.430  46.055 -18.322  1.00  0.00     0.071 C 
ENDROOT
BRANCH   1  19
HETATM   19  O2  UNL     1      -4.769  44.001 -18.730  1.00  0.00    -0.356 OA
BRANCH  19  20
HETATM   20  C3  UNL     1      -4.720  42.623 -19.111  1.00  0.00     0.263 C 
HETATM   21  O1  UNL     1      -4.520  41.852 -17.928  1.00  0.00    -0.354 OA
HETATM   22  C2  UNL     1      -4.852  40.460 -18.012  1.00  0.00     0.151 C 
HETATM   23  C1  UNL     1      -6.030  40.191 -17.081  1.00  0.00     0.042 C 
HETATM   24  C31 UNL     1      -5.091  39.945 -19.446  1.00  0.00     0.175 C 
HETATM   25  C30 UNL     1      -6.086  40.828 -20.217  1.00  0.00     0.154 C 
HETATM   26  C29 UNL     1      -6.060  42.281 -19.748  1.00  0.00     0.095 C 
BRANCH  24  27
HETATM   27  O9  UNL     1      -3.844  39.962 -20.163  1.00  0.00    -0.390 OA
HETATM   28  H47 UNL     1      -3.207  39.422 -19.664  1.00  0.00     0.210 HD
ENDBRANCH  24  27
BRANCH  25  29
HETATM   29  O8  UNL     1      -7.418  40.330 -20.085  1.00  0.00    -0.393 OA
HETATM   30  H45 UNL     1      -7.496  39.547 -20.661  1.00  0.00     0.210 HD
ENDBRANCH  25  29
ENDBRANCH  19  20
ENDBRANCH   1  19
BRANCH  17  31
HETATM   31  O7  UNL     1      -5.780  46.520 -17.866  1.00  0.00    -0.389 OA
HETATM   32  H39 UNL     1      -5.586  45.609 -17.559  1.00  0.00     0.210 HD
ENDBRANCH  17  31
BRANCH   4  33
HETATM   33  C8  UNL     1      -6.191  48.237 -19.988  1.00  0.00     0.068 C 
HETATM   34  N1  UNL     1      -6.733  48.758 -18.938  1.00  0.00    -0.399 N 
ATOM     35  H1  UNL     1      -6.324  48.672 -18.007  1.00  0.00     0.158 HD
BRANCH  34  36
HETATM   36  C9  UNL     1      -7.988  49.485 -19.186  1.00  0.00     0.144 C 
BRANCH  36  37
HETATM   37  C10 UNL     1      -9.027  49.264 -18.082  1.00  0.00     0.183 C 
BRANCH  37  38
HETATM   38  O3  UNL     1      -8.482  48.519 -16.994  1.00  0.00    -0.399 OA
HETATM   39  H16 UNL     1      -9.158  48.506 -16.296  1.00  0.00     0.209 HD
ENDBRANCH  37  38
ENDBRANCH  36  37
ENDBRANCH  34  36
ENDBRANCH   4  33
BRANCH  13  40
HETATM   40  O6  UNL     1      -2.336  51.759 -19.392  1.00  0.00    -0.389 OA
HETATM   41  H33 UNL     1      -3.249  52.096 -19.442  1.00  0.00     0.210 HD
ENDBRANCH  13  40
BRANCH  10  42
HETATM   42  C17 UNL     1      -0.450  51.638 -23.296  1.00  0.00    -0.045 A 
HETATM   43  C18 UNL     1       0.455  52.487 -23.784  1.00  0.00     0.087 A 
HETATM   44  C19 UNL     1       0.458  52.329 -25.237  1.00  0.00     0.283 A 
HETATM   45  O4  UNL     1       1.172  52.954 -26.000  1.00  0.00    -0.260 OA
HETATM   46  O5  UNL     1      -0.462  51.394 -25.589  1.00  0.00    -0.314 OA
HETATM   47  C20 UNL     1      -1.084  50.887 -24.411  1.00  0.00     0.213 A 
ENDBRANCH  10  42
TORSDOF 11
ENDMDL
MODEL 2
REMARK minimizedAffinity -9.40049458
REMARK CNNscore 0.570240557
REMARK CNNaffinity 6.74187136
REMARK  11 active torsions:
REMARK  status: ('A' for Active; 'I' for Inactive)
REMARK    1  A    between atoms: C3_4  and  O2_5 
REMARK    2  A    between atoms: O2_5  and  C4_6 
REMARK    3  A    between atoms: C7_9  and  C8_10 
REMARK    4  A    between atoms: N1_11  and  C9_13 
REMARK    5  A    between atoms: C9_13  and  C10_14 
REMARK    6  A    between atoms: C10_14  and  O3_15 
REMARK    7  A    between atoms: C16_21  and  C17_22 
REMARK    8  A    between atoms: C23_30  and  O6_31 
REMARK    9  A    between atoms: C27_35  and  O7_36 
REMARK   10  A    between atoms: C30_39  and  O8_40 
REMARK   11  A    between atoms: C31_41  and  O9_42 
ROOT
HETATM    1  C4  UNL     1      -6.261  48.143 -24.280  1.00  0.00     0.127 C 
HETATM    2  C5  UNL     1      -6.134  49.654 -24.058  1.00  0.00     0.033 C 
HETATM    3  C6  UNL     1      -6.687  50.085 -22.699  1.00  0.00     0.021 C 
HETATM    4  C7  UNL     1      -6.022  49.354 -21.501  1.00  0.00     0.026 C 
HETATM    5  C11 UNL     1      -4.493  49.730 -21.327  1.00  0.00     0.009 C 
HETATM    6  C12 UNL     1      -4.189  51.239 -21.224  1.00  0.00     0.007 C 
HETATM    7  C13 UNL     1      -2.692  51.524 -21.105  1.00  0.00     0.013 C 
HETATM    8  C14 UNL     1      -2.053  50.828 -19.879  1.00  0.00    -0.005 C 
HETATM    9  C15 UNL     1      -2.550  51.503 -18.587  1.00  0.00     0.019 C 
HETATM   10  C16 UNL     1      -0.492  50.825 -19.955  1.00  0.00     0.028 C 
HETATM   11  C21 UNL     1      -0.176  49.715 -20.977  1.00  0.00     0.013 C 
HETATM   12  C22 UNL     1      -1.375  48.757 -20.963  1.00  0.00     0.040 C 
HETATM   13  C23 UNL     1      -2.358  49.303 -19.908  1.00  0.00     0.070 C 
HETATM   14  C24 UNL     1      -3.846  48.940 -20.160  1.00  0.00     0.026 C 
HETATM   15  C25 UNL     1      -4.015  47.421 -20.366  1.00  0.00     0.011 C 
HETATM   16  C26 UNL     1      -5.464  47.019 -20.595  1.00  0.00     0.039 C 
HETATM   17  C27 UNL     1      -6.162  47.805 -21.720  1.00  0.00     0.073 C 
HETATM   18  C28 UNL     1      -5.613  47.382 -23.111  1.00  0.00     0.071 C 
ENDROOT
BRANCH   1  19
HETATM   19  O2  UNL     1      -7.657  47.865 -24.441  1.00  0.00    -0.356 OA
BRANCH  19  20
HETATM   20  C3  UNL     1      -8.165  48.067 -25.763  1.00  0.00     0.263 C 
HETATM   21  O1  UNL     1      -7.223  47.516 -26.680  1.00  0.00    -0.354 OA
HETATM   22  C2  UNL     1      -7.708  47.235 -28.000  1.00  0.00     0.151 C 
HETATM   23  C1  UNL     1      -7.663  45.725 -28.216  1.00  0.00     0.042 C 
HETATM   24  C31 UNL     1      -9.088  47.845 -28.317  1.00  0.00     0.175 C 
HETATM   25  C30 UNL     1     -10.127  47.516 -27.232  1.00  0.00     0.154 C 
HETATM   26  C29 UNL     1      -9.493  47.327 -25.856  1.00  0.00     0.095 C 
BRANCH  24  27
HETATM   27  O9  UNL     1      -8.963  49.277 -28.382  1.00  0.00    -0.390 OA
HETATM   28  H47 UNL     1      -8.289  49.485 -29.052  1.00  0.00     0.210 HD
ENDBRANCH  24  27
BRANCH  25  29
HETATM   29  O8  UNL     1     -10.854  46.332 -27.566  1.00  0.00    -0.393 OA
HETATM   30  H45 UNL     1     -11.493  46.568 -28.263  1.00  0.00     0.210 HD
ENDBRANCH  25  29
ENDBRANCH  19  20
ENDBRANCH   1  19
BRANCH  17  31
HETATM   31  O7  UNL     1      -7.548  47.433 -21.628  1.00  0.00    -0.389 OA
HETATM   32  H39 UNL     1      -7.825  47.018 -22.472  1.00  0.00     0.210 HD
ENDBRANCH  17  31
BRANCH   4  33
HETATM   33  C8  UNL     1      -6.857  49.734 -20.268  1.00  0.00     0.068 C 
HETATM   34  N1  UNL     1      -7.513  48.858 -19.582  1.00  0.00    -0.399 N 
ATOM     35  H1  UNL     1      -7.539  47.870 -19.834  1.00  0.00     0.158 HD
BRANCH  34  36
HETATM   36  C9  UNL     1      -8.221  49.395 -18.410  1.00  0.00     0.144 C 
BRANCH  36  37
HETATM   37  C10 UNL     1      -8.936  48.307 -17.603  1.00  0.00     0.183 C 
BRANCH  37  38
HETATM   38  O3  UNL     1      -8.082  47.751 -16.604  1.00  0.00    -0.399 OA
HETATM   39  H16 UNL     1      -8.627  47.147 -16.072  1.00  0.00     0.209 HD
ENDBRANCH  37  38
ENDBRANCH  36  37
ENDBRANCH  34  36
ENDBRANCH   4  33
BRANCH  13  40
HETATM   40  O6  UNL     1      -1.960  48.704 -18.664  1.00  0.00    -0.389 OA
HETATM   41  H33 UNL     1      -2.610  48.959 -17.985  1.00  0.00     0.210 HD
ENDBRANCH  13  40
BRANCH  10  42
HETATM   42  C17 UNL     1       0.191  52.141 -20.204  1.00  0.00    -0.045 A 
HETATM   43  C18 UNL     1       0.551  52.700 -21.360  1.00  0.00     0.087 A 
HETATM   44  C19 UNL     1       1.254  53.941 -21.042  1.00  0.00     0.283 A 
HETATM   45  O4  UNL     1       1.718  54.705 -21.869  1.00  0.00    -0.260 OA
HETATM   46  O5  UNL     1       1.314  54.091 -19.694  1.00  0.00    -0.314 OA
HETATM   47  C20 UNL     1       0.648  52.992 -19.074  1.00  0.00     0.213 A 
ENDBRANCH  10  42
TORSDOF 11
ENDMDL
MODEL 3
REMARK minimizedAffinity -7.87886333
REMARK CNNscore 0.519064188
REMARK CNNaffinity 6.013062
REMARK  11 active torsions:
REMARK  status: ('A' for Active; 'I' for Inactive)
REMARK    1  A    between atoms: C3_4  and  O2_5 
REMARK    2  A    between atoms: O2_5  and  C4_6 
REMARK    3  A    between atoms: C7_9  and  C8_10 
REMARK    4  A    between atoms: N1_11  and  C9_13 
REMARK    5  A    between atoms: C9_13  and  C10_14 
REMARK    6  A    between atoms: C10_14  and  O3_15 
REMARK    7  A    between atoms: C16_21  and  C17_22 
REMARK    8  A    between atoms: C23_30  and  O6_31 
REMARK    9  A    between atoms: C27_35  and  O7_36 
REMARK   10  A    between atoms: C30_39  and  O8_40 
REMARK   11  A    between atoms: C31_41  and  O9_42 
ROOT
HETATM    1  C4  UNL     1      -8.730  48.218 -20.004  1.00  0.00     0.127 C 
HETATM    2  C5  UNL     1      -7.889  49.166 -19.142  1.00  0.00     0.033 C 
HETATM    3  C6  UNL     1      -6.971  48.407 -18.182  1.00  0.00     0.021 C 
HETATM    4  C7  UNL     1      -6.015  47.414 -18.897  1.00  0.00     0.026 C 
HETATM    5  C11 UNL     1      -4.946  48.142 -19.810  1.00  0.00     0.009 C 
HETATM    6  C12 UNL     1      -4.105  49.229 -19.109  1.00  0.00     0.007 C 
HETATM    7  C13 UNL     1      -3.130  49.917 -20.065  1.00  0.00     0.013 C 
HETATM    8  C14 UNL     1      -2.153  48.920 -20.733  1.00  0.00    -0.005 C 
HETATM    9  C15 UNL     1      -1.158  48.392 -19.682  1.00  0.00     0.019 C 
HETATM   10  C16 UNL     1      -1.409  49.556 -21.952  1.00  0.00     0.028 C 
HETATM   11  C21 UNL     1      -2.468  49.549 -23.072  1.00  0.00     0.013 C 
HETATM   12  C22 UNL     1      -3.459  48.430 -22.727  1.00  0.00     0.040 C 
HETATM   13  C23 UNL     1      -2.945  47.777 -21.428  1.00  0.00     0.070 C 
HETATM   14  C24 UNL     1      -4.047  47.121 -20.554  1.00  0.00     0.026 C 
HETATM   15  C25 UNL     1      -4.901  46.142 -21.385  1.00  0.00     0.011 C 
HETATM   16  C26 UNL     1      -5.981  45.460 -20.560  1.00  0.00     0.039 C 
HETATM   17  C27 UNL     1      -6.876  46.434 -19.772  1.00  0.00     0.073 C 
HETATM   18  C28 UNL     1      -7.818  47.216 -20.730  1.00  0.00     0.071 C 
ENDROOT
BRANCH   1  19
HETATM   19  O2  UNL     1      -9.682  47.600 -19.131  1.00  0.00    -0.356 OA
BRANCH  19  20
HETATM   20  C3  UNL     1     -11.047  47.944 -19.383  1.00  0.00     0.263 C 
HETATM   21  O1  UNL     1     -11.441  47.302 -20.593  1.00  0.00    -0.354 OA
HETATM   22  C2  UNL     1     -12.851  47.166 -20.813  1.00  0.00     0.151 C 
HETATM   23  C1  UNL     1     -13.197  45.680 -20.799  1.00  0.00     0.042 C 
HETATM   24  C31 UNL     1     -13.730  47.995 -19.855  1.00  0.00     0.175 C 
HETATM   25  C30 UNL     1     -13.346  47.773 -18.383  1.00  0.00     0.154 C 
HETATM   26  C29 UNL     1     -11.870  47.421 -18.213  1.00  0.00     0.095 C 
BRANCH  24  27
HETATM   27  O9  UNL     1     -13.552  49.392 -20.147  1.00  0.00    -0.390 OA
HETATM   28  H47 UNL     1     -13.773  49.530 -21.085  1.00  0.00     0.210 HD
ENDBRANCH  24  27
BRANCH  25  29
HETATM   29  O8  UNL     1     -14.133  46.733 -17.801  1.00  0.00    -0.393 OA
HETATM   30  H45 UNL     1     -15.021  47.099 -17.630  1.00  0.00     0.210 HD
ENDBRANCH  25  29
ENDBRANCH  19  20
ENDBRANCH   1  19
BRANCH  17  31
HETATM   31  O7  UNL     1      -7.668  45.597 -18.912  1.00  0.00    -0.389 OA
HETATM   32  H39 UNL     1      -8.617  45.732 -19.120  1.00  0.00     0.210 HD
ENDBRANCH  17  31
BRANCH   4  33
HETATM   33  C8  UNL     1      -5.358  46.593 -17.777  1.00  0.00     0.068 C 
HETATM   34  N1  UNL     1      -5.374  46.972 -16.542  1.00  0.00    -0.399 N 
ATOM     35  H1  UNL     1      -5.799  47.850 -16.243  1.00  0.00     0.158 HD
BRANCH  34  36
HETATM   36  C9  UNL     1      -4.732  46.041 -15.601  1.00  0.00     0.144 C 
BRANCH  36  37
HETATM   37  C10 UNL     1      -4.225  46.737 -14.335  1.00  0.00     0.183 C 
BRANCH  37  38
HETATM   38  O3  UNL     1      -5.300  47.094 -13.468  1.00  0.00    -0.399 OA
HETATM   39  H16 UNL     1      -4.901  47.436 -12.651  1.00  0.00     0.209 HD
ENDBRANCH  37  38
ENDBRANCH  36  37
ENDBRANCH  34  36
ENDBRANCH   4  33
BRANCH  13  40
HETATM   40  O6  UNL     1      -2.039  46.743 -21.849  1.00  0.00    -0.389 OA
HETATM   41  H33 UNL     1      -1.756  46.251 -21.057  1.00  0.00     0.210 HD
ENDBRANCH  13  40
BRANCH  10  42
HETATM   42  C17 UNL     1      -0.718  50.873 -21.729  1.00  0.00    -0.045 A 
HETATM   43  C18 UNL     1      -0.187  51.710 -22.622  1.00  0.00     0.087 A 
HETATM   44  C19 UNL     1       0.434  52.802 -21.877  1.00  0.00     0.283 A 
HETATM   45  O4  UNL     1       1.012  53.746 -22.384  1.00  0.00    -0.260 OA
HETATM   46  O5  UNL     1       0.275  52.586 -20.545  1.00  0.00    -0.314 OA
HETATM   47  C20 UNL     1      -0.463  51.381 -20.355  1.00  0.00     0.213 A 
ENDBRANCH  10  42
TORSDOF 11
ENDMDL
MODEL 4
REMARK minimizedAffinity -8.04197311
REMARK CNNscore 0.480134994
REMARK CNNaffinity 6.21374702
REMARK  11 active torsions:
REMARK  status: ('A' for Active; 'I' for Inactive)
REMARK    1  A    between atoms: C3_4  and  O2_5 
REMARK    2  A    between atoms: O2_5  and  C4_6 
REMARK    3  A    between atoms: C7_9  and  C8_10 
REMARK    4  A    between atoms: N1_11  and  C9_13 
REMARK    5  A    between atoms: C9_13  and  C10_14 
REMARK    6  A    between atoms: C10_14  and  O3_15 
REMARK    7  A    between atoms: C16_21  and  C17_22 
REMARK    8  A    between atoms: C23_30  and  O6_31 
REMARK    9  A    between atoms: C27_35  and  O7_36 
REMARK   10  A    between atoms: C30_39  and  O8_40 
REMARK   11  A    between atoms: C31_41  and  O9_42 
ROOT
HETATM    1  C4  UNL     1      -7.877  47.966 -18.827  1.00  0.00     0.127 C 
HETATM    2  C5  UNL     1      -6.707  48.326 -17.906  1.00  0.00     0.033 C 
HETATM    3  C6  UNL     1      -5.602  47.268 -17.939  1.00  0.00     0.021 C 
HETATM    4  C7  UNL     1      -5.043  47.003 -19.364  1.00  0.00     0.026 C 
HETATM    5  C11 UNL     1      -4.272  48.251 -19.961  1.00  0.00     0.009 C 
HETATM    6  C12 UNL     1      -3.141  48.817 -19.077  1.00  0.00     0.007 C 
HETATM    7  C13 UNL     1      -2.477  50.045 -19.698  1.00  0.00     0.013 C 
HETATM    8  C14 UNL     1      -1.882  49.753 -21.098  1.00  0.00    -0.005 C 
HETATM    9  C15 UNL     1      -0.653  48.836 -20.952  1.00  0.00     0.019 C 
HETATM   10  C16 UNL     1      -1.526  51.064 -21.869  1.00  0.00     0.028 C 
HETATM   11  C21 UNL     1      -2.893  51.583 -22.359  1.00  0.00     0.013 C 
HETATM   12  C22 UNL     1      -3.819  50.363 -22.438  1.00  0.00     0.040 C 
HETATM   13  C23 UNL     1      -2.971  49.144 -22.026  1.00  0.00     0.070 C 
HETATM   14  C24 UNL     1      -3.778  47.973 -21.405  1.00  0.00     0.026 C 
HETATM   15  C25 UNL     1      -4.954  47.569 -22.317  1.00  0.00     0.011 C 
HETATM   16  C26 UNL     1      -5.761  46.408 -21.755  1.00  0.00     0.039 C 
HETATM   17  C27 UNL     1      -6.240  46.622 -20.307  1.00  0.00     0.073 C 
HETATM   18  C28 UNL     1      -7.363  47.695 -20.251  1.00  0.00     0.071 C 
ENDROOT
BRANCH   1  19
HETATM   19  O2  UNL     1      -8.541  46.844 -18.234  1.00  0.00    -0.356 OA
BRANCH  19  20
HETATM   20  C3  UNL     1      -9.923  46.708 -18.577  1.00  0.00     0.263 C 
HETATM   21  O1  UNL     1     -10.249  45.321 -18.524  1.00  0.00    -0.354 OA
HETATM   22  C2  UNL     1     -11.642  44.998 -18.421  1.00  0.00     0.151 C 
HETATM   23  C1  UNL     1     -11.881  44.332 -17.069  1.00  0.00     0.042 C 
HETATM   24  C31 UNL     1     -12.594  46.183 -18.683  1.00  0.00     0.175 C 
HETATM   25  C30 UNL     1     -12.220  47.418 -17.848  1.00  0.00     0.154 C 
HETATM   26  C29 UNL     1     -10.726  47.483 -17.540  1.00  0.00     0.095 C 
BRANCH  24  27
HETATM   27  O9  UNL     1     -12.511  46.551 -20.071  1.00  0.00    -0.390 OA
HETATM   28  H47 UNL     1     -12.725  45.764 -20.601  1.00  0.00     0.210 HD
ENDBRANCH  24  27
BRANCH  25  29
HETATM   29  O8  UNL     1     -12.941  47.438 -16.615  1.00  0.00    -0.393 OA
HETATM   30  H45 UNL     1     -13.855  47.712 -16.815  1.00  0.00     0.210 HD
ENDBRANCH  25  29
ENDBRANCH  19  20
ENDBRANCH   1  19
BRANCH  17  31
HETATM   31  O7  UNL     1      -6.781  45.352 -19.904  1.00  0.00    -0.389 OA
HETATM   32  H39 UNL     1      -7.725  45.467 -19.670  1.00  0.00     0.210 HD
ENDBRANCH  17  31
BRANCH   4  33
HETATM   33  C8  UNL     1      -4.136  45.770 -19.230  1.00  0.00     0.068 C 
HETATM   34  N1  UNL     1      -4.398  44.807 -18.411  1.00  0.00    -0.399 N 
ATOM     35  H1  UNL     1      -5.203  44.820 -17.786  1.00  0.00     0.158 HD
BRANCH  34  36
HETATM   36  C9  UNL     1      -3.442  43.688 -18.448  1.00  0.00     0.144 C 
BRANCH  36  37
HETATM   37  C10 UNL     1      -4.118  42.345 -18.743  1.00  0.00     0.183 C 
BRANCH  37  38
HETATM   38  O3  UNL     1      -3.206  41.420 -19.334  1.00  0.00    -0.399 OA
HETATM   39  H16 UNL     1      -3.671  40.570 -19.399  1.00  0.00     0.209 HD
ENDBRANCH  37  38
ENDBRANCH  36  37
ENDBRANCH  34  36
ENDBRANCH   4  33
BRANCH  13  40
HETATM   40  O6  UNL     1      -2.364  48.669 -23.240  1.00  0.00    -0.389 OA
HETATM   41  H33 UNL     1      -1.885  47.846 -23.035  1.00  0.00     0.210 HD
ENDBRANCH  13  40
BRANCH  10  42
HETATM   42  C17 UNL     1      -0.672  52.076 -21.156  1.00  0.00    -0.045 A 
HETATM   43  C18 UNL     1       0.281  52.871 -21.644  1.00  0.00     0.087 A 
HETATM   44  C19 UNL     1       0.857  53.600 -20.516  1.00  0.00     0.283 A 
HETATM   45  O4  UNL     1       1.755  54.417 -20.607  1.00  0.00    -0.260 OA
HETATM   46  O5  UNL     1       0.242  53.213 -19.369  1.00  0.00    -0.314 OA
HETATM   47  C20 UNL     1      -0.761  52.249 -19.682  1.00  0.00     0.213 A 
ENDBRANCH  10  42
TORSDOF 11
ENDMDL
MODEL 5
REMARK minimizedAffinity -8.44779015
REMARK CNNscore 0.435368121
REMARK CNNaffinity 5.80776739
REMARK  11 active torsions:
REMARK  status: ('A' for Active; 'I' for Inactive)
REMARK    1  A    between atoms: C3_4  and  O2_5 
REMARK    2  A    between atoms: O2_5  and  C4_6 
REMARK    3  A    between atoms: C7_9  and  C8_10 
REMARK    4  A    between atoms: N1_11  and  C9_13 
REMARK    5  A    between atoms: C9_13  and  C10_14 
REMARK    6  A    between atoms: C10_14  and  O3_15 
REMARK    7  A    between atoms: C16_21  and  C17_22 
REMARK    8  A    between atoms: C23_30  and  O6_31 
REMARK    9  A    between atoms: C27_35  and  O7_36 
REMARK   10  A    between atoms: C30_39  and  O8_40 
REMARK   11  A    between atoms: C31_41  and  O9_42 
ROOT
HETATM    1  C4  UNL     1      -8.392  47.189 -24.620  1.00  0.00     0.127 C 
HETATM    2  C5  UNL     1      -9.509  48.193 -24.921  1.00  0.00     0.033 C 
HETATM    3  C6  UNL     1      -9.742  48.363 -26.423  1.00  0.00     0.021 C 
HETATM    4  C7  UNL     1     -10.068  47.031 -27.151  1.00  0.00     0.026 C 
HETATM    5  C11 UNL     1     -11.458  46.415 -26.707  1.00  0.00     0.009 C 
HETATM    6  C12 UNL     1     -12.671  47.361 -26.826  1.00  0.00     0.007 C 
HETATM    7  C13 UNL     1     -13.966  46.711 -26.337  1.00  0.00     0.013 C 
HETATM    8  C14 UNL     1     -14.303  45.410 -27.105  1.00  0.00    -0.005 C 
HETATM    9  C15 UNL     1     -14.715  45.757 -28.548  1.00  0.00     0.019 C 
HETATM   10  C16 UNL     1     -15.408  44.573 -26.383  1.00  0.00     0.028 C 
HETATM   11  C21 UNL     1     -14.657  43.903 -25.216  1.00  0.00     0.013 C 
HETATM   12  C22 UNL     1     -13.182  43.831 -25.632  1.00  0.00     0.040 C 
HETATM   13  C23 UNL     1     -13.099  44.428 -27.051  1.00  0.00     0.070 C 
HETATM   14  C24 UNL     1     -11.726  45.058 -27.409  1.00  0.00     0.026 C 
HETATM   15  C25 UNL     1     -10.577  44.065 -27.139  1.00  0.00     0.011 C 
HETATM   16  C26 UNL     1      -9.213  44.635 -27.498  1.00  0.00     0.039 C 
HETATM   17  C27 UNL     1      -8.918  46.003 -26.854  1.00  0.00     0.073 C 
HETATM   18  C28 UNL     1      -8.679  45.854 -25.326  1.00  0.00     0.071 C 
ENDROOT
BRANCH   1  19
HETATM   19  O2  UNL     1      -7.164  47.802 -25.029  1.00  0.00    -0.356 OA
BRANCH  19  20
HETATM   20  C3  UNL     1      -6.689  48.840 -24.168  1.00  0.00     0.263 C 
HETATM   21  O1  UNL     1      -7.456  48.794 -22.967  1.00  0.00    -0.354 OA
HETATM   22  C2  UNL     1      -6.891  49.450 -21.825  1.00  0.00     0.151 C 
HETATM   23  C1  UNL     1      -6.578  48.392 -20.771  1.00  0.00     0.042 C 
HETATM   24  C31 UNL     1      -5.685  50.358 -22.140  1.00  0.00     0.175 C 
HETATM   25  C30 UNL     1      -4.622  49.633 -22.980  1.00  0.00     0.154 C 
HETATM   26  C29 UNL     1      -5.223  48.550 -23.873  1.00  0.00     0.095 C 
BRANCH  24  27
HETATM   27  O9  UNL     1      -6.140  51.494 -22.897  1.00  0.00    -0.390 OA
HETATM   28  H47 UNL     1      -6.830  51.941 -22.376  1.00  0.00     0.210 HD
ENDBRANCH  24  27
BRANCH  25  29
HETATM   29  O8  UNL     1      -3.631  49.034 -22.142  1.00  0.00    -0.393 OA
HETATM   30  H45 UNL     1      -3.050  49.748 -21.820  1.00  0.00     0.210 HD
ENDBRANCH  25  29
ENDBRANCH  19  20
ENDBRANCH   1  19
BRANCH  17  31
HETATM   31  O7  UNL     1      -7.703  46.453 -27.479  1.00  0.00    -0.389 OA
HETATM   32  H39 UNL     1      -7.017  46.577 -26.791  1.00  0.00     0.210 HD
ENDBRANCH  17  31
BRANCH   4  33
HETATM   33  C8  UNL     1     -10.032  47.359 -28.652  1.00  0.00     0.068 C 
HETATM   34  N1  UNL     1      -9.427  48.401 -29.116  1.00  0.00    -0.399 N 
ATOM     35  H1  UNL     1      -8.962  49.080 -28.513  1.00  0.00     0.158 HD
BRANCH  34  36
HETATM   36  C9  UNL     1      -9.459  48.533 -30.581  1.00  0.00     0.144 C 
BRANCH  36  37
HETATM   37  C10 UNL     1      -8.427  49.536 -31.106  1.00  0.00     0.183 C 
BRANCH  37  38
HETATM   38  O3  UNL     1      -8.801  50.879 -30.800  1.00  0.00    -0.399 OA
HETATM   39  H16 UNL     1      -8.059  51.446 -31.071  1.00  0.00     0.209 HD
ENDBRANCH  37  38
ENDBRANCH  36  37
ENDBRANCH  34  36
ENDBRANCH   4  33
BRANCH  13  40
HETATM   40  O6  UNL     1     -13.329  43.327 -27.946  1.00  0.00    -0.389 OA
HETATM   41  H33 UNL     1     -13.201  43.648 -28.857  1.00  0.00     0.210 HD
ENDBRANCH  13  40
BRANCH  10  42
HETATM   42  C17 UNL     1     -16.679  45.285 -26.006  1.00  0.00    -0.045 A 
HETATM   43  C18 UNL     1     -16.935  46.049 -24.945  1.00  0.00     0.087 A 
HETATM   44  C19 UNL     1     -18.345  46.426 -25.012  1.00  0.00     0.283 A 
HETATM   45  O4  UNL     1     -18.914  47.128 -24.196  1.00  0.00    -0.260 OA
HETATM   46  O5  UNL     1     -18.909  45.863 -26.112  1.00  0.00    -0.314 OA
HETATM   47  C20 UNL     1     -17.915  45.123 -26.817  1.00  0.00     0.213 A 
ENDBRANCH  10  42
TORSDOF 11
ENDMDL
MODEL 6
REMARK minimizedAffinity -7.27285385
REMARK CNNscore 0.431578249
REMARK CNNaffinity 6.34215498
REMARK  11 active torsions:
REMARK  status: ('A' for Active; 'I' for Inactive)
REMARK    1  A    between atoms: C3_4  and  O2_5 
REMARK    2  A    between atoms: O2_5  and  C4_6 
REMARK    3  A    between atoms: C7_9  and  C8_10 
REMARK    4  A    between atoms: N1_11  and  C9_13 
REMARK    5  A    between atoms: C9_13  and  C10_14 
REMARK    6  A    between atoms: C10_14  and  O3_15 
REMARK    7  A    between atoms: C16_21  and  C17_22 
REMARK    8  A    between atoms: C23_30  and  O6_31 
REMARK    9  A    between atoms: C27_35  and  O7_36 
REMARK   10  A    between atoms: C30_39  and  O8_40 
REMARK   11  A    between atoms: C31_41  and  O9_42 
ROOT
HETATM    1  C4  UNL     1      -3.078  45.690 -18.426  1.00  0.00     0.127 C 
HETATM    2  C5  UNL     1      -3.982  45.354 -19.616  1.00  0.00     0.033 C 
HETATM    3  C6  UNL     1      -5.292  46.143 -19.585  1.00  0.00     0.021 C 
HETATM    4  C7  UNL     1      -5.086  47.681 -19.544  1.00  0.00     0.026 C 
HETATM    5  C11 UNL     1      -4.435  48.248 -20.872  1.00  0.00     0.009 C 
HETATM    6  C12 UNL     1      -5.164  47.876 -22.179  1.00  0.00     0.007 C 
HETATM    7  C13 UNL     1      -4.452  48.418 -23.418  1.00  0.00     0.013 C 
HETATM    8  C14 UNL     1      -4.296  49.958 -23.384  1.00  0.00    -0.005 C 
HETATM    9  C15 UNL     1      -5.676  50.619 -23.567  1.00  0.00     0.019 C 
HETATM   10  C16 UNL     1      -3.276  50.468 -24.453  1.00  0.00     0.028 C 
HETATM   11  C21 UNL     1      -1.903  50.135 -23.836  1.00  0.00     0.013 C 
HETATM   12  C22 UNL     1      -2.112  50.068 -22.318  1.00  0.00     0.040 C 
HETATM   13  C23 UNL     1      -3.597  50.398 -22.067  1.00  0.00     0.070 C 
HETATM   14  C24 UNL     1      -4.189  49.776 -20.774  1.00  0.00     0.026 C 
HETATM   15  C25 UNL     1      -3.314  50.113 -19.550  1.00  0.00     0.011 C 
HETATM   16  C26 UNL     1      -3.871  49.540 -18.256  1.00  0.00     0.039 C 
HETATM   17  C27 UNL     1      -4.169  48.030 -18.317  1.00  0.00     0.073 C 
HETATM   18  C28 UNL     1      -2.849  47.209 -18.350  1.00  0.00     0.071 C 
ENDROOT
BRANCH   1  19
HETATM   19  O2  UNL     1      -3.708  45.146 -17.261  1.00  0.00    -0.356 OA
BRANCH  19  20
HETATM   20  C3  UNL     1      -3.168  43.902 -16.805  1.00  0.00     0.263 C 
HETATM   21  O1  UNL     1      -2.056  44.194 -15.962  1.00  0.00    -0.354 OA
HETATM   22  C2  UNL     1      -1.633  43.146 -15.081  1.00  0.00     0.151 C 
HETATM   23  C1  UNL     1      -1.876  43.600 -13.645  1.00  0.00     0.042 C 
HETATM   24  C31 UNL     1      -2.249  41.766 -15.385  1.00  0.00     0.175 C 
HETATM   25  C30 UNL     1      -3.780  41.835 -15.516  1.00  0.00     0.154 C 
HETATM   26  C29 UNL     1      -4.261  43.195 -16.017  1.00  0.00     0.095 C 
BRANCH  24  27
HETATM   27  O9  UNL     1      -1.725  41.285 -16.636  1.00  0.00    -0.390 OA
HETATM   28  H47 UNL     1      -0.755  41.264 -16.562  1.00  0.00     0.210 HD
ENDBRANCH  24  27
BRANCH  25  29
HETATM   29  O8  UNL     1      -4.411  41.560 -14.264  1.00  0.00    -0.393 OA
HETATM   30  H45 UNL     1      -4.356  40.598 -14.114  1.00  0.00     0.210 HD
ENDBRANCH  25  29
ENDBRANCH  19  20
ENDBRANCH   1  19
BRANCH  17  31
HETATM   31  O7  UNL     1      -4.872  47.740 -17.097  1.00  0.00    -0.389 OA
HETATM   32  H39 UNL     1      -4.363  47.079 -16.583  1.00  0.00     0.210 HD
ENDBRANCH  17  31
BRANCH   4  33
HETATM   33  C8  UNL     1      -6.476  48.279 -19.279  1.00  0.00     0.068 C 
HETATM   34  N1  UNL     1      -7.547  47.805 -19.824  1.00  0.00    -0.399 N 
ATOM     35  H1  UNL     1      -7.529  47.026 -20.482  1.00  0.00     0.158 HD
BRANCH  34  36
HETATM   36  C9  UNL     1      -8.793  48.475 -19.423  1.00  0.00     0.144 C 
BRANCH  36  37
HETATM   37  C10 UNL     1      -8.929  48.608 -17.903  1.00  0.00     0.183 C 
BRANCH  37  38
HETATM   38  O3  UNL     1      -8.987  49.976 -17.501  1.00  0.00    -0.399 OA
HETATM   39  H16 UNL     1      -9.172  49.981 -16.547  1.00  0.00     0.209 HD
ENDBRANCH  37  38
ENDBRANCH  36  37
ENDBRANCH  34  36
ENDBRANCH   4  33
BRANCH  13  40
HETATM   40  O6  UNL     1      -3.658  51.828 -21.939  1.00  0.00    -0.389 OA
HETATM   41  H33 UNL     1      -4.569  52.070 -21.695  1.00  0.00     0.210 HD
ENDBRANCH  13  40
BRANCH  10  42
HETATM   42  C17 UNL     1      -3.472  50.008 -25.871  1.00  0.00    -0.045 A 
HETATM   43  C18 UNL     1      -3.903  48.830 -26.325  1.00  0.00     0.087 A 
HETATM   44  C19 UNL     1      -3.830  48.874 -27.784  1.00  0.00     0.283 A 
HETATM   45  O4  UNL     1      -4.151  47.960 -28.521  1.00  0.00    -0.260 OA
HETATM   46  O5  UNL     1      -3.339  50.079 -28.173  1.00  0.00    -0.314 OA
HETATM   47  C20 UNL     1      -3.093  50.877 -27.016  1.00  0.00     0.213 A 
ENDBRANCH  10  42
TORSDOF 11
ENDMDL
MODEL 7
REMARK minimizedAffinity -6.83166504
REMARK CNNscore 0.404744089
REMARK CNNaffinity 5.70054817
REMARK  11 active torsions:
REMARK  status: ('A' for Active; 'I' for Inactive)
REMARK    1  A    between atoms: C3_4  and  O2_5 
REMARK    2  A    between atoms: O2_5  and  C4_6 
REMARK    3  A    between atoms: C7_9  and  C8_10 
REMARK    4  A    between atoms: N1_11  and  C9_13 
REMARK    5  A    between atoms: C9_13  and  C10_14 
REMARK    6  A    between atoms: C10_14  and  O3_15 
REMARK    7  A    between atoms: C16_21  and  C17_22 
REMARK    8  A    between atoms: C23_30  and  O6_31 
REMARK    9  A    between atoms: C27_35  and  O7_36 
REMARK   10  A    between atoms: C30_39  and  O8_40 
REMARK   11  A    between atoms: C31_41  and  O9_42 
ROOT
HETATM    1  C4  UNL     1      -3.309  49.014  -9.934  1.00  0.00     0.127 C 
HETATM    2  C5  UNL     1      -1.787  48.939 -10.092  1.00  0.00     0.033 C 
HETATM    3  C6  UNL     1      -1.320  49.492 -11.439  1.00  0.00     0.021 C 
HETATM    4  C7  UNL     1      -1.769  50.956 -11.695  1.00  0.00     0.026 C 
HETATM    5  C11 UNL     1      -1.089  51.987 -10.704  1.00  0.00     0.009 C 
HETATM    6  C12 UNL     1       0.452  51.939 -10.651  1.00  0.00     0.007 C 
HETATM    7  C13 UNL     1       1.030  52.928  -9.640  1.00  0.00     0.013 C 
HETATM    8  C14 UNL     1       0.613  54.390  -9.937  1.00  0.00    -0.005 C 
HETATM    9  C15 UNL     1       1.321  54.878 -11.215  1.00  0.00     0.019 C 
HETATM   10  C16 UNL     1       0.902  55.338  -8.728  1.00  0.00     0.028 C 
HETATM   11  C21 UNL     1      -0.235  55.024  -7.736  1.00  0.00     0.013 C 
HETATM   12  C22 UNL     1      -1.397  54.466  -8.568  1.00  0.00     0.040 C 
HETATM   13  C23 UNL     1      -0.935  54.495 -10.038  1.00  0.00     0.070 C 
HETATM   14  C24 UNL     1      -1.603  53.430 -10.948  1.00  0.00     0.026 C 
HETATM   15  C25 UNL     1      -3.140  53.491 -10.832  1.00  0.00     0.011 C 
HETATM   16  C26 UNL     1      -3.837  52.477 -11.725  1.00  0.00     0.039 C 
HETATM   17  C27 UNL     1      -3.331  51.033 -11.546  1.00  0.00     0.073 C 
HETATM   18  C28 UNL     1      -3.795  50.452 -10.181  1.00  0.00     0.071 C 
ENDROOT
BRANCH   1  19
HETATM   19  O2  UNL     1      -3.867  48.056 -10.842  1.00  0.00    -0.356 OA
BRANCH  19  20
HETATM   20  C3  UNL     1      -5.158  47.559 -10.479  1.00  0.00     0.263 C 
HETATM   21  O1  UNL     1      -5.649  48.363  -9.409  1.00  0.00    -0.354 OA
HETATM   22  C2  UNL     1      -7.062  48.315  -9.173  1.00  0.00     0.151 C 
HETATM   23  C1  UNL     1      -7.645  49.693  -9.474  1.00  0.00     0.042 C 
HETATM   24  C31 UNL     1      -7.796  47.179  -9.914  1.00  0.00     0.175 C 
HETATM   25  C30 UNL     1      -7.454  47.154 -11.413  1.00  0.00     0.154 C 
HETATM   26  C29 UNL     1      -6.055  47.694 -11.701  1.00  0.00     0.095 C 
BRANCH  24  27
HETATM   27  O9  UNL     1      -7.393  45.917  -9.352  1.00  0.00    -0.390 OA
HETATM   28  H47 UNL     1      -7.587  45.941  -8.400  1.00  0.00     0.210 HD
ENDBRANCH  24  27
BRANCH  25  29
HETATM   29  O8  UNL     1      -8.401  47.915 -12.165  1.00  0.00    -0.393 OA
HETATM   30  H45 UNL     1      -9.218  47.385 -12.228  1.00  0.00     0.210 HD
ENDBRANCH  25  29
ENDBRANCH  19  20
ENDBRANCH   1  19
BRANCH  17  31
HETATM   31  O7  UNL     1      -3.950  50.288 -12.609  1.00  0.00    -0.389 OA
HETATM   32  H39 UNL     1      -4.502  49.578 -12.223  1.00  0.00     0.210 HD
ENDBRANCH  17  31
BRANCH   4  33
HETATM   33  C8  UNL     1      -1.420  51.246 -13.163  1.00  0.00     0.068 C 
HETATM   34  N1  UNL     1      -0.491  50.606 -13.791  1.00  0.00    -0.399 N 
ATOM     35  H1  UNL     1       0.083  49.892 -13.343  1.00  0.00     0.158 HD
BRANCH  34  36
HETATM   36  C9  UNL     1      -0.323  50.986 -15.202  1.00  0.00     0.144 C 
BRANCH  36  37
HETATM   37  C10 UNL     1       1.040  51.626 -15.483  1.00  0.00     0.183 C 
BRANCH  37  38
HETATM   38  O3  UNL     1       1.142  52.920 -14.891  1.00  0.00    -0.399 OA
HETATM   39  H16 UNL     1       2.058  53.218 -15.023  1.00  0.00     0.209 HD
ENDBRANCH  37  38
ENDBRANCH  36  37
ENDBRANCH  34  36
ENDBRANCH   4  33
BRANCH  13  40
HETATM   40  O6  UNL     1      -1.303  55.794 -10.532  1.00  0.00    -0.389 OA
HETATM   41  H33 UNL     1      -1.102  55.821 -11.485  1.00  0.00     0.210 HD
ENDBRANCH  13  40
BRANCH  10  42
HETATM   42  C17 UNL     1       2.288  55.314  -8.146  1.00  0.00    -0.045 A 
HETATM   43  C18 UNL     1       3.417  55.831  -8.632  1.00  0.00     0.087 A 
HETATM   44  C19 UNL     1       4.494  55.456  -7.719  1.00  0.00     0.283 A 
HETATM   45  O4  UNL     1       5.663  55.766  -7.862  1.00  0.00    -0.260 OA
HETATM   46  O5  UNL     1       3.986  54.704  -6.709  1.00  0.00    -0.314 OA
HETATM   47  C20 UNL     1       2.578  54.571  -6.891  1.00  0.00     0.213 A 
ENDBRANCH  10  42
TORSDOF 11
ENDMDL
MODEL 8
REMARK minimizedAffinity -7.88640738
REMARK CNNscore 0.359703213
REMARK CNNaffinity 6.17202187
REMARK  11 active torsions:
REMARK  status: ('A' for Active; 'I' for Inactive)
REMARK    1  A    between atoms: C3_4  and  O2_5 
REMARK    2  A    between atoms: O2_5  and  C4_6 
REMARK    3  A    between atoms: C7_9  and  C8_10 
REMARK    4  A    between atoms: N1_11  and  C9_13 
REMARK    5  A    between atoms: C9_13  and  C10_14 
REMARK    6  A    between atoms: C10_14  and  O3_15 
REMARK    7  A    between atoms: C16_21  and  C17_22 
REMARK    8  A    between atoms: C23_30  and  O6_31 
REMARK    9  A    between atoms: C27_35  and  O7_36 
REMARK   10  A    between atoms: C30_39  and  O8_40 
REMARK   11  A    between atoms: C31_41  and  O9_42 
ROOT
HETATM    1  C4  UNL     1      -7.588  47.813 -24.612  1.00  0.00     0.127 C 
HETATM    2  C5  UNL     1      -7.344  49.224 -24.065  1.00  0.00     0.033 C 
HETATM    3  C6  UNL     1      -7.806  49.367 -22.614  1.00  0.00     0.021 C 
HETATM    4  C7  UNL     1      -7.143  48.344 -21.651  1.00  0.00     0.026 C 
HETATM    5  C11 UNL     1      -5.586  48.579 -21.486  1.00  0.00     0.009 C 
HETATM    6  C12 UNL     1      -5.170  50.004 -21.066  1.00  0.00     0.007 C 
HETATM    7  C13 UNL     1      -3.653  50.164 -20.974  1.00  0.00     0.013 C 
HETATM    8  C14 UNL     1      -3.013  49.171 -19.974  1.00  0.00    -0.005 C 
HETATM    9  C15 UNL     1      -3.405  49.563 -18.537  1.00  0.00     0.019 C 
HETATM   10  C16 UNL     1      -1.461  49.092 -20.139  1.00  0.00     0.028 C 
HETATM   11  C21 UNL     1      -1.270  48.226 -21.400  1.00  0.00     0.013 C 
HETATM   12  C22 UNL     1      -2.532  47.364 -21.532  1.00  0.00     0.040 C 
HETATM   13  C23 UNL     1      -3.427  47.714 -20.326  1.00  0.00     0.070 C 
HETATM   14  C24 UNL     1      -4.946  47.507 -20.566  1.00  0.00     0.026 C 
HETATM   15  C25 UNL     1      -5.232  46.088 -21.097  1.00  0.00     0.011 C 
HETATM   16  C26 UNL     1      -6.715  45.835 -21.325  1.00  0.00     0.039 C 
HETATM   17  C27 UNL     1      -7.403  46.897 -22.203  1.00  0.00     0.073 C 
HETATM   18  C28 UNL     1      -6.946  46.770 -23.683  1.00  0.00     0.071 C 
ENDROOT
BRANCH   1  19
HETATM   19  O2  UNL     1      -9.006  47.663 -24.750  1.00  0.00    -0.356 OA
BRANCH  19  20
HETATM   20  C3  UNL     1      -9.438  47.120 -26.001  1.00  0.00     0.263 C 
HETATM   21  O1  UNL     1     -10.859  47.013 -25.961  1.00  0.00    -0.354 OA
HETATM   22  C2  UNL     1     -11.524  46.893 -27.225  1.00  0.00     0.151 C 
HETATM   23  C1  UNL     1     -12.378  48.139 -27.438  1.00  0.00     0.042 C 
HETATM   24  C31 UNL     1     -10.588  46.598 -28.414  1.00  0.00     0.175 C 
HETATM   25  C30 UNL     1      -9.402  47.575 -28.471  1.00  0.00     0.154 C 
HETATM   26  C29 UNL     1      -9.008  48.093 -27.090  1.00  0.00     0.095 C 
BRANCH  24  27
HETATM   27  O9  UNL     1     -10.054  45.269 -28.271  1.00  0.00    -0.390 OA
HETATM   28  H47 UNL     1     -10.804  44.653 -28.212  1.00  0.00     0.210 HD
ENDBRANCH  24  27
BRANCH  25  29
HETATM   29  O8  UNL     1      -9.702  48.692 -29.310  1.00  0.00    -0.393 OA
HETATM   30  H45 UNL     1      -9.640  48.388 -30.234  1.00  0.00     0.210 HD
ENDBRANCH  25  29
ENDBRANCH  19  20
ENDBRANCH   1  19
BRANCH  17  31
HETATM   31  O7  UNL     1      -8.807  46.597 -22.116  1.00  0.00    -0.389 OA
HETATM   32  H39 UNL     1      -9.148  46.402 -23.014  1.00  0.00     0.210 HD
ENDBRANCH  17  31
BRANCH   4  33
HETATM   33  C8  UNL     1      -7.895  48.483 -20.318  1.00  0.00     0.068 C 
HETATM   34  N1  UNL     1      -7.307  48.858 -19.230  1.00  0.00    -0.399 N 
ATOM     35  H1  UNL     1      -6.307  49.056 -19.186  1.00  0.00     0.158 HD
BRANCH  34  36
HETATM   36  C9  UNL     1      -8.191  48.976 -18.060  1.00  0.00     0.144 C 
BRANCH  36  37
HETATM   37  C10 UNL     1      -8.617  47.614 -17.503  1.00  0.00     0.183 C 
BRANCH  37  38
HETATM   38  O3  UNL     1     -10.037  47.487 -17.463  1.00  0.00    -0.399 OA
HETATM   39  H16 UNL     1     -10.231  46.573 -17.197  1.00  0.00     0.209 HD
ENDBRANCH  37  38
ENDBRANCH  36  37
ENDBRANCH  34  36
ENDBRANCH   4  33
BRANCH  13  40
HETATM   40  O6  UNL     1      -3.019  46.824 -19.273  1.00  0.00    -0.389 OA
HETATM   41  H33 UNL     1      -3.620  46.957 -18.518  1.00  0.00     0.210 HD
ENDBRANCH  13  40
BRANCH  10  42
HETATM   42  C17 UNL     1      -0.697  50.388 -20.127  1.00  0.00    -0.045 A 
HETATM   43  C18 UNL     1      -0.181  51.073 -21.148  1.00  0.00     0.087 A 
HETATM   44  C19 UNL     1       0.533  52.217 -20.585  1.00  0.00     0.283 A 
HETATM   45  O4  UNL     1       1.124  53.055 -21.241  1.00  0.00    -0.260 OA
HETATM   46  O5  UNL     1       0.441  52.182 -19.230  1.00  0.00    -0.314 OA
HETATM   47  C20 UNL     1      -0.340  51.052 -18.846  1.00  0.00     0.213 A 
ENDBRANCH  10  42
TORSDOF 11
ENDMDL
MODEL 9
REMARK minimizedAffinity -8.43017006
REMARK CNNscore 0.353520721
REMARK CNNaffinity 6.95164347
REMARK  11 active torsions:
REMARK  status: ('A' for Active; 'I' for Inactive)
REMARK    1  A    between atoms: C3_4  and  O2_5 
REMARK    2  A    between atoms: O2_5  and  C4_6 
REMARK    3  A    between atoms: C7_9  and  C8_10 
REMARK    4  A    between atoms: N1_11  and  C9_13 
REMARK    5  A    between atoms: C9_13  and  C10_14 
REMARK    6  A    between atoms: C10_14  and  O3_15 
REMARK    7  A    between atoms: C16_21  and  C17_22 
REMARK    8  A    between atoms: C23_30  and  O6_31 
REMARK    9  A    between atoms: C27_35  and  O7_36 
REMARK   10  A    between atoms: C30_39  and  O8_40 
REMARK   11  A    between atoms: C31_41  and  O9_42 
ROOT
HETATM    1  C4  UNL     1      -2.486  50.593 -23.788  1.00  0.00     0.127 C 
HETATM    2  C5  UNL     1      -2.302  49.084 -23.598  1.00  0.00     0.033 C 
HETATM    3  C6  UNL     1      -2.072  48.712 -22.132  1.00  0.00     0.021 C 
HETATM    4  C7  UNL     1      -3.207  49.192 -21.188  1.00  0.00     0.026 C 
HETATM    5  C11 UNL     1      -4.584  48.459 -21.463  1.00  0.00     0.009 C 
HETATM    6  C12 UNL     1      -4.530  46.917 -21.438  1.00  0.00     0.007 C 
HETATM    7  C13 UNL     1      -5.884  46.282 -21.757  1.00  0.00     0.013 C 
HETATM    8  C14 UNL     1      -6.995  46.733 -20.778  1.00  0.00    -0.005 C 
HETATM    9  C15 UNL     1      -6.739  46.116 -19.390  1.00  0.00     0.019 C 
HETATM   10  C16 UNL     1      -8.422  46.375 -21.306  1.00  0.00     0.028 C 
HETATM   11  C21 UNL     1      -8.691  47.441 -22.386  1.00  0.00     0.013 C 
HETATM   12  C22 UNL     1      -7.815  48.649 -22.034  1.00  0.00     0.040 C 
HETATM   13  C23 UNL     1      -7.072  48.286 -20.733  1.00  0.00     0.070 C 
HETATM   14  C24 UNL     1      -5.708  49.002 -20.543  1.00  0.00     0.026 C 
HETATM   15  C25 UNL     1      -5.860  50.528 -20.706  1.00  0.00     0.011 C 
HETATM   16  C26 UNL     1      -4.548  51.272 -20.507  1.00  0.00     0.039 C 
HETATM   17  C27 UNL     1      -3.390  50.741 -21.372  1.00  0.00     0.073 C 
HETATM   18  C28 UNL     1      -3.605  51.108 -22.867  1.00  0.00     0.071 C 
ENDROOT
BRANCH   1  19
HETATM   19  O2  UNL     1      -1.213  51.199 -23.539  1.00  0.00    -0.356 OA
BRANCH  19  20
HETATM   20  C3  UNL     1      -0.751  52.082 -24.565  1.00  0.00     0.263 C 
HETATM   21  O1  UNL     1       0.670  51.989 -24.612  1.00  0.00    -0.354 OA
HETATM   22  C2  UNL     1       1.300  52.453 -25.814  1.00  0.00     0.151 C 
HETATM   23  C1  UNL     1       1.953  51.260 -26.504  1.00  0.00     0.042 C 
HETATM   24  C31 UNL     1       0.375  53.255 -26.751  1.00  0.00     0.175 C 
HETATM   25  C30 UNL     1      -0.943  52.515 -27.033  1.00  0.00     0.154 C 
HETATM   26  C29 UNL     1      -1.359  51.606 -25.878  1.00  0.00     0.095 C 
BRANCH  24  27
HETATM   27  O9  UNL     1       0.047  54.509 -26.125  1.00  0.00    -0.390 OA
HETATM   28  H47 UNL     1       0.881  54.968 -25.925  1.00  0.00     0.210 HD
ENDBRANCH  24  27
BRANCH  25  29
HETATM   29  O8  UNL     1      -0.841  51.727 -28.220  1.00  0.00    -0.393 OA
HETATM   30  H45 UNL     1      -0.892  52.337 -28.980  1.00  0.00     0.210 HD
ENDBRANCH  25  29
ENDBRANCH  19  20
ENDBRANCH   1  19
BRANCH  17  31
HETATM   31  O7  UNL     1      -2.221  51.421 -20.884  1.00  0.00    -0.389 OA
HETATM   32  H39 UNL     1      -1.824  51.940 -21.614  1.00  0.00     0.210 HD
ENDBRANCH  17  31
BRANCH   4  33
HETATM   33  C8  UNL     1      -2.693  48.944 -19.761  1.00  0.00     0.068 C 
HETATM   34  N1  UNL     1      -1.454  49.111 -19.435  1.00  0.00    -0.399 N 
ATOM     35  H1  UNL     1      -0.742  49.390 -20.110  1.00  0.00     0.158 HD
BRANCH  34  36
HETATM   36  C9  UNL     1      -1.150  48.868 -18.016  1.00  0.00     0.144 C 
BRANCH  36  37
HETATM   37  C10 UNL     1      -0.122  49.856 -17.455  1.00  0.00     0.183 C 
BRANCH  37  38
HETATM   38  O3  UNL     1      -0.074  51.055 -18.226  1.00  0.00    -0.399 OA
HETATM   39  H16 UNL     1       0.518  51.666 -17.759  1.00  0.00     0.209 HD
ENDBRANCH  37  38
ENDBRANCH  36  37
ENDBRANCH  34  36
ENDBRANCH   4  33
BRANCH  13  40
HETATM   40  O6  UNL     1      -7.941  48.698 -19.665  1.00  0.00    -0.389 OA
HETATM   41  H33 UNL     1      -7.470  48.561 -18.823  1.00  0.00     0.210 HD
ENDBRANCH  13  40
BRANCH  10  42
HETATM   42  C17 UNL     1      -8.665  44.953 -21.730  1.00  0.00    -0.045 A 
HETATM   43  C18 UNL     1      -8.721  43.847 -20.987  1.00  0.00     0.087 A 
HETATM   44  C19 UNL     1      -8.899  42.720 -21.899  1.00  0.00     0.283 A 
HETATM   45  O4  UNL     1      -8.991  41.556 -21.552  1.00  0.00    -0.260 OA
HETATM   46  O5  UNL     1      -8.930  43.176 -23.178  1.00  0.00    -0.314 OA
HETATM   47  C20 UNL     1      -8.800  44.596 -23.168  1.00  0.00     0.213 A 
ENDBRANCH  10  42
TORSDOF 11
ENDMDL
