MODEL 1
REMARK minimizedAffinity -8.40261936
REMARK CNNscore 0.682375252
REMARK CNNaffinity 5.35088873
REMARK  6 active torsions:
REMARK  status: ('A' for Active; 'I' for Inactive)
REMARK    1  A    between atoms: C4_4  and  O1_5 
REMARK    2  A    between atoms: C5_6  and  O2_7 
REMARK    3  A    between atoms: C8_11  and  C9_12 
REMARK    4  A    between atoms: C19_23  and  C20_24 
REMARK    5  A    between atoms: C25_31  and  O7_32 
REMARK    6  A    between atoms: C26_33  and  O8_34 
ROOT
HETATM    1  C1  UNL     1     -18.643  41.003 -18.525  1.00  0.00     0.040 C 
HETATM    2  C2  UNL     1     -19.774  41.537 -19.396  1.00  0.00     0.123 C 
HETATM    3  C3  UNL     1     -19.995  40.638 -20.610  1.00  0.00     0.069 C 
HETATM    4  C4  UNL     1     -21.097  41.226 -21.478  1.00  0.00     0.188 C 
HETATM    5  C5  UNL     1     -20.752  42.675 -21.907  1.00  0.00     0.240 C 
HETATM    6  O3  UNL     1     -19.639  42.671 -22.819  1.00  0.00    -0.341 OA
HETATM    7  C6  UNL     1     -19.186  44.009 -23.100  1.00  0.00     0.156 C 
HETATM    8  C7  UNL     1     -17.955  43.907 -24.006  1.00  0.00     0.056 C 
HETATM    9  C8  UNL     1     -17.310  45.271 -24.353  1.00  0.00     0.043 C 
HETATM   10  C10 UNL     1     -17.235  46.199 -23.134  1.00  0.00    -0.065 C 
HETATM   11  C11 UNL     1     -16.192  47.023 -22.928  1.00  0.00    -0.022 C 
HETATM   12  C12 UNL     1     -14.998  47.130 -23.824  1.00  0.00     0.035 C 
HETATM   13  C13 UNL     1     -15.147  46.404 -25.182  1.00  0.00     0.032 C 
HETATM   14  C14 UNL     1     -15.853  45.044 -24.942  1.00  0.00     0.013 C 
HETATM   15  C15 UNL     1     -15.821  44.122 -26.169  1.00  0.00     0.007 C 
HETATM   16  C16 UNL     1     -14.424  44.001 -26.755  1.00  0.00     0.013 C 
HETATM   17  C17 UNL     1     -13.814  45.360 -27.194  1.00  0.00    -0.003 C 
HETATM   18  C18 UNL     1     -14.607  45.892 -28.403  1.00  0.00     0.019 C 
HETATM   19  C19 UNL     1     -12.279  45.103 -27.493  1.00  0.00     0.030 C 
HETATM   20  C24 UNL     1     -11.503  45.838 -26.391  1.00  0.00     0.044 C 
HETATM   21  C25 UNL     1     -12.510  46.007 -25.252  1.00  0.00     0.154 C 
HETATM   22  C26 UNL     1     -13.816  46.370 -25.998  1.00  0.00     0.096 C 
HETATM   23  C27 UNL     1     -18.391  46.180 -22.154  1.00  0.00     0.069 C 
HETATM   24  C28 UNL     1     -18.836  44.761 -21.812  1.00  0.00     0.158 C 
HETATM   25  O9  UNL     1     -19.969  44.820 -20.937  1.00  0.00    -0.347 OA
HETATM   26  C29 UNL     1     -20.418  43.494 -20.611  1.00  0.00     0.325 C 
HETATM   27  O10 UNL     1     -19.420  42.856 -19.802  1.00  0.00    -0.351 OA
ENDROOT
BRANCH  19  28
HETATM   28  C20 UNL     1     -11.762  45.348 -28.882  1.00  0.00    -0.045 A 
HETATM   29  C21 UNL     1     -11.354  46.527 -29.351  1.00  0.00     0.087 A 
HETATM   30  C22 UNL     1     -10.987  46.343 -30.752  1.00  0.00     0.283 A 
HETATM   31  O5  UNL     1     -10.652  47.249 -31.498  1.00  0.00    -0.260 OA
HETATM   32  O6  UNL     1     -11.137  45.032 -31.079  1.00  0.00    -0.314 OA
HETATM   33  C23 UNL     1     -11.628  44.316 -29.941  1.00  0.00     0.213 A 
ENDBRANCH  19  28
BRANCH  22  34
HETATM   34  O8  UNL     1     -13.627  47.704 -26.524  1.00  0.00    -0.386 OA
HETATM   35  H34 UNL     1     -13.438  48.276 -25.757  1.00  0.00     0.210 HD
ENDBRANCH  22  34
BRANCH  21  36
HETATM   36  O7  UNL     1     -12.087  47.029 -24.360  1.00  0.00    -0.392 OA
HETATM   37  H33 UNL     1     -11.417  47.581 -24.802  1.00  0.00     0.210 HD
ENDBRANCH  21  36
BRANCH   9  38
HETATM   38  C9  UNL     1     -18.228  45.963 -25.387  1.00  0.00     0.245 C 
HETATM   39  O4  UNL     1     -18.983  46.903 -25.140  1.00  0.00    -0.306 OA
ENDBRANCH   9  38
BRANCH   5  40
HETATM   40  O2  UNL     1     -21.882  43.196 -22.613  1.00  0.00    -0.360 OA
HETATM   41  H9  UNL     1     -21.717  42.922 -23.533  1.00  0.00     0.213 HD
ENDBRANCH   5  40
BRANCH   4  42
HETATM   42  O1  UNL     1     -21.316  40.361 -22.601  1.00  0.00    -0.390 OA
HETATM   43  H8  UNL     1     -22.007  40.793 -23.140  1.00  0.00     0.210 HD
ENDBRANCH   4  42
TORSDOF 6
ENDMDL
MODEL 2
REMARK minimizedAffinity -7.60171032
REMARK CNNscore 0.628712118
REMARK CNNaffinity 6.15985346
REMARK  6 active torsions:
REMARK  status: ('A' for Active; 'I' for Inactive)
REMARK    1  A    between atoms: C4_4  and  O1_5 
REMARK    2  A    between atoms: C5_6  and  O2_7 
REMARK    3  A    between atoms: C8_11  and  C9_12 
REMARK    4  A    between atoms: C19_23  and  C20_24 
REMARK    5  A    between atoms: C25_31  and  O7_32 
REMARK    6  A    between atoms: C26_33  and  O8_34 
ROOT
HETATM    1  C1  UNL     1      -0.008  47.001 -14.647  1.00  0.00     0.040 C 
HETATM    2  C2  UNL     1      -1.085  47.994 -15.065  1.00  0.00     0.123 C 
HETATM    3  C3  UNL     1      -0.466  49.200 -15.770  1.00  0.00     0.069 C 
HETATM    4  C4  UNL     1      -1.564  50.190 -16.131  1.00  0.00     0.188 C 
HETATM    5  C5  UNL     1      -2.358  50.622 -14.872  1.00  0.00     0.240 C 
HETATM    6  O3  UNL     1      -1.526  51.417 -14.008  1.00  0.00    -0.341 OA
HETATM    7  C6  UNL     1      -2.178  51.688 -12.753  1.00  0.00     0.156 C 
HETATM    8  C7  UNL     1      -1.195  52.463 -11.872  1.00  0.00     0.056 C 
HETATM    9  C8  UNL     1      -1.732  52.781 -10.454  1.00  0.00     0.043 C 
HETATM   10  C10 UNL     1      -2.469  51.587  -9.837  1.00  0.00    -0.065 C 
HETATM   11  C11 UNL     1      -2.390  51.299  -8.525  1.00  0.00    -0.022 C 
HETATM   12  C12 UNL     1      -1.586  52.074  -7.528  1.00  0.00     0.035 C 
HETATM   13  C13 UNL     1      -1.033  53.420  -8.055  1.00  0.00     0.032 C 
HETATM   14  C14 UNL     1      -0.532  53.215  -9.508  1.00  0.00     0.013 C 
HETATM   15  C15 UNL     1       0.274  54.407 -10.043  1.00  0.00     0.007 C 
HETATM   16  C16 UNL     1       1.356  54.847  -9.069  1.00  0.00     0.013 C 
HETATM   17  C17 UNL     1       0.807  55.259  -7.676  1.00  0.00    -0.003 C 
HETATM   18  C18 UNL     1      -0.011  56.556  -7.830  1.00  0.00     0.019 C 
HETATM   19  C19 UNL     1       2.055  55.396  -6.710  1.00  0.00     0.030 C 
HETATM   20  C24 UNL     1       1.941  54.243  -5.703  1.00  0.00     0.044 C 
HETATM   21  C25 UNL     1       1.039  53.215  -6.389  1.00  0.00     0.154 C 
HETATM   22  C26 UNL     1      -0.041  54.097  -7.059  1.00  0.00     0.096 C 
HETATM   23  C27 UNL     1      -3.320  50.727 -10.750  1.00  0.00     0.069 C 
HETATM   24  C28 UNL     1      -2.607  50.392 -12.058  1.00  0.00     0.158 C 
HETATM   25  O9  UNL     1      -3.491  49.637 -12.896  1.00  0.00    -0.347 OA
HETATM   26  C29 UNL     1      -2.848  49.322 -14.143  1.00  0.00     0.325 C 
HETATM   27  O10 UNL     1      -1.779  48.399 -13.889  1.00  0.00    -0.351 OA
ENDROOT
BRANCH  19  28
HETATM   28  C20 UNL     1       2.346  56.732  -6.088  1.00  0.00    -0.045 A 
HETATM   29  C21 UNL     1       2.146  57.042  -4.807  1.00  0.00     0.087 A 
HETATM   30  C22 UNL     1       2.500  58.447  -4.630  1.00  0.00     0.283 A 
HETATM   31  O5  UNL     1       2.351  59.066  -3.590  1.00  0.00    -0.260 OA
HETATM   32  O6  UNL     1       2.957  58.939  -5.813  1.00  0.00    -0.314 OA
HETATM   33  C23 UNL     1       2.896  57.910  -6.806  1.00  0.00     0.213 A 
ENDBRANCH  19  28
BRANCH  22  34
HETATM   34  O8  UNL     1      -0.847  54.638  -5.986  1.00  0.00    -0.386 OA
HETATM   35  H34 UNL     1      -1.207  53.872  -5.501  1.00  0.00     0.210 HD
ENDBRANCH  22  34
BRANCH  21  36
HETATM   36  O7  UNL     1       0.495  52.313  -5.435  1.00  0.00    -0.392 OA
HETATM   37  H33 UNL     1       0.580  52.701  -4.545  1.00  0.00     0.210 HD
ENDBRANCH  21  36
BRANCH   9  38
HETATM   38  C9  UNL     1      -2.766  53.920 -10.600  1.00  0.00     0.245 C 
HETATM   39  O4  UNL     1      -3.832  53.828 -11.209  1.00  0.00    -0.306 OA
ENDBRANCH   9  38
BRANCH   5  40
HETATM   40  O2  UNL     1      -3.439  51.451 -15.307  1.00  0.00    -0.360 OA
HETATM   41  H9  UNL     1      -3.046  52.342 -15.321  1.00  0.00     0.213 HD
ENDBRANCH   5  40
BRANCH   4  42
HETATM   42  O1  UNL     1      -0.978  51.305 -16.816  1.00  0.00    -0.390 OA
HETATM   43  H8  UNL     1      -1.713  51.922 -17.000  1.00  0.00     0.210 HD
ENDBRANCH   4  42
TORSDOF 6
ENDMDL
MODEL 3
REMARK minimizedAffinity -10.1699791
REMARK CNNscore 0.624226034
REMARK CNNaffinity 6.66523743
REMARK  6 active torsions:
REMARK  status: ('A' for Active; 'I' for Inactive)
REMARK    1  A    between atoms: C4_4  and  O1_5 
REMARK    2  A    between atoms: C5_6  and  O2_7 
REMARK    3  A    between atoms: C8_11  and  C9_12 
REMARK    4  A    between atoms: C19_23  and  C20_24 
REMARK    5  A    between atoms: C25_31  and  O7_32 
REMARK    6  A    between atoms: C26_33  and  O8_34 
ROOT
HETATM    1  C1  UNL     1      -7.588  44.273 -28.897  1.00  0.00     0.040 C 
HETATM    2  C2  UNL     1      -8.652  45.200 -28.323  1.00  0.00     0.123 C 
HETATM    3  C3  UNL     1      -8.491  46.616 -28.872  1.00  0.00     0.069 C 
HETATM    4  C4  UNL     1      -9.539  47.522 -28.242  1.00  0.00     0.188 C 
HETATM    5  C5  UNL     1      -9.433  47.502 -26.696  1.00  0.00     0.240 C 
HETATM    6  O3  UNL     1      -8.213  48.137 -26.273  1.00  0.00    -0.341 OA
HETATM    7  C6  UNL     1      -8.004  47.982 -24.857  1.00  0.00     0.156 C 
HETATM    8  C7  UNL     1      -6.651  48.612 -24.511  1.00  0.00     0.056 C 
HETATM    9  C8  UNL     1      -6.251  48.473 -23.022  1.00  0.00     0.043 C 
HETATM   10  C10 UNL     1      -6.560  47.076 -22.471  1.00  0.00    -0.065 C 
HETATM   11  C11 UNL     1      -5.752  46.464 -21.586  1.00  0.00    -0.022 C 
HETATM   12  C12 UNL     1      -4.479  47.040 -21.050  1.00  0.00     0.035 C 
HETATM   13  C13 UNL     1      -4.261  48.536 -21.383  1.00  0.00     0.032 C 
HETATM   14  C14 UNL     1      -4.704  48.787 -22.848  1.00  0.00     0.013 C 
HETATM   15  C15 UNL     1      -4.292  50.169 -23.375  1.00  0.00     0.007 C 
HETATM   16  C16 UNL     1      -2.825  50.465 -23.111  1.00  0.00     0.013 C 
HETATM   17  C17 UNL     1      -2.443  50.422 -21.606  1.00  0.00    -0.003 C 
HETATM   18  C18 UNL     1      -3.127  51.601 -20.888  1.00  0.00     0.019 C 
HETATM   19  C19 UNL     1      -0.861  50.452 -21.529  1.00  0.00     0.030 C 
HETATM   20  C24 UNL     1      -0.434  49.068 -21.019  1.00  0.00     0.044 C 
HETATM   21  C25 UNL     1      -1.621  48.155 -21.332  1.00  0.00     0.154 C 
HETATM   22  C26 UNL     1      -2.840  49.042 -20.982  1.00  0.00     0.096 C 
HETATM   23  C27 UNL     1      -7.827  46.391 -22.940  1.00  0.00     0.069 C 
HETATM   24  C28 UNL     1      -8.022  46.505 -24.450  1.00  0.00     0.158 C 
HETATM   25  O9  UNL     1      -9.266  45.896 -24.812  1.00  0.00    -0.347 OA
HETATM   26  C29 UNL     1      -9.482  46.005 -26.229  1.00  0.00     0.325 C 
HETATM   27  O10 UNL     1      -8.514  45.188 -26.905  1.00  0.00    -0.351 OA
ENDROOT
BRANCH  19  28
HETATM   28  C20 UNL     1      -0.192  51.601 -20.830  1.00  0.00    -0.045 A 
HETATM   29  C21 UNL     1       0.403  52.627 -21.437  1.00  0.00     0.087 A 
HETATM   30  C22 UNL     1       0.972  53.485 -20.403  1.00  0.00     0.283 A 
HETATM   31  O5  UNL     1       1.659  54.469 -20.628  1.00  0.00    -0.260 OA
HETATM   32  O6  UNL     1       0.657  52.975 -19.183  1.00  0.00    -0.314 OA
HETATM   33  C23 UNL     1      -0.091  51.766 -19.357  1.00  0.00     0.213 A 
ENDBRANCH  19  28
BRANCH  22  34
HETATM   34  O8  UNL     1      -2.846  49.175 -19.542  1.00  0.00    -0.386 OA
HETATM   35  H34 UNL     1      -2.900  48.269 -19.184  1.00  0.00     0.210 HD
ENDBRANCH  22  34
BRANCH  21  36
HETATM   36  O7  UNL     1      -1.561  46.973 -20.547  1.00  0.00    -0.392 OA
HETATM   37  H33 UNL     1      -0.957  47.118 -19.797  1.00  0.00     0.210 HD
ENDBRANCH  21  36
BRANCH   9  38
HETATM   38  C9  UNL     1      -7.115  49.473 -22.220  1.00  0.00     0.245 C 
HETATM   39  O4  UNL     1      -6.804  49.957 -21.131  1.00  0.00    -0.306 OA
ENDBRANCH   9  38
BRANCH   5  40
HETATM   40  O2  UNL     1     -10.519  48.276 -26.180  1.00  0.00    -0.360 OA
HETATM   41  H9  UNL     1     -10.160  49.180 -26.157  1.00  0.00     0.213 HD
ENDBRANCH   5  40
BRANCH   4  42
HETATM   42  O1  UNL     1      -9.397  48.843 -28.783  1.00  0.00    -0.390 OA
HETATM   43  H8  UNL     1     -10.068  49.390 -28.330  1.00  0.00     0.210 HD
ENDBRANCH   4  42
TORSDOF 6
ENDMDL
MODEL 4
REMARK minimizedAffinity -7.86111069
REMARK CNNscore 0.59949255
REMARK CNNaffinity 5.57040262
REMARK  6 active torsions:
REMARK  status: ('A' for Active; 'I' for Inactive)
REMARK    1  A    between atoms: C4_4  and  O1_5 
REMARK    2  A    between atoms: C5_6  and  O2_7 
REMARK    3  A    between atoms: C8_11  and  C9_12 
REMARK    4  A    between atoms: C19_23  and  C20_24 
REMARK    5  A    between atoms: C25_31  and  O7_32 
REMARK    6  A    between atoms: C26_33  and  O8_34 
ROOT
HETATM    1  C1  UNL     1      -4.042  49.714  -9.395  1.00  0.00     0.040 C 
HETATM    2  C2  UNL     1      -3.573  50.332 -10.706  1.00  0.00     0.123 C 
HETATM    3  C3  UNL     1      -2.341  49.603 -11.239  1.00  0.00     0.069 C 
HETATM    4  C4  UNL     1      -1.874  50.275 -12.522  1.00  0.00     0.188 C 
HETATM    5  C5  UNL     1      -1.579  51.778 -12.285  1.00  0.00     0.240 C 
HETATM    6  O3  UNL     1      -0.422  51.931 -11.443  1.00  0.00    -0.341 OA
HETATM    7  C6  UNL     1      -0.226  53.307 -11.065  1.00  0.00     0.156 C 
HETATM    8  C7  UNL     1       0.969  53.364 -10.109  1.00  0.00     0.056 C 
HETATM    9  C8  UNL     1       1.274  54.780  -9.561  1.00  0.00     0.043 C 
HETATM   10  C10 UNL     1      -0.003  55.532  -9.168  1.00  0.00    -0.065 C 
HETATM   11  C11 UNL     1      -0.051  56.348  -8.100  1.00  0.00    -0.022 C 
HETATM   12  C12 UNL     1       1.096  56.611  -7.174  1.00  0.00     0.035 C 
HETATM   13  C13 UNL     1       2.460  56.075  -7.673  1.00  0.00     0.032 C 
HETATM   14  C14 UNL     1       2.241  54.677  -8.306  1.00  0.00     0.013 C 
HETATM   15  C15 UNL     1       3.553  53.934  -8.598  1.00  0.00     0.007 C 
HETATM   16  C16 UNL     1       4.487  53.933  -7.399  1.00  0.00     0.013 C 
HETATM   17  C17 UNL     1       4.871  55.356  -6.909  1.00  0.00    -0.003 C 
HETATM   18  C18 UNL     1       5.751  56.028  -7.981  1.00  0.00     0.019 C 
HETATM   19  C19 UNL     1       5.584  55.185  -5.505  1.00  0.00     0.030 C 
HETATM   20  C24 UNL     1       4.625  55.782  -4.466  1.00  0.00     0.044 C 
HETATM   21  C25 UNL     1       3.255  55.764  -5.146  1.00  0.00     0.154 C 
HETATM   22  C26 UNL     1       3.584  56.191  -6.596  1.00  0.00     0.096 C 
HETATM   23  C27 UNL     1      -1.233  55.347 -10.034  1.00  0.00     0.069 C 
HETATM   24  C28 UNL     1      -1.475  53.882 -10.389  1.00  0.00     0.158 C 
HETATM   25  O9  UNL     1      -2.609  53.790 -11.260  1.00  0.00    -0.347 OA
HETATM   26  C29 UNL     1      -2.849  52.419 -11.623  1.00  0.00     0.325 C 
HETATM   27  O10 UNL     1      -3.279  51.703 -10.456  1.00  0.00    -0.351 OA
ENDROOT
BRANCH  19  28
HETATM   28  C20 UNL     1       7.011  55.634  -5.359  1.00  0.00    -0.045 A 
HETATM   29  C21 UNL     1       7.412  56.902  -5.290  1.00  0.00     0.087 A 
HETATM   30  C22 UNL     1       8.870  56.902  -5.211  1.00  0.00     0.283 A 
HETATM   31  O5  UNL     1       9.558  57.910  -5.221  1.00  0.00    -0.260 OA
HETATM   32  O6  UNL     1       9.310  55.616  -5.182  1.00  0.00    -0.314 OA
HETATM   33  C23 UNL     1       8.187  54.732  -5.271  1.00  0.00     0.213 A 
ENDBRANCH  19  28
BRANCH  22  34
HETATM   34  O8  UNL     1       3.949  57.589  -6.536  1.00  0.00    -0.386 OA
HETATM   35  H34 UNL     1       3.183  58.055  -6.151  1.00  0.00     0.210 HD
ENDBRANCH  22  34
BRANCH  21  36
HETATM   36  O7  UNL     1       2.366  56.664  -4.499  1.00  0.00    -0.392 OA
HETATM   37  H33 UNL     1       2.882  57.290  -3.960  1.00  0.00     0.210 HD
ENDBRANCH  21  36
BRANCH   9  38
HETATM   38  C9  UNL     1       1.932  55.583 -10.707  1.00  0.00     0.245 C 
HETATM   39  O4  UNL     1       2.936  56.285 -10.586  1.00  0.00    -0.306 OA
ENDBRANCH   9  38
BRANCH   5  40
HETATM   40  O2  UNL     1      -1.265  52.361 -13.553  1.00  0.00    -0.360 OA
HETATM   41  H9  UNL     1      -0.305  52.221 -13.632  1.00  0.00     0.213 HD
ENDBRANCH   5  40
BRANCH   4  42
HETATM   42  O1  UNL     1      -0.734  49.568 -13.029  1.00  0.00    -0.390 OA
HETATM   43  H8  UNL     1      -0.455  50.051 -13.831  1.00  0.00     0.210 HD
ENDBRANCH   4  42
TORSDOF 6
ENDMDL
MODEL 5
REMARK minimizedAffinity -7.30240345
REMARK CNNscore 0.565519035
REMARK CNNaffinity 6.0401516
REMARK  6 active torsions:
REMARK  status: ('A' for Active; 'I' for Inactive)
REMARK    1  A    between atoms: C4_4  and  O1_5 
REMARK    2  A    between atoms: C5_6  and  O2_7 
REMARK    3  A    between atoms: C8_11  and  C9_12 
REMARK    4  A    between atoms: C19_23  and  C20_24 
REMARK    5  A    between atoms: C25_31  and  O7_32 
REMARK    6  A    between atoms: C26_33  and  O8_34 
ROOT
HETATM    1  C1  UNL     1       9.078  55.226  -4.895  1.00  0.00     0.040 C 
HETATM    2  C2  UNL     1       8.089  56.260  -4.370  1.00  0.00     0.123 C 
HETATM    3  C3  UNL     1       7.180  55.650  -3.305  1.00  0.00     0.069 C 
HETATM    4  C4  UNL     1       6.178  56.696  -2.839  1.00  0.00     0.188 C 
HETATM    5  C5  UNL     1       5.356  57.247  -4.032  1.00  0.00     0.240 C 
HETATM    6  O3  UNL     1       4.485  56.225  -4.549  1.00  0.00    -0.341 OA
HETATM    7  C6  UNL     1       3.836  56.652  -5.762  1.00  0.00     0.156 C 
HETATM    8  C7  UNL     1       2.999  55.480  -6.283  1.00  0.00     0.056 C 
HETATM    9  C8  UNL     1       2.280  55.764  -7.625  1.00  0.00     0.043 C 
HETATM   10  C10 UNL     1       3.185  56.504  -8.617  1.00  0.00    -0.065 C 
HETATM   11  C11 UNL     1       3.151  56.253  -9.939  1.00  0.00    -0.022 C 
HETATM   12  C12 UNL     1       2.263  55.240 -10.593  1.00  0.00     0.035 C 
HETATM   13  C13 UNL     1       1.168  54.655  -9.670  1.00  0.00     0.032 C 
HETATM   14  C14 UNL     1       1.783  54.401  -8.269  1.00  0.00     0.013 C 
HETATM   15  C15 UNL     1       0.868  53.581  -7.348  1.00  0.00     0.007 C 
HETATM   16  C16 UNL     1       0.344  52.329  -8.032  1.00  0.00     0.013 C 
HETATM   17  C17 UNL     1      -0.462  52.620  -9.328  1.00  0.00    -0.003 C 
HETATM   18  C18 UNL     1      -1.774  53.332  -8.945  1.00  0.00     0.019 C 
HETATM   19  C19 UNL     1      -0.672  51.232 -10.063  1.00  0.00     0.030 C 
HETATM   20  C24 UNL     1       0.177  51.295 -11.340  1.00  0.00     0.044 C 
HETATM   21  C25 UNL     1       1.218  52.380 -11.062  1.00  0.00     0.154 C 
HETATM   22  C26 UNL     1       0.398  53.466 -10.326  1.00  0.00     0.096 C 
HETATM   23  C27 UNL     1       4.128  57.558  -8.071  1.00  0.00     0.069 C 
HETATM   24  C28 UNL     1       4.859  57.086  -6.818  1.00  0.00     0.158 C 
HETATM   25  O9  UNL     1       5.678  58.151  -6.321  1.00  0.00    -0.347 OA
HETATM   26  C29 UNL     1       6.366  57.736  -5.128  1.00  0.00     0.325 C 
HETATM   27  O10 UNL     1       7.326  56.728  -5.478  1.00  0.00    -0.351 OA
ENDROOT
BRANCH  19  28
HETATM   28  C20 UNL     1      -2.073  50.731 -10.275  1.00  0.00    -0.045 A 
HETATM   29  C21 UNL     1      -2.473  49.990 -11.308  1.00  0.00     0.087 A 
HETATM   30  C22 UNL     1      -3.909  49.769 -11.165  1.00  0.00     0.283 A 
HETATM   31  O5  UNL     1      -4.601  49.198 -11.991  1.00  0.00    -0.260 OA
HETATM   32  O6  UNL     1      -4.332  50.348 -10.009  1.00  0.00    -0.314 OA
HETATM   33  C23 UNL     1      -3.221  50.988  -9.370  1.00  0.00     0.213 A 
ENDBRANCH  19  28
BRANCH  22  34
HETATM   34  O8  UNL     1      -0.486  54.047 -11.313  1.00  0.00    -0.386 OA
HETATM   35  H34 UNL     1       0.087  54.396 -12.021  1.00  0.00     0.210 HD
ENDBRANCH  22  34
BRANCH  21  36
HETATM   36  O7  UNL     1       1.784  52.852 -12.277  1.00  0.00    -0.392 OA
HETATM   37  H33 UNL     1       1.205  52.598 -13.018  1.00  0.00     0.210 HD
ENDBRANCH  21  36
BRANCH   9  38
HETATM   38  C9  UNL     1       1.090  56.702  -7.318  1.00  0.00     0.245 C 
HETATM   39  O4  UNL     1      -0.013  56.640  -7.863  1.00  0.00    -0.306 OA
ENDBRANCH   9  38
BRANCH   5  40
HETATM   40  O2  UNL     1       4.529  58.302  -3.534  1.00  0.00    -0.360 OA
HETATM   41  H9  UNL     1       3.725  57.838  -3.241  1.00  0.00     0.213 HD
ENDBRANCH   5  40
BRANCH   4  42
HETATM   42  O1  UNL     1       5.347  56.123  -1.821  1.00  0.00    -0.390 OA
HETATM   43  H8  UNL     1       4.706  56.819  -1.576  1.00  0.00     0.210 HD
ENDBRANCH   4  42
TORSDOF 6
ENDMDL
MODEL 6
REMARK minimizedAffinity -9.95718193
REMARK CNNscore 0.558387995
REMARK CNNaffinity 6.44347763
REMARK  6 active torsions:
REMARK  status: ('A' for Active; 'I' for Inactive)
REMARK    1  A    between atoms: C4_4  and  O1_5 
REMARK    2  A    between atoms: C5_6  and  O2_7 
REMARK    3  A    between atoms: C8_11  and  C9_12 
REMARK    4  A    between atoms: C19_23  and  C20_24 
REMARK    5  A    between atoms: C25_31  and  O7_32 
REMARK    6  A    between atoms: C26_33  and  O8_34 
ROOT
HETATM    1  C1  UNL     1      -7.529  43.677 -29.821  1.00  0.00     0.040 C 
HETATM    2  C2  UNL     1      -8.515  44.802 -29.533  1.00  0.00     0.123 C 
HETATM    3  C3  UNL     1      -8.038  46.113 -30.153  1.00  0.00     0.069 C 
HETATM    4  C4  UNL     1      -9.021  47.221 -29.806  1.00  0.00     0.188 C 
HETATM    5  C5  UNL     1      -9.190  47.354 -28.271  1.00  0.00     0.240 C 
HETATM    6  O3  UNL     1      -7.976  47.851 -27.679  1.00  0.00    -0.341 OA
HETATM    7  C6  UNL     1      -8.043  47.822 -26.241  1.00  0.00     0.156 C 
HETATM    8  C7  UNL     1      -6.688  48.287 -25.699  1.00  0.00     0.056 C 
HETATM    9  C8  UNL     1      -6.579  48.253 -24.155  1.00  0.00     0.043 C 
HETATM   10  C10 UNL     1      -7.197  46.982 -23.561  1.00  0.00    -0.065 C 
HETATM   11  C11 UNL     1      -6.663  46.360 -22.495  1.00  0.00    -0.022 C 
HETATM   12  C12 UNL     1      -5.427  46.804 -21.777  1.00  0.00     0.035 C 
HETATM   13  C13 UNL     1      -4.919  48.208 -22.182  1.00  0.00     0.032 C 
HETATM   14  C14 UNL     1      -5.056  48.361 -23.719  1.00  0.00     0.013 C 
HETATM   15  C15 UNL     1      -4.344  49.605 -24.269  1.00  0.00     0.007 C 
HETATM   16  C16 UNL     1      -2.916  49.717 -23.759  1.00  0.00     0.013 C 
HETATM   17  C17 UNL     1      -2.813  49.783 -22.210  1.00  0.00    -0.003 C 
HETATM   18  C18 UNL     1      -3.415  51.118 -21.730  1.00  0.00     0.019 C 
HETATM   19  C19 UNL     1      -1.284  49.595 -21.840  1.00  0.00     0.030 C 
HETATM   20  C24 UNL     1      -1.178  48.228 -21.150  1.00  0.00     0.044 C 
HETATM   21  C25 UNL     1      -2.423  47.465 -21.606  1.00  0.00     0.154 C 
HETATM   22  C26 UNL     1      -3.526  48.548 -21.564  1.00  0.00     0.096 C 
HETATM   23  C27 UNL     1      -8.457  46.437 -24.204  1.00  0.00     0.069 C 
HETATM   24  C28 UNL     1      -8.366  46.415 -25.727  1.00  0.00     0.158 C 
HETATM   25  O9  UNL     1      -9.610  45.953 -26.267  1.00  0.00    -0.347 OA
HETATM   26  C29 UNL     1      -9.556  45.938 -27.703  1.00  0.00     0.325 C 
HETATM   27  O10 UNL     1      -8.629  44.924 -28.118  1.00  0.00    -0.351 OA
ENDROOT
BRANCH  19  28
HETATM   28  C20 UNL     1      -0.572  50.706 -21.122  1.00  0.00    -0.045 A 
HETATM   29  C21 UNL     1       0.103  51.692 -21.713  1.00  0.00     0.087 A 
HETATM   30  C22 UNL     1       0.687  52.521 -20.662  1.00  0.00     0.283 A 
HETATM   31  O5  UNL     1       1.438  53.461 -20.867  1.00  0.00    -0.260 OA
HETATM   32  O6  UNL     1       0.301  52.036 -19.452  1.00  0.00    -0.314 OA
HETATM   33  C23 UNL     1      -0.511  50.872 -19.648  1.00  0.00     0.213 A 
ENDBRANCH  19  28
BRANCH  22  34
HETATM   34  O8  UNL     1      -3.761  48.835 -20.165  1.00  0.00    -0.386 OA
HETATM   35  H34 UNL     1      -4.020  47.990 -19.753  1.00  0.00     0.210 HD
ENDBRANCH  22  34
BRANCH  21  36
HETATM   36  O7  UNL     1      -2.689  46.377 -20.731  1.00  0.00    -0.392 OA
HETATM   37  H33 UNL     1      -2.209  46.515 -19.896  1.00  0.00     0.210 HD
ENDBRANCH  21  36
BRANCH   9  38
HETATM   38  C9  UNL     1      -7.399  49.446 -23.612  1.00  0.00     0.245 C 
HETATM   39  O4  UNL     1      -7.307  49.902 -22.472  1.00  0.00    -0.306 OA
ENDBRANCH   9  38
BRANCH   5  40
HETATM   40  O2  UNL     1     -10.212  48.326 -28.032  1.00  0.00    -0.360 OA
HETATM   41  H9  UNL     1      -9.722  49.166 -28.015  1.00  0.00     0.213 HD
ENDBRANCH   5  40
BRANCH   4  42
HETATM   42  O1  UNL     1      -8.579  48.443 -30.415  1.00  0.00    -0.390 OA
HETATM   43  H8  UNL     1      -9.223  49.125 -30.141  1.00  0.00     0.210 HD
ENDBRANCH   4  42
TORSDOF 6
ENDMDL
MODEL 7
REMARK minimizedAffinity -7.55671883
REMARK CNNscore 0.466385931
REMARK CNNaffinity 5.00736094
REMARK  6 active torsions:
REMARK  status: ('A' for Active; 'I' for Inactive)
REMARK    1  A    between atoms: C4_4  and  O1_5 
REMARK    2  A    between atoms: C5_6  and  O2_7 
REMARK    3  A    between atoms: C8_11  and  C9_12 
REMARK    4  A    between atoms: C19_23  and  C20_24 
REMARK    5  A    between atoms: C25_31  and  O7_32 
REMARK    6  A    between atoms: C26_33  and  O8_34 
ROOT
HETATM    1  C1  UNL     1      -8.056  42.358 -31.141  1.00  0.00     0.040 C 
HETATM    2  C2  UNL     1      -7.931  43.876 -31.150  1.00  0.00     0.123 C 
HETATM    3  C3  UNL     1      -7.129  44.361 -29.944  1.00  0.00     0.069 C 
HETATM    4  C4  UNL     1      -7.064  45.881 -29.960  1.00  0.00     0.188 C 
HETATM    5  C5  UNL     1      -8.486  46.497 -29.973  1.00  0.00     0.240 C 
HETATM    6  O3  UNL     1      -9.146  46.250 -28.718  1.00  0.00    -0.341 OA
HETATM    7  C6  UNL     1     -10.527  46.659 -28.762  1.00  0.00     0.156 C 
HETATM    8  C7  UNL     1     -11.168  46.286 -27.422  1.00  0.00     0.056 C 
HETATM    9  C8  UNL     1     -12.680  46.609 -27.333  1.00  0.00     0.043 C 
HETATM   10  C10 UNL     1     -13.425  46.236 -28.620  1.00  0.00    -0.065 C 
HETATM   11  C11 UNL     1     -14.673  45.734 -28.602  1.00  0.00    -0.022 C 
HETATM   12  C12 UNL     1     -15.469  45.468 -27.362  1.00  0.00     0.035 C 
HETATM   13  C13 UNL     1     -14.859  46.058 -26.068  1.00  0.00     0.032 C 
HETATM   14  C14 UNL     1     -13.324  45.842 -26.101  1.00  0.00     0.013 C 
HETATM   15  C15 UNL     1     -12.642  46.148 -24.759  1.00  0.00     0.007 C 
HETATM   16  C16 UNL     1     -13.341  45.464 -23.595  1.00  0.00     0.013 C 
HETATM   17  C17 UNL     1     -14.835  45.864 -23.447  1.00  0.00    -0.003 C 
HETATM   18  C18 UNL     1     -14.911  47.344 -23.023  1.00  0.00     0.019 C 
HETATM   19  C19 UNL     1     -15.479  44.861 -22.403  1.00  0.00     0.030 C 
HETATM   20  C24 UNL     1     -16.456  43.986 -23.202  1.00  0.00     0.044 C 
HETATM   21  C25 UNL     1     -15.979  44.096 -24.652  1.00  0.00     0.154 C 
HETATM   22  C26 UNL     1     -15.607  45.592 -24.780  1.00  0.00     0.096 C 
HETATM   23  C27 UNL     1     -12.719  46.463 -29.942  1.00  0.00     0.069 C 
HETATM   24  C28 UNL     1     -11.272  45.979 -29.915  1.00  0.00     0.158 C 
HETATM   25  O9  UNL     1     -10.650  46.284 -31.169  1.00  0.00    -0.347 OA
HETATM   26  C29 UNL     1      -9.279  45.853 -31.164  1.00  0.00     0.325 C 
HETATM   27  O10 UNL     1      -9.248  44.418 -31.130  1.00  0.00    -0.351 OA
ENDROOT
BRANCH  19  28
HETATM   28  C20 UNL     1     -16.047  45.412 -21.126  1.00  0.00    -0.045 A 
HETATM   29  C21 UNL     1     -17.309  45.803 -20.953  1.00  0.00     0.087 A 
HETATM   30  C22 UNL     1     -17.430  46.323 -19.595  1.00  0.00     0.283 A 
HETATM   31  O5  UNL     1     -18.440  46.841 -19.146  1.00  0.00    -0.260 OA
HETATM   32  O6  UNL     1     -16.236  46.183 -18.960  1.00  0.00    -0.314 OA
HETATM   33  C23 UNL     1     -15.288  45.605 -19.864  1.00  0.00     0.213 A 
ENDBRANCH  19  28
BRANCH  22  34
HETATM   34  O8  UNL     1     -16.854  46.325 -24.745  1.00  0.00    -0.386 OA
HETATM   35  H34 UNL     1     -17.391  45.986 -25.485  1.00  0.00     0.210 HD
ENDBRANCH  22  34
BRANCH  21  36
HETATM   36  O7  UNL     1     -17.013  43.709 -25.547  1.00  0.00    -0.392 OA
HETATM   37  H33 UNL     1     -17.866  43.731 -25.078  1.00  0.00     0.210 HD
ENDBRANCH  21  36
BRANCH   9  38
HETATM   38  C9  UNL     1     -12.812  48.140 -27.166  1.00  0.00     0.245 C 
HETATM   39  O4  UNL     1     -11.964  48.866 -26.646  1.00  0.00    -0.306 OA
ENDBRANCH   9  38
BRANCH   5  40
HETATM   40  O2  UNL     1      -8.341  47.913 -30.109  1.00  0.00    -0.360 OA
HETATM   41  H9  UNL     1      -8.256  48.219 -29.189  1.00  0.00     0.213 HD
ENDBRANCH   5  40
BRANCH   4  42
HETATM   42  O1  UNL     1      -6.287  46.325 -28.839  1.00  0.00    -0.390 OA
HETATM   43  H8  UNL     1      -6.298  47.301 -28.877  1.00  0.00     0.210 HD
ENDBRANCH   4  42
TORSDOF 6
ENDMDL
MODEL 8
REMARK minimizedAffinity -6.78050232
REMARK CNNscore 0.413198113
REMARK CNNaffinity 5.54691696
REMARK  6 active torsions:
REMARK  status: ('A' for Active; 'I' for Inactive)
REMARK    1  A    between atoms: C4_4  and  O1_5 
REMARK    2  A    between atoms: C5_6  and  O2_7 
REMARK    3  A    between atoms: C8_11  and  C9_12 
REMARK    4  A    between atoms: C19_23  and  C20_24 
REMARK    5  A    between atoms: C25_31  and  O7_32 
REMARK    6  A    between atoms: C26_33  and  O8_34 
ROOT
HETATM    1  C1  UNL     1     -21.002  40.809 -22.007  1.00  0.00     0.040 C 
HETATM    2  C2  UNL     1     -20.681  41.769 -23.146  1.00  0.00     0.123 C 
HETATM    3  C3  UNL     1     -19.486  41.271 -23.954  1.00  0.00     0.069 C 
HETATM    4  C4  UNL     1     -19.165  42.276 -25.051  1.00  0.00     0.188 C 
HETATM    5  C5  UNL     1     -18.894  43.681 -24.454  1.00  0.00     0.240 C 
HETATM    6  O3  UNL     1     -17.666  43.673 -23.703  1.00  0.00    -0.341 OA
HETATM    7  C6  UNL     1     -17.475  44.913 -22.996  1.00  0.00     0.156 C 
HETATM    8  C7  UNL     1     -16.196  44.786 -22.164  1.00  0.00     0.056 C 
HETATM    9  C8  UNL     1     -15.882  46.027 -21.292  1.00  0.00     0.043 C 
HETATM   10  C10 UNL     1     -17.137  46.581 -20.608  1.00  0.00    -0.065 C 
HETATM   11  C11 UNL     1     -17.106  47.089 -19.363  1.00  0.00    -0.022 C 
HETATM   12  C12 UNL     1     -15.883  47.165 -18.502  1.00  0.00     0.035 C 
HETATM   13  C13 UNL     1     -14.558  46.851 -19.239  1.00  0.00     0.032 C 
HETATM   14  C14 UNL     1     -14.796  45.655 -20.196  1.00  0.00     0.013 C 
HETATM   15  C15 UNL     1     -13.497  45.085 -20.784  1.00  0.00     0.007 C 
HETATM   16  C16 UNL     1     -12.451  44.825 -19.711  1.00  0.00     0.013 C 
HETATM   17  C17 UNL     1     -12.065  46.091 -18.900  1.00  0.00    -0.003 C 
HETATM   18  C18 UNL     1     -11.313  47.064 -19.830  1.00  0.00     0.019 C 
HETATM   19  C19 UNL     1     -11.214  45.602 -17.656  1.00  0.00     0.030 C 
HETATM   20  C24 UNL     1     -12.085  45.857 -16.419  1.00  0.00     0.044 C 
HETATM   21  C25 UNL     1     -13.514  45.942 -16.960  1.00  0.00     0.154 C 
HETATM   22  C26 UNL     1     -13.339  46.745 -18.270  1.00  0.00     0.096 C 
HETATM   23  C27 UNL     1     -18.439  46.560 -21.384  1.00  0.00     0.069 C 
HETATM   24  C28 UNL     1     -18.670  45.226 -22.089  1.00  0.00     0.158 C 
HETATM   25  O9  UNL     1     -19.880  45.300 -22.853  1.00  0.00    -0.347 OA
HETATM   26  C29 UNL     1     -20.112  44.059 -23.541  1.00  0.00     0.325 C 
HETATM   27  O10 UNL     1     -20.406  43.043 -22.570  1.00  0.00    -0.351 OA
ENDROOT
BRANCH  19  28
HETATM   28  C20 UNL     1      -9.794  46.074 -17.520  1.00  0.00    -0.045 A 
HETATM   29  C21 UNL     1      -8.722  45.418 -17.962  1.00  0.00     0.087 A 
HETATM   30  C22 UNL     1      -7.542  46.187 -17.579  1.00  0.00     0.283 A 
HETATM   31  O5  UNL     1      -6.393  45.817 -17.760  1.00  0.00    -0.260 OA
HETATM   32  O6  UNL     1      -7.942  47.326 -16.952  1.00  0.00    -0.314 OA
HETATM   33  C23 UNL     1      -9.371  47.341 -16.870  1.00  0.00     0.213 A 
ENDBRANCH  19  28
BRANCH  22  34
HETATM   34  O8  UNL     1     -13.013  48.098 -17.876  1.00  0.00    -0.386 OA
HETATM   35  H34 UNL     1     -13.751  48.407 -17.318  1.00  0.00     0.210 HD
ENDBRANCH  22  34
BRANCH  21  36
HETATM   36  O7  UNL     1     -14.363  46.594 -16.025  1.00  0.00    -0.392 OA
HETATM   37  H33 UNL     1     -13.816  47.086 -15.387  1.00  0.00     0.210 HD
ENDBRANCH  21  36
BRANCH   9  38
HETATM   38  C9  UNL     1     -15.362  47.132 -22.239  1.00  0.00     0.245 C 
HETATM   39  O4  UNL     1     -14.677  48.094 -21.888  1.00  0.00    -0.306 OA
ENDBRANCH   9  38
BRANCH   5  40
HETATM   40  O2  UNL     1     -18.721  44.587 -25.547  1.00  0.00    -0.360 OA
HETATM   41  H9  UNL     1     -17.770  44.525 -25.741  1.00  0.00     0.213 HD
ENDBRANCH   5  40
BRANCH   4  42
HETATM   42  O1  UNL     1     -18.059  41.787 -25.821  1.00  0.00    -0.390 OA
HETATM   43  H8  UNL     1     -17.874  42.476 -26.490  1.00  0.00     0.210 HD
ENDBRANCH   4  42
TORSDOF 6
ENDMDL
MODEL 9
REMARK minimizedAffinity -6.61852741
REMARK CNNscore 0.409339637
REMARK CNNaffinity 5.35781717
REMARK  6 active torsions:
REMARK  status: ('A' for Active; 'I' for Inactive)
REMARK    1  A    between atoms: C4_4  and  O1_5 
REMARK    2  A    between atoms: C5_6  and  O2_7 
REMARK    3  A    between atoms: C8_11  and  C9_12 
REMARK    4  A    between atoms: C19_23  and  C20_24 
REMARK    5  A    between atoms: C25_31  and  O7_32 
REMARK    6  A    between atoms: C26_33  and  O8_34 
ROOT
HETATM    1  C1  UNL     1     -19.736  40.637 -34.770  1.00  0.00     0.040 C 
HETATM    2  C2  UNL     1     -20.671  41.105 -33.662  1.00  0.00     0.123 C 
HETATM    3  C3  UNL     1     -20.837  42.623 -33.698  1.00  0.00     0.069 C 
HETATM    4  C4  UNL     1     -21.738  43.059 -32.552  1.00  0.00     0.188 C 
HETATM    5  C5  UNL     1     -21.170  42.587 -31.189  1.00  0.00     0.240 C 
HETATM    6  O3  UNL     1     -19.956  43.296 -30.885  1.00  0.00    -0.341 OA
HETATM    7  C6  UNL     1     -19.314  42.760 -29.712  1.00  0.00     0.156 C 
HETATM    8  C7  UNL     1     -17.996  43.515 -29.513  1.00  0.00     0.056 C 
HETATM    9  C8  UNL     1     -17.154  43.010 -28.316  1.00  0.00     0.043 C 
HETATM   10  C10 UNL     1     -17.129  41.479 -28.234  1.00  0.00    -0.065 C 
HETATM   11  C11 UNL     1     -16.031  40.802 -27.851  1.00  0.00    -0.022 C 
HETATM   12  C12 UNL     1     -14.725  41.433 -27.478  1.00  0.00     0.035 C 
HETATM   13  C13 UNL     1     -14.781  42.970 -27.306  1.00  0.00     0.032 C 
HETATM   14  C14 UNL     1     -15.670  43.563 -28.430  1.00  0.00     0.013 C 
HETATM   15  C15 UNL     1     -15.587  45.093 -28.521  1.00  0.00     0.007 C 
HETATM   16  C16 UNL     1     -14.149  45.587 -28.540  1.00  0.00     0.013 C 
HETATM   17  C17 UNL     1     -13.330  45.162 -27.291  1.00  0.00    -0.003 C 
HETATM   18  C18 UNL     1     -13.889  45.898 -26.058  1.00  0.00     0.019 C 
HETATM   19  C19 UNL     1     -11.811  45.489 -27.601  1.00  0.00     0.030 C 
HETATM   20  C24 UNL     1     -11.104  44.133 -27.734  1.00  0.00     0.044 C 
HETATM   21  C25 UNL     1     -12.224  43.138 -28.045  1.00  0.00     0.154 C 
HETATM   22  C26 UNL     1     -13.369  43.607 -27.116  1.00  0.00     0.096 C 
HETATM   23  C27 UNL     1     -18.397  40.727 -28.587  1.00  0.00     0.069 C 
HETATM   24  C28 UNL     1     -19.048  41.258 -29.861  1.00  0.00     0.158 C 
HETATM   25  O9  UNL     1     -20.271  40.549 -30.096  1.00  0.00    -0.347 OA
HETATM   26  C29 UNL     1     -20.914  41.042 -31.283  1.00  0.00     0.325 C 
HETATM   27  O10 UNL     1     -20.113  40.687 -32.420  1.00  0.00    -0.351 OA
ENDROOT
BRANCH  19  28
HETATM   28  C20 UNL     1     -11.091  46.479 -26.730  1.00  0.00    -0.045 A 
HETATM   29  C21 UNL     1     -10.994  47.785 -26.972  1.00  0.00     0.087 A 
HETATM   30  C22 UNL     1     -10.169  48.371 -25.921  1.00  0.00     0.283 A 
HETATM   31  O5  UNL     1      -9.816  49.539 -25.896  1.00  0.00    -0.260 OA
HETATM   32  O6  UNL     1      -9.828  47.399 -25.034  1.00  0.00    -0.314 OA
HETATM   33  C23 UNL     1     -10.377  46.150 -25.470  1.00  0.00     0.213 A 
ENDBRANCH  19  28
BRANCH  22  34
HETATM   34  O8  UNL     1     -12.955  43.287 -25.768  1.00  0.00    -0.386 OA
HETATM   35  H34 UNL     1     -12.801  42.324 -25.750  1.00  0.00     0.210 HD
ENDBRANCH  22  34
BRANCH  21  36
HETATM   36  O7  UNL     1     -11.803  41.810 -27.768  1.00  0.00    -0.392 OA
HETATM   37  H33 UNL     1     -11.020  41.838 -27.188  1.00  0.00     0.210 HD
ENDBRANCH  21  36
BRANCH   9  38
HETATM   38  C9  UNL     1     -17.839  43.517 -27.026  1.00  0.00     0.245 C 
HETATM   39  O4  UNL     1     -17.272  43.676 -25.945  1.00  0.00    -0.306 OA
ENDBRANCH   9  38
BRANCH   5  40
HETATM   40  O2  UNL     1     -22.127  42.927 -30.182  1.00  0.00    -0.360 OA
HETATM   41  H9  UNL     1     -21.878  43.834 -29.932  1.00  0.00     0.213 HD
ENDBRANCH   5  40
BRANCH   4  42
HETATM   42  O1  UNL     1     -21.909  44.481 -32.610  1.00  0.00    -0.390 OA
HETATM   43  H8  UNL     1     -22.468  44.714 -31.842  1.00  0.00     0.210 HD
ENDBRANCH   4  42
TORSDOF 6
ENDMDL
