MODEL 1
REMARK minimizedAffinity -10.0134897
REMARK  12 active torsions:
REMARK  status: ('A' for Active; 'I' for Inactive)
REMARK    1  A    between atoms: C2_2  and  C3_3 
REMARK    2  A    between atoms: C2_2  and  C26_31 
REMARK    3  A    between atoms: C3_3  and  C4_4 
REMARK    4  A    between atoms: C4_4  and  C5_5 
REMARK    5  A    between atoms: C5_5  and  C7_7 
REMARK    6  A    between atoms: C8_8  and  O1_9 
REMARK    7  A    between atoms: C9_10  and  O2_11 
REMARK    8  A    between atoms: C20_22  and  O3_23 
REMARK    9  A    between atoms: C23_26  and  O4_27 
REMARK   10  A    between atoms: C25_29  and  O5_30 
REMARK   11  A    between atoms: C26_31  and  C28_33 
REMARK   12  A    between atoms: C28_33  and  O6_34 
ROOT
HETATM    1  C7  UNL     1      -2.614  49.197 -25.595  1.00  0.00     0.029 C 
HETATM    2  C8  UNL     1      -2.208  50.559 -26.265  1.00  0.00     0.152 C 
HETATM    3  C9  UNL     1      -1.747  51.500 -25.122  1.00  0.00     0.155 C 
HETATM    4  C10 UNL     1      -1.720  50.603 -23.891  1.00  0.00     0.060 C 
HETATM    5  C11 UNL     1      -2.911  49.611 -24.110  1.00  0.00    -0.029 C 
HETATM    6  C12 UNL     1      -4.337  50.203 -23.992  1.00  0.00     0.016 C 
HETATM    7  C13 UNL     1      -2.744  48.501 -23.051  1.00  0.00     0.011 C 
HETATM    8  C14 UNL     1      -2.669  49.062 -21.615  1.00  0.00     0.009 C 
HETATM    9  C15 UNL     1      -1.547  50.113 -21.437  1.00  0.00     0.029 C 
HETATM   10  C16 UNL     1      -1.355  50.630 -19.957  1.00  0.00    -0.031 C 
HETATM   11  C17 UNL     1      -2.624  51.334 -19.417  1.00  0.00     0.016 C 
HETATM   12  C18 UNL     1      -1.032  49.435 -19.008  1.00  0.00     0.012 C 
HETATM   13  C19 UNL     1      -0.592  49.858 -17.604  1.00  0.00     0.032 C 
HETATM   14  C20 UNL     1       0.544  50.874 -17.621  1.00  0.00     0.118 C 
HETATM   15  C21 UNL     1       0.253  52.060 -18.540  1.00  0.00     0.039 C 
HETATM   16  C22 UNL     1      -0.112  51.577 -19.953  1.00  0.00     0.025 C 
HETATM   17  C23 UNL     1      -0.246  52.735 -20.957  1.00  0.00     0.126 C 
HETATM   18  C24 UNL     1      -0.456  52.208 -22.382  1.00  0.00     0.071 C 
HETATM   19  C25 UNL     1      -1.660  51.259 -22.497  1.00  0.00     0.071 C 
ENDROOT
BRANCH   1  20
HETATM   20  C5  UNL     1      -3.667  48.382 -26.403  1.00  0.00    -0.011 C 
HETATM   21  C6  UNL     1      -3.884  48.929 -27.819  1.00  0.00     0.010 C 
BRANCH  20  22
HETATM   22  C4  UNL     1      -5.032  48.378 -25.655  1.00  0.00     0.009 C 
BRANCH  22  23
HETATM   23  C3  UNL     1      -6.171  47.767 -26.492  1.00  0.00     0.034 C 
BRANCH  23  24
HETATM   24  C2  UNL     1      -7.536  47.649 -25.821  1.00  0.00    -0.083 C 
HETATM   25  C1  UNL     1      -7.691  47.456 -24.498  1.00  0.00     0.015 C 
BRANCH  24  26
HETATM   26  C26 UNL     1      -8.722  47.795 -26.791  1.00  0.00     0.033 C 
HETATM   27  C27 UNL     1      -8.350  48.284 -28.200  1.00  0.00     0.017 C 
BRANCH  26  28
HETATM   28  C28 UNL     1      -9.857  48.668 -26.207  1.00  0.00     0.172 C 
BRANCH  28  29
HETATM   29  O6  UNL     1      -9.510  50.046 -26.118  1.00  0.00    -0.400 OA
HETATM   30  H48 UNL     1      -9.160  50.325 -26.980  1.00  0.00     0.209 HD
ENDBRANCH  28  29
ENDBRANCH  26  28
ENDBRANCH  24  26
ENDBRANCH  23  24
ENDBRANCH  22  23
ENDBRANCH  20  22
ENDBRANCH   1  20
BRANCH   2  31
HETATM   31  O1  UNL     1      -3.273  51.201 -26.967  1.00  0.00    -0.393 OA
HETATM   32  H13 UNL     1      -3.400  50.737 -27.813  1.00  0.00     0.210 HD
ENDBRANCH   2  31
BRANCH   3  33
HETATM   33  O2  UNL     1      -2.641  52.598 -24.941  1.00  0.00    -0.392 OA
HETATM   34  H15 UNL     1      -3.189  52.601 -25.759  1.00  0.00     0.210 HD
ENDBRANCH   3  33
BRANCH  19  35
HETATM   35  O5  UNL     1      -2.828  52.039 -22.283  1.00  0.00    -0.389 OA
HETATM   36  H41 UNL     1      -2.965  52.569 -23.101  1.00  0.00     0.210 HD
ENDBRANCH  19  35
BRANCH  17  37
HETATM   37  O4  UNL     1       0.946  53.526 -20.947  1.00  0.00    -0.395 OA
HETATM   38  H38 UNL     1       1.687  52.962 -21.228  1.00  0.00     0.210 HD
ENDBRANCH  17  37
BRANCH  14  39
HETATM   39  O3  UNL     1       0.765  51.332 -16.292  1.00  0.00    -0.396 OA
HETATM   40  H33 UNL     1       1.449  52.023 -16.328  1.00  0.00     0.210 HD
ENDBRANCH  14  39
TORSDOF 12
ENDMDL
MODEL 2
REMARK minimizedAffinity -9.8568573
REMARK  12 active torsions:
REMARK  status: ('A' for Active; 'I' for Inactive)
REMARK    1  A    between atoms: C2_2  and  C3_3 
REMARK    2  A    between atoms: C2_2  and  C26_31 
REMARK    3  A    between atoms: C3_3  and  C4_4 
REMARK    4  A    between atoms: C4_4  and  C5_5 
REMARK    5  A    between atoms: C5_5  and  C7_7 
REMARK    6  A    between atoms: C8_8  and  O1_9 
REMARK    7  A    between atoms: C9_10  and  O2_11 
REMARK    8  A    between atoms: C20_22  and  O3_23 
REMARK    9  A    between atoms: C23_26  and  O4_27 
REMARK   10  A    between atoms: C25_29  and  O5_30 
REMARK   11  A    between atoms: C26_31  and  C28_33 
REMARK   12  A    between atoms: C28_33  and  O6_34 
ROOT
HETATM    1  C7  UNL     1      -1.564  49.964 -25.470  1.00  0.00     0.029 C 
HETATM    2  C8  UNL     1      -1.117  51.368 -26.018  1.00  0.00     0.152 C 
HETATM    3  C9  UNL     1      -0.782  52.244 -24.784  1.00  0.00     0.155 C 
HETATM    4  C10 UNL     1      -0.860  51.276 -23.610  1.00  0.00     0.060 C 
HETATM    5  C11 UNL     1      -2.009  50.287 -24.000  1.00  0.00    -0.029 C 
HETATM    6  C12 UNL     1      -3.448  50.857 -23.986  1.00  0.00     0.016 C 
HETATM    7  C13 UNL     1      -1.926  49.118 -22.995  1.00  0.00     0.011 C 
HETATM    8  C14 UNL     1      -1.998  49.594 -21.529  1.00  0.00     0.009 C 
HETATM    9  C15 UNL     1      -0.914  50.643 -21.183  1.00  0.00     0.029 C 
HETATM   10  C16 UNL     1      -0.873  51.073 -19.664  1.00  0.00    -0.031 C 
HETATM   11  C17 UNL     1      -2.199  51.731 -19.209  1.00  0.00     0.016 C 
HETATM   12  C18 UNL     1      -0.623  49.827 -18.759  1.00  0.00     0.012 C 
HETATM   13  C19 UNL     1      -0.326  50.171 -17.297  1.00  0.00     0.032 C 
HETATM   14  C20 UNL     1       0.791  51.197 -17.145  1.00  0.00     0.118 C 
HETATM   15  C21 UNL     1       0.570  52.433 -18.018  1.00  0.00     0.039 C 
HETATM   16  C22 UNL     1       0.350  52.031 -19.485  1.00  0.00     0.025 C 
HETATM   17  C23 UNL     1       0.294  53.245 -20.429  1.00  0.00     0.126 C 
HETATM   18  C24 UNL     1       0.229  52.802 -21.895  1.00  0.00     0.071 C 
HETATM   19  C25 UNL     1      -0.943  51.849 -22.180  1.00  0.00     0.071 C 
ENDROOT
BRANCH   1  20
HETATM   20  C5  UNL     1      -2.523  49.189 -26.422  1.00  0.00    -0.011 C 
HETATM   21  C6  UNL     1      -3.247  50.106 -27.415  1.00  0.00     0.010 C 
BRANCH  20  22
HETATM   22  C4  UNL     1      -3.586  48.410 -25.596  1.00  0.00     0.009 C 
BRANCH  22  23
HETATM   23  C3  UNL     1      -4.971  48.392 -26.267  1.00  0.00     0.034 C 
BRANCH  23  24
HETATM   24  C2  UNL     1      -6.161  48.007 -25.392  1.00  0.00    -0.083 C 
HETATM   25  C1  UNL     1      -7.160  47.213 -25.819  1.00  0.00     0.015 C 
BRANCH  24  26
HETATM   26  C26 UNL     1      -6.103  48.590 -23.970  1.00  0.00     0.033 C 
HETATM   27  C27 UNL     1      -5.832  47.562 -22.860  1.00  0.00     0.017 C 
BRANCH  26  28
HETATM   28  C28 UNL     1      -7.357  49.427 -23.625  1.00  0.00     0.172 C 
BRANCH  28  29
HETATM   29  O6  UNL     1      -7.046  50.649 -22.961  1.00  0.00    -0.400 OA
HETATM   30  H48 UNL     1      -6.359  51.104 -23.475  1.00  0.00     0.209 HD
ENDBRANCH  28  29
ENDBRANCH  26  28
ENDBRANCH  24  26
ENDBRANCH  23  24
ENDBRANCH  22  23
ENDBRANCH  20  22
ENDBRANCH   1  20
BRANCH   2  31
HETATM   31  O1  UNL     1      -2.120  52.040 -26.781  1.00  0.00    -0.393 OA
HETATM   32  H13 UNL     1      -2.158  51.625 -27.661  1.00  0.00     0.210 HD
ENDBRANCH   2  31
BRANCH   3  33
HETATM   33  O2  UNL     1      -1.706  53.321 -24.625  1.00  0.00    -0.392 OA
HETATM   34  H15 UNL     1      -2.174  53.367 -25.491  1.00  0.00     0.210 HD
ENDBRANCH   3  33
BRANCH  19  35
HETATM   35  O5  UNL     1      -2.138  52.603 -22.035  1.00  0.00    -0.389 OA
HETATM   36  H41 UNL     1      -2.205  53.179 -22.830  1.00  0.00     0.210 HD
ENDBRANCH  19  35
BRANCH  17  37
HETATM   37  O4  UNL     1       1.468  54.045 -20.258  1.00  0.00    -0.395 OA
HETATM   38  H38 UNL     1       2.241  53.507 -20.499  1.00  0.00     0.210 HD
ENDBRANCH  17  37
BRANCH  14  39
HETATM   39  O3  UNL     1       0.876  51.578 -15.777  1.00  0.00    -0.396 OA
HETATM   40  H33 UNL     1       1.549  52.276 -15.707  1.00  0.00     0.210 HD
ENDBRANCH  14  39
TORSDOF 12
ENDMDL
MODEL 3
REMARK minimizedAffinity -9.85244751
REMARK  12 active torsions:
REMARK  status: ('A' for Active; 'I' for Inactive)
REMARK    1  A    between atoms: C2_2  and  C3_3 
REMARK    2  A    between atoms: C2_2  and  C26_31 
REMARK    3  A    between atoms: C3_3  and  C4_4 
REMARK    4  A    between atoms: C4_4  and  C5_5 
REMARK    5  A    between atoms: C5_5  and  C7_7 
REMARK    6  A    between atoms: C8_8  and  O1_9 
REMARK    7  A    between atoms: C9_10  and  O2_11 
REMARK    8  A    between atoms: C20_22  and  O3_23 
REMARK    9  A    between atoms: C23_26  and  O4_27 
REMARK   10  A    between atoms: C25_29  and  O5_30 
REMARK   11  A    between atoms: C26_31  and  C28_33 
REMARK   12  A    between atoms: C28_33  and  O6_34 
ROOT
HETATM    1  C7  UNL     1      -1.539  48.546 -19.549  1.00  0.00     0.029 C 
HETATM    2  C8  UNL     1      -2.737  47.591 -19.900  1.00  0.00     0.152 C 
HETATM    3  C9  UNL     1      -3.169  47.928 -21.350  1.00  0.00     0.155 C 
HETATM    4  C10 UNL     1      -2.104  48.904 -21.836  1.00  0.00     0.060 C 
HETATM    5  C11 UNL     1      -1.728  49.731 -20.561  1.00  0.00    -0.029 C 
HETATM    6  C12 UNL     1      -2.795  50.722 -20.037  1.00  0.00     0.016 C 
HETATM    7  C13 UNL     1      -0.452  50.520 -20.926  1.00  0.00     0.011 C 
HETATM    8  C14 UNL     1      -0.636  51.389 -22.187  1.00  0.00     0.009 C 
HETATM    9  C15 UNL     1      -1.101  50.573 -23.418  1.00  0.00     0.029 C 
HETATM   10  C16 UNL     1      -1.190  51.398 -24.761  1.00  0.00    -0.031 C 
HETATM   11  C17 UNL     1      -2.211  52.558 -24.667  1.00  0.00     0.016 C 
HETATM   12  C18 UNL     1       0.201  52.014 -25.108  1.00  0.00     0.012 C 
HETATM   13  C19 UNL     1       0.279  52.626 -26.509  1.00  0.00     0.032 C 
HETATM   14  C20 UNL     1      -0.189  51.668 -27.599  1.00  0.00     0.118 C 
HETATM   15  C21 UNL     1      -1.553  51.052 -27.289  1.00  0.00     0.039 C 
HETATM   16  C22 UNL     1      -1.550  50.391 -25.902  1.00  0.00     0.025 C 
HETATM   17  C23 UNL     1      -2.844  49.610 -25.616  1.00  0.00     0.126 C 
HETATM   18  C24 UNL     1      -2.742  48.838 -24.295  1.00  0.00     0.071 C 
HETATM   19  C25 UNL     1      -2.387  49.740 -23.101  1.00  0.00     0.071 C 
ENDROOT
BRANCH   1  20
HETATM   20  C5  UNL     1      -1.386  48.838 -18.027  1.00  0.00    -0.011 C 
HETATM   21  C6  UNL     1      -2.621  48.431 -17.215  1.00  0.00     0.010 C 
BRANCH  20  22
HETATM   22  C4  UNL     1      -1.114  50.352 -17.795  1.00  0.00     0.009 C 
BRANCH  22  23
HETATM   23  C3  UNL     1       0.301  50.630 -17.255  1.00  0.00     0.034 C 
BRANCH  23  24
HETATM   24  C2  UNL     1       0.862  52.032 -17.472  1.00  0.00    -0.083 C 
HETATM   25  C1  UNL     1       0.720  52.711 -18.626  1.00  0.00     0.015 C 
BRANCH  24  26
HETATM   26  C26 UNL     1       1.584  52.612 -16.243  1.00  0.00     0.033 C 
HETATM   27  C27 UNL     1       3.119  52.593 -16.325  1.00  0.00     0.017 C 
BRANCH  26  28
HETATM   28  C28 UNL     1       1.114  51.961 -14.922  1.00  0.00     0.172 C 
BRANCH  28  29
HETATM   29  O6  UNL     1       0.719  52.914 -13.940  1.00  0.00    -0.400 OA
HETATM   30  H48 UNL     1       0.096  53.533 -14.354  1.00  0.00     0.209 HD
ENDBRANCH  28  29
ENDBRANCH  26  28
ENDBRANCH  24  26
ENDBRANCH  23  24
ENDBRANCH  22  23
ENDBRANCH  20  22
ENDBRANCH   1  20
BRANCH   2  31
HETATM   31  O1  UNL     1      -3.874  47.749 -19.050  1.00  0.00    -0.393 OA
HETATM   32  H13 UNL     1      -3.678  47.315 -18.201  1.00  0.00     0.210 HD
ENDBRANCH   2  31
BRANCH   3  33
HETATM   33  O2  UNL     1      -4.468  48.517 -21.398  1.00  0.00    -0.392 OA
HETATM   34  H15 UNL     1      -4.852  48.327 -20.511  1.00  0.00     0.210 HD
ENDBRANCH   3  33
BRANCH  19  35
HETATM   35  O5  UNL     1      -3.503  50.590 -22.874  1.00  0.00    -0.389 OA
HETATM   36  H41 UNL     1      -4.197  50.035 -22.453  1.00  0.00     0.210 HD
ENDBRANCH  19  35
BRANCH  17  37
HETATM   37  O4  UNL     1      -3.082  48.666 -26.664  1.00  0.00    -0.395 OA
HETATM   38  H38 UNL     1      -2.343  48.035 -26.680  1.00  0.00     0.210 HD
ENDBRANCH  17  37
BRANCH  14  39
HETATM   39  O3  UNL     1      -0.245  52.376 -28.832  1.00  0.00    -0.396 OA
HETATM   40  H33 UNL     1      -0.603  51.770 -29.504  1.00  0.00     0.210 HD
ENDBRANCH  14  39
TORSDOF 12
ENDMDL
MODEL 4
REMARK minimizedAffinity -9.4875679
REMARK  12 active torsions:
REMARK  status: ('A' for Active; 'I' for Inactive)
REMARK    1  A    between atoms: C2_2  and  C3_3 
REMARK    2  A    between atoms: C2_2  and  C26_31 
REMARK    3  A    between atoms: C3_3  and  C4_4 
REMARK    4  A    between atoms: C4_4  and  C5_5 
REMARK    5  A    between atoms: C5_5  and  C7_7 
REMARK    6  A    between atoms: C8_8  and  O1_9 
REMARK    7  A    between atoms: C9_10  and  O2_11 
REMARK    8  A    between atoms: C20_22  and  O3_23 
REMARK    9  A    between atoms: C23_26  and  O4_27 
REMARK   10  A    between atoms: C25_29  and  O5_30 
REMARK   11  A    between atoms: C26_31  and  C28_33 
REMARK   12  A    between atoms: C28_33  and  O6_34 
ROOT
HETATM    1  C7  UNL     1      -0.414  49.883 -18.520  1.00  0.00     0.029 C 
HETATM    2  C8  UNL     1      -1.564  48.812 -18.488  1.00  0.00     0.152 C 
HETATM    3  C9  UNL     1      -2.229  48.827 -19.888  1.00  0.00     0.155 C 
HETATM    4  C10 UNL     1      -1.334  49.743 -20.713  1.00  0.00     0.060 C 
HETATM    5  C11 UNL     1      -0.848  50.829 -19.695  1.00  0.00    -0.029 C 
HETATM    6  C12 UNL     1      -1.908  51.844 -19.205  1.00  0.00     0.016 C 
HETATM    7  C13 UNL     1       0.289  51.598 -20.401  1.00  0.00     0.011 C 
HETATM    8  C14 UNL     1      -0.149  52.185 -21.759  1.00  0.00     0.009 C 
HETATM    9  C15 UNL     1      -0.717  51.115 -22.722  1.00  0.00     0.029 C 
HETATM   10  C16 UNL     1      -1.070  51.647 -24.166  1.00  0.00    -0.031 C 
HETATM   11  C17 UNL     1      -2.162  52.744 -24.132  1.00  0.00     0.016 C 
HETATM   12  C18 UNL     1       0.198  52.256 -24.840  1.00  0.00     0.012 C 
HETATM   13  C19 UNL     1       0.018  52.578 -26.325  1.00  0.00     0.032 C 
HETATM   14  C20 UNL     1      -0.519  51.398 -27.126  1.00  0.00     0.118 C 
HETATM   15  C21 UNL     1      -1.766  50.782 -26.492  1.00  0.00     0.039 C 
HETATM   16  C22 UNL     1      -1.504  50.413 -25.023  1.00  0.00     0.025 C 
HETATM   17  C23 UNL     1      -2.672  49.635 -24.391  1.00  0.00     0.126 C 
HETATM   18  C24 UNL     1      -2.314  49.151 -22.981  1.00  0.00     0.071 C 
HETATM   19  C25 UNL     1      -1.868  50.292 -22.053  1.00  0.00     0.071 C 
ENDROOT
BRANCH   1  20
HETATM   20  C5  UNL     1      -0.067  50.482 -17.125  1.00  0.00    -0.011 C 
HETATM   21  C6  UNL     1      -1.283  51.093 -16.420  1.00  0.00     0.010 C 
BRANCH  20  22
HETATM   22  C4  UNL     1       1.029  51.577 -17.268  1.00  0.00     0.009 C 
BRANCH  22  23
HETATM   23  C3  UNL     1       1.443  52.191 -15.918  1.00  0.00     0.034 C 
BRANCH  23  24
HETATM   24  C2  UNL     1       2.834  51.844 -15.396  1.00  0.00    -0.083 C 
HETATM   25  C1  UNL     1       3.967  52.282 -15.975  1.00  0.00     0.015 C 
BRANCH  24  26
HETATM   26  C26 UNL     1       2.825  50.966 -14.132  1.00  0.00     0.033 C 
HETATM   27  C27 UNL     1       2.372  51.683 -12.849  1.00  0.00     0.017 C 
BRANCH  26  28
HETATM   28  C28 UNL     1       4.180  50.259 -13.896  1.00  0.00     0.172 C 
BRANCH  28  29
HETATM   29  O6  UNL     1       4.061  48.844 -13.800  1.00  0.00    -0.400 OA
HETATM   30  H48 UNL     1       3.546  48.532 -14.562  1.00  0.00     0.209 HD
ENDBRANCH  28  29
ENDBRANCH  26  28
ENDBRANCH  24  26
ENDBRANCH  23  24
ENDBRANCH  22  23
ENDBRANCH  20  22
ENDBRANCH   1  20
BRANCH   2  31
HETATM   31  O1  UNL     1      -2.574  49.074 -17.513  1.00  0.00    -0.393 OA
HETATM   32  H13 UNL     1      -2.221  48.830 -16.640  1.00  0.00     0.210 HD
ENDBRANCH   2  31
BRANCH   3  33
HETATM   33  O2  UNL     1      -3.567  49.322 -19.839  1.00  0.00    -0.392 OA
HETATM   34  H15 UNL     1      -3.800  49.292 -18.883  1.00  0.00     0.210 HD
ENDBRANCH   3  33
BRANCH  19  35
HETATM   35  O5  UNL     1      -3.007  51.107 -21.816  1.00  0.00    -0.389 OA
HETATM   36  H41 UNL     1      -3.583  50.610 -21.192  1.00  0.00     0.210 HD
ENDBRANCH  19  35
BRANCH  17  37
HETATM   37  O4  UNL     1      -2.979  48.488 -25.190  1.00  0.00    -0.395 OA
HETATM   38  H38 UNL     1      -2.198  47.909 -25.204  1.00  0.00     0.210 HD
ENDBRANCH  17  37
BRANCH  14  39
HETATM   39  O3  UNL     1      -0.814  51.839 -28.446  1.00  0.00    -0.396 OA
HETATM   40  H33 UNL     1      -1.212  51.093 -28.925  1.00  0.00     0.210 HD
ENDBRANCH  14  39
TORSDOF 12
ENDMDL
MODEL 5
REMARK minimizedAffinity -9.38567829
REMARK  12 active torsions:
REMARK  status: ('A' for Active; 'I' for Inactive)
REMARK    1  A    between atoms: C2_2  and  C3_3 
REMARK    2  A    between atoms: C2_2  and  C26_31 
REMARK    3  A    between atoms: C3_3  and  C4_4 
REMARK    4  A    between atoms: C4_4  and  C5_5 
REMARK    5  A    between atoms: C5_5  and  C7_7 
REMARK    6  A    between atoms: C8_8  and  O1_9 
REMARK    7  A    between atoms: C9_10  and  O2_11 
REMARK    8  A    between atoms: C20_22  and  O3_23 
REMARK    9  A    between atoms: C23_26  and  O4_27 
REMARK   10  A    between atoms: C25_29  and  O5_30 
REMARK   11  A    between atoms: C26_31  and  C28_33 
REMARK   12  A    between atoms: C28_33  and  O6_34 
ROOT
HETATM    1  C7  UNL     1      -3.267  51.517 -22.279  1.00  0.00     0.029 C 
HETATM    2  C8  UNL     1      -4.688  51.068 -21.781  1.00  0.00     0.152 C 
HETATM    3  C9  UNL     1      -4.534  50.664 -20.292  1.00  0.00     0.155 C 
HETATM    4  C10 UNL     1      -3.108  51.071 -19.944  1.00  0.00     0.060 C 
HETATM    5  C11 UNL     1      -2.301  50.815 -21.261  1.00  0.00    -0.029 C 
HETATM    6  C12 UNL     1      -2.078  49.337 -21.661  1.00  0.00     0.016 C 
HETATM    7  C13 UNL     1      -0.927  51.488 -21.057  1.00  0.00     0.011 C 
HETATM    8  C14 UNL     1      -0.206  50.985 -19.789  1.00  0.00     0.009 C 
HETATM    9  C15 UNL     1      -1.054  51.157 -18.506  1.00  0.00     0.029 C 
HETATM   10  C16 UNL     1      -0.314  50.765 -17.167  1.00  0.00    -0.031 C 
HETATM   11  C17 UNL     1       0.107  49.275 -17.149  1.00  0.00     0.016 C 
HETATM   12  C18 UNL     1       0.976  51.626 -16.994  1.00  0.00     0.012 C 
HETATM   13  C19 UNL     1       1.631  51.494 -15.617  1.00  0.00     0.032 C 
HETATM   14  C20 UNL     1       0.652  51.727 -14.471  1.00  0.00     0.118 C 
HETATM   15  C21 UNL     1      -0.620  50.892 -14.612  1.00  0.00     0.039 C 
HETATM   16  C22 UNL     1      -1.273  51.120 -15.984  1.00  0.00     0.025 C 
HETATM   17  C23 UNL     1      -2.644  50.434 -16.109  1.00  0.00     0.126 C 
HETATM   18  C24 UNL     1      -3.332  50.810 -17.427  1.00  0.00     0.071 C 
HETATM   19  C25 UNL     1      -2.467  50.504 -18.661  1.00  0.00     0.071 C 
ENDROOT
BRANCH   1  20
HETATM   20  C5  UNL     1      -3.047  51.341 -23.811  1.00  0.00    -0.011 C 
HETATM   21  C6  UNL     1      -2.341  50.026 -24.164  1.00  0.00     0.010 C 
BRANCH  20  22
HETATM   22  C4  UNL     1      -2.208  52.524 -24.373  1.00  0.00     0.009 C 
BRANCH  22  23
HETATM   23  C3  UNL     1      -1.265  52.101 -25.514  1.00  0.00     0.034 C 
BRANCH  23  24
HETATM   24  C2  UNL     1       0.227  52.339 -25.305  1.00  0.00    -0.083 C 
HETATM   25  C1  UNL     1       0.762  52.638 -24.106  1.00  0.00     0.015 C 
BRANCH  24  26
HETATM   26  C26 UNL     1       1.069  52.183 -26.582  1.00  0.00     0.033 C 
HETATM   27  C27 UNL     1       0.306  51.635 -27.799  1.00  0.00     0.017 C 
BRANCH  26  28
HETATM   28  C28 UNL     1       2.353  51.354 -26.344  1.00  0.00     0.172 C 
BRANCH  28  29
HETATM   29  O6  UNL     1       3.325  51.523 -27.371  1.00  0.00    -0.400 OA
HETATM   30  H48 UNL     1       3.454  52.476 -27.510  1.00  0.00     0.209 HD
ENDBRANCH  28  29
ENDBRANCH  26  28
ENDBRANCH  24  26
ENDBRANCH  23  24
ENDBRANCH  22  23
ENDBRANCH  20  22
ENDBRANCH   1  20
BRANCH   2  31
HETATM   31  O1  UNL     1      -5.226  49.952 -22.491  1.00  0.00    -0.393 OA
HETATM   32  H13 UNL     1      -5.546  50.269 -23.354  1.00  0.00     0.210 HD
ENDBRANCH   2  31
BRANCH   3  33
HETATM   33  O2  UNL     1      -4.734  49.265 -20.094  1.00  0.00    -0.392 OA
HETATM   34  H15 UNL     1      -5.162  48.962 -20.928  1.00  0.00     0.210 HD
ENDBRANCH   3  33
BRANCH  19  35
HETATM   35  O5  UNL     1      -2.368  49.090 -18.759  1.00  0.00    -0.389 OA
HETATM   36  H41 UNL     1      -3.238  48.770 -19.091  1.00  0.00     0.210 HD
ENDBRANCH  19  35
BRANCH  17  37
HETATM   37  O4  UNL     1      -3.492  50.847 -15.032  1.00  0.00    -0.395 OA
HETATM   38  H38 UNL     1      -3.623  51.808 -15.100  1.00  0.00     0.210 HD
ENDBRANCH  17  37
BRANCH  14  39
HETATM   39  O3  UNL     1       1.304  51.416 -13.245  1.00  0.00    -0.396 OA
HETATM   40  H33 UNL     1       0.650  51.510 -12.532  1.00  0.00     0.210 HD
ENDBRANCH  14  39
TORSDOF 12
ENDMDL
MODEL 6
REMARK minimizedAffinity -9.14197445
REMARK  12 active torsions:
REMARK  status: ('A' for Active; 'I' for Inactive)
REMARK    1  A    between atoms: C2_2  and  C3_3 
REMARK    2  A    between atoms: C2_2  and  C26_31 
REMARK    3  A    between atoms: C3_3  and  C4_4 
REMARK    4  A    between atoms: C4_4  and  C5_5 
REMARK    5  A    between atoms: C5_5  and  C7_7 
REMARK    6  A    between atoms: C8_8  and  O1_9 
REMARK    7  A    between atoms: C9_10  and  O2_11 
REMARK    8  A    between atoms: C20_22  and  O3_23 
REMARK    9  A    between atoms: C23_26  and  O4_27 
REMARK   10  A    between atoms: C25_29  and  O5_30 
REMARK   11  A    between atoms: C26_31  and  C28_33 
REMARK   12  A    between atoms: C28_33  and  O6_34 
ROOT
HETATM    1  C7  UNL     1      -4.512  49.408 -21.737  1.00  0.00     0.029 C 
HETATM    2  C8  UNL     1      -5.752  49.466 -22.700  1.00  0.00     0.152 C 
HETATM    3  C9  UNL     1      -5.254  50.075 -24.036  1.00  0.00     0.155 C 
HETATM    4  C10 UNL     1      -3.742  50.161 -23.862  1.00  0.00     0.060 C 
HETATM    5  C11 UNL     1      -3.546  50.486 -22.344  1.00  0.00    -0.029 C 
HETATM    6  C12 UNL     1      -3.960  51.902 -21.878  1.00  0.00     0.016 C 
HETATM    7  C13 UNL     1      -2.043  50.287 -22.055  1.00  0.00     0.011 C 
HETATM    8  C14 UNL     1      -1.147  51.133 -22.984  1.00  0.00     0.009 C 
HETATM    9  C15 UNL     1      -1.418  50.871 -24.485  1.00  0.00     0.029 C 
HETATM   10  C16 UNL     1      -0.446  51.626 -25.473  1.00  0.00    -0.031 C 
HETATM   11  C17 UNL     1      -0.550  53.165 -25.331  1.00  0.00     0.016 C 
HETATM   12  C18 UNL     1       1.033  51.220 -25.188  1.00  0.00     0.012 C 
HETATM   13  C19 UNL     1       2.027  51.709 -26.245  1.00  0.00     0.032 C 
HETATM   14  C20 UNL     1       1.615  51.334 -27.663  1.00  0.00     0.118 C 
HETATM   15  C21 UNL     1       0.170  51.725 -27.974  1.00  0.00     0.039 C 
HETATM   16  C22 UNL     1      -0.789  51.146 -26.921  1.00  0.00     0.025 C 
HETATM   17  C23 UNL     1      -2.268  51.368 -27.283  1.00  0.00     0.126 C 
HETATM   18  C24 UNL     1      -3.192  50.646 -26.295  1.00  0.00     0.071 C 
HETATM   19  C25 UNL     1      -2.934  51.046 -24.833  1.00  0.00     0.071 C 
ENDROOT
BRANCH   1  20
HETATM   20  C5  UNL     1      -4.882  49.455 -20.225  1.00  0.00    -0.011 C 
HETATM   21  C6  UNL     1      -6.315  49.942 -19.977  1.00  0.00     0.010 C 
BRANCH  20  22
HETATM   22  C4  UNL     1      -3.899  50.388 -19.461  1.00  0.00     0.009 C 
BRANCH  22  23
HETATM   23  C3  UNL     1      -2.919  49.615 -18.558  1.00  0.00     0.034 C 
BRANCH  23  24
HETATM   24  C2  UNL     1      -2.328  50.370 -17.371  1.00  0.00    -0.083 C 
HETATM   25  C1  UNL     1      -3.045  50.703 -16.281  1.00  0.00     0.015 C 
BRANCH  24  26
HETATM   26  C26 UNL     1      -0.832  50.695 -17.521  1.00  0.00     0.033 C 
HETATM   27  C27 UNL     1      -0.284  50.579 -18.953  1.00  0.00     0.017 C 
BRANCH  26  28
HETATM   28  C28 UNL     1       0.049  49.879 -16.547  1.00  0.00     0.172 C 
BRANCH  28  29
HETATM   29  O6  UNL     1      -0.118  48.472 -16.689  1.00  0.00    -0.400 OA
HETATM   30  H48 UNL     1      -0.028  48.251 -17.630  1.00  0.00     0.209 HD
ENDBRANCH  28  29
ENDBRANCH  26  28
ENDBRANCH  24  26
ENDBRANCH  23  24
ENDBRANCH  22  23
ENDBRANCH  20  22
ENDBRANCH   1  20
BRANCH   2  31
HETATM   31  O1  UNL     1      -6.826  50.275 -22.217  1.00  0.00    -0.393 OA
HETATM   32  H13 UNL     1      -7.292  49.774 -21.525  1.00  0.00     0.210 HD
ENDBRANCH   2  31
BRANCH   3  33
HETATM   33  O2  UNL     1      -5.819  51.363 -24.281  1.00  0.00    -0.392 OA
HETATM   34  H15 UNL     1      -6.572  51.419 -23.649  1.00  0.00     0.210 HD
ENDBRANCH   3  33
BRANCH  19  35
HETATM   35  O5  UNL     1      -3.336  52.401 -24.694  1.00  0.00    -0.389 OA
HETATM   36  H41 UNL     1      -4.320  52.402 -24.688  1.00  0.00     0.210 HD
ENDBRANCH  19  35
BRANCH  17  37
HETATM   37  O4  UNL     1      -2.529  50.853 -28.592  1.00  0.00    -0.395 OA
HETATM   38  H38 UNL     1      -2.357  49.896 -28.582  1.00  0.00     0.210 HD
ENDBRANCH  17  37
BRANCH  14  39
HETATM   39  O3  UNL     1       2.497  51.973 -28.578  1.00  0.00    -0.396 OA
HETATM   40  H33 UNL     1       2.185  51.774 -29.477  1.00  0.00     0.210 HD
ENDBRANCH  14  39
TORSDOF 12
ENDMDL
MODEL 7
REMARK minimizedAffinity -9.10442543
REMARK  12 active torsions:
REMARK  status: ('A' for Active; 'I' for Inactive)
REMARK    1  A    between atoms: C2_2  and  C3_3 
REMARK    2  A    between atoms: C2_2  and  C26_31 
REMARK    3  A    between atoms: C3_3  and  C4_4 
REMARK    4  A    between atoms: C4_4  and  C5_5 
REMARK    5  A    between atoms: C5_5  and  C7_7 
REMARK    6  A    between atoms: C8_8  and  O1_9 
REMARK    7  A    between atoms: C9_10  and  O2_11 
REMARK    8  A    between atoms: C20_22  and  O3_23 
REMARK    9  A    between atoms: C23_26  and  O4_27 
REMARK   10  A    between atoms: C25_29  and  O5_30 
REMARK   11  A    between atoms: C26_31  and  C28_33 
REMARK   12  A    between atoms: C28_33  and  O6_34 
ROOT
HETATM    1  C7  UNL     1      -3.121  49.535 -25.324  1.00  0.00     0.029 C 
HETATM    2  C8  UNL     1      -2.385  50.763 -25.972  1.00  0.00     0.152 C 
HETATM    3  C9  UNL     1      -1.720  51.548 -24.812  1.00  0.00     0.155 C 
HETATM    4  C10 UNL     1      -1.928  50.657 -23.594  1.00  0.00     0.060 C 
HETATM    5  C11 UNL     1      -3.324  49.992 -23.837  1.00  0.00    -0.029 C 
HETATM    6  C12 UNL     1      -4.561  50.915 -23.721  1.00  0.00     0.016 C 
HETATM    7  C13 UNL     1      -3.446  48.863 -22.792  1.00  0.00     0.011 C 
HETATM    8  C14 UNL     1      -3.252  49.371 -21.348  1.00  0.00     0.009 C 
HETATM    9  C15 UNL     1      -1.908  50.111 -21.145  1.00  0.00     0.029 C 
HETATM   10  C16 UNL     1      -1.611  50.547 -19.657  1.00  0.00    -0.031 C 
HETATM   11  C17 UNL     1      -2.674  51.535 -19.117  1.00  0.00     0.016 C 
HETATM   12  C18 UNL     1      -1.602  49.298 -18.723  1.00  0.00     0.012 C 
HETATM   13  C19 UNL     1      -1.088  49.583 -17.309  1.00  0.00     0.032 C 
HETATM   14  C20 UNL     1       0.264  50.288 -17.303  1.00  0.00     0.118 C 
HETATM   15  C21 UNL     1       0.284  51.520 -18.207  1.00  0.00     0.039 C 
HETATM   16  C22 UNL     1      -0.173  51.159 -19.630  1.00  0.00     0.025 C 
HETATM   17  C23 UNL     1      -0.007  52.326 -20.618  1.00  0.00     0.126 C 
HETATM   18  C24 UNL     1      -0.325  51.884 -22.052  1.00  0.00     0.071 C 
HETATM   19  C25 UNL     1      -1.724  51.262 -22.190  1.00  0.00     0.071 C 
ENDROOT
BRANCH   1  20
HETATM   20  C5  UNL     1      -4.333  49.014 -26.152  1.00  0.00    -0.011 C 
HETATM   21  C6  UNL     1      -5.257  48.095 -25.343  1.00  0.00     0.010 C 
BRANCH  20  22
HETATM   22  C4  UNL     1      -3.834  48.241 -27.407  1.00  0.00     0.009 C 
BRANCH  22  23
HETATM   23  C3  UNL     1      -4.513  48.709 -28.707  1.00  0.00     0.034 C 
BRANCH  23  24
HETATM   24  C2  UNL     1      -5.584  47.796 -29.297  1.00  0.00    -0.083 C 
HETATM   25  C1  UNL     1      -6.411  47.049 -28.540  1.00  0.00     0.015 C 
BRANCH  24  26
HETATM   26  C26 UNL     1      -5.651  47.823 -30.833  1.00  0.00     0.033 C 
HETATM   27  C27 UNL     1      -7.022  48.202 -31.415  1.00  0.00     0.017 C 
BRANCH  26  28
HETATM   28  C28 UNL     1      -5.150  46.504 -31.468  1.00  0.00     0.172 C 
BRANCH  28  29
HETATM   29  O6  UNL     1      -3.740  46.480 -31.663  1.00  0.00    -0.400 OA
HETATM   30  H48 UNL     1      -3.316  46.737 -30.828  1.00  0.00     0.209 HD
ENDBRANCH  28  29
ENDBRANCH  26  28
ENDBRANCH  24  26
ENDBRANCH  23  24
ENDBRANCH  22  23
ENDBRANCH  20  22
ENDBRANCH   1  20
BRANCH   2  31
HETATM   31  O1  UNL     1      -3.252  51.656 -26.673  1.00  0.00    -0.393 OA
HETATM   32  H13 UNL     1      -3.479  51.247 -27.526  1.00  0.00     0.210 HD
ENDBRANCH   2  31
BRANCH   3  33
HETATM   33  O2  UNL     1      -2.318  52.830 -24.622  1.00  0.00    -0.392 OA
HETATM   34  H15 UNL     1      -2.839  52.978 -25.444  1.00  0.00     0.210 HD
ENDBRANCH   3  33
BRANCH  19  35
HETATM   35  O5  UNL     1      -2.666  52.302 -21.974  1.00  0.00    -0.389 OA
HETATM   36  H41 UNL     1      -2.660  52.860 -22.785  1.00  0.00     0.210 HD
ENDBRANCH  19  35
BRANCH  17  37
HETATM   37  O4  UNL     1       1.343  52.799 -20.588  1.00  0.00    -0.395 OA
HETATM   38  H38 UNL     1       1.926  52.074 -20.871  1.00  0.00     0.210 HD
ENDBRANCH  17  37
BRANCH  14  39
HETATM   39  O3  UNL     1       0.576  50.662 -15.966  1.00  0.00    -0.396 OA
HETATM   40  H33 UNL     1       1.409  51.163 -15.987  1.00  0.00     0.210 HD
ENDBRANCH  14  39
TORSDOF 12
ENDMDL
MODEL 8
REMARK minimizedAffinity -9.09807968
REMARK  12 active torsions:
REMARK  status: ('A' for Active; 'I' for Inactive)
REMARK    1  A    between atoms: C2_2  and  C3_3 
REMARK    2  A    between atoms: C2_2  and  C26_31 
REMARK    3  A    between atoms: C3_3  and  C4_4 
REMARK    4  A    between atoms: C4_4  and  C5_5 
REMARK    5  A    between atoms: C5_5  and  C7_7 
REMARK    6  A    between atoms: C8_8  and  O1_9 
REMARK    7  A    between atoms: C9_10  and  O2_11 
REMARK    8  A    between atoms: C20_22  and  O3_23 
REMARK    9  A    between atoms: C23_26  and  O4_27 
REMARK   10  A    between atoms: C25_29  and  O5_30 
REMARK   11  A    between atoms: C26_31  and  C28_33 
REMARK   12  A    between atoms: C28_33  and  O6_34 
ROOT
HETATM    1  C7  UNL     1       0.000  50.951 -20.691  1.00  0.00     0.029 C 
HETATM    2  C8  UNL     1      -0.241  51.677 -19.318  1.00  0.00     0.152 C 
HETATM    3  C9  UNL     1      -1.559  51.105 -18.735  1.00  0.00     0.155 C 
HETATM    4  C10 UNL     1      -1.914  49.960 -19.675  1.00  0.00     0.060 C 
HETATM    5  C11 UNL     1      -1.436  50.453 -21.082  1.00  0.00    -0.029 C 
HETATM    6  C12 UNL     1      -2.248  51.603 -21.725  1.00  0.00     0.016 C 
HETATM    7  C13 UNL     1      -1.497  49.221 -22.010  1.00  0.00     0.011 C 
HETATM    8  C14 UNL     1      -2.894  48.567 -22.032  1.00  0.00     0.009 C 
HETATM    9  C15 UNL     1      -3.395  48.170 -20.622  1.00  0.00     0.029 C 
HETATM   10  C16 UNL     1      -4.768  47.391 -20.605  1.00  0.00    -0.031 C 
HETATM   11  C17 UNL     1      -5.924  48.235 -21.195  1.00  0.00     0.016 C 
HETATM   12  C18 UNL     1      -4.655  46.082 -21.446  1.00  0.00     0.012 C 
HETATM   13  C19 UNL     1      -5.851  45.139 -21.294  1.00  0.00     0.032 C 
HETATM   14  C20 UNL     1      -6.182  44.833 -19.837  1.00  0.00     0.118 C 
HETATM   15  C21 UNL     1      -6.304  46.099 -18.988  1.00  0.00     0.039 C 
HETATM   16  C22 UNL     1      -5.045  46.970 -19.125  1.00  0.00     0.025 C 
HETATM   17  C23 UNL     1      -5.047  48.168 -18.159  1.00  0.00     0.126 C 
HETATM   18  C24 UNL     1      -3.714  48.922 -18.213  1.00  0.00     0.071 C 
HETATM   19  C25 UNL     1      -3.343  49.381 -19.632  1.00  0.00     0.071 C 
ENDROOT
BRANCH   1  20
HETATM   20  C5  UNL     1       0.841  51.780 -21.707  1.00  0.00    -0.011 C 
HETATM   21  C6  UNL     1       1.493  53.015 -21.073  1.00  0.00     0.010 C 
BRANCH  20  22
HETATM   22  C4  UNL     1      -0.053  52.241 -22.894  1.00  0.00     0.009 C 
BRANCH  22  23
HETATM   23  C3  UNL     1       0.760  52.588 -24.155  1.00  0.00     0.034 C 
BRANCH  23  24
HETATM   24  C2  UNL     1       0.317  51.941 -25.464  1.00  0.00    -0.083 C 
HETATM   25  C1  UNL     1      -0.548  50.910 -25.518  1.00  0.00     0.015 C 
BRANCH  24  26
HETATM   26  C26 UNL     1       0.927  52.589 -26.718  1.00  0.00     0.033 C 
HETATM   27  C27 UNL     1      -0.075  53.331 -27.617  1.00  0.00     0.017 C 
BRANCH  26  28
HETATM   28  C28 UNL     1       1.751  51.585 -27.558  1.00  0.00     0.172 C 
BRANCH  28  29
HETATM   29  O6  UNL     1       3.116  51.511 -27.158  1.00  0.00    -0.400 OA
HETATM   30  H48 UNL     1       3.141  51.382 -26.195  1.00  0.00     0.209 HD
ENDBRANCH  28  29
ENDBRANCH  26  28
ENDBRANCH  24  26
ENDBRANCH  23  24
ENDBRANCH  22  23
ENDBRANCH  20  22
ENDBRANCH   1  20
BRANCH   2  31
HETATM   31  O1  UNL     1      -0.384  53.094 -19.428  1.00  0.00    -0.393 OA
HETATM   32  H13 UNL     1       0.502  53.476 -19.560  1.00  0.00     0.210 HD
ENDBRANCH   2  31
BRANCH   3  33
HETATM   33  O2  UNL     1      -2.598  52.083 -18.699  1.00  0.00    -0.392 OA
HETATM   34  H15 UNL     1      -2.127  52.939 -18.828  1.00  0.00     0.210 HD
ENDBRANCH   3  33
BRANCH  19  35
HETATM   35  O5  UNL     1      -4.277  50.384 -20.004  1.00  0.00    -0.389 OA
HETATM   36  H41 UNL     1      -4.031  51.196 -19.505  1.00  0.00     0.210 HD
ENDBRANCH  19  35
BRANCH  17  37
HETATM   37  O4  UNL     1      -5.244  47.709 -16.818  1.00  0.00    -0.395 OA
HETATM   38  H38 UNL     1      -4.501  47.128 -16.583  1.00  0.00     0.210 HD
ENDBRANCH  17  37
BRANCH  14  39
HETATM   39  O3  UNL     1      -7.400  44.099 -19.792  1.00  0.00    -0.396 OA
HETATM   40  H33 UNL     1      -7.628  43.965 -18.856  1.00  0.00     0.210 HD
ENDBRANCH  14  39
TORSDOF 12
ENDMDL
MODEL 9
REMARK minimizedAffinity -9.09717846
REMARK  12 active torsions:
REMARK  status: ('A' for Active; 'I' for Inactive)
REMARK    1  A    between atoms: C2_2  and  C3_3 
REMARK    2  A    between atoms: C2_2  and  C26_31 
REMARK    3  A    between atoms: C3_3  and  C4_4 
REMARK    4  A    between atoms: C4_4  and  C5_5 
REMARK    5  A    between atoms: C5_5  and  C7_7 
REMARK    6  A    between atoms: C8_8  and  O1_9 
REMARK    7  A    between atoms: C9_10  and  O2_11 
REMARK    8  A    between atoms: C20_22  and  O3_23 
REMARK    9  A    between atoms: C23_26  and  O4_27 
REMARK   10  A    between atoms: C25_29  and  O5_30 
REMARK   11  A    between atoms: C26_31  and  C28_33 
REMARK   12  A    between atoms: C28_33  and  O6_34 
ROOT
HETATM    1  C7  UNL     1      -0.966  50.259 -21.754  1.00  0.00     0.029 C 
HETATM    2  C8  UNL     1      -1.119  49.756 -20.272  1.00  0.00     0.152 C 
HETATM    3  C9  UNL     1      -2.502  49.062 -20.176  1.00  0.00     0.155 C 
HETATM    4  C10 UNL     1      -2.997  49.020 -21.617  1.00  0.00     0.060 C 
HETATM    5  C11 UNL     1      -2.452  50.344 -22.251  1.00  0.00    -0.029 C 
HETATM    6  C12 UNL     1      -3.105  51.662 -21.771  1.00  0.00     0.016 C 
HETATM    7  C13 UNL     1      -2.666  50.208 -23.773  1.00  0.00     0.011 C 
HETATM    8  C14 UNL     1      -4.135  49.913 -24.139  1.00  0.00     0.009 C 
HETATM    9  C15 UNL     1      -4.692  48.654 -23.430  1.00  0.00     0.029 C 
HETATM   10  C16 UNL     1      -6.154  48.245 -23.862  1.00  0.00    -0.031 C 
HETATM   11  C17 UNL     1      -7.188  49.351 -23.539  1.00  0.00     0.016 C 
HETATM   12  C18 UNL     1      -6.205  47.977 -25.399  1.00  0.00     0.012 C 
HETATM   13  C19 UNL     1      -7.514  47.343 -25.875  1.00  0.00     0.032 C 
HETATM   14  C20 UNL     1      -7.890  46.095 -25.084  1.00  0.00     0.118 C 
HETATM   15  C21 UNL     1      -7.852  46.328 -23.574  1.00  0.00     0.039 C 
HETATM   16  C22 UNL     1      -6.491  46.897 -23.144  1.00  0.00     0.025 C 
HETATM   17  C23 UNL     1      -6.344  46.989 -21.616  1.00  0.00     0.126 C 
HETATM   18  C24 UNL     1      -4.924  47.412 -21.222  1.00  0.00     0.071 C 
HETATM   19  C25 UNL     1      -4.489  48.732 -21.880  1.00  0.00     0.071 C 
ENDROOT
BRANCH   1  20
HETATM   20  C5  UNL     1      -0.019  51.485 -21.911  1.00  0.00    -0.011 C 
HETATM   21  C6  UNL     1      -0.023  52.403 -20.683  1.00  0.00     0.010 C 
BRANCH  20  22
HETATM   22  C4  UNL     1      -0.426  52.321 -23.159  1.00  0.00     0.009 C 
BRANCH  22  23
HETATM   23  C3  UNL     1       0.575  52.187 -24.321  1.00  0.00     0.034 C 
BRANCH  23  24
HETATM   24  C2  UNL     1       0.019  52.328 -25.735  1.00  0.00    -0.083 C 
HETATM   25  C1  UNL     1      -1.288  52.524 -25.994  1.00  0.00     0.015 C 
BRANCH  24  26
HETATM   26  C26 UNL     1       1.088  52.250 -26.837  1.00  0.00     0.033 C 
HETATM   27  C27 UNL     1       0.576  51.768 -28.204  1.00  0.00     0.017 C 
BRANCH  26  28
HETATM   28  C28 UNL     1       2.319  51.418 -26.407  1.00  0.00     0.172 C 
BRANCH  28  29
HETATM   29  O6  UNL     1       3.381  51.461 -27.355  1.00  0.00    -0.400 OA
HETATM   30  H48 UNL     1       3.552  52.392 -27.573  1.00  0.00     0.209 HD
ENDBRANCH  28  29
ENDBRANCH  26  28
ENDBRANCH  24  26
ENDBRANCH  23  24
ENDBRANCH  22  23
ENDBRANCH  20  22
ENDBRANCH   1  20
BRANCH   2  31
HETATM   31  O1  UNL     1      -1.077  50.799 -19.298  1.00  0.00    -0.393 OA
HETATM   32  H13 UNL     1      -0.149  51.071 -19.188  1.00  0.00     0.210 HD
ENDBRANCH   2  31
BRANCH   3  33
HETATM   33  O2  UNL     1      -3.407  49.786 -19.342  1.00  0.00    -0.392 OA
HETATM   34  H15 UNL     1      -2.829  50.412 -18.847  1.00  0.00     0.210 HD
ENDBRANCH   3  33
BRANCH  19  35
HETATM   35  O5  UNL     1      -5.284  49.763 -21.313  1.00  0.00    -0.389 OA
HETATM   36  H41 UNL     1      -4.938  49.917 -20.404  1.00  0.00     0.210 HD
ENDBRANCH  19  35
BRANCH  17  37
HETATM   37  O4  UNL     1      -6.606  45.711 -21.026  1.00  0.00    -0.395 OA
HETATM   38  H38 UNL     1      -5.944  45.081 -21.360  1.00  0.00     0.210 HD
ENDBRANCH  17  37
BRANCH  14  39
HETATM   39  O3  UNL     1      -9.192  45.680 -25.479  1.00  0.00    -0.396 OA
HETATM   40  H33 UNL     1      -9.441  44.922 -24.923  1.00  0.00     0.210 HD
ENDBRANCH  14  39
TORSDOF 12
ENDMDL
