MODEL 1
REMARK minimizedAffinity -9.73026466
REMARK CNNscore 0.481904685
REMARK CNNaffinity 7.19760084
REMARK  8 active torsions:
REMARK  status: ('A' for Active; 'I' for Inactive)
REMARK    1  A    between atoms: C4_4  and  C5_5 
REMARK    2  A    between atoms: C5_5  and  C6_6 
REMARK    3  A    between atoms: C12_14  and  O3_15 
REMARK    4  A    between atoms: C20_24  and  O5_25 
REMARK    5  A    between atoms: C27_33  and  C28_34 
REMARK    6  A    between atoms: C28_34  and  C29_35 
REMARK    7  A    between atoms: C30_36  and  C32_38 
REMARK    8  A    between atoms: C32_38  and  O8_40 
ROOT
HETATM    1  C6  UNL     1      -4.659   6.981  13.219  1.00  0.00     0.014 A 
HETATM    2  C7  UNL     1      -3.432   6.379  12.888  1.00  0.00     0.096 A 
HETATM    3  O1  UNL     1      -2.320   7.185  12.849  1.00  0.00    -0.333 OA
HETATM    4  C8  UNL     1      -1.041   6.533  12.838  1.00  0.00     0.126 C 
HETATM    5  C9  UNL     1      -1.039   5.440  11.754  1.00  0.00     0.129 C 
HETATM    6  C10 UNL     1      -2.104   4.443  12.149  1.00  0.00     0.174 C 
HETATM    7  O2  UNL     1      -1.974   3.225  12.083  1.00  0.00    -0.292 OA
HETATM    8  C11 UNL     1      -3.383   5.012  12.610  1.00  0.00     0.078 A 
HETATM    9  C12 UNL     1      -4.526   4.212  12.739  1.00  0.00     0.095 A 
HETATM   10  C13 UNL     1      -5.749   4.787  13.111  1.00  0.00     0.032 A 
HETATM   11  C14 UNL     1      -5.811   6.169  13.338  1.00  0.00     0.092 A 
HETATM   12  O4  UNL     1      -6.965   6.807  13.710  1.00  0.00    -0.335 OA
HETATM   13  C15 UNL     1      -8.214   6.090  13.725  1.00  0.00     0.078 C 
HETATM   14  C16 UNL     1      -9.079   6.675  12.602  1.00  0.00     0.051 C 
HETATM   15  C17 UNL     1      -8.854   6.392  15.085  1.00  0.00     0.051 C 
HETATM   16  C18 UNL     1      -8.104   4.596  13.548  1.00  0.00     0.012 C 
HETATM   17  C19 UNL     1      -6.954   3.980  13.263  1.00  0.00     0.016 C 
HETATM   18  C20 UNL     1       0.341   4.786  11.610  1.00  0.00     0.144 C 
HETATM   19  C21 UNL     1       1.254   5.262  12.738  1.00  0.00     0.089 C 
HETATM   20  C22 UNL     1       0.551   5.042  14.084  1.00  0.00     0.025 C 
HETATM   21  C23 UNL     1      -0.615   6.055  14.260  1.00  0.00     0.060 C 
HETATM   22  C24 UNL     1      -0.199   7.394  14.954  1.00  0.00     0.062 C 
HETATM   23  C25 UNL     1      -1.374   8.063  15.679  1.00  0.00     0.046 C 
HETATM   24  C26 UNL     1       0.959   7.298  15.954  1.00  0.00     0.046 C 
HETATM   25  O6  UNL     1       0.218   8.273  13.890  1.00  0.00    -0.358 OA
HETATM   26  C27 UNL     1       0.111   7.563  12.633  1.00  0.00     0.158 C 
HETATM   27  C33 UNL     1       1.426   6.754  12.523  1.00  0.00     0.171 C 
HETATM   28  O9  UNL     1       2.535   7.240  12.313  1.00  0.00    -0.294 OA
ENDROOT
BRANCH  26  29
HETATM   29  C28 UNL     1       0.021   8.547  11.456  1.00  0.00     0.077 C 
BRANCH  29  30
HETATM   30  C29 UNL     1       1.117   8.448  10.422  1.00  0.00    -0.010 C 
HETATM   31  C30 UNL     1       0.985   8.451   9.080  1.00  0.00     0.008 C 
HETATM   32  C31 UNL     1       2.159   8.347   8.155  1.00  0.00     0.055 C 
BRANCH  31  33
HETATM   33  C32 UNL     1      -0.340   8.565   8.433  1.00  0.00     0.171 C 
HETATM   34  O7  UNL     1      -0.711   8.014   7.414  1.00  0.00    -0.646 OA
BRANCH  33  35
HETATM   35  O8  UNL     1      -1.159   9.365   9.137  1.00  0.00    -0.773 OA
HETATM   36  H38 UNL     1      -1.967   9.384   8.583  1.00  0.00     0.167 HD
ENDBRANCH  33  35
ENDBRANCH  31  33
ENDBRANCH  29  30
ENDBRANCH  26  29
BRANCH  18  37
HETATM   37  O5  UNL     1       0.879   5.148  10.340  1.00  0.00    -0.394 OA
HETATM   38  H21 UNL     1       1.787   4.795  10.273  1.00  0.00     0.210 HD
ENDBRANCH  18  37
BRANCH   1  39
HETATM   39  C5  UNL     1      -4.776   8.485  13.405  1.00  0.00     0.072 C 
BRANCH  39  40
HETATM   40  C4  UNL     1      -4.718   8.879  14.860  1.00  0.00    -0.020 C 
HETATM   41  C2  UNL     1      -4.100   9.939  15.415  1.00  0.00    -0.091 C 
HETATM   42  C1  UNL     1      -3.312  10.979  14.668  1.00  0.00     0.042 C 
HETATM   43  C3  UNL     1      -4.157  10.163  16.905  1.00  0.00     0.042 C 
ENDBRANCH  39  40
ENDBRANCH   1  39
BRANCH   9  44
HETATM   44  O3  UNL     1      -4.491   2.859  12.498  1.00  0.00    -0.359 OA
HETATM   45  H11 UNL     1      -3.565   2.595  12.296  1.00  0.00     0.217 HD
ENDBRANCH   9  44
TORSDOF 8
ENDMDL
MODEL 2
REMARK minimizedAffinity -8.23517704
REMARK CNNscore 0.399236381
REMARK CNNaffinity 6.66812277
REMARK  8 active torsions:
REMARK  status: ('A' for Active; 'I' for Inactive)
REMARK    1  A    between atoms: C4_4  and  C5_5 
REMARK    2  A    between atoms: C5_5  and  C6_6 
REMARK    3  A    between atoms: C12_14  and  O3_15 
REMARK    4  A    between atoms: C20_24  and  O5_25 
REMARK    5  A    between atoms: C27_33  and  C28_34 
REMARK    6  A    between atoms: C28_34  and  C29_35 
REMARK    7  A    between atoms: C30_36  and  C32_38 
REMARK    8  A    between atoms: C32_38  and  O8_40 
ROOT
HETATM    1  C6  UNL     1      -1.091   8.911  14.117  1.00  0.00     0.014 A 
HETATM    2  C7  UNL     1      -0.480   9.592  15.185  1.00  0.00     0.096 A 
HETATM    3  O1  UNL     1      -0.932  10.857  15.473  1.00  0.00    -0.333 OA
HETATM    4  C8  UNL     1      -0.551  11.415  16.741  1.00  0.00     0.126 C 
HETATM    5  C9  UNL     1       0.969  11.253  16.928  1.00  0.00     0.129 C 
HETATM    6  C10 UNL     1       1.244   9.767  16.933  1.00  0.00     0.174 C 
HETATM    7  O2  UNL     1       2.013   9.206  17.707  1.00  0.00    -0.292 OA
HETATM    8  C11 UNL     1       0.548   8.977  15.902  1.00  0.00     0.078 A 
HETATM    9  C12 UNL     1       0.924   7.656  15.626  1.00  0.00     0.095 A 
HETATM   10  C13 UNL     1       0.295   6.946  14.594  1.00  0.00     0.032 A 
HETATM   11  C14 UNL     1      -0.700   7.581  13.839  1.00  0.00     0.092 A 
HETATM   12  O4  UNL     1      -1.366   6.956  12.818  1.00  0.00    -0.335 OA
HETATM   13  C15 UNL     1      -0.946   5.653  12.373  1.00  0.00     0.078 C 
HETATM   14  C16 UNL     1      -0.374   5.825  10.959  1.00  0.00     0.051 C 
HETATM   15  C17 UNL     1      -2.218   4.798  12.317  1.00  0.00     0.051 C 
HETATM   16  C18 UNL     1       0.074   4.968  13.247  1.00  0.00     0.012 C 
HETATM   17  C19 UNL     1       0.657   5.567  14.289  1.00  0.00     0.016 C 
HETATM   18  C20 UNL     1       1.458  11.936  18.211  1.00  0.00     0.144 C 
HETATM   19  C21 UNL     1       0.257  12.391  19.040  1.00  0.00     0.089 C 
HETATM   20  C22 UNL     1      -0.696  11.205  19.239  1.00  0.00     0.025 C 
HETATM   21  C23 UNL     1      -1.424  10.863  17.909  1.00  0.00     0.060 C 
HETATM   22  C24 UNL     1      -2.775  11.623  17.707  1.00  0.00     0.062 C 
HETATM   23  C25 UNL     1      -3.746  10.854  16.800  1.00  0.00     0.046 C 
HETATM   24  C26 UNL     1      -3.538  11.985  18.986  1.00  0.00     0.046 C 
HETATM   25  O6  UNL     1      -2.436  12.855  17.040  1.00  0.00    -0.358 OA
HETATM   26  C27 UNL     1      -1.001  12.902  16.856  1.00  0.00     0.158 C 
HETATM   27  C33 UNL     1      -0.448  13.439  18.199  1.00  0.00     0.171 C 
HETATM   28  O9  UNL     1      -0.572  14.593  18.600  1.00  0.00    -0.294 OA
ENDROOT
BRANCH  26  29
HETATM   29  C28 UNL     1      -0.626  13.876  15.728  1.00  0.00     0.077 C 
BRANCH  29  30
HETATM   30  C29 UNL     1      -1.303  15.225  15.762  1.00  0.00    -0.010 C 
HETATM   31  C30 UNL     1      -2.127  15.756  14.836  1.00  0.00     0.008 C 
HETATM   32  C31 UNL     1      -2.741  17.114  14.987  1.00  0.00     0.055 C 
BRANCH  31  33
HETATM   33  C32 UNL     1      -2.484  15.019  13.604  1.00  0.00     0.171 C 
HETATM   34  O7  UNL     1      -1.756  14.757  12.666  1.00  0.00    -0.646 OA
BRANCH  33  35
HETATM   35  O8  UNL     1      -3.766  14.615  13.633  1.00  0.00    -0.773 OA
HETATM   36  H38 UNL     1      -3.874  14.189  12.758  1.00  0.00     0.167 HD
ENDBRANCH  33  35
ENDBRANCH  31  33
ENDBRANCH  29  30
ENDBRANCH  26  29
BRANCH  18  37
HETATM   37  O5  UNL     1       2.268  13.052  17.845  1.00  0.00    -0.394 OA
HETATM   38  H21 UNL     1       2.522  13.533  18.656  1.00  0.00     0.210 HD
ENDBRANCH  18  37
BRANCH   1  39
HETATM   39  C5  UNL     1      -2.125   9.592  13.236  1.00  0.00     0.072 C 
BRANCH  39  40
HETATM   40  C4  UNL     1      -3.290   8.685  12.930  1.00  0.00    -0.020 C 
HETATM   41  C2  UNL     1      -4.131   8.083  13.792  1.00  0.00    -0.091 C 
HETATM   42  C1  UNL     1      -4.072   8.198  15.291  1.00  0.00     0.042 C 
HETATM   43  C3  UNL     1      -5.246   7.204  13.285  1.00  0.00     0.042 C 
ENDBRANCH  39  40
ENDBRANCH   1  39
BRANCH   9  44
HETATM   44  O3  UNL     1       1.914   7.023  16.341  1.00  0.00    -0.359 OA
HETATM   45  H11 UNL     1       2.225   7.624  17.055  1.00  0.00     0.217 HD
ENDBRANCH   9  44
TORSDOF 8
ENDMDL
MODEL 3
REMARK minimizedAffinity -6.88211203
REMARK CNNscore 0.38697359
REMARK CNNaffinity 6.11448431
REMARK  8 active torsions:
REMARK  status: ('A' for Active; 'I' for Inactive)
REMARK    1  A    between atoms: C4_4  and  C5_5 
REMARK    2  A    between atoms: C5_5  and  C6_6 
REMARK    3  A    between atoms: C12_14  and  O3_15 
REMARK    4  A    between atoms: C20_24  and  O5_25 
REMARK    5  A    between atoms: C27_33  and  C28_34 
REMARK    6  A    between atoms: C28_34  and  C29_35 
REMARK    7  A    between atoms: C30_36  and  C32_38 
REMARK    8  A    between atoms: C32_38  and  O8_40 
ROOT
HETATM    1  C6  UNL     1      -7.642 -10.701   6.916  1.00  0.00     0.014 A 
HETATM    2  C7  UNL     1      -7.419 -10.300   8.246  1.00  0.00     0.096 A 
HETATM    3  O1  UNL     1      -8.521 -10.092   9.039  1.00  0.00    -0.333 OA
HETATM    4  C8  UNL     1      -8.300 -10.006  10.456  1.00  0.00     0.126 C 
HETATM    5  C9  UNL     1      -7.155  -9.015  10.731  1.00  0.00     0.129 C 
HETATM    6  C10 UNL     1      -5.924  -9.587  10.066  1.00  0.00     0.174 C 
HETATM    7  O2  UNL     1      -4.806  -9.601  10.572  1.00  0.00    -0.292 OA
HETATM    8  C11 UNL     1      -6.113 -10.124   8.708  1.00  0.00     0.078 A 
HETATM    9  C12 UNL     1      -5.016 -10.424   7.889  1.00  0.00     0.095 A 
HETATM   10  C13 UNL     1      -5.219 -10.868   6.575  1.00  0.00     0.032 A 
HETATM   11  C14 UNL     1      -6.529 -10.993   6.093  1.00  0.00     0.092 A 
HETATM   12  O4  UNL     1      -6.813 -11.425   4.825  1.00  0.00    -0.335 OA
HETATM   13  C15 UNL     1      -5.750 -11.616   3.872  1.00  0.00     0.078 C 
HETATM   14  C16 UNL     1      -5.919 -10.541   2.791  1.00  0.00     0.051 C 
HETATM   15  C17 UNL     1      -5.977 -13.005   3.263  1.00  0.00     0.051 C 
HETATM   16  C18 UNL     1      -4.354 -11.545   4.438  1.00  0.00     0.012 C 
HETATM   17  C19 UNL     1      -4.098 -11.197   5.702  1.00  0.00     0.016 C 
HETATM   18  C20 UNL     1      -6.950  -8.788  12.233  1.00  0.00     0.144 C 
HETATM   19  C21 UNL     1      -7.800  -9.782  13.023  1.00  0.00     0.089 C 
HETATM   20  C22 UNL     1      -7.513 -11.203  12.519  1.00  0.00     0.025 C 
HETATM   21  C23 UNL     1      -8.127 -11.414  11.107  1.00  0.00     0.060 C 
HETATM   22  C24 UNL     1      -9.592 -11.959  11.122  1.00  0.00     0.062 C 
HETATM   23  C25 UNL     1      -9.936 -12.741   9.847  1.00  0.00     0.046 C 
HETATM   24  C26 UNL     1      -9.964 -12.846  12.315  1.00  0.00     0.046 C 
HETATM   25  O6  UNL     1     -10.443 -10.795  11.165  1.00  0.00    -0.358 OA
HETATM   26  C27 UNL     1      -9.609  -9.613  11.204  1.00  0.00     0.158 C 
HETATM   27  C33 UNL     1      -9.241  -9.439  12.697  1.00  0.00     0.171 C 
HETATM   28  O9  UNL     1     -10.022  -9.085  13.577  1.00  0.00    -0.294 OA
ENDROOT
BRANCH  26  29
HETATM   29  C28 UNL     1     -10.389  -8.378  10.726  1.00  0.00     0.077 C 
BRANCH  29  30
HETATM   30  C29 UNL     1     -11.758  -8.641  10.144  1.00  0.00    -0.010 C 
HETATM   31  C30 UNL     1     -12.186  -8.371   8.894  1.00  0.00     0.008 C 
HETATM   32  C31 UNL     1     -13.577  -8.682   8.434  1.00  0.00     0.055 C 
BRANCH  31  33
HETATM   33  C32 UNL     1     -11.297  -7.751   7.889  1.00  0.00     0.171 C 
HETATM   34  O7  UNL     1     -11.616  -7.282   6.813  1.00  0.00    -0.646 OA
BRANCH  33  35
HETATM   35  O8  UNL     1     -10.021  -7.728   8.314  1.00  0.00    -0.773 OA
HETATM   36  H38 UNL     1      -9.549  -7.340   7.548  1.00  0.00     0.167 HD
ENDBRANCH  33  35
ENDBRANCH  31  33
ENDBRANCH  29  30
ENDBRANCH  26  29
BRANCH  18  37
HETATM   37  O5  UNL     1      -7.328  -7.447  12.542  1.00  0.00    -0.394 OA
HETATM   38  H21 UNL     1      -7.269  -7.321  13.508  1.00  0.00     0.210 HD
ENDBRANCH  18  37
BRANCH   1  39
HETATM   39  C5  UNL     1      -9.045 -10.782   6.341  1.00  0.00     0.072 C 
BRANCH  39  40
HETATM   40  C4  UNL     1      -9.353  -9.614   5.438  1.00  0.00    -0.020 C 
HETATM   41  C2  UNL     1      -9.763  -9.634   4.155  1.00  0.00    -0.091 C 
HETATM   42  C1  UNL     1     -10.003 -10.872   3.336  1.00  0.00     0.042 C 
HETATM   43  C3  UNL     1     -10.018  -8.347   3.414  1.00  0.00     0.042 C 
ENDBRANCH  39  40
ENDBRANCH   1  39
BRANCH   9  44
HETATM   44  O3  UNL     1      -3.723 -10.285   8.336  1.00  0.00    -0.359 OA
HETATM   45  H11 UNL     1      -3.740 -10.015   9.281  1.00  0.00     0.217 HD
ENDBRANCH   9  44
TORSDOF 8
ENDMDL
MODEL 4
REMARK minimizedAffinity -7.22074318
REMARK CNNscore 0.370120078
REMARK CNNaffinity 6.43220186
REMARK  8 active torsions:
REMARK  status: ('A' for Active; 'I' for Inactive)
REMARK    1  A    between atoms: C4_4  and  C5_5 
REMARK    2  A    between atoms: C5_5  and  C6_6 
REMARK    3  A    between atoms: C12_14  and  O3_15 
REMARK    4  A    between atoms: C20_24  and  O5_25 
REMARK    5  A    between atoms: C27_33  and  C28_34 
REMARK    6  A    between atoms: C28_34  and  C29_35 
REMARK    7  A    between atoms: C30_36  and  C32_38 
REMARK    8  A    between atoms: C32_38  and  O8_40 
ROOT
HETATM    1  C6  UNL     1       7.099  12.422  19.127  1.00  0.00     0.014 A 
HETATM    2  C7  UNL     1       8.498  12.372  18.993  1.00  0.00     0.096 A 
HETATM    3  O1  UNL     1       9.019  12.515  17.730  1.00  0.00    -0.333 OA
HETATM    4  C8  UNL     1      10.425  12.791  17.631  1.00  0.00     0.126 C 
HETATM    5  C9  UNL     1      11.201  11.786  18.501  1.00  0.00     0.129 C 
HETATM    6  C10 UNL     1      10.747  12.011  19.925  1.00  0.00     0.174 C 
HETATM    7  O2  UNL     1      11.495  12.033  20.896  1.00  0.00    -0.292 OA
HETATM    8  C11 UNL     1       9.297  12.179  20.121  1.00  0.00     0.078 A 
HETATM    9  C12 UNL     1       8.728  12.117  21.400  1.00  0.00     0.095 A 
HETATM   10  C13 UNL     1       7.338  12.210  21.558  1.00  0.00     0.032 A 
HETATM   11  C14 UNL     1       6.531  12.350  20.420  1.00  0.00     0.092 A 
HETATM   12  O4  UNL     1       5.167  12.452  20.489  1.00  0.00    -0.335 OA
HETATM   13  C15 UNL     1       4.490  12.254  21.744  1.00  0.00     0.078 C 
HETATM   14  C16 UNL     1       3.686  10.953  21.620  1.00  0.00     0.051 C 
HETATM   15  C17 UNL     1       3.533  13.443  21.896  1.00  0.00     0.051 C 
HETATM   16  C18 UNL     1       5.384  12.178  22.956  1.00  0.00     0.012 C 
HETATM   17  C19 UNL     1       6.717  12.159  22.876  1.00  0.00     0.016 C 
HETATM   18  C20 UNL     1      12.718  11.953  18.344  1.00  0.00     0.144 C 
HETATM   19  C21 UNL     1      13.014  13.214  17.535  1.00  0.00     0.089 C 
HETATM   20  C22 UNL     1      12.276  14.403  18.166  1.00  0.00     0.025 C 
HETATM   21  C23 UNL     1      10.747  14.292  17.907  1.00  0.00     0.060 C 
HETATM   22  C24 UNL     1      10.270  14.986  16.590  1.00  0.00     0.062 C 
HETATM   23  C25 UNL     1       8.803  15.429  16.663  1.00  0.00     0.046 C 
HETATM   24  C26 UNL     1      11.090  16.200  16.138  1.00  0.00     0.046 C 
HETATM   25  O6  UNL     1      10.375  13.984  15.559  1.00  0.00    -0.358 OA
HETATM   26  C27 UNL     1      10.898  12.769  16.146  1.00  0.00     0.158 C 
HETATM   27  C33 UNL     1      12.433  12.963  16.157  1.00  0.00     0.171 C 
HETATM   28  O9  UNL     1      13.150  12.954  15.160  1.00  0.00    -0.294 OA
ENDROOT
BRANCH  26  29
HETATM   29  C28 UNL     1      10.547  11.549  15.279  1.00  0.00     0.077 C 
BRANCH  29  30
HETATM   30  C29 UNL     1      10.019  10.340  16.015  1.00  0.00    -0.010 C 
HETATM   31  C30 UNL     1       9.756   9.119  15.508  1.00  0.00     0.008 C 
HETATM   32  C31 UNL     1       9.232   7.994  16.347  1.00  0.00     0.055 C 
BRANCH  31  33
HETATM   33  C32 UNL     1       9.979   8.809  14.079  1.00  0.00     0.171 C 
HETATM   34  O7  UNL     1      10.931   8.231  13.591  1.00  0.00    -0.646 OA
BRANCH  33  35
HETATM   35  O8  UNL     1       8.948   9.228  13.323  1.00  0.00    -0.773 OA
HETATM   36  H38 UNL     1       9.243   9.002  12.417  1.00  0.00     0.167 HD
ENDBRANCH  33  35
ENDBRANCH  31  33
ENDBRANCH  29  30
ENDBRANCH  26  29
BRANCH  18  37
HETATM   37  O5  UNL     1      13.231  10.798  17.681  1.00  0.00    -0.394 OA
HETATM   38  H21 UNL     1      14.183  10.932  17.514  1.00  0.00     0.210 HD
ENDBRANCH  18  37
BRANCH   1  39
HETATM   39  C5  UNL     1       6.192  12.505  17.911  1.00  0.00     0.072 C 
BRANCH  39  40
HETATM   40  C4  UNL     1       6.035  11.167  17.231  1.00  0.00    -0.020 C 
HETATM   41  C2  UNL     1       6.282  10.847  15.947  1.00  0.00    -0.091 C 
HETATM   42  C1  UNL     1       6.781  11.796  14.892  1.00  0.00     0.042 C 
HETATM   43  C3  UNL     1       6.059   9.441  15.453  1.00  0.00     0.042 C 
ENDBRANCH  39  40
ENDBRANCH   1  39
BRANCH   9  44
HETATM   44  O3  UNL     1       9.500  11.957  22.527  1.00  0.00    -0.359 OA
HETATM   45  H11 UNL     1      10.448  11.956  22.265  1.00  0.00     0.217 HD
ENDBRANCH   9  44
TORSDOF 8
ENDMDL
MODEL 5
REMARK minimizedAffinity -6.47530937
REMARK CNNscore 0.326002896
REMARK CNNaffinity 5.97314453
REMARK  8 active torsions:
REMARK  status: ('A' for Active; 'I' for Inactive)
REMARK    1  A    between atoms: C4_4  and  C5_5 
REMARK    2  A    between atoms: C5_5  and  C6_6 
REMARK    3  A    between atoms: C12_14  and  O3_15 
REMARK    4  A    between atoms: C20_24  and  O5_25 
REMARK    5  A    between atoms: C27_33  and  C28_34 
REMARK    6  A    between atoms: C28_34  and  C29_35 
REMARK    7  A    between atoms: C30_36  and  C32_38 
REMARK    8  A    between atoms: C32_38  and  O8_40 
ROOT
HETATM    1  C6  UNL     1     -14.112   5.604  25.521  1.00  0.00     0.014 A 
HETATM    2  C7  UNL     1     -14.208   6.333  24.322  1.00  0.00     0.096 A 
HETATM    3  O1  UNL     1     -14.213   7.703  24.412  1.00  0.00    -0.333 OA
HETATM    4  C8  UNL     1     -13.981   8.439  23.200  1.00  0.00     0.126 C 
HETATM    5  C9  UNL     1     -14.905   7.897  22.094  1.00  0.00     0.129 C 
HETATM    6  C10 UNL     1     -14.520   6.451  21.883  1.00  0.00     0.174 C 
HETATM    7  O2  UNL     1     -14.411   5.915  20.785  1.00  0.00    -0.292 OA
HETATM    8  C11 UNL     1     -14.298   5.656  23.104  1.00  0.00     0.078 A 
HETATM    9  C12 UNL     1     -14.210   4.259  23.051  1.00  0.00     0.095 A 
HETATM   10  C13 UNL     1     -14.069   3.518  24.233  1.00  0.00     0.032 A 
HETATM   11  C14 UNL     1     -14.033   4.193  25.461  1.00  0.00     0.092 A 
HETATM   12  O4  UNL     1     -13.892   3.543  26.658  1.00  0.00    -0.335 OA
HETATM   13  C15 UNL     1     -13.939   2.105  26.710  1.00  0.00     0.078 C 
HETATM   14  C16 UNL     1     -15.227   1.726  27.452  1.00  0.00     0.051 C 
HETATM   15  C17 UNL     1     -12.719   1.675  27.534  1.00  0.00     0.051 C 
HETATM   16  C18 UNL     1     -13.906   1.409  25.373  1.00  0.00     0.012 C 
HETATM   17  C19 UNL     1     -13.965   2.063  24.210  1.00  0.00     0.016 C 
HETATM   18  C20 UNL     1     -14.791   8.720  20.806  1.00  0.00     0.144 C 
HETATM   19  C21 UNL     1     -13.630   9.706  20.927  1.00  0.00     0.089 C 
HETATM   20  C22 UNL     1     -12.365   8.945  21.345  1.00  0.00     0.025 C 
HETATM   21  C23 UNL     1     -12.467   8.492  22.828  1.00  0.00     0.060 C 
HETATM   22  C24 UNL     1     -11.906   9.531  23.853  1.00  0.00     0.062 C 
HETATM   23  C25 UNL     1     -11.425   8.868  25.151  1.00  0.00     0.046 C 
HETATM   24  C26 UNL     1     -10.767  10.423  23.347  1.00  0.00     0.046 C 
HETATM   25  O6  UNL     1     -13.015  10.391  24.186  1.00  0.00    -0.358 OA
HETATM   26  C27 UNL     1     -14.173   9.969  23.427  1.00  0.00     0.158 C 
HETATM   27  C33 UNL     1     -14.013  10.654  22.048  1.00  0.00     0.171 C 
HETATM   28  O9  UNL     1     -14.146  11.857  21.842  1.00  0.00    -0.294 OA
ENDROOT
BRANCH  26  29
HETATM   29  C28 UNL     1     -15.470  10.459  24.090  1.00  0.00     0.077 C 
BRANCH  29  30
HETATM   30  C29 UNL     1     -15.621  11.955  24.229  1.00  0.00    -0.010 C 
HETATM   31  C30 UNL     1     -15.349  12.712  25.311  1.00  0.00     0.008 C 
HETATM   32  C31 UNL     1     -15.541  14.198  25.324  1.00  0.00     0.055 C 
BRANCH  31  33
HETATM   33  C32 UNL     1     -14.832  12.117  26.562  1.00  0.00     0.171 C 
HETATM   34  O7  UNL     1     -15.478  11.761  27.530  1.00  0.00    -0.646 OA
BRANCH  33  35
HETATM   35  O8  UNL     1     -13.496  11.970  26.517  1.00  0.00    -0.773 OA
HETATM   36  H38 UNL     1     -13.291  11.615  27.406  1.00  0.00     0.167 HD
ENDBRANCH  33  35
ENDBRANCH  31  33
ENDBRANCH  29  30
ENDBRANCH  26  29
BRANCH  18  37
HETATM   37  O5  UNL     1     -16.022   9.415  20.606  1.00  0.00    -0.394 OA
HETATM   38  H21 UNL     1     -15.929   9.997  19.827  1.00  0.00     0.210 HD
ENDBRANCH  18  37
BRANCH   1  39
HETATM   39  C5  UNL     1     -14.138   6.299  26.871  1.00  0.00     0.072 C 
BRANCH  39  40
HETATM   40  C4  UNL     1     -15.485   6.182  27.540  1.00  0.00    -0.020 C 
HETATM   41  C2  UNL     1     -16.449   7.116  27.649  1.00  0.00    -0.091 C 
HETATM   42  C1  UNL     1     -16.372   8.516  27.106  1.00  0.00     0.042 C 
HETATM   43  C3  UNL     1     -17.739   6.804  28.364  1.00  0.00     0.042 C 
ENDBRANCH  39  40
ENDBRANCH   1  39
BRANCH   9  44
HETATM   44  O3  UNL     1     -14.267   3.576  21.859  1.00  0.00    -0.359 OA
HETATM   45  H11 UNL     1     -14.318   4.226  21.122  1.00  0.00     0.217 HD
ENDBRANCH   9  44
TORSDOF 8
ENDMDL
MODEL 6
REMARK minimizedAffinity -7.26888752
REMARK CNNscore 0.28087011
REMARK CNNaffinity 5.85847902
REMARK  8 active torsions:
REMARK  status: ('A' for Active; 'I' for Inactive)
REMARK    1  A    between atoms: C4_4  and  C5_5 
REMARK    2  A    between atoms: C5_5  and  C6_6 
REMARK    3  A    between atoms: C12_14  and  O3_15 
REMARK    4  A    between atoms: C20_24  and  O5_25 
REMARK    5  A    between atoms: C27_33  and  C28_34 
REMARK    6  A    between atoms: C28_34  and  C29_35 
REMARK    7  A    between atoms: C30_36  and  C32_38 
REMARK    8  A    between atoms: C32_38  and  O8_40 
ROOT
HETATM    1  C6  UNL     1      -9.772  -9.386   7.267  1.00  0.00     0.014 A 
HETATM    2  C7  UNL     1      -8.864  -9.344   8.340  1.00  0.00     0.096 A 
HETATM    3  O1  UNL     1      -9.375  -9.477   9.609  1.00  0.00    -0.333 OA
HETATM    4  C8  UNL     1      -8.441  -9.761  10.663  1.00  0.00     0.126 C 
HETATM    5  C9  UNL     1      -7.266  -8.771  10.579  1.00  0.00     0.129 C 
HETATM    6  C10 UNL     1      -6.599  -9.008   9.244  1.00  0.00     0.174 C 
HETATM    7  O2  UNL     1      -5.385  -9.047   9.071  1.00  0.00    -0.292 OA
HETATM    8  C11 UNL     1      -7.501  -9.169   8.090  1.00  0.00     0.078 A 
HETATM    9  C12 UNL     1      -7.014  -9.117   6.778  1.00  0.00     0.095 A 
HETATM   10  C13 UNL     1      -7.900  -9.202   5.695  1.00  0.00     0.032 A 
HETATM   11  C14 UNL     1      -9.273  -9.324   5.945  1.00  0.00     0.092 A 
HETATM   12  O4  UNL     1     -10.203  -9.418   4.943  1.00  0.00    -0.335 OA
HETATM   13  C15 UNL     1      -9.808  -9.230   3.571  1.00  0.00     0.078 C 
HETATM   14  C16 UNL     1     -10.454  -7.922   3.095  1.00  0.00     0.051 C 
HETATM   15  C17 UNL     1     -10.401 -10.414   2.798  1.00  0.00     0.051 C 
HETATM   16  C18 UNL     1      -8.320  -9.173   3.329  1.00  0.00     0.012 C 
HETATM   17  C19 UNL     1      -7.422  -9.162   4.317  1.00  0.00     0.016 C 
HETATM   18  C20 UNL     1      -6.292  -8.946  11.751  1.00  0.00     0.144 C 
HETATM   19  C21 UNL     1      -6.661 -10.201  12.541  1.00  0.00     0.089 C 
HETATM   20  C22 UNL     1      -6.764 -11.391  11.578  1.00  0.00     0.025 C 
HETATM   21  C23 UNL     1      -8.036 -11.267  10.695  1.00  0.00     0.060 C 
HETATM   22  C24 UNL     1      -9.307 -11.944  11.306  1.00  0.00     0.062 C 
HETATM   23  C25 UNL     1     -10.311 -12.377  10.230  1.00  0.00     0.046 C 
HETATM   24  C26 UNL     1      -9.051 -13.158  12.206  1.00  0.00     0.046 C 
HETATM   25  O6  UNL     1      -9.940 -10.931  12.114  1.00  0.00    -0.358 OA
HETATM   26  C27 UNL     1      -9.140  -9.726  12.055  1.00  0.00     0.158 C 
HETATM   27  C33 UNL     1      -8.037  -9.931  13.121  1.00  0.00     0.171 C 
HETATM   28  O9  UNL     1      -8.220  -9.915  14.335  1.00  0.00    -0.294 OA
ENDROOT
BRANCH  26  29
HETATM   29  C28 UNL     1      -9.982  -8.494  12.427  1.00  0.00     0.077 C 
BRANCH  29  30
HETATM   30  C29 UNL     1     -11.458  -8.735  12.635  1.00  0.00    -0.010 C 
HETATM   31  C30 UNL     1     -12.247  -8.221  13.600  1.00  0.00     0.008 C 
HETATM   32  C31 UNL     1     -13.708  -8.539  13.700  1.00  0.00     0.055 C 
BRANCH  31  33
HETATM   33  C32 UNL     1     -11.716  -7.297  14.624  1.00  0.00     0.171 C 
HETATM   34  O7  UNL     1     -11.188  -7.592  15.680  1.00  0.00    -0.646 OA
BRANCH  33  35
HETATM   35  O8  UNL     1     -11.854  -6.015  14.242  1.00  0.00    -0.773 OA
HETATM   36  H38 UNL     1     -11.508  -5.524  15.016  1.00  0.00     0.167 HD
ENDBRANCH  33  35
ENDBRANCH  31  33
ENDBRANCH  29  30
ENDBRANCH  26  29
BRANCH  18  37
HETATM   37  O5  UNL     1      -6.374  -7.788  12.580  1.00  0.00    -0.394 OA
HETATM   38  H21 UNL     1      -5.811  -7.926  13.366  1.00  0.00     0.210 HD
ENDBRANCH  18  37
BRANCH   1  39
HETATM   39  C5  UNL     1     -11.271  -9.450   7.504  1.00  0.00     0.072 C 
BRANCH  39  40
HETATM   40  C4  UNL     1     -11.909  -8.084   7.452  1.00  0.00    -0.020 C 
HETATM   41  C2  UNL     1     -12.836  -7.625   6.589  1.00  0.00    -0.091 C 
HETATM   42  C1  UNL     1     -13.442  -8.413   5.461  1.00  0.00     0.042 C 
HETATM   43  C3  UNL     1     -13.353  -6.214   6.702  1.00  0.00     0.042 C 
ENDBRANCH  39  40
ENDBRANCH   1  39
BRANCH   9  44
HETATM   44  O3  UNL     1      -5.673  -8.975   6.511  1.00  0.00    -0.359 OA
HETATM   45  H11 UNL     1      -5.177  -8.977   7.360  1.00  0.00     0.217 HD
ENDBRANCH   9  44
TORSDOF 8
ENDMDL
MODEL 7
REMARK minimizedAffinity -7.1919589
REMARK CNNscore 0.261014551
REMARK CNNaffinity 6.40901804
REMARK  8 active torsions:
REMARK  status: ('A' for Active; 'I' for Inactive)
REMARK    1  A    between atoms: C4_4  and  C5_5 
REMARK    2  A    between atoms: C5_5  and  C6_6 
REMARK    3  A    between atoms: C12_14  and  O3_15 
REMARK    4  A    between atoms: C20_24  and  O5_25 
REMARK    5  A    between atoms: C27_33  and  C28_34 
REMARK    6  A    between atoms: C28_34  and  C29_35 
REMARK    7  A    between atoms: C30_36  and  C32_38 
REMARK    8  A    between atoms: C32_38  and  O8_40 
ROOT
HETATM    1  C6  UNL     1      -8.069  -9.928   1.746  1.00  0.00     0.014 A 
HETATM    2  C7  UNL     1      -6.770 -10.254   2.173  1.00  0.00     0.096 A 
HETATM    3  O1  UNL     1      -6.589 -10.522   3.508  1.00  0.00    -0.333 OA
HETATM    4  C8  UNL     1      -5.361 -11.165   3.885  1.00  0.00     0.126 C 
HETATM    5  C9  UNL     1      -4.179 -10.412   3.249  1.00  0.00     0.129 C 
HETATM    6  C10 UNL     1      -4.359 -10.518   1.752  1.00  0.00     0.174 C 
HETATM    7  O2  UNL     1      -3.452 -10.748   0.959  1.00  0.00    -0.292 OA
HETATM    8  C11 UNL     1      -5.724 -10.292   1.248  1.00  0.00     0.078 A 
HETATM    9  C12 UNL     1      -5.968 -10.090  -0.117  1.00  0.00     0.095 A 
HETATM   10  C13 UNL     1      -7.265  -9.807  -0.567  1.00  0.00     0.032 A 
HETATM   11  C14 UNL     1      -8.305  -9.716   0.368  1.00  0.00     0.092 A 
HETATM   12  O4  UNL     1      -9.600  -9.449   0.010  1.00  0.00    -0.335 OA
HETATM   13  C15 UNL     1      -9.914  -9.087  -1.348  1.00  0.00     0.078 C 
HETATM   14  C16 UNL     1     -10.353  -7.617  -1.329  1.00  0.00     0.051 C 
HETATM   15  C17 UNL     1     -11.095  -9.976  -1.757  1.00  0.00     0.051 C 
HETATM   16  C18 UNL     1      -8.792  -9.263  -2.340  1.00  0.00     0.012 C 
HETATM   17  C19 UNL     1      -7.552  -9.602  -1.982  1.00  0.00     0.016 C 
HETATM   18  C20 UNL     1      -2.831 -10.978   3.711  1.00  0.00     0.144 C 
HETATM   19  C21 UNL     1      -3.059 -12.267   4.500  1.00  0.00     0.089 C 
HETATM   20  C22 UNL     1      -3.931 -13.218   3.669  1.00  0.00     0.025 C 
HETATM   21  C23 UNL     1      -5.395 -12.699   3.607  1.00  0.00     0.060 C 
HETATM   22  C24 UNL     1      -6.310 -13.229   4.759  1.00  0.00     0.062 C 
HETATM   23  C25 UNL     1      -7.791 -13.262   4.357  1.00  0.00     0.046 C 
HETATM   24  C26 UNL     1      -5.957 -14.615   5.311  1.00  0.00     0.046 C 
HETATM   25  O6  UNL     1      -6.170 -12.284   5.838  1.00  0.00    -0.358 OA
HETATM   26  C27 UNL     1      -5.231 -11.258   5.436  1.00  0.00     0.158 C 
HETATM   27  C33 UNL     1      -3.836 -11.858   5.737  1.00  0.00     0.171 C 
HETATM   28  O9  UNL     1      -3.374 -12.033   6.861  1.00  0.00    -0.294 OA
ENDROOT
BRANCH  26  29
HETATM   29  C28 UNL     1      -5.425  -9.982   6.270  1.00  0.00     0.077 C 
BRANCH  29  30
HETATM   30  C29 UNL     1      -4.720  -9.947   7.605  1.00  0.00    -0.010 C 
HETATM   31  C30 UNL     1      -5.281  -9.910   8.831  1.00  0.00     0.008 C 
HETATM   32  C31 UNL     1      -4.467  -9.879  10.088  1.00  0.00     0.055 C 
BRANCH  31  33
HETATM   33  C32 UNL     1      -6.748  -9.905   9.011  1.00  0.00     0.171 C 
HETATM   34  O7  UNL     1      -7.490 -10.869   9.039  1.00  0.00    -0.646 OA
BRANCH  33  35
HETATM   35  O8  UNL     1      -7.214  -8.655   9.180  1.00  0.00    -0.773 OA
HETATM   36  H38 UNL     1      -8.182  -8.795   9.243  1.00  0.00     0.167 HD
ENDBRANCH  33  35
ENDBRANCH  31  33
ENDBRANCH  29  30
ENDBRANCH  26  29
BRANCH  18  37
HETATM   37  O5  UNL     1      -2.187  -9.998   4.524  1.00  0.00    -0.394 OA
HETATM   38  H21 UNL     1      -1.362 -10.382   4.881  1.00  0.00     0.210 HD
ENDBRANCH  18  37
BRANCH   1  39
HETATM   39  C5  UNL     1      -9.206  -9.755   2.739  1.00  0.00     0.072 C 
BRANCH  39  40
HETATM   40  C4  UNL     1     -10.001  -8.500   2.474  1.00  0.00    -0.020 C 
HETATM   41  C2  UNL     1     -10.846  -7.855   3.301  1.00  0.00    -0.091 C 
HETATM   42  C1  UNL     1     -11.180  -8.273   4.706  1.00  0.00     0.042 C 
HETATM   43  C3  UNL     1     -11.554  -6.605   2.846  1.00  0.00     0.042 C 
ENDBRANCH  39  40
ENDBRANCH   1  39
BRANCH   9  44
HETATM   44  O3  UNL     1      -4.957 -10.152  -1.048  1.00  0.00    -0.359 OA
HETATM   45  H11 UNL     1      -4.121 -10.403  -0.593  1.00  0.00     0.217 HD
ENDBRANCH   9  44
TORSDOF 8
ENDMDL
MODEL 8
REMARK minimizedAffinity -6.77222252
REMARK CNNscore 0.254020393
REMARK CNNaffinity 6.41102791
REMARK  8 active torsions:
REMARK  status: ('A' for Active; 'I' for Inactive)
REMARK    1  A    between atoms: C4_4  and  C5_5 
REMARK    2  A    between atoms: C5_5  and  C6_6 
REMARK    3  A    between atoms: C12_14  and  O3_15 
REMARK    4  A    between atoms: C20_24  and  O5_25 
REMARK    5  A    between atoms: C27_33  and  C28_34 
REMARK    6  A    between atoms: C28_34  and  C29_35 
REMARK    7  A    between atoms: C30_36  and  C32_38 
REMARK    8  A    between atoms: C32_38  and  O8_40 
ROOT
HETATM    1  C6  UNL     1     -13.636  -9.982  26.700  1.00  0.00     0.014 A 
HETATM    2  C7  UNL     1     -13.536 -10.220  25.317  1.00  0.00     0.096 A 
HETATM    3  O1  UNL     1     -12.759 -11.277  24.910  1.00  0.00    -0.333 OA
HETATM    4  C8  UNL     1     -12.916 -11.717  23.551  1.00  0.00     0.126 C 
HETATM    5  C9  UNL     1     -12.833 -10.501  22.612  1.00  0.00     0.129 C 
HETATM    6  C10 UNL     1     -13.986  -9.596  22.979  1.00  0.00     0.174 C 
HETATM    7  O2  UNL     1     -14.704  -9.021  22.167  1.00  0.00    -0.292 OA
HETATM    8  C11 UNL     1     -14.212  -9.390  24.421  1.00  0.00     0.078 A 
HETATM    9  C12 UNL     1     -15.057  -8.373  24.883  1.00  0.00     0.095 A 
HETATM   10  C13 UNL     1     -15.204  -8.150  26.259  1.00  0.00     0.032 A 
HETATM   11  C14 UNL     1     -14.484  -8.948  27.159  1.00  0.00     0.092 A 
HETATM   12  O4  UNL     1     -14.575  -8.798  28.517  1.00  0.00    -0.335 OA
HETATM   13  C15 UNL     1     -15.305  -7.688  29.074  1.00  0.00     0.078 C 
HETATM   14  C16 UNL     1     -14.277  -6.767  29.744  1.00  0.00     0.051 C 
HETATM   15  C17 UNL     1     -16.234  -8.288  30.136  1.00  0.00     0.051 C 
HETATM   16  C18 UNL     1     -16.124  -6.894  28.089  1.00  0.00     0.012 C 
HETATM   17  C19 UNL     1     -16.083  -7.105  26.771  1.00  0.00     0.016 C 
HETATM   18  C20 UNL     1     -12.874 -10.920  21.137  1.00  0.00     0.144 C 
HETATM   19  C21 UNL     1     -13.205 -12.408  21.035  1.00  0.00     0.089 C 
HETATM   20  C22 UNL     1     -14.476 -12.698  21.845  1.00  0.00     0.025 C 
HETATM   21  C23 UNL     1     -14.182 -12.610  23.369  1.00  0.00     0.060 C 
HETATM   22  C24 UNL     1     -13.736 -13.963  24.013  1.00  0.00     0.062 C 
HETATM   23  C25 UNL     1     -14.069 -14.033  25.509  1.00  0.00     0.046 C 
HETATM   24  C26 UNL     1     -14.296 -15.232  23.361  1.00  0.00     0.046 C 
HETATM   25  O6  UNL     1     -12.300 -14.004  23.881  1.00  0.00    -0.358 OA
HETATM   26  C27 UNL     1     -11.864 -12.809  23.192  1.00  0.00     0.158 C 
HETATM   27  C33 UNL     1     -12.043 -13.132  21.689  1.00  0.00     0.171 C 
HETATM   28  O9  UNL     1     -11.349 -13.920  21.051  1.00  0.00    -0.294 OA
ENDROOT
BRANCH  26  29
HETATM   29  C28 UNL     1     -10.380 -12.526  23.476  1.00  0.00     0.077 C 
BRANCH  29  30
HETATM   30  C29 UNL     1      -9.869 -12.956  24.830  1.00  0.00    -0.010 C 
HETATM   31  C30 UNL     1      -8.633 -13.395  25.141  1.00  0.00     0.008 C 
HETATM   32  C31 UNL     1      -8.246 -13.794  26.533  1.00  0.00     0.055 C 
BRANCH  31  33
HETATM   33  C32 UNL     1      -7.569 -13.504  24.119  1.00  0.00     0.171 C 
HETATM   34  O7  UNL     1      -7.273 -12.680  23.275  1.00  0.00    -0.646 OA
BRANCH  33  35
HETATM   35  O8  UNL     1      -6.898 -14.663  24.236  1.00  0.00    -0.773 OA
HETATM   36  H38 UNL     1      -6.268 -14.620  23.487  1.00  0.00     0.167 HD
ENDBRANCH  33  35
ENDBRANCH  31  33
ENDBRANCH  29  30
ENDBRANCH  26  29
BRANCH  18  37
HETATM   37  O5  UNL     1     -11.600 -10.648  20.557  1.00  0.00    -0.394 OA
HETATM   38  H21 UNL     1     -11.597 -10.980  19.638  1.00  0.00     0.210 HD
ENDBRANCH  18  37
BRANCH   1  39
HETATM   39  C5  UNL     1     -12.818 -10.783  27.699  1.00  0.00     0.072 C 
BRANCH  39  40
HETATM   40  C4  UNL     1     -13.646 -11.838  28.389  1.00  0.00    -0.020 C 
HETATM   41  C2  UNL     1     -13.261 -13.055  28.820  1.00  0.00    -0.091 C 
HETATM   42  C1  UNL     1     -11.876 -13.627  28.692  1.00  0.00     0.042 C 
HETATM   43  C3  UNL     1     -14.248 -13.975  29.492  1.00  0.00     0.042 C 
ENDBRANCH  39  40
ENDBRANCH   1  39
BRANCH   9  44
HETATM   44  O3  UNL     1     -15.755  -7.564  24.016  1.00  0.00    -0.359 OA
HETATM   45  H11 UNL     1     -15.590  -7.869  23.095  1.00  0.00     0.217 HD
ENDBRANCH   9  44
TORSDOF 8
ENDMDL
MODEL 9
REMARK minimizedAffinity -7.54842997
REMARK CNNscore 0.242561102
REMARK CNNaffinity 6.2838273
REMARK  8 active torsions:
REMARK  status: ('A' for Active; 'I' for Inactive)
REMARK    1  A    between atoms: C4_4  and  C5_5 
REMARK    2  A    between atoms: C5_5  and  C6_6 
REMARK    3  A    between atoms: C12_14  and  O3_15 
REMARK    4  A    between atoms: C20_24  and  O5_25 
REMARK    5  A    between atoms: C27_33  and  C28_34 
REMARK    6  A    between atoms: C28_34  and  C29_35 
REMARK    7  A    between atoms: C30_36  and  C32_38 
REMARK    8  A    between atoms: C32_38  and  O8_40 
ROOT
HETATM    1  C6  UNL     1     -13.190  -9.319  27.865  1.00  0.00     0.014 A 
HETATM    2  C7  UNL     1     -13.620  -9.457  26.533  1.00  0.00     0.096 A 
HETATM    3  O1  UNL     1     -13.258 -10.602  25.866  1.00  0.00    -0.333 OA
HETATM    4  C8  UNL     1     -13.955 -10.895  24.645  1.00  0.00     0.126 C 
HETATM    5  C9  UNL     1     -13.958  -9.643  23.750  1.00  0.00     0.129 C 
HETATM    6  C10 UNL     1     -14.710  -8.574  24.511  1.00  0.00     0.174 C 
HETATM    7  O2  UNL     1     -15.531  -7.814  24.010  1.00  0.00    -0.292 OA
HETATM    8  C11 UNL     1     -14.382  -8.448  25.942  1.00  0.00     0.078 A 
HETATM    9  C12 UNL     1     -14.796  -7.334  26.683  1.00  0.00     0.095 A 
HETATM   10  C13 UNL     1     -14.414  -7.200  28.025  1.00  0.00     0.032 A 
HETATM   11  C14 UNL     1     -13.604  -8.187  28.605  1.00  0.00     0.092 A 
HETATM   12  O4  UNL     1     -13.192  -8.133  29.910  1.00  0.00    -0.335 OA
HETATM   13  C15 UNL     1     -13.449  -6.957  30.701  1.00  0.00     0.078 C 
HETATM   14  C16 UNL     1     -12.092  -6.298  30.977  1.00  0.00     0.051 C 
HETATM   15  C17 UNL     1     -14.058  -7.461  32.015  1.00  0.00     0.051 C 
HETATM   16  C18 UNL     1     -14.381  -5.949  30.076  1.00  0.00     0.012 C 
HETATM   17  C19 UNL     1     -14.837  -6.057  28.826  1.00  0.00     0.016 C 
HETATM   18  C20 UNL     1     -14.585  -9.927  22.380  1.00  0.00     0.144 C 
HETATM   19  C21 UNL     1     -15.221 -11.315  22.384  1.00  0.00     0.089 C 
HETATM   20  C22 UNL     1     -16.168 -11.432  23.586  1.00  0.00     0.025 C 
HETATM   21  C23 UNL     1     -15.359 -11.523  24.909  1.00  0.00     0.060 C 
HETATM   22  C24 UNL     1     -14.998 -12.982  25.340  1.00  0.00     0.062 C 
HETATM   23  C25 UNL     1     -14.805 -13.112  26.857  1.00  0.00     0.046 C 
HETATM   24  C26 UNL     1     -15.990 -14.070  24.912  1.00  0.00     0.046 C 
HETATM   25  O6  UNL     1     -13.734 -13.276  24.711  1.00  0.00    -0.358 OA
HETATM   26  C27 UNL     1     -13.331 -12.129  23.925  1.00  0.00     0.158 C 
HETATM   27  C33 UNL     1     -14.075 -12.291  22.578  1.00  0.00     0.171 C 
HETATM   28  O9  UNL     1     -13.814 -13.138  21.728  1.00  0.00    -0.294 OA
ENDROOT
BRANCH  26  29
HETATM   29  C28 UNL     1     -11.815 -12.146  23.672  1.00  0.00     0.077 C 
BRANCH  29  30
HETATM   30  C29 UNL     1     -10.950 -12.540  24.846  1.00  0.00    -0.010 C 
HETATM   31  C30 UNL     1      -9.615 -12.396  24.968  1.00  0.00     0.008 C 
HETATM   32  C31 UNL     1      -8.867 -12.830  26.192  1.00  0.00     0.055 C 
BRANCH  31  33
HETATM   33  C32 UNL     1      -8.799 -11.788  23.895  1.00  0.00     0.171 C 
HETATM   34  O7  UNL     1      -8.674 -10.604  23.646  1.00  0.00    -0.646 OA
BRANCH  33  35
HETATM   35  O8  UNL     1      -8.144 -12.727  23.190  1.00  0.00    -0.773 OA
HETATM   36  H38 UNL     1      -7.689 -12.198  22.502  1.00  0.00     0.167 HD
ENDBRANCH  33  35
ENDBRANCH  31  33
ENDBRANCH  29  30
ENDBRANCH  26  29
BRANCH  18  37
HETATM   37  O5  UNL     1     -13.559  -9.846  21.391  1.00  0.00    -0.394 OA
HETATM   38  H21 UNL     1     -13.938 -10.098  20.527  1.00  0.00     0.210 HD
ENDBRANCH  18  37
BRANCH   1  39
HETATM   39  C5  UNL     1     -12.257 -10.334  28.503  1.00  0.00     0.072 C 
BRANCH  39  40
HETATM   40  C4  UNL     1     -12.999 -11.552  28.993  1.00  0.00    -0.020 C 
HETATM   41  C2  UNL     1     -13.340 -11.872  30.257  1.00  0.00    -0.091 C 
HETATM   42  C1  UNL     1     -13.035 -11.048  31.477  1.00  0.00     0.042 C 
HETATM   43  C3  UNL     1     -14.087 -13.148  30.546  1.00  0.00     0.042 C 
ENDBRANCH  39  40
ENDBRANCH   1  39
BRANCH   9  44
HETATM   44  O3  UNL     1     -15.572  -6.344  26.127  1.00  0.00    -0.359 OA
HETATM   45  H11 UNL     1     -15.797  -6.598  25.204  1.00  0.00     0.217 HD
ENDBRANCH   9  44
TORSDOF 8
ENDMDL
