MODEL 1
REMARK minimizedAffinity -9.21220779
REMARK CNNscore 0.673348069
REMARK CNNaffinity 7.24466324
REMARK  7 active torsions:
REMARK  status: ('A' for Active; 'I' for Inactive)
REMARK    1  A    between atoms: C2_2  and  C30_32 
REMARK    2  A    between atoms: C3_3  and  C4_4 
REMARK    3  A    between atoms: C4_4  and  C5_5 
REMARK    4  A    between atoms: C5_5  and  C6_6 
REMARK    5  A    between atoms: C6_6  and  C8_8 
REMARK    6  A    between atoms: C29_30  and  O2_31 
REMARK    7  A    between atoms: C30_32  and  O3_33 
ROOT
HETATM    1  C8  UNL     1      -2.973   8.382  15.243  1.00  0.00    -0.002 C 
HETATM    2  C9  UNL     1      -1.873   8.111  16.310  1.00  0.00     0.007 C 
HETATM    3  C10 UNL     1      -0.525   7.996  15.574  1.00  0.00     0.015 C 
HETATM    4  C11 UNL     1      -0.790   8.563  14.171  1.00  0.00    -0.010 C 
HETATM    5  C12 UNL     1      -0.703  10.120  14.277  1.00  0.00     0.021 C 
HETATM    6  C13 UNL     1       0.138   8.165  13.019  1.00  0.00    -0.039 C 
HETATM    7  C14 UNL     1      -0.342   8.144  11.746  1.00  0.00    -0.066 C 
HETATM    8  C15 UNL     1      -1.812   8.458  11.442  1.00  0.00     0.036 C 
HETATM    9  C16 UNL     1      -2.764   8.684  12.634  1.00  0.00     0.015 C 
HETATM   10  C17 UNL     1      -2.248   8.007  13.910  1.00  0.00    -0.029 C 
HETATM   11  C18 UNL     1      -2.295   6.460  13.714  1.00  0.00     0.016 C 
HETATM   12  C19 UNL     1       0.546   7.723  10.541  1.00  0.00    -0.015 C 
HETATM   13  C20 UNL     1       0.211   6.235  10.282  1.00  0.00     0.020 C 
HETATM   14  C21 UNL     1       0.226   8.552   9.273  1.00  0.00     0.021 C 
HETATM   15  C22 UNL     1       1.131   8.215   8.096  1.00  0.00     0.080 C 
HETATM   16  C23 UNL     1       2.586   8.410   8.437  1.00  0.00     0.135 C 
HETATM   17  O1  UNL     1       3.337   8.931   7.607  1.00  0.00    -0.297 OA
HETATM   18  C24 UNL     1       3.112   7.815   9.753  1.00  0.00     0.018 C 
HETATM   19  C25 UNL     1       4.394   8.607  10.131  1.00  0.00     0.023 C 
HETATM   20  C26 UNL     1       3.544   6.365   9.484  1.00  0.00     0.023 C 
HETATM   21  C27 UNL     1       2.053   7.998  10.894  1.00  0.00     0.016 C 
HETATM   22  C28 UNL     1       2.412   7.275  12.206  1.00  0.00     0.043 C 
HETATM   23  C29 UNL     1       1.572   7.814  13.369  1.00  0.00     0.148 C 
ENDROOT
BRANCH   1  24
HETATM   24  C6  UNL     1      -4.327   7.708  15.608  1.00  0.00    -0.014 C 
HETATM   25  C7  UNL     1      -4.224   6.185  15.728  1.00  0.00     0.010 C 
BRANCH  24  26
HETATM   26  C5  UNL     1      -5.499   8.091  14.657  1.00  0.00     0.008 C 
BRANCH  26  27
HETATM   27  C4  UNL     1      -5.712   7.261  13.382  1.00  0.00     0.028 C 
BRANCH  27  28
HETATM   28  C3  UNL     1      -6.051   5.816  13.609  1.00  0.00    -0.022 C 
HETATM   29  C2  UNL     1      -7.172   5.170  13.229  1.00  0.00    -0.064 C 
HETATM   30  C1  UNL     1      -8.317   5.812  12.492  1.00  0.00     0.045 C 
BRANCH  29  31
HETATM   31  C30 UNL     1      -7.352   3.705  13.522  1.00  0.00     0.197 C 
BRANCH  31  32
HETATM   32  O3  UNL     1      -8.697   3.348  13.241  1.00  0.00    -0.397 OA
HETATM   33  H48 UNL     1      -8.773   2.393  13.399  1.00  0.00     0.209 HD
ENDBRANCH  31  32
ENDBRANCH  29  31
ENDBRANCH  27  28
ENDBRANCH  26  27
ENDBRANCH  24  26
ENDBRANCH   1  24
BRANCH  23  34
HETATM   34  O2  UNL     1       2.229   8.982  13.858  1.00  0.00    -0.391 OA
HETATM   35  H45 UNL     1       1.902   9.732  13.335  1.00  0.00     0.210 HD
ENDBRANCH  23  34
TORSDOF 7
ENDMDL
MODEL 2
REMARK minimizedAffinity -8.23601437
REMARK CNNscore 0.593551099
REMARK CNNaffinity 7.09202528
REMARK  7 active torsions:
REMARK  status: ('A' for Active; 'I' for Inactive)
REMARK    1  A    between atoms: C2_2  and  C30_32 
REMARK    2  A    between atoms: C3_3  and  C4_4 
REMARK    3  A    between atoms: C4_4  and  C5_5 
REMARK    4  A    between atoms: C5_5  and  C6_6 
REMARK    5  A    between atoms: C6_6  and  C8_8 
REMARK    6  A    between atoms: C29_30  and  O2_31 
REMARK    7  A    between atoms: C30_32  and  O3_33 
ROOT
HETATM    1  C8  UNL     1      -1.092   6.125  11.799  1.00  0.00    -0.002 C 
HETATM    2  C9  UNL     1      -1.512   5.031  12.823  1.00  0.00     0.007 C 
HETATM    3  C10 UNL     1      -1.882   5.740  14.139  1.00  0.00     0.015 C 
HETATM    4  C11 UNL     1      -2.037   7.221  13.762  1.00  0.00    -0.010 C 
HETATM    5  C12 UNL     1      -3.468   7.398  13.158  1.00  0.00     0.021 C 
HETATM    6  C13 UNL     1      -1.906   8.285  14.856  1.00  0.00    -0.039 C 
HETATM    7  C14 UNL     1      -1.468   9.532  14.531  1.00  0.00    -0.066 C 
HETATM    8  C15 UNL     1      -1.048   9.882  13.098  1.00  0.00     0.036 C 
HETATM    9  C16 UNL     1      -1.024   8.747  12.054  1.00  0.00     0.015 C 
HETATM   10  C17 UNL     1      -0.862   7.371  12.714  1.00  0.00    -0.029 C 
HETATM   11  C18 UNL     1       0.556   7.286  13.357  1.00  0.00     0.016 C 
HETATM   12  C19 UNL     1      -1.288  10.645  15.602  1.00  0.00    -0.015 C 
HETATM   13  C20 UNL     1       0.215  10.630  15.966  1.00  0.00     0.020 C 
HETATM   14  C21 UNL     1      -1.672  12.040  15.053  1.00  0.00     0.021 C 
HETATM   15  C22 UNL     1      -1.580  13.140  16.100  1.00  0.00     0.080 C 
HETATM   16  C23 UNL     1      -2.448  12.846  17.297  1.00  0.00     0.135 C 
HETATM   17  O1  UNL     1      -3.103  13.758  17.808  1.00  0.00    -0.297 OA
HETATM   18  C24 UNL     1      -2.370  11.446  17.927  1.00  0.00     0.018 C 
HETATM   19  C25 UNL     1      -3.695  11.222  18.706  1.00  0.00     0.023 C 
HETATM   20  C26 UNL     1      -1.236  11.450  18.963  1.00  0.00     0.023 C 
HETATM   21  C27 UNL     1      -2.252  10.352  16.810  1.00  0.00     0.016 C 
HETATM   22  C28 UNL     1      -1.986   8.933  17.345  1.00  0.00     0.043 C 
HETATM   23  C29 UNL     1      -2.283   7.883  16.269  1.00  0.00     0.148 C 
ENDROOT
BRANCH   1  24
HETATM   24  C6  UNL     1       0.039   5.640  10.847  1.00  0.00    -0.014 C 
HETATM   25  C7  UNL     1       1.047   4.718  11.537  1.00  0.00     0.010 C 
BRANCH  24  26
HETATM   26  C5  UNL     1       0.784   6.793  10.113  1.00  0.00     0.008 C 
BRANCH  26  27
HETATM   27  C4  UNL     1       2.305   6.685   9.931  1.00  0.00     0.028 C 
BRANCH  27  28
HETATM   28  C3  UNL     1       2.754   5.786   8.816  1.00  0.00    -0.022 C 
HETATM   29  C2  UNL     1       2.593   5.981   7.492  1.00  0.00    -0.064 C 
HETATM   30  C1  UNL     1       1.905   7.175   6.885  1.00  0.00     0.045 C 
BRANCH  29  31
HETATM   31  C30 UNL     1       3.120   4.983   6.497  1.00  0.00     0.197 C 
BRANCH  31  32
HETATM   32  O3  UNL     1       3.513   3.811   7.195  1.00  0.00    -0.397 OA
HETATM   33  H48 UNL     1       3.808   3.172   6.526  1.00  0.00     0.209 HD
ENDBRANCH  31  32
ENDBRANCH  29  31
ENDBRANCH  27  28
ENDBRANCH  26  27
ENDBRANCH  24  26
ENDBRANCH   1  24
BRANCH  23  34
HETATM   34  O2  UNL     1      -3.684   7.616  16.315  1.00  0.00    -0.391 OA
HETATM   35  H45 UNL     1      -4.117   8.264  15.737  1.00  0.00     0.210 HD
ENDBRANCH  23  34
TORSDOF 7
ENDMDL
MODEL 3
REMARK minimizedAffinity -8.88042068
REMARK CNNscore 0.561261952
REMARK CNNaffinity 7.22773218
REMARK  7 active torsions:
REMARK  status: ('A' for Active; 'I' for Inactive)
REMARK    1  A    between atoms: C2_2  and  C30_32 
REMARK    2  A    between atoms: C3_3  and  C4_4 
REMARK    3  A    between atoms: C4_4  and  C5_5 
REMARK    4  A    between atoms: C5_5  and  C6_6 
REMARK    5  A    between atoms: C6_6  and  C8_8 
REMARK    6  A    between atoms: C29_30  and  O2_31 
REMARK    7  A    between atoms: C30_32  and  O3_33 
ROOT
HETATM    1  C8  UNL     1      -3.545   7.265  14.808  1.00  0.00    -0.002 C 
HETATM    2  C9  UNL     1      -4.052   5.931  14.185  1.00  0.00     0.007 C 
HETATM    3  C10 UNL     1      -2.972   5.432  13.207  1.00  0.00     0.015 C 
HETATM    4  C11 UNL     1      -1.719   6.254  13.546  1.00  0.00    -0.010 C 
HETATM    5  C12 UNL     1      -1.042   5.578  14.783  1.00  0.00     0.021 C 
HETATM    6  C13 UNL     1      -0.619   6.403  12.492  1.00  0.00    -0.039 C 
HETATM    7  C14 UNL     1       0.170   7.512  12.496  1.00  0.00    -0.066 C 
HETATM    8  C15 UNL     1      -0.053   8.646  13.504  1.00  0.00     0.036 C 
HETATM    9  C16 UNL     1      -1.276   8.551  14.441  1.00  0.00     0.015 C 
HETATM   10  C17 UNL     1      -2.376   7.661  13.849  1.00  0.00    -0.029 C 
HETATM   11  C18 UNL     1      -2.960   8.358  12.582  1.00  0.00     0.016 C 
HETATM   12  C19 UNL     1       1.285   7.732  11.434  1.00  0.00    -0.015 C 
HETATM   13  C20 UNL     1       0.658   8.653  10.361  1.00  0.00     0.020 C 
HETATM   14  C21 UNL     1       2.531   8.420  12.042  1.00  0.00     0.021 C 
HETATM   15  C22 UNL     1       3.669   8.581  11.044  1.00  0.00     0.080 C 
HETATM   16  C23 UNL     1       4.095   7.256  10.465  1.00  0.00     0.135 C 
HETATM   17  O1  UNL     1       5.297   7.019  10.316  1.00  0.00    -0.297 OA
HETATM   18  C24 UNL     1       3.005   6.306   9.943  1.00  0.00     0.018 C 
HETATM   19  C25 UNL     1       3.607   4.874   9.951  1.00  0.00     0.023 C 
HETATM   20  C26 UNL     1       2.720   6.665   8.476  1.00  0.00     0.023 C 
HETATM   21  C27 UNL     1       1.758   6.333  10.893  1.00  0.00     0.016 C 
HETATM   22  C28 UNL     1       0.543   5.552  10.359  1.00  0.00     0.043 C 
HETATM   23  C29 UNL     1      -0.464   5.282  11.482  1.00  0.00     0.148 C 
ENDROOT
BRANCH   1  24
HETATM   24  C6  UNL     1      -4.703   8.268  15.078  1.00  0.00    -0.014 C 
HETATM   25  C7  UNL     1      -4.260   9.488  15.890  1.00  0.00     0.010 C 
BRANCH  24  26
HETATM   26  C5  UNL     1      -5.961   7.621  15.728  1.00  0.00     0.008 C 
BRANCH  26  27
HETATM   27  C4  UNL     1      -7.081   7.109  14.809  1.00  0.00     0.028 C 
BRANCH  27  28
HETATM   28  C3  UNL     1      -7.138   5.619  14.640  1.00  0.00    -0.022 C 
HETATM   29  C2  UNL     1      -7.655   4.933  13.600  1.00  0.00    -0.064 C 
HETATM   30  C1  UNL     1      -8.291   5.568  12.392  1.00  0.00     0.045 C 
BRANCH  29  31
HETATM   31  C30 UNL     1      -7.620   3.429  13.577  1.00  0.00     0.197 C 
BRANCH  31  32
HETATM   32  O3  UNL     1      -8.736   2.960  12.836  1.00  0.00    -0.397 OA
HETATM   33  H48 UNL     1      -8.664   1.992  12.802  1.00  0.00     0.209 HD
ENDBRANCH  31  32
ENDBRANCH  29  31
ENDBRANCH  27  28
ENDBRANCH  26  27
ENDBRANCH  24  26
ENDBRANCH   1  24
BRANCH  23  34
HETATM   34  O2  UNL     1      -0.032   4.104  12.161  1.00  0.00    -0.391 OA
HETATM   35  H45 UNL     1       0.591   4.385  12.850  1.00  0.00     0.210 HD
ENDBRANCH  23  34
TORSDOF 7
ENDMDL
MODEL 4
REMARK minimizedAffinity -6.67678452
REMARK CNNscore 0.527396321
REMARK CNNaffinity 6.51057625
REMARK  7 active torsions:
REMARK  status: ('A' for Active; 'I' for Inactive)
REMARK    1  A    between atoms: C2_2  and  C30_32 
REMARK    2  A    between atoms: C3_3  and  C4_4 
REMARK    3  A    between atoms: C4_4  and  C5_5 
REMARK    4  A    between atoms: C5_5  and  C6_6 
REMARK    5  A    between atoms: C6_6  and  C8_8 
REMARK    6  A    between atoms: C29_30  and  O2_31 
REMARK    7  A    between atoms: C30_32  and  O3_33 
ROOT
HETATM    1  C8  UNL     1     -15.527   7.077  21.029  1.00  0.00    -0.002 C 
HETATM    2  C9  UNL     1     -16.162   8.119  21.996  1.00  0.00     0.007 C 
HETATM    3  C10 UNL     1     -15.880   7.653  23.436  1.00  0.00     0.015 C 
HETATM    4  C11 UNL     1     -14.787   6.581  23.300  1.00  0.00    -0.010 C 
HETATM    5  C12 UNL     1     -13.419   7.327  23.175  1.00  0.00     0.021 C 
HETATM    6  C13 UNL     1     -14.608   5.554  24.421  1.00  0.00    -0.039 C 
HETATM    7  C14 UNL     1     -14.115   4.320  24.130  1.00  0.00    -0.066 C 
HETATM    8  C15 UNL     1     -13.785   3.912  22.689  1.00  0.00     0.036 C 
HETATM    9  C16 UNL     1     -14.138   4.902  21.559  1.00  0.00     0.015 C 
HETATM   10  C17 UNL     1     -15.262   5.860  21.974  1.00  0.00    -0.029 C 
HETATM   11  C18 UNL     1     -16.580   5.045  22.150  1.00  0.00     0.016 C 
HETATM   12  C19 UNL     1     -13.937   3.227  25.222  1.00  0.00    -0.015 C 
HETATM   13  C20 UNL     1     -15.192   2.328  25.117  1.00  0.00     0.020 C 
HETATM   14  C21 UNL     1     -12.668   2.373  24.980  1.00  0.00     0.021 C 
HETATM   15  C22 UNL     1     -12.425   1.343  26.074  1.00  0.00     0.080 C 
HETATM   16  C23 UNL     1     -12.311   1.988  27.432  1.00  0.00     0.135 C 
HETATM   17  O1  UNL     1     -11.447   1.593  28.219  1.00  0.00    -0.297 OA
HETATM   18  C24 UNL     1     -13.376   3.018  27.841  1.00  0.00     0.018 C 
HETATM   19  C25 UNL     1     -12.748   3.909  28.948  1.00  0.00     0.023 C 
HETATM   20  C26 UNL     1     -14.550   2.263  28.484  1.00  0.00     0.023 C 
HETATM   21  C27 UNL     1     -13.754   3.925  26.619  1.00  0.00     0.016 C 
HETATM   22  C28 UNL     1     -14.942   4.869  26.880  1.00  0.00     0.043 C 
HETATM   23  C29 UNL     1     -14.994   5.980  25.826  1.00  0.00     0.148 C 
ENDROOT
BRANCH   1  24
HETATM   24  C6  UNL     1     -16.366   6.886  19.733  1.00  0.00    -0.014 C 
HETATM   25  C7  UNL     1     -16.727   5.422  19.464  1.00  0.00     0.010 C 
BRANCH  24  26
HETATM   26  C5  UNL     1     -15.723   7.520  18.465  1.00  0.00     0.008 C 
BRANCH  26  27
HETATM   27  C4  UNL     1     -15.742   6.719  17.154  1.00  0.00     0.028 C 
BRANCH  27  28
HETATM   28  C3  UNL     1     -14.624   7.026  16.201  1.00  0.00    -0.022 C 
HETATM   29  C2  UNL     1     -14.351   6.408  15.035  1.00  0.00    -0.064 C 
HETATM   30  C1  UNL     1     -15.145   5.258  14.473  1.00  0.00     0.045 C 
BRANCH  29  31
HETATM   31  C30 UNL     1     -13.193   6.851  14.181  1.00  0.00     0.197 C 
BRANCH  31  32
HETATM   32  O3  UNL     1     -11.999   6.300  14.715  1.00  0.00    -0.397 OA
HETATM   33  H48 UNL     1     -11.277   6.567  14.123  1.00  0.00     0.209 HD
ENDBRANCH  31  32
ENDBRANCH  29  31
ENDBRANCH  27  28
ENDBRANCH  26  27
ENDBRANCH  24  26
ENDBRANCH   1  24
BRANCH  23  34
HETATM   34  O2  UNL     1     -14.107   7.012  26.256  1.00  0.00    -0.391 OA
HETATM   35  H45 UNL     1     -13.226   6.792  25.914  1.00  0.00     0.210 HD
ENDBRANCH  23  34
TORSDOF 7
ENDMDL
MODEL 5
REMARK minimizedAffinity -8.88886356
REMARK CNNscore 0.476613939
REMARK CNNaffinity 6.82909822
REMARK  7 active torsions:
REMARK  status: ('A' for Active; 'I' for Inactive)
REMARK    1  A    between atoms: C2_2  and  C30_32 
REMARK    2  A    between atoms: C3_3  and  C4_4 
REMARK    3  A    between atoms: C4_4  and  C5_5 
REMARK    4  A    between atoms: C5_5  and  C6_6 
REMARK    5  A    between atoms: C6_6  and  C8_8 
REMARK    6  A    between atoms: C29_30  and  O2_31 
REMARK    7  A    between atoms: C30_32  and  O3_33 
ROOT
HETATM    1  C8  UNL     1       1.097   5.916  12.553  1.00  0.00    -0.002 C 
HETATM    2  C9  UNL     1       0.603   7.224  13.237  1.00  0.00     0.007 C 
HETATM    3  C10 UNL     1      -0.915   7.089  13.463  1.00  0.00     0.015 C 
HETATM    4  C11 UNL     1      -1.215   5.595  13.263  1.00  0.00    -0.010 C 
HETATM    5  C12 UNL     1      -0.859   4.868  14.600  1.00  0.00     0.021 C 
HETATM    6  C13 UNL     1      -2.642   5.163  12.913  1.00  0.00    -0.039 C 
HETATM    7  C14 UNL     1      -2.842   4.027  12.192  1.00  0.00    -0.066 C 
HETATM    8  C15 UNL     1      -1.664   3.195  11.670  1.00  0.00     0.036 C 
HETATM    9  C16 UNL     1      -0.238   3.745  11.886  1.00  0.00     0.015 C 
HETATM   10  C17 UNL     1      -0.239   5.269  12.061  1.00  0.00    -0.029 C 
HETATM   11  C18 UNL     1      -0.669   5.930  10.716  1.00  0.00     0.016 C 
HETATM   12  C19 UNL     1      -4.266   3.553  11.784  1.00  0.00    -0.015 C 
HETATM   13  C20 UNL     1      -4.468   4.050  10.333  1.00  0.00     0.020 C 
HETATM   14  C21 UNL     1      -4.392   2.010  11.823  1.00  0.00     0.021 C 
HETATM   15  C22 UNL     1      -5.796   1.518  11.502  1.00  0.00     0.080 C 
HETATM   16  C23 UNL     1      -6.820   2.102  12.441  1.00  0.00     0.135 C 
HETATM   17  O1  UNL     1      -7.720   1.380  12.879  1.00  0.00    -0.297 OA
HETATM   18  C24 UNL     1      -6.789   3.616  12.703  1.00  0.00     0.018 C 
HETATM   19  C25 UNL     1      -7.503   3.859  14.061  1.00  0.00     0.023 C 
HETATM   20  C26 UNL     1      -7.635   4.306  11.622  1.00  0.00     0.023 C 
HETATM   21  C27 UNL     1      -5.308   4.119  12.816  1.00  0.00     0.016 C 
HETATM   22  C28 UNL     1      -5.169   5.650  12.898  1.00  0.00     0.043 C 
HETATM   23  C29 UNL     1      -3.777   6.042  13.405  1.00  0.00     0.148 C 
ENDROOT
BRANCH   1  24
HETATM   24  C6  UNL     1       2.251   6.177  11.543  1.00  0.00    -0.014 C 
HETATM   25  C7  UNL     1       3.271   7.200  12.053  1.00  0.00     0.010 C 
BRANCH  24  26
HETATM   26  C5  UNL     1       1.767   6.570  10.117  1.00  0.00     0.008 C 
BRANCH  26  27
HETATM   27  C4  UNL     1       2.818   6.953   9.064  1.00  0.00     0.028 C 
BRANCH  27  28
HETATM   28  C3  UNL     1       2.925   6.016   7.897  1.00  0.00    -0.022 C 
HETATM   29  C2  UNL     1       3.438   4.770   7.893  1.00  0.00    -0.064 C 
HETATM   30  C1  UNL     1       4.018   4.083   9.101  1.00  0.00     0.045 C 
BRANCH  29  31
HETATM   31  C30 UNL     1       3.457   3.949   6.631  1.00  0.00     0.197 C 
BRANCH  31  32
HETATM   32  O3  UNL     1       4.790   3.529   6.383  1.00  0.00    -0.397 OA
HETATM   33  H48 UNL     1       4.764   2.969   5.590  1.00  0.00     0.209 HD
ENDBRANCH  31  32
ENDBRANCH  29  31
ENDBRANCH  27  28
ENDBRANCH  26  27
ENDBRANCH  24  26
ENDBRANCH   1  24
BRANCH  23  34
HETATM   34  O2  UNL     1      -3.817   5.990  14.830  1.00  0.00    -0.391 OA
HETATM   35  H45 UNL     1      -3.605   5.079  15.089  1.00  0.00     0.210 HD
ENDBRANCH  23  34
TORSDOF 7
ENDMDL
MODEL 6
REMARK minimizedAffinity -6.52719545
REMARK CNNscore 0.467126697
REMARK CNNaffinity 6.28309107
REMARK  7 active torsions:
REMARK  status: ('A' for Active; 'I' for Inactive)
REMARK    1  A    between atoms: C2_2  and  C30_32 
REMARK    2  A    between atoms: C3_3  and  C4_4 
REMARK    3  A    between atoms: C4_4  and  C5_5 
REMARK    4  A    between atoms: C5_5  and  C6_6 
REMARK    5  A    between atoms: C6_6  and  C8_8 
REMARK    6  A    between atoms: C29_30  and  O2_31 
REMARK    7  A    between atoms: C30_32  and  O3_33 
ROOT
HETATM    1  C8  UNL     1      -5.377 -11.179   1.471  1.00  0.00    -0.002 C 
HETATM    2  C9  UNL     1      -3.969 -10.583   1.761  1.00  0.00     0.007 C 
HETATM    3  C10 UNL     1      -3.907 -10.240   3.261  1.00  0.00     0.015 C 
HETATM    4  C11 UNL     1      -5.105 -10.971   3.886  1.00  0.00    -0.010 C 
HETATM    5  C12 UNL     1      -4.674 -12.456   4.114  1.00  0.00     0.021 C 
HETATM    6  C13 UNL     1      -5.660 -10.481   5.226  1.00  0.00    -0.039 C 
HETATM    7  C14 UNL     1      -6.973 -10.676   5.522  1.00  0.00    -0.066 C 
HETATM    8  C15 UNL     1      -7.929 -11.328   4.516  1.00  0.00     0.036 C 
HETATM    9  C16 UNL     1      -7.386 -11.653   3.108  1.00  0.00     0.015 C 
HETATM   10  C17 UNL     1      -6.184 -10.772   2.746  1.00  0.00    -0.029 C 
HETATM   11  C18 UNL     1      -6.668  -9.296   2.602  1.00  0.00     0.016 C 
HETATM   12  C19 UNL     1      -7.599 -10.176   6.855  1.00  0.00    -0.015 C 
HETATM   13  C20 UNL     1      -8.272  -8.826   6.516  1.00  0.00     0.020 C 
HETATM   14  C21 UNL     1      -8.663 -11.162   7.397  1.00  0.00     0.021 C 
HETATM   15  C22 UNL     1      -9.239 -10.738   8.740  1.00  0.00     0.080 C 
HETATM   16  C23 UNL     1      -8.164 -10.580   9.784  1.00  0.00     0.135 C 
HETATM   17  O1  UNL     1      -8.366 -10.995  10.929  1.00  0.00    -0.297 OA
HETATM   18  C24 UNL     1      -6.908  -9.773   9.419  1.00  0.00     0.018 C 
HETATM   19  C25 UNL     1      -5.777 -10.230  10.381  1.00  0.00     0.023 C 
HETATM   20  C26 UNL     1      -7.184  -8.293   9.724  1.00  0.00     0.023 C 
HETATM   21  C27 UNL     1      -6.470 -10.083   7.946  1.00  0.00     0.016 C 
HETATM   22  C28 UNL     1      -5.329  -9.189   7.427  1.00  0.00     0.043 C 
HETATM   23  C29 UNL     1      -4.691  -9.795   6.173  1.00  0.00     0.148 C 
ENDROOT
BRANCH   1  24
HETATM   24  C6  UNL     1      -5.905 -10.789   0.060  1.00  0.00    -0.014 C 
HETATM   25  C7  UNL     1      -4.789 -10.362  -0.898  1.00  0.00     0.010 C 
BRANCH  24  26
HETATM   26  C5  UNL     1      -7.032  -9.715   0.082  1.00  0.00     0.008 C 
BRANCH  26  27
HETATM   27  C4  UNL     1      -8.200  -9.858  -0.905  1.00  0.00     0.028 C 
BRANCH  27  28
HETATM   28  C3  UNL     1      -8.745  -8.567  -1.443  1.00  0.00    -0.022 C 
HETATM   29  C2  UNL     1      -8.354  -7.915  -2.557  1.00  0.00    -0.064 C 
HETATM   30  C1  UNL     1      -7.263  -8.386  -3.481  1.00  0.00     0.045 C 
BRANCH  29  31
HETATM   31  C30 UNL     1      -9.019  -6.629  -2.969  1.00  0.00     0.197 C 
BRANCH  31  32
HETATM   32  O3  UNL     1      -8.078  -5.841  -3.682  1.00  0.00    -0.397 OA
HETATM   33  H48 UNL     1      -8.544  -5.039  -3.970  1.00  0.00     0.209 HD
ENDBRANCH  31  32
ENDBRANCH  29  31
ENDBRANCH  27  28
ENDBRANCH  26  27
ENDBRANCH  24  26
ENDBRANCH   1  24
BRANCH  23  34
HETATM   34  O2  UNL     1      -3.721 -10.745   6.609  1.00  0.00    -0.391 OA
HETATM   35  H45 UNL     1      -4.182 -11.591   6.728  1.00  0.00     0.210 HD
ENDBRANCH  23  34
TORSDOF 7
ENDMDL
MODEL 7
REMARK minimizedAffinity -7.37318087
REMARK CNNscore 0.441842258
REMARK CNNaffinity 6.68808985
REMARK  7 active torsions:
REMARK  status: ('A' for Active; 'I' for Inactive)
REMARK    1  A    between atoms: C2_2  and  C30_32 
REMARK    2  A    between atoms: C3_3  and  C4_4 
REMARK    3  A    between atoms: C4_4  and  C5_5 
REMARK    4  A    between atoms: C5_5  and  C6_6 
REMARK    5  A    between atoms: C6_6  and  C8_8 
REMARK    6  A    between atoms: C29_30  and  O2_31 
REMARK    7  A    between atoms: C30_32  and  O3_33 
ROOT
HETATM    1  C8  UNL     1      -1.413  10.434  15.866  1.00  0.00    -0.002 C 
HETATM    2  C9  UNL     1      -0.301   9.369  15.633  1.00  0.00     0.007 C 
HETATM    3  C10 UNL     1      -0.973   8.109  15.058  1.00  0.00     0.015 C 
HETATM    4  C11 UNL     1      -2.371   8.571  14.618  1.00  0.00    -0.010 C 
HETATM    5  C12 UNL     1      -2.217   9.239  13.213  1.00  0.00     0.021 C 
HETATM    6  C13 UNL     1      -3.486   7.531  14.471  1.00  0.00    -0.039 C 
HETATM    7  C14 UNL     1      -4.781   7.905  14.656  1.00  0.00    -0.066 C 
HETATM    8  C15 UNL     1      -5.149   9.336  15.064  1.00  0.00     0.036 C 
HETATM    9  C16 UNL     1      -3.998  10.317  15.376  1.00  0.00     0.015 C 
HETATM   10  C17 UNL     1      -2.718   9.578  15.787  1.00  0.00    -0.029 C 
HETATM   11  C18 UNL     1      -2.961   8.876  17.158  1.00  0.00     0.016 C 
HETATM   12  C19 UNL     1      -5.953   6.888  14.546  1.00  0.00    -0.015 C 
HETATM   13  C20 UNL     1      -6.270   6.465  16.000  1.00  0.00     0.020 C 
HETATM   14  C21 UNL     1      -7.212   7.526  13.908  1.00  0.00     0.021 C 
HETATM   15  C22 UNL     1      -8.352   6.536  13.718  1.00  0.00     0.080 C 
HETATM   16  C23 UNL     1      -7.935   5.361  12.872  1.00  0.00     0.135 C 
HETATM   17  O1  UNL     1      -8.711   4.926  12.017  1.00  0.00    -0.297 OA
HETATM   18  C24 UNL     1      -6.612   4.655  13.208  1.00  0.00     0.018 C 
HETATM   19  C25 UNL     1      -6.149   3.918  11.921  1.00  0.00     0.023 C 
HETATM   20  C26 UNL     1      -6.900   3.576  14.263  1.00  0.00     0.023 C 
HETATM   21  C27 UNL     1      -5.519   5.706  13.605  1.00  0.00     0.016 C 
HETATM   22  C28 UNL     1      -4.212   5.085  14.134  1.00  0.00     0.043 C 
HETATM   23  C29 UNL     1      -3.076   6.114  14.115  1.00  0.00     0.148 C 
ENDROOT
BRANCH   1  24
HETATM   24  C6  UNL     1      -1.134  11.313  17.119  1.00  0.00    -0.014 C 
HETATM   25  C7  UNL     1      -0.767  12.757  16.767  1.00  0.00     0.010 C 
BRANCH  24  26
HETATM   26  C5  UNL     1      -0.075  10.713  18.089  1.00  0.00     0.008 C 
BRANCH  26  27
HETATM   27  C4  UNL     1      -0.003  11.255  19.524  1.00  0.00     0.028 C 
BRANCH  27  28
HETATM   28  C3  UNL     1       0.984  10.566  20.420  1.00  0.00    -0.022 C 
HETATM   29  C2  UNL     1       2.302  10.825  20.537  1.00  0.00    -0.064 C 
HETATM   30  C1  UNL     1       3.035  11.884  19.756  1.00  0.00     0.045 C 
BRANCH  29  31
HETATM   31  C30 UNL     1       3.157  10.048  21.502  1.00  0.00     0.197 C 
BRANCH  31  32
HETATM   32  O3  UNL     1       4.472   9.963  20.975  1.00  0.00    -0.397 OA
HETATM   33  H48 UNL     1       5.009   9.494  21.635  1.00  0.00     0.209 HD
ENDBRANCH  31  32
ENDBRANCH  29  31
ENDBRANCH  27  28
ENDBRANCH  26  27
ENDBRANCH  24  26
ENDBRANCH   1  24
BRANCH  23  34
HETATM   34  O2  UNL     1      -2.523   6.109  12.800  1.00  0.00    -0.391 OA
HETATM   35  H45 UNL     1      -3.040   6.738  12.271  1.00  0.00     0.210 HD
ENDBRANCH  23  34
TORSDOF 7
ENDMDL
MODEL 8
REMARK minimizedAffinity -6.64067268
REMARK CNNscore 0.39237085
REMARK CNNaffinity 6.83046579
REMARK  7 active torsions:
REMARK  status: ('A' for Active; 'I' for Inactive)
REMARK    1  A    between atoms: C2_2  and  C30_32 
REMARK    2  A    between atoms: C3_3  and  C4_4 
REMARK    3  A    between atoms: C4_4  and  C5_5 
REMARK    4  A    between atoms: C5_5  and  C6_6 
REMARK    5  A    between atoms: C6_6  and  C8_8 
REMARK    6  A    between atoms: C29_30  and  O2_31 
REMARK    7  A    between atoms: C30_32  and  O3_33 
ROOT
HETATM    1  C8  UNL     1      -8.034   5.992  14.512  1.00  0.00    -0.002 C 
HETATM    2  C9  UNL     1      -6.974   7.123  14.662  1.00  0.00     0.007 C 
HETATM    3  C10 UNL     1      -7.730   8.456  14.805  1.00  0.00     0.015 C 
HETATM    4  C11 UNL     1      -9.182   8.059  15.111  1.00  0.00    -0.010 C 
HETATM    5  C12 UNL     1      -9.264   7.744  16.640  1.00  0.00     0.021 C 
HETATM    6  C13 UNL     1     -10.305   9.061  14.826  1.00  0.00    -0.039 C 
HETATM    7  C14 UNL     1     -11.552   8.607  14.529  1.00  0.00    -0.066 C 
HETATM    8  C15 UNL     1     -11.849   7.106  14.418  1.00  0.00     0.036 C 
HETATM    9  C16 UNL     1     -10.665   6.124  14.538  1.00  0.00     0.015 C 
HETATM   10  C17 UNL     1      -9.334   6.793  14.175  1.00  0.00    -0.029 C 
HETATM   11  C18 UNL     1      -9.345   7.144  12.655  1.00  0.00     0.016 C 
HETATM   12  C19 UNL     1     -12.724   9.576  14.204  1.00  0.00    -0.015 C 
HETATM   13  C20 UNL     1     -12.796   9.634  12.660  1.00  0.00     0.020 C 
HETATM   14  C21 UNL     1     -14.072   9.058  14.764  1.00  0.00     0.021 C 
HETATM   15  C22 UNL     1     -15.226  10.022  14.528  1.00  0.00     0.080 C 
HETATM   16  C23 UNL     1     -14.952  11.378  15.127  1.00  0.00     0.135 C 
HETATM   17  O1  UNL     1     -15.858  11.972  15.717  1.00  0.00    -0.297 OA
HETATM   18  C24 UNL     1     -13.590  12.035  14.850  1.00  0.00     0.018 C 
HETATM   19  C25 UNL     1     -13.345  13.070  15.982  1.00  0.00     0.023 C 
HETATM   20  C26 UNL     1     -13.698  12.824  13.537  1.00  0.00     0.023 C 
HETATM   21  C27 UNL     1     -12.449  10.961  14.894  1.00  0.00     0.016 C 
HETATM   22  C28 UNL     1     -11.071  11.489  14.452  1.00  0.00     0.043 C 
HETATM   23  C29 UNL     1      -9.956  10.536  14.896  1.00  0.00     0.148 C 
ENDROOT
BRANCH   1  24
HETATM   24  C6  UNL     1      -7.555   4.855  13.565  1.00  0.00    -0.014 C 
HETATM   25  C7  UNL     1      -7.576   3.475  14.229  1.00  0.00     0.010 C 
BRANCH  24  26
HETATM   26  C5  UNL     1      -6.162   5.116  12.919  1.00  0.00     0.008 C 
BRANCH  26  27
HETATM   27  C4  UNL     1      -5.174   3.945  12.807  1.00  0.00     0.028 C 
BRANCH  27  28
HETATM   28  C3  UNL     1      -3.724   4.331  12.799  1.00  0.00    -0.022 C 
HETATM   29  C2  UNL     1      -2.846   4.192  11.785  1.00  0.00    -0.064 C 
HETATM   30  C1  UNL     1      -3.182   3.600  10.442  1.00  0.00     0.045 C 
BRANCH  29  31
HETATM   31  C30 UNL     1      -1.419   4.647  11.935  1.00  0.00     0.197 C 
BRANCH  31  32
HETATM   32  O3  UNL     1      -0.631   4.002  10.946  1.00  0.00    -0.397 OA
HETATM   33  H48 UNL     1       0.272   4.345  11.040  1.00  0.00     0.209 HD
ENDBRANCH  31  32
ENDBRANCH  29  31
ENDBRANCH  27  28
ENDBRANCH  26  27
ENDBRANCH  24  26
ENDBRANCH   1  24
BRANCH  23  34
HETATM   34  O2  UNL     1      -9.628  10.870  16.244  1.00  0.00    -0.391 OA
HETATM   35  H45 UNL     1     -10.226  10.365  16.817  1.00  0.00     0.210 HD
ENDBRANCH  23  34
TORSDOF 7
ENDMDL
MODEL 9
REMARK minimizedAffinity -6.71647167
REMARK CNNscore 0.388879657
REMARK CNNaffinity 5.70098114
REMARK  7 active torsions:
REMARK  status: ('A' for Active; 'I' for Inactive)
REMARK    1  A    between atoms: C2_2  and  C30_32 
REMARK    2  A    between atoms: C3_3  and  C4_4 
REMARK    3  A    between atoms: C4_4  and  C5_5 
REMARK    4  A    between atoms: C5_5  and  C6_6 
REMARK    5  A    between atoms: C6_6  and  C8_8 
REMARK    6  A    between atoms: C29_30  and  O2_31 
REMARK    7  A    between atoms: C30_32  and  O3_33 
ROOT
HETATM    1  C8  UNL     1     -14.941  -5.092   9.821  1.00  0.00    -0.002 C 
HETATM    2  C9  UNL     1     -15.044  -3.651   9.242  1.00  0.00     0.007 C 
HETATM    3  C10 UNL     1     -15.393  -2.703  10.404  1.00  0.00     0.015 C 
HETATM    4  C11 UNL     1     -15.122  -3.520  11.677  1.00  0.00    -0.010 C 
HETATM    5  C12 UNL     1     -13.586  -3.446  11.957  1.00  0.00     0.021 C 
HETATM    6  C13 UNL     1     -15.810  -3.114  12.983  1.00  0.00    -0.039 C 
HETATM    7  C14 UNL     1     -16.073  -4.058  13.927  1.00  0.00    -0.066 C 
HETATM    8  C15 UNL     1     -15.745  -5.537  13.688  1.00  0.00     0.036 C 
HETATM    9  C16 UNL     1     -15.214  -5.945  12.298  1.00  0.00     0.015 C 
HETATM   10  C17 UNL     1     -15.634  -4.944  11.214  1.00  0.00    -0.029 C 
HETATM   11  C18 UNL     1     -17.181  -5.018  11.033  1.00  0.00     0.016 C 
HETATM   12  C19 UNL     1     -16.794  -3.710  15.260  1.00  0.00    -0.015 C 
HETATM   13  C20 UNL     1     -18.280  -4.074  15.034  1.00  0.00     0.020 C 
HETATM   14  C21 UNL     1     -16.236  -4.531  16.448  1.00  0.00     0.021 C 
HETATM   15  C22 UNL     1     -16.869  -4.158  17.781  1.00  0.00     0.080 C 
HETATM   16  C23 UNL     1     -16.692  -2.694  18.092  1.00  0.00     0.135 C 
HETATM   17  O1  UNL     1     -16.405  -2.350  19.242  1.00  0.00    -0.297 OA
HETATM   18  C24 UNL     1     -17.024  -1.671  16.994  1.00  0.00     0.018 C 
HETATM   19  C25 UNL     1     -16.247  -0.369  17.334  1.00  0.00     0.023 C 
HETATM   20  C26 UNL     1     -18.520  -1.337  17.087  1.00  0.00     0.023 C 
HETATM   21  C27 UNL     1     -16.540  -2.195  15.598  1.00  0.00     0.016 C 
HETATM   22  C28 UNL     1     -16.987  -1.323  14.409  1.00  0.00     0.043 C 
HETATM   23  C29 UNL     1     -16.164  -1.648  13.158  1.00  0.00     0.148 C 
ENDROOT
BRANCH   1  24
HETATM   24  C6  UNL     1     -15.441  -6.169   8.815  1.00  0.00    -0.014 C 
HETATM   25  C7  UNL     1     -15.115  -7.598   9.259  1.00  0.00     0.010 C 
BRANCH  24  26
HETATM   26  C5  UNL     1     -14.958  -5.940   7.353  1.00  0.00     0.008 C 
BRANCH  26  27
HETATM   27  C4  UNL     1     -13.460  -5.707   7.103  1.00  0.00     0.028 C 
BRANCH  27  28
HETATM   28  C3  UNL     1     -12.846  -6.575   6.043  1.00  0.00    -0.022 C 
HETATM   29  C2  UNL     1     -12.425  -6.197   4.819  1.00  0.00    -0.064 C 
HETATM   30  C1  UNL     1     -12.509  -4.791   4.286  1.00  0.00     0.045 C 
BRANCH  29  31
HETATM   31  C30 UNL     1     -11.813  -7.195   3.874  1.00  0.00     0.197 C 
BRANCH  31  32
HETATM   32  O3  UNL     1     -12.619  -7.269   2.708  1.00  0.00    -0.397 OA
HETATM   33  H48 UNL     1     -12.179  -7.887   2.101  1.00  0.00     0.209 HD
ENDBRANCH  31  32
ENDBRANCH  29  31
ENDBRANCH  27  28
ENDBRANCH  26  27
ENDBRANCH  24  26
ENDBRANCH   1  24
BRANCH  23  34
HETATM   34  O2  UNL     1     -14.959  -0.888  13.236  1.00  0.00    -0.391 OA
HETATM   35  H45 UNL     1     -14.320  -1.418  13.738  1.00  0.00     0.210 HD
ENDBRANCH  23  34
TORSDOF 7
ENDMDL
