MODEL 1
REMARK minimizedAffinity -9.59821892
REMARK  7 active torsions:
REMARK  status: ('A' for Active; 'I' for Inactive)
REMARK    1  A    between atoms: C19_20  and  O2_21 
REMARK    2  A    between atoms: O2_21  and  C20_22 
REMARK    3  A    between atoms: C20_22  and  C21_24 
REMARK    4  A    between atoms: C21_24  and  C22_25 
REMARK    5  A    between atoms: C22_25  and  C23_26 
REMARK       I    between atoms: C23_26  and  N1_28 
REMARK    6  A    between atoms: N1_28  and  C24_29 
REMARK    7  A    between atoms: C24_29  and  C25_30 
ROOT
HETATM    1  C1  UNL     1      -4.270  47.775 -21.847  1.00  0.00     0.018 C 
HETATM    2  C2  UNL     1      -4.284  49.163 -22.537  1.00  0.00    -0.013 C 
HETATM    3  C3  UNL     1      -3.002  49.335 -23.367  1.00  0.00     0.012 C 
HETATM    4  C4  UNL     1      -1.747  49.451 -22.481  1.00  0.00     0.007 C 
HETATM    5  C5  UNL     1      -1.868  50.561 -21.407  1.00  0.00     0.002 C 
HETATM    6  C6  UNL     1      -3.195  50.412 -20.581  1.00  0.00    -0.004 C 
HETATM    7  C7  UNL     1      -3.362  51.553 -19.558  1.00  0.00     0.010 C 
HETATM    8  C8  UNL     1      -2.129  51.729 -18.668  1.00  0.00     0.035 C 
HETATM    9  C9  UNL     1      -0.917  51.889 -19.549  1.00  0.00    -0.068 C 
HETATM   10  C10 UNL     1      -0.276  53.070 -19.600  1.00  0.00     0.053 C 
HETATM   11  C11 UNL     1       0.702  53.370 -20.674  1.00  0.00     0.149 C 
HETATM   12  O1  UNL     1       1.286  54.450 -20.674  1.00  0.00    -0.293 OA
HETATM   13  C12 UNL     1       0.836  52.374 -21.798  1.00  0.00     0.084 C 
HETATM   14  C13 UNL     1       0.710  50.963 -21.251  1.00  0.00     0.022 C 
HETATM   15  C14 UNL     1      -0.613  50.703 -20.474  1.00  0.00    -0.016 C 
HETATM   16  C15 UNL     1      -0.360  49.416 -19.650  1.00  0.00     0.020 C 
HETATM   17  C16 UNL     1      -4.374  50.356 -21.562  1.00  0.00     0.001 C 
HETATM   18  C17 UNL     1      -5.786  50.257 -21.000  1.00  0.00     0.008 C 
HETATM   19  C18 UNL     1      -6.628  49.733 -22.179  1.00  0.00     0.034 C 
HETATM   20  C19 UNL     1      -5.632  49.309 -23.285  1.00  0.00     0.140 C 
ENDROOT
BRANCH  20  21
HETATM   21  O2  UNL     1      -5.597  50.381 -24.246  1.00  0.00    -0.315 OA
BRANCH  21  22
HETATM   22  C20 UNL     1      -4.875  51.479 -23.894  1.00  0.00     0.259 C 
HETATM   23  O3  UNL     1      -5.175  52.258 -22.998  1.00  0.00    -0.265 OA
BRANCH  22  24
HETATM   24  C21 UNL     1      -3.705  51.704 -24.823  1.00  0.00     0.120 C 
BRANCH  24  25
HETATM   25  C22 UNL     1      -3.718  50.852 -26.087  1.00  0.00     0.112 C 
BRANCH  25  26
HETATM   26  C23 UNL     1      -2.764  51.374 -27.140  1.00  0.00     0.218 C 
HETATM   27  O4  UNL     1      -2.445  50.739 -28.138  1.00  0.00    -0.274 OA
HETATM   28  N1  UNL     1      -2.283  52.634 -26.856  1.00  0.00    -0.357 N 
HETATM   29  H32 UNL     1      -2.449  53.021 -25.937  1.00  0.00     0.162 HD
BRANCH  28  30
HETATM   30  C24 UNL     1      -1.246  53.242 -27.662  1.00  0.00     0.162 C 
BRANCH  30  31
HETATM   31  C25 UNL     1       0.095  52.653 -27.340  1.00  0.00    -0.025 A 
HETATM   32  C26 UNL     1       0.886  52.041 -28.318  1.00  0.00     0.011 A 
HETATM   33  C27 UNL     1       2.135  51.528 -27.974  1.00  0.00     0.018 A 
HETATM   34  C28 UNL     1       2.556  51.651 -26.660  1.00  0.00     0.087 A 
HETATM   35  N2  UNL     1       1.827  52.243 -25.691  1.00  0.00    -0.375 N 
HETATM   36  C29 UNL     1       0.617  52.731 -26.051  1.00  0.00     0.096 A 
ATOM     37  H2  UNL     1       2.171  52.320 -24.735  1.00  0.00     0.164 HD
ENDBRANCH  30  31
ENDBRANCH  28  30
ENDBRANCH  25  26
ENDBRANCH  24  25
ENDBRANCH  22  24
ENDBRANCH  21  22
ENDBRANCH  20  21
TORSDOF 7
ENDMDL
MODEL 2
REMARK minimizedAffinity -9.38112926
REMARK  7 active torsions:
REMARK  status: ('A' for Active; 'I' for Inactive)
REMARK    1  A    between atoms: C19_20  and  O2_21 
REMARK    2  A    between atoms: O2_21  and  C20_22 
REMARK    3  A    between atoms: C20_22  and  C21_24 
REMARK    4  A    between atoms: C21_24  and  C22_25 
REMARK    5  A    between atoms: C22_25  and  C23_26 
REMARK       I    between atoms: C23_26  and  N1_28 
REMARK    6  A    between atoms: N1_28  and  C24_29 
REMARK    7  A    between atoms: C24_29  and  C25_30 
ROOT
HETATM    1  C1  UNL     1      -5.788  50.539 -22.384  1.00  0.00     0.018 C 
HETATM    2  C2  UNL     1      -4.439  49.956 -21.891  1.00  0.00    -0.013 C 
HETATM    3  C3  UNL     1      -3.484  51.107 -21.535  1.00  0.00     0.012 C 
HETATM    4  C4  UNL     1      -3.035  51.895 -22.780  1.00  0.00     0.007 C 
HETATM    5  C5  UNL     1      -2.430  50.990 -23.882  1.00  0.00     0.002 C 
HETATM    6  C6  UNL     1      -3.386  49.791 -24.222  1.00  0.00    -0.004 C 
HETATM    7  C7  UNL     1      -2.763  48.841 -25.264  1.00  0.00     0.010 C 
HETATM    8  C8  UNL     1      -2.275  49.580 -26.514  1.00  0.00     0.035 C 
HETATM    9  C9  UNL     1      -1.349  50.690 -26.087  1.00  0.00    -0.068 C 
HETATM   10  C10 UNL     1      -0.038  50.619 -26.379  1.00  0.00     0.053 C 
HETATM   11  C11 UNL     1       0.948  51.504 -25.713  1.00  0.00     0.149 C 
HETATM   12  O1  UNL     1       2.134  51.428 -26.023  1.00  0.00    -0.293 OA
HETATM   13  C12 UNL     1       0.459  52.372 -24.582  1.00  0.00     0.084 C 
HETATM   14  C13 UNL     1      -0.937  52.882 -24.893  1.00  0.00     0.022 C 
HETATM   15  C14 UNL     1      -1.972  51.755 -25.175  1.00  0.00    -0.016 C 
HETATM   16  C15 UNL     1      -3.160  52.454 -25.881  1.00  0.00     0.020 C 
HETATM   17  C16 UNL     1      -3.724  49.055 -22.919  1.00  0.00     0.001 C 
HETATM   18  C17 UNL     1      -4.607  47.816 -22.988  1.00  0.00     0.008 C 
HETATM   19  C18 UNL     1      -5.134  47.644 -21.551  1.00  0.00     0.034 C 
HETATM   20  C19 UNL     1      -4.744  48.925 -20.776  1.00  0.00     0.140 C 
ENDROOT
BRANCH  20  21
HETATM   21  O2  UNL     1      -3.570  48.605 -20.007  1.00  0.00    -0.315 OA
BRANCH  21  22
HETATM   22  C20 UNL     1      -2.580  47.948 -20.670  1.00  0.00     0.259 C 
HETATM   23  O3  UNL     1      -2.695  46.844 -21.189  1.00  0.00    -0.265 OA
BRANCH  22  24
HETATM   24  C21 UNL     1      -1.265  48.688 -20.594  1.00  0.00     0.120 C 
BRANCH  24  25
HETATM   25  C22 UNL     1      -0.926  49.250 -19.217  1.00  0.00     0.112 C 
BRANCH  25  26
HETATM   26  C23 UNL     1      -0.235  50.594 -19.303  1.00  0.00     0.218 C 
HETATM   27  O4  UNL     1       0.104  51.113 -20.360  1.00  0.00    -0.274 OA
HETATM   28  N1  UNL     1      -0.019  51.170 -18.069  1.00  0.00    -0.357 N 
HETATM   29  H32 UNL     1      -0.163  50.610 -17.240  1.00  0.00     0.162 HD
BRANCH  28  30
HETATM   30  C24 UNL     1       0.761  52.382 -17.933  1.00  0.00     0.162 C 
BRANCH  30  31
HETATM   31  C25 UNL     1       1.659  52.308 -16.734  1.00  0.00    -0.025 A 
HETATM   32  C26 UNL     1       3.041  52.501 -16.834  1.00  0.00     0.011 A 
HETATM   33  C27 UNL     1       3.830  52.445 -15.688  1.00  0.00     0.018 A 
HETATM   34  C28 UNL     1       3.209  52.203 -14.474  1.00  0.00     0.087 A 
HETATM   35  N2  UNL     1       1.879  52.022 -14.335  1.00  0.00    -0.375 N 
HETATM   36  C29 UNL     1       1.134  52.080 -15.464  1.00  0.00     0.096 A 
ATOM     37  H2  UNL     1       1.455  51.851 -13.423  1.00  0.00     0.164 HD
ENDBRANCH  30  31
ENDBRANCH  28  30
ENDBRANCH  25  26
ENDBRANCH  24  25
ENDBRANCH  22  24
ENDBRANCH  21  22
ENDBRANCH  20  21
TORSDOF 7
ENDMDL
MODEL 3
REMARK minimizedAffinity -9.19822788
REMARK  7 active torsions:
REMARK  status: ('A' for Active; 'I' for Inactive)
REMARK    1  A    between atoms: C19_20  and  O2_21 
REMARK    2  A    between atoms: O2_21  and  C20_22 
REMARK    3  A    between atoms: C20_22  and  C21_24 
REMARK    4  A    between atoms: C21_24  and  C22_25 
REMARK    5  A    between atoms: C22_25  and  C23_26 
REMARK       I    between atoms: C23_26  and  N1_28 
REMARK    6  A    between atoms: N1_28  and  C24_29 
REMARK    7  A    between atoms: C24_29  and  C25_30 
ROOT
HETATM    1  C1  UNL     1      -5.258  50.795 -22.361  1.00  0.00     0.018 C 
HETATM    2  C2  UNL     1      -3.904  50.164 -21.947  1.00  0.00    -0.013 C 
HETATM    3  C3  UNL     1      -2.885  51.279 -21.659  1.00  0.00     0.012 C 
HETATM    4  C4  UNL     1      -2.485  52.044 -22.935  1.00  0.00     0.007 C 
HETATM    5  C5  UNL     1      -1.983  51.110 -24.065  1.00  0.00     0.002 C 
HETATM    6  C6  UNL     1      -3.003  49.947 -24.337  1.00  0.00    -0.004 C 
HETATM    7  C7  UNL     1      -2.481  48.969 -25.408  1.00  0.00     0.010 C 
HETATM    8  C8  UNL     1      -2.043  49.682 -26.691  1.00  0.00     0.035 C 
HETATM    9  C9  UNL     1      -1.051  50.758 -26.329  1.00  0.00    -0.068 C 
HETATM   10  C10 UNL     1       0.235  50.636 -26.701  1.00  0.00     0.053 C 
HETATM   11  C11 UNL     1       1.294  51.485 -26.103  1.00  0.00     0.149 C 
HETATM   12  O1  UNL     1       2.454  51.363 -26.484  1.00  0.00    -0.293 OA
HETATM   13  C12 UNL     1       0.908  52.378 -24.950  1.00  0.00     0.084 C 
HETATM   14  C13 UNL     1      -0.484  52.939 -25.179  1.00  0.00     0.022 C 
HETATM   15  C14 UNL     1      -1.576  51.850 -25.389  1.00  0.00    -0.016 C 
HETATM   16  C15 UNL     1      -2.779  52.591 -26.026  1.00  0.00     0.020 C 
HETATM   17  C16 UNL     1      -3.287  49.230 -23.010  1.00  0.00     0.001 C 
HETATM   18  C17 UNL     1      -4.219  48.026 -23.016  1.00  0.00     0.008 C 
HETATM   19  C18 UNL     1      -4.663  47.881 -21.548  1.00  0.00     0.034 C 
HETATM   20  C19 UNL     1      -4.178  49.151 -20.808  1.00  0.00     0.140 C 
ENDROOT
BRANCH  20  21
HETATM   21  O2  UNL     1      -2.972  48.790 -20.110  1.00  0.00    -0.315 OA
BRANCH  21  22
HETATM   22  C20 UNL     1      -3.136  48.159 -18.916  1.00  0.00     0.259 C 
HETATM   23  O3  UNL     1      -2.787  47.010 -18.675  1.00  0.00    -0.265 OA
BRANCH  22  24
HETATM   24  C21 UNL     1      -3.918  49.004 -17.936  1.00  0.00     0.120 C 
BRANCH  24  25
HETATM   25  C22 UNL     1      -3.075  49.686 -16.864  1.00  0.00     0.112 C 
BRANCH  25  26
HETATM   26  C23 UNL     1      -2.267  50.840 -17.419  1.00  0.00     0.218 C 
HETATM   27  O4  UNL     1      -2.736  51.701 -18.154  1.00  0.00    -0.274 OA
HETATM   28  N1  UNL     1      -0.948  50.817 -17.020  1.00  0.00    -0.357 N 
HETATM   29  H32 UNL     1      -0.593  49.988 -16.564  1.00  0.00     0.162 HD
BRANCH  28  30
HETATM   30  C24 UNL     1       0.017  51.748 -17.565  1.00  0.00     0.162 C 
BRANCH  30  31
HETATM   31  C25 UNL     1       1.228  51.841 -16.684  1.00  0.00    -0.025 A 
HETATM   32  C26 UNL     1       2.379  52.527 -17.082  1.00  0.00     0.011 A 
HETATM   33  C27 UNL     1       3.470  52.605 -16.220  1.00  0.00     0.018 A 
HETATM   34  C28 UNL     1       3.370  51.996 -14.979  1.00  0.00     0.087 A 
HETATM   35  N2  UNL     1       2.273  51.334 -14.555  1.00  0.00    -0.375 N 
HETATM   36  C29 UNL     1       1.228  51.272 -15.413  1.00  0.00     0.096 A 
ATOM     37  H2  UNL     1       2.234  50.902 -13.632  1.00  0.00     0.164 HD
ENDBRANCH  30  31
ENDBRANCH  28  30
ENDBRANCH  25  26
ENDBRANCH  24  25
ENDBRANCH  22  24
ENDBRANCH  21  22
ENDBRANCH  20  21
TORSDOF 7
ENDMDL
MODEL 4
REMARK minimizedAffinity -9.16987324
REMARK  7 active torsions:
REMARK  status: ('A' for Active; 'I' for Inactive)
REMARK    1  A    between atoms: C19_20  and  O2_21 
REMARK    2  A    between atoms: O2_21  and  C20_22 
REMARK    3  A    between atoms: C20_22  and  C21_24 
REMARK    4  A    between atoms: C21_24  and  C22_25 
REMARK    5  A    between atoms: C22_25  and  C23_26 
REMARK       I    between atoms: C23_26  and  N1_28 
REMARK    6  A    between atoms: N1_28  and  C24_29 
REMARK    7  A    between atoms: C24_29  and  C25_30 
ROOT
HETATM    1  C1  UNL     1      -6.023  50.896 -23.114  1.00  0.00     0.018 C 
HETATM    2  C2  UNL     1      -4.733  50.419 -22.399  1.00  0.00    -0.013 C 
HETATM    3  C3  UNL     1      -3.819  51.626 -22.133  1.00  0.00     0.012 C 
HETATM    4  C4  UNL     1      -3.242  52.215 -23.435  1.00  0.00     0.007 C 
HETATM    5  C5  UNL     1      -2.527  51.157 -24.311  1.00  0.00     0.002 C 
HETATM    6  C6  UNL     1      -3.443  49.905 -24.554  1.00  0.00    -0.004 C 
HETATM    7  C7  UNL     1      -2.717  48.813 -25.363  1.00  0.00     0.010 C 
HETATM    8  C8  UNL     1      -2.100  49.354 -26.657  1.00  0.00     0.035 C 
HETATM    9  C9  UNL     1      -1.222  50.531 -26.317  1.00  0.00    -0.068 C 
HETATM   10  C10 UNL     1       0.112  50.434 -26.458  1.00  0.00     0.053 C 
HETATM   11  C11 UNL     1       1.024  51.428 -25.843  1.00  0.00     0.149 C 
HETATM   12  O1  UNL     1       2.236  51.323 -26.013  1.00  0.00    -0.293 OA
HETATM   13  C12 UNL     1       0.421  52.456 -24.919  1.00  0.00     0.084 C 
HETATM   14  C13 UNL     1      -0.934  52.889 -25.449  1.00  0.00     0.022 C 
HETATM   15  C14 UNL     1      -1.935  51.716 -25.654  1.00  0.00    -0.016 C 
HETATM   16  C15 UNL     1      -3.043  52.278 -26.581  1.00  0.00     0.020 C 
HETATM   17  C16 UNL     1      -3.916  49.378 -23.193  1.00  0.00     0.001 C 
HETATM   18  C17 UNL     1      -4.789  48.130 -23.156  1.00  0.00     0.008 C 
HETATM   19  C18 UNL     1      -5.463  48.178 -21.772  1.00  0.00     0.034 C 
HETATM   20  C19 UNL     1      -5.154  49.572 -21.173  1.00  0.00     0.140 C 
ENDROOT
BRANCH  20  21
HETATM   21  O2  UNL     1      -4.067  49.394 -20.246  1.00  0.00    -0.315 OA
BRANCH  21  22
HETATM   22  C20 UNL     1      -4.327  48.620 -19.158  1.00  0.00     0.259 C 
HETATM   23  O3  UNL     1      -5.195  48.851 -18.325  1.00  0.00    -0.265 OA
BRANCH  22  24
HETATM   24  C21 UNL     1      -3.333  47.491 -19.020  1.00  0.00     0.120 C 
BRANCH  24  25
HETATM   25  C22 UNL     1      -1.892  47.931 -18.783  1.00  0.00     0.112 C 
BRANCH  25  26
HETATM   26  C23 UNL     1      -1.206  48.357 -20.063  1.00  0.00     0.218 C 
HETATM   27  O4  UNL     1      -0.743  47.565 -20.876  1.00  0.00    -0.274 OA
HETATM   28  N1  UNL     1      -1.147  49.725 -20.216  1.00  0.00    -0.357 N 
HETATM   29  H32 UNL     1      -1.389  50.312 -19.429  1.00  0.00     0.162 HD
BRANCH  28  30
HETATM   30  C24 UNL     1      -0.400  50.328 -21.298  1.00  0.00     0.162 C 
BRANCH  30  31
HETATM   31  C25 UNL     1       0.082  51.697 -20.918  1.00  0.00    -0.025 A 
HETATM   32  C26 UNL     1       0.890  52.458 -21.770  1.00  0.00     0.011 A 
HETATM   33  C27 UNL     1       1.294  53.733 -21.381  1.00  0.00     0.018 A 
HETATM   34  C28 UNL     1       0.869  54.210 -20.152  1.00  0.00     0.087 A 
HETATM   35  N2  UNL     1       0.081  53.511 -19.308  1.00  0.00    -0.375 N 
HETATM   36  C29 UNL     1      -0.296  52.274 -19.708  1.00  0.00     0.096 A 
ATOM     37  H2  UNL     1      -0.217  53.897 -18.412  1.00  0.00     0.164 HD
ENDBRANCH  30  31
ENDBRANCH  28  30
ENDBRANCH  25  26
ENDBRANCH  24  25
ENDBRANCH  22  24
ENDBRANCH  21  22
ENDBRANCH  20  21
TORSDOF 7
ENDMDL
MODEL 5
REMARK minimizedAffinity -9.08993912
REMARK  7 active torsions:
REMARK  status: ('A' for Active; 'I' for Inactive)
REMARK    1  A    between atoms: C19_20  and  O2_21 
REMARK    2  A    between atoms: O2_21  and  C20_22 
REMARK    3  A    between atoms: C20_22  and  C21_24 
REMARK    4  A    between atoms: C21_24  and  C22_25 
REMARK    5  A    between atoms: C22_25  and  C23_26 
REMARK       I    between atoms: C23_26  and  N1_28 
REMARK    6  A    between atoms: N1_28  and  C24_29 
REMARK    7  A    between atoms: C24_29  and  C25_30 
ROOT
HETATM    1  C1  UNL     1      -5.646  50.808 -22.720  1.00  0.00     0.018 C 
HETATM    2  C2  UNL     1      -4.339  50.155 -22.202  1.00  0.00    -0.013 C 
HETATM    3  C3  UNL     1      -3.339  51.255 -21.806  1.00  0.00     0.012 C 
HETATM    4  C4  UNL     1      -2.823  52.037 -23.029  1.00  0.00     0.007 C 
HETATM    5  C5  UNL     1      -2.233  51.117 -24.128  1.00  0.00     0.002 C 
HETATM    6  C6  UNL     1      -3.235  49.970 -24.508  1.00  0.00    -0.004 C 
HETATM    7  C7  UNL     1      -2.632  49.005 -25.548  1.00  0.00     0.010 C 
HETATM    8  C8  UNL     1      -2.078  49.736 -26.774  1.00  0.00     0.035 C 
HETATM    9  C9  UNL     1      -1.111  50.795 -26.309  1.00  0.00    -0.068 C 
HETATM   10  C10 UNL     1       0.201  50.665 -26.570  1.00  0.00     0.053 C 
HETATM   11  C11 UNL     1       1.211  51.494 -25.867  1.00  0.00     0.149 C 
HETATM   12  O1  UNL     1       2.399  51.366 -26.149  1.00  0.00    -0.293 OA
HETATM   13  C12 UNL     1       0.735  52.370 -24.736  1.00  0.00     0.084 C 
HETATM   14  C13 UNL     1      -0.627  52.949 -25.075  1.00  0.00     0.022 C 
HETATM   15  C14 UNL     1      -1.706  51.876 -25.398  1.00  0.00    -0.016 C 
HETATM   16  C15 UNL     1      -2.842  52.640 -26.124  1.00  0.00     0.020 C 
HETATM   17  C16 UNL     1      -3.640  49.234 -23.224  1.00  0.00     0.001 C 
HETATM   18  C17 UNL     1      -4.579  48.039 -23.333  1.00  0.00     0.008 C 
HETATM   19  C18 UNL     1      -5.150  47.874 -21.911  1.00  0.00     0.034 C 
HETATM   20  C19 UNL     1      -4.720  49.126 -21.109  1.00  0.00     0.140 C 
ENDROOT
BRANCH  20  21
HETATM   21  O2  UNL     1      -3.582  48.740 -20.316  1.00  0.00    -0.315 OA
BRANCH  21  22
HETATM   22  C20 UNL     1      -3.622  49.087 -19.001  1.00  0.00     0.259 C 
HETATM   23  O3  UNL     1      -4.623  49.048 -18.296  1.00  0.00    -0.265 OA
BRANCH  22  24
HETATM   24  C21 UNL     1      -2.302  49.649 -18.527  1.00  0.00     0.120 C 
BRANCH  24  25
HETATM   25  C22 UNL     1      -1.192  49.642 -19.572  1.00  0.00     0.112 C 
BRANCH  25  26
HETATM   26  C23 UNL     1      -0.351  50.901 -19.521  1.00  0.00     0.218 C 
HETATM   27  O4  UNL     1       0.057  51.480 -20.521  1.00  0.00    -0.274 OA
HETATM   28  N1  UNL     1      -0.085  51.322 -18.237  1.00  0.00    -0.357 N 
HETATM   29  H32 UNL     1      -0.302  50.702 -17.468  1.00  0.00     0.162 HD
BRANCH  28  30
HETATM   30  C24 UNL     1       0.825  52.416 -17.979  1.00  0.00     0.162 C 
BRANCH  30  31
HETATM   31  C25 UNL     1       1.615  52.173 -16.727  1.00  0.00    -0.025 A 
HETATM   32  C26 UNL     1       1.196  51.256 -15.757  1.00  0.00     0.011 A 
HETATM   33  C27 UNL     1       1.975  51.049 -14.622  1.00  0.00     0.018 A 
HETATM   34  C28 UNL     1       3.155  51.762 -14.496  1.00  0.00     0.087 A 
HETATM   35  N2  UNL     1       3.599  52.646 -15.414  1.00  0.00    -0.375 N 
HETATM   36  C29 UNL     1       2.822  52.831 -16.507  1.00  0.00     0.096 A 
ATOM     37  H2  UNL     1       4.477  53.151 -15.290  1.00  0.00     0.164 HD
ENDBRANCH  30  31
ENDBRANCH  28  30
ENDBRANCH  25  26
ENDBRANCH  24  25
ENDBRANCH  22  24
ENDBRANCH  21  22
ENDBRANCH  20  21
TORSDOF 7
ENDMDL
MODEL 6
REMARK minimizedAffinity -9.0121088
REMARK  7 active torsions:
REMARK  status: ('A' for Active; 'I' for Inactive)
REMARK    1  A    between atoms: C19_20  and  O2_21 
REMARK    2  A    between atoms: O2_21  and  C20_22 
REMARK    3  A    between atoms: C20_22  and  C21_24 
REMARK    4  A    between atoms: C21_24  and  C22_25 
REMARK    5  A    between atoms: C22_25  and  C23_26 
REMARK       I    between atoms: C23_26  and  N1_28 
REMARK    6  A    between atoms: N1_28  and  C24_29 
REMARK    7  A    between atoms: C24_29  and  C25_30 
ROOT
HETATM    1  C1  UNL     1      -4.736  50.749 -21.557  1.00  0.00     0.018 C 
HETATM    2  C2  UNL     1      -3.329  50.138 -21.335  1.00  0.00    -0.013 C 
HETATM    3  C3  UNL     1      -2.297  51.270 -21.196  1.00  0.00     0.012 C 
HETATM    4  C4  UNL     1      -2.090  52.033 -22.518  1.00  0.00     0.007 C 
HETATM    5  C5  UNL     1      -1.738  51.100 -23.704  1.00  0.00     0.002 C 
HETATM    6  C6  UNL     1      -2.768  49.922 -23.827  1.00  0.00    -0.004 C 
HETATM    7  C7  UNL     1      -2.387  48.946 -24.958  1.00  0.00     0.010 C 
HETATM    8  C8  UNL     1      -2.143  49.659 -26.291  1.00  0.00     0.035 C 
HETATM    9  C9  UNL     1      -1.126  50.750 -26.075  1.00  0.00    -0.068 C 
HETATM   10  C10 UNL     1       0.097  50.644 -26.623  1.00  0.00     0.053 C 
HETATM   11  C11 UNL     1       1.216  51.511 -26.182  1.00  0.00     0.149 C 
HETATM   12  O1  UNL     1       2.313  51.403 -26.721  1.00  0.00    -0.293 OA
HETATM   13  C12 UNL     1       0.982  52.404 -24.989  1.00  0.00     0.084 C 
HETATM   14  C13 UNL     1      -0.436  52.944 -25.023  1.00  0.00     0.022 C 
HETATM   15  C14 UNL     1      -1.531  51.840 -25.074  1.00  0.00    -0.016 C 
HETATM   16  C15 UNL     1      -2.821  52.561 -25.539  1.00  0.00     0.020 C 
HETATM   17  C16 UNL     1      -2.853  49.208 -22.471  1.00  0.00     0.001 C 
HETATM   18  C17 UNL     1      -3.760  47.991 -22.343  1.00  0.00     0.008 C 
HETATM   19  C18 UNL     1      -3.992  47.848 -20.827  1.00  0.00     0.034 C 
HETATM   20  C19 UNL     1      -3.427  49.128 -20.166  1.00  0.00     0.140 C 
ENDROOT
BRANCH  20  21
HETATM   21  O2  UNL     1      -2.129  48.787 -19.643  1.00  0.00    -0.315 OA
BRANCH  21  22
HETATM   22  C20 UNL     1      -1.751  49.435 -18.508  1.00  0.00     0.259 C 
HETATM   23  O3  UNL     1      -0.616  49.830 -18.271  1.00  0.00    -0.265 OA
BRANCH  22  24
HETATM   24  C21 UNL     1      -2.876  49.511 -17.502  1.00  0.00     0.120 C 
BRANCH  24  25
HETATM   25  C22 UNL     1      -2.871  50.761 -16.629  1.00  0.00     0.112 C 
BRANCH  25  26
HETATM   26  C23 UNL     1      -2.455  50.462 -15.204  1.00  0.00     0.218 C 
HETATM   27  O4  UNL     1      -1.444  49.835 -14.913  1.00  0.00    -0.274 OA
HETATM   28  N1  UNL     1      -3.337  50.960 -14.268  1.00  0.00    -0.357 N 
HETATM   29  H32 UNL     1      -4.232  51.309 -14.583  1.00  0.00     0.162 HD
BRANCH  28  30
HETATM   30  C24 UNL     1      -3.193  50.649 -12.863  1.00  0.00     0.162 C 
BRANCH  30  31
HETATM   31  C25 UNL     1      -3.039  51.901 -12.051  1.00  0.00    -0.025 A 
HETATM   32  C26 UNL     1      -4.093  52.425 -11.296  1.00  0.00     0.011 A 
HETATM   33  C27 UNL     1      -3.894  53.578 -10.541  1.00  0.00     0.018 A 
HETATM   34  C28 UNL     1      -2.641  54.168 -10.560  1.00  0.00     0.087 A 
HETATM   35  N2  UNL     1      -1.597  53.686 -11.266  1.00  0.00    -0.375 N 
HETATM   36  C29 UNL     1      -1.817  52.566 -11.993  1.00  0.00     0.096 A 
ATOM     37  H2  UNL     1      -0.686  54.145 -11.253  1.00  0.00     0.164 HD
ENDBRANCH  30  31
ENDBRANCH  28  30
ENDBRANCH  25  26
ENDBRANCH  24  25
ENDBRANCH  22  24
ENDBRANCH  21  22
ENDBRANCH  20  21
TORSDOF 7
ENDMDL
MODEL 7
REMARK minimizedAffinity -8.96341419
REMARK  7 active torsions:
REMARK  status: ('A' for Active; 'I' for Inactive)
REMARK    1  A    between atoms: C19_20  and  O2_21 
REMARK    2  A    between atoms: O2_21  and  C20_22 
REMARK    3  A    between atoms: C20_22  and  C21_24 
REMARK    4  A    between atoms: C21_24  and  C22_25 
REMARK    5  A    between atoms: C22_25  and  C23_26 
REMARK       I    between atoms: C23_26  and  N1_28 
REMARK    6  A    between atoms: N1_28  and  C24_29 
REMARK    7  A    between atoms: C24_29  and  C25_30 
ROOT
HETATM    1  C1  UNL     1      -5.478  51.043 -22.995  1.00  0.00     0.018 C 
HETATM    2  C2  UNL     1      -4.128  50.630 -22.353  1.00  0.00    -0.013 C 
HETATM    3  C3  UNL     1      -3.245  51.875 -22.173  1.00  0.00     0.012 C 
HETATM    4  C4  UNL     1      -2.774  52.452 -23.522  1.00  0.00     0.007 C 
HETATM    5  C5  UNL     1      -2.076  51.399 -24.417  1.00  0.00     0.002 C 
HETATM    6  C6  UNL     1      -2.958  50.109 -24.573  1.00  0.00    -0.004 C 
HETATM    7  C7  UNL     1      -2.243  49.024 -25.402  1.00  0.00     0.010 C 
HETATM    8  C8  UNL     1      -1.730  49.554 -26.744  1.00  0.00     0.035 C 
HETATM    9  C9  UNL     1      -0.877  50.770 -26.488  1.00  0.00    -0.068 C 
HETATM   10  C10 UNL     1       0.448  50.718 -26.712  1.00  0.00     0.053 C 
HETATM   11  C11 UNL     1       1.360  51.759 -26.178  1.00  0.00     0.149 C 
HETATM   12  O1  UNL     1       2.561  51.693 -26.423  1.00  0.00    -0.293 OA
HETATM   13  C12 UNL     1       0.778  52.787 -25.242  1.00  0.00     0.084 C 
HETATM   14  C13 UNL     1      -0.624  53.158 -25.694  1.00  0.00     0.022 C 
HETATM   15  C14 UNL     1      -1.591  51.945 -25.808  1.00  0.00    -0.016 C 
HETATM   16  C15 UNL     1      -2.775  52.443 -26.675  1.00  0.00     0.020 C 
HETATM   17  C16 UNL     1      -3.324  49.599 -23.173  1.00  0.00     0.001 C 
HETATM   18  C17 UNL     1      -4.145  48.323 -23.052  1.00  0.00     0.008 C 
HETATM   19  C18 UNL     1      -4.732  48.381 -21.629  1.00  0.00     0.034 C 
HETATM   20  C19 UNL     1      -4.439  49.799 -21.083  1.00  0.00     0.140 C 
ENDROOT
BRANCH  20  21
HETATM   21  O2  UNL     1      -3.290  49.684 -20.224  1.00  0.00    -0.315 OA
BRANCH  21  22
HETATM   22  C20 UNL     1      -3.415  50.218 -18.979  1.00  0.00     0.259 C 
HETATM   23  O3  UNL     1      -3.439  51.416 -18.728  1.00  0.00    -0.265 OA
BRANCH  22  24
HETATM   24  C21 UNL     1      -3.403  49.153 -17.907  1.00  0.00     0.120 C 
BRANCH  24  25
HETATM   25  C22 UNL     1      -2.093  48.381 -17.786  1.00  0.00     0.112 C 
BRANCH  25  26
HETATM   26  C23 UNL     1      -0.919  49.291 -17.493  1.00  0.00     0.218 C 
HETATM   27  O4  UNL     1      -0.126  49.096 -16.579  1.00  0.00    -0.274 OA
HETATM   28  N1  UNL     1      -0.838  50.363 -18.355  1.00  0.00    -0.357 N 
HETATM   29  H32 UNL     1      -1.619  50.554 -18.966  1.00  0.00     0.162 HD
BRANCH  28  30
HETATM   30  C24 UNL     1       0.125  51.423 -18.145  1.00  0.00     0.162 C 
BRANCH  30  31
HETATM   31  C25 UNL     1       0.400  52.157 -19.424  1.00  0.00    -0.025 A 
HETATM   32  C26 UNL     1       0.905  53.462 -19.432  1.00  0.00     0.011 A 
HETATM   33  C27 UNL     1       1.164  54.094 -20.645  1.00  0.00     0.018 A 
HETATM   34  C28 UNL     1       0.916  53.395 -21.815  1.00  0.00     0.087 A 
HETATM   35  N2  UNL     1       0.440  52.133 -21.849  1.00  0.00    -0.375 N 
HETATM   36  C29 UNL     1       0.194  51.542 -20.656  1.00  0.00     0.096 A 
ATOM     37  H2  UNL     1       0.273  51.648 -22.730  1.00  0.00     0.164 HD
ENDBRANCH  30  31
ENDBRANCH  28  30
ENDBRANCH  25  26
ENDBRANCH  24  25
ENDBRANCH  22  24
ENDBRANCH  21  22
ENDBRANCH  20  21
TORSDOF 7
ENDMDL
MODEL 8
REMARK minimizedAffinity -8.93095016
REMARK  7 active torsions:
REMARK  status: ('A' for Active; 'I' for Inactive)
REMARK    1  A    between atoms: C19_20  and  O2_21 
REMARK    2  A    between atoms: O2_21  and  C20_22 
REMARK    3  A    between atoms: C20_22  and  C21_24 
REMARK    4  A    between atoms: C21_24  and  C22_25 
REMARK    5  A    between atoms: C22_25  and  C23_26 
REMARK       I    between atoms: C23_26  and  N1_28 
REMARK    6  A    between atoms: N1_28  and  C24_29 
REMARK    7  A    between atoms: C24_29  and  C25_30 
ROOT
HETATM    1  C1  UNL     1      -5.406  50.773 -22.263  1.00  0.00     0.018 C 
HETATM    2  C2  UNL     1      -4.042  50.175 -21.830  1.00  0.00    -0.013 C 
HETATM    3  C3  UNL     1      -3.049  51.315 -21.552  1.00  0.00     0.012 C 
HETATM    4  C4  UNL     1      -2.654  52.068 -22.836  1.00  0.00     0.007 C 
HETATM    5  C5  UNL     1      -2.126  51.127 -23.948  1.00  0.00     0.002 C 
HETATM    6  C6  UNL     1      -3.120  49.940 -24.210  1.00  0.00    -0.004 C 
HETATM    7  C7  UNL     1      -2.572  48.957 -25.262  1.00  0.00     0.010 C 
HETATM    8  C8  UNL     1      -2.138  49.659 -26.552  1.00  0.00     0.035 C 
HETATM    9  C9  UNL     1      -1.170  50.759 -26.201  1.00  0.00    -0.068 C 
HETATM   10  C10 UNL     1       0.121  50.657 -26.561  1.00  0.00     0.053 C 
HETATM   11  C11 UNL     1       1.158  51.536 -25.969  1.00  0.00     0.149 C 
HETATM   12  O1  UNL     1       2.323  51.431 -26.341  1.00  0.00    -0.293 OA
HETATM   13  C12 UNL     1       0.746  52.438 -24.833  1.00  0.00     0.084 C 
HETATM   14  C13 UNL     1      -0.655  52.968 -25.080  1.00  0.00     0.022 C 
HETATM   15  C14 UNL     1      -1.724  51.855 -25.281  1.00  0.00    -0.016 C 
HETATM   16  C15 UNL     1      -2.936  52.562 -25.938  1.00  0.00     0.020 C 
HETATM   17  C16 UNL     1      -3.400  49.238 -22.874  1.00  0.00     0.001 C 
HETATM   18  C17 UNL     1      -4.308  48.016 -22.868  1.00  0.00     0.008 C 
HETATM   19  C18 UNL     1      -4.760  47.885 -21.401  1.00  0.00     0.034 C 
HETATM   20  C19 UNL     1      -4.305  49.175 -20.677  1.00  0.00     0.140 C 
ENDROOT
BRANCH  20  21
HETATM   21  O2  UNL     1      -3.097  48.848 -19.966  1.00  0.00    -0.315 OA
BRANCH  21  22
HETATM   22  C20 UNL     1      -3.150  47.747 -19.168  1.00  0.00     0.259 C 
HETATM   23  O3  UNL     1      -2.880  46.607 -19.528  1.00  0.00    -0.265 OA
BRANCH  22  24
HETATM   24  C21 UNL     1      -3.703  48.069 -17.800  1.00  0.00     0.120 C 
BRANCH  24  25
HETATM   25  C22 UNL     1      -2.914  47.479 -16.636  1.00  0.00     0.112 C 
BRANCH  25  26
HETATM   26  C23 UNL     1      -1.972  48.488 -16.013  1.00  0.00     0.218 C 
HETATM   27  O4  UNL     1      -2.297  49.244 -15.105  1.00  0.00    -0.274 OA
HETATM   28  N1  UNL     1      -0.716  48.475 -16.578  1.00  0.00    -0.357 N 
HETATM   29  H32 UNL     1      -0.574  47.954 -17.433  1.00  0.00     0.162 HD
BRANCH  28  30
HETATM   30  C24 UNL     1       0.277  49.466 -16.223  1.00  0.00     0.162 C 
BRANCH  30  31
HETATM   31  C25 UNL     1       0.329  50.562 -17.247  1.00  0.00    -0.025 A 
HETATM   32  C26 UNL     1      -0.264  50.425 -18.505  1.00  0.00     0.011 A 
HETATM   33  C27 UNL     1      -0.208  51.479 -19.414  1.00  0.00     0.018 A 
HETATM   34  C28 UNL     1       0.438  52.642 -19.029  1.00  0.00     0.087 A 
HETATM   35  N2  UNL     1       1.013  52.817 -17.821  1.00  0.00    -0.375 N 
HETATM   36  C29 UNL     1       0.946  51.777 -16.958  1.00  0.00     0.096 A 
ATOM     37  H2  UNL     1       1.476  53.691 -17.571  1.00  0.00     0.164 HD
ENDBRANCH  30  31
ENDBRANCH  28  30
ENDBRANCH  25  26
ENDBRANCH  24  25
ENDBRANCH  22  24
ENDBRANCH  21  22
ENDBRANCH  20  21
TORSDOF 7
ENDMDL
MODEL 9
REMARK minimizedAffinity -8.76766491
REMARK  7 active torsions:
REMARK  status: ('A' for Active; 'I' for Inactive)
REMARK    1  A    between atoms: C19_20  and  O2_21 
REMARK    2  A    between atoms: O2_21  and  C20_22 
REMARK    3  A    between atoms: C20_22  and  C21_24 
REMARK    4  A    between atoms: C21_24  and  C22_25 
REMARK    5  A    between atoms: C22_25  and  C23_26 
REMARK       I    between atoms: C23_26  and  N1_28 
REMARK    6  A    between atoms: N1_28  and  C24_29 
REMARK    7  A    between atoms: C24_29  and  C25_30 
ROOT
HETATM    1  C1  UNL     1      -8.869  48.148 -28.066  1.00  0.00     0.018 C 
HETATM    2  C2  UNL     1      -7.484  47.554 -27.704  1.00  0.00    -0.013 C 
HETATM    3  C3  UNL     1      -6.428  48.078 -28.691  1.00  0.00     0.012 C 
HETATM    4  C4  UNL     1      -6.633  47.521 -30.112  1.00  0.00     0.007 C 
HETATM    5  C5  UNL     1      -6.709  45.974 -30.148  1.00  0.00     0.002 C 
HETATM    6  C6  UNL     1      -7.760  45.431 -29.115  1.00  0.00    -0.004 C 
HETATM    7  C7  UNL     1      -7.793  43.891 -29.089  1.00  0.00     0.010 C 
HETATM    8  C8  UNL     1      -7.968  43.284 -30.484  1.00  0.00     0.035 C 
HETATM    9  C9  UNL     1      -6.903  43.844 -31.391  1.00  0.00    -0.068 C 
HETATM   10  C10 UNL     1      -5.924  43.044 -31.849  1.00  0.00     0.053 C 
HETATM   11  C11 UNL     1      -4.697  43.605 -32.465  1.00  0.00     0.149 C 
HETATM   12  O1  UNL     1      -3.835  42.844 -32.895  1.00  0.00    -0.293 OA
HETATM   13  C12 UNL     1      -4.508  45.100 -32.415  1.00  0.00     0.084 C 
HETATM   14  C13 UNL     1      -5.845  45.793 -32.608  1.00  0.00     0.022 C 
HETATM   15  C14 UNL     1      -6.931  45.366 -31.579  1.00  0.00    -0.016 C 
HETATM   16  C15 UNL     1      -8.280  45.819 -32.193  1.00  0.00     0.020 C 
HETATM   17  C16 UNL     1      -7.427  46.012 -27.734  1.00  0.00     0.001 C 
HETATM   18  C17 UNL     1      -8.281  45.597 -26.543  1.00  0.00     0.008 C 
HETATM   19  C18 UNL     1      -8.018  46.688 -25.488  1.00  0.00     0.034 C 
HETATM   20  C19 UNL     1      -7.232  47.816 -26.199  1.00  0.00     0.140 C 
ENDROOT
BRANCH  20  21
HETATM   21  O2  UNL     1      -5.846  47.640 -25.849  1.00  0.00    -0.315 OA
BRANCH  21  22
HETATM   22  C20 UNL     1      -5.359  48.474 -24.891  1.00  0.00     0.259 C 
HETATM   23  O3  UNL     1      -5.991  48.872 -23.920  1.00  0.00    -0.265 OA
BRANCH  22  24
HETATM   24  C21 UNL     1      -3.967  48.959 -25.222  1.00  0.00     0.120 C 
BRANCH  24  25
HETATM   25  C22 UNL     1      -3.498  48.640 -26.637  1.00  0.00     0.112 C 
BRANCH  25  26
HETATM   26  C23 UNL     1      -3.059  49.880 -27.387  1.00  0.00     0.218 C 
HETATM   27  O4  UNL     1      -3.287  50.067 -28.576  1.00  0.00    -0.274 OA
HETATM   28  N1  UNL     1      -2.368  50.774 -26.597  1.00  0.00    -0.357 N 
HETATM   29  H32 UNL     1      -2.066  50.476 -25.679  1.00  0.00     0.162 HD
BRANCH  28  30
HETATM   30  C24 UNL     1      -1.738  51.946 -27.164  1.00  0.00     0.162 C 
BRANCH  30  31
HETATM   31  C25 UNL     1      -0.243  51.830 -27.106  1.00  0.00    -0.025 A 
HETATM   32  C26 UNL     1       0.429  51.531 -25.917  1.00  0.00     0.011 A 
HETATM   33  C27 UNL     1       1.816  51.413 -25.918  1.00  0.00     0.018 A 
HETATM   34  C28 UNL     1       2.488  51.592 -27.116  1.00  0.00     0.087 A 
HETATM   35  N2  UNL     1       1.876  51.871 -28.286  1.00  0.00    -0.375 N 
HETATM   36  C29 UNL     1       0.528  51.982 -28.256  1.00  0.00     0.096 A 
ATOM     37  H2  UNL     1       2.404  51.991 -29.150  1.00  0.00     0.164 HD
ENDBRANCH  30  31
ENDBRANCH  28  30
ENDBRANCH  25  26
ENDBRANCH  24  25
ENDBRANCH  22  24
ENDBRANCH  21  22
ENDBRANCH  20  21
TORSDOF 7
ENDMDL
