MODEL 1
REMARK minimizedAffinity -6.17413568
REMARK CNNscore 0.311348438
REMARK CNNaffinity 5.55738211
REMARK  8 active torsions:
REMARK  status: ('A' for Active; 'I' for Inactive)
REMARK    1  A    between atoms: C5_5  and  C6_6 
REMARK    2  A    between atoms: C6_6  and  O1_9 
REMARK    3  A    between atoms: C11_12  and  C12_13 
REMARK    4  A    between atoms: C12_13  and  C13_14 
REMARK    5  A    between atoms: C17_18  and  O2_19 
REMARK    6  A    between atoms: C18_20  and  C19_21 
REMARK    7  A    between atoms: C20_23  and  O4_24 
REMARK    8  A    between atoms: C21_25  and  C22_26 
ROOT
HETATM    1  C1  UNL     1       5.498  18.372  21.900  1.00  0.00     0.019 C 
HETATM    2  C2  UNL     1       5.699  17.228  21.224  1.00  0.00    -0.068 C 
HETATM    3  C3  UNL     1       6.989  16.592  21.308  1.00  0.00     0.003 C 
HETATM    4  C4  UNL     1       7.391  15.447  21.878  1.00  0.00    -0.019 C 
HETATM    5  C5  UNL     1       6.789  14.274  22.657  1.00  0.00     0.042 C 
HETATM    6  C9  UNL     1       5.293  14.352  23.125  1.00  0.00     0.020 C 
HETATM    7  C10 UNL     1       4.088  14.006  22.200  1.00  0.00     0.030 C 
HETATM    8  C11 UNL     1       3.695  12.496  22.071  1.00  0.00     0.031 C 
HETATM    9  C16 UNL     1       2.694  12.428  20.931  1.00  0.00     0.015 A 
HETATM   10  C17 UNL     1       2.707  11.458  19.912  1.00  0.00     0.091 A 
HETATM   11  C18 UNL     1       1.715  11.453  18.914  1.00  0.00     0.069 A 
HETATM   12  C20 UNL     1       0.715  12.437  18.902  1.00  0.00     0.097 A 
HETATM   13  C21 UNL     1       0.705  13.419  19.897  1.00  0.00     0.070 A 
HETATM   14  C23 UNL     1       1.687  13.406  20.904  1.00  0.00     0.095 A 
HETATM   15  O6  UNL     1       1.598  14.357  21.883  1.00  0.00    -0.338 OA
HETATM   16  C24 UNL     1       2.799  14.852  22.517  1.00  0.00     0.068 C 
HETATM   17  C25 UNL     1       2.453  14.902  24.030  1.00  0.00     0.047 C 
HETATM   18  C26 UNL     1       2.893  16.342  22.085  1.00  0.00     0.039 C 
HETATM   19  C27 UNL     1       3.234  16.657  20.622  1.00  0.00     0.007 C 
HETATM   20  C28 UNL     1       4.715  16.663  20.228  1.00  0.00     0.038 C 
ENDROOT
BRANCH   5  21
HETATM   21  C6  UNL     1       7.339  12.917  22.068  1.00  0.00     0.057 C 
HETATM   22  C7  UNL     1       6.692  12.523  20.735  1.00  0.00     0.046 C 
HETATM   23  C8  UNL     1       7.340  11.774  23.089  1.00  0.00     0.046 C 
BRANCH  21  24
HETATM   24  O1  UNL     1       8.738  13.090  21.728  1.00  0.00    -0.390 OA
HETATM   25  H12 UNL     1       9.234  13.283  22.543  1.00  0.00     0.210 HD
ENDBRANCH  21  24
ENDBRANCH   5  21
BRANCH   8  26
HETATM   26  C12 UNL     1       3.164  11.793  23.347  1.00  0.00     0.014 C 
BRANCH  26  27
HETATM   27  C13 UNL     1       3.639  10.327  23.517  1.00  0.00    -0.022 C 
HETATM   28  C14 UNL     1       2.557   9.356  23.033  1.00  0.00     0.009 C 
HETATM   29  C15 UNL     1       4.928  10.053  22.737  1.00  0.00     0.009 C 
ENDBRANCH  26  27
ENDBRANCH   8  26
BRANCH  10  30
HETATM   30  O2  UNL     1       3.654  10.471  19.851  1.00  0.00    -0.359 OA
HETATM   31  H26 UNL     1       4.364  10.609  20.495  1.00  0.00     0.217 HD
ENDBRANCH  10  30
BRANCH  11  32
HETATM   32  C19 UNL     1       1.720  10.382  17.893  1.00  0.00     0.275 C 
HETATM   33  O3  UNL     1       2.438   9.392  18.016  1.00  0.00    -0.301 OA
ENDBRANCH  11  32
BRANCH  13  34
HETATM   34  C22 UNL     1      -0.304  14.510  19.918  1.00  0.00     0.275 C 
HETATM   35  O5  UNL     1      -0.481  15.269  20.863  1.00  0.00    -0.301 OA
ENDBRANCH  13  34
BRANCH  12  36
HETATM   36  O4  UNL     1      -0.278  12.431  17.958  1.00  0.00    -0.359 OA
HETATM   37  H28 UNL     1      -0.119  11.702  17.313  1.00  0.00     0.217 HD
ENDBRANCH  12  36
TORSDOF 8
ENDMDL
MODEL 2
REMARK minimizedAffinity -5.54839373
REMARK CNNscore 0.269669056
REMARK CNNaffinity 5.74263382
REMARK  8 active torsions:
REMARK  status: ('A' for Active; 'I' for Inactive)
REMARK    1  A    between atoms: C5_5  and  C6_6 
REMARK    2  A    between atoms: C6_6  and  O1_9 
REMARK    3  A    between atoms: C11_12  and  C12_13 
REMARK    4  A    between atoms: C12_13  and  C13_14 
REMARK    5  A    between atoms: C17_18  and  O2_19 
REMARK    6  A    between atoms: C18_20  and  C19_21 
REMARK    7  A    between atoms: C20_23  and  O4_24 
REMARK    8  A    between atoms: C21_25  and  C22_26 
ROOT
HETATM    1  C1  UNL     1      -7.399  16.529   2.914  1.00  0.00     0.019 C 
HETATM    2  C2  UNL     1      -8.396  15.705   3.280  1.00  0.00    -0.068 C 
HETATM    3  C3  UNL     1      -8.882  15.767   4.635  1.00  0.00     0.003 C 
HETATM    4  C4  UNL     1     -10.046  16.184   5.155  1.00  0.00    -0.019 C 
HETATM    5  C5  UNL     1     -11.386  16.749   4.675  1.00  0.00     0.042 C 
HETATM    6  C9  UNL     1     -11.556  17.140   3.164  1.00  0.00     0.020 C 
HETATM    7  C10 UNL     1     -11.896  16.108   2.047  1.00  0.00     0.030 C 
HETATM    8  C11 UNL     1     -13.404  15.739   1.848  1.00  0.00     0.031 C 
HETATM    9  C16 UNL     1     -13.414  14.548   0.907  1.00  0.00     0.015 A 
HETATM   10  C17 UNL     1     -14.210  13.400   1.078  1.00  0.00     0.091 A 
HETATM   11  C18 UNL     1     -14.179  12.358   0.132  1.00  0.00     0.069 A 
HETATM   12  C20 UNL     1     -13.329  12.435  -0.981  1.00  0.00     0.097 A 
HETATM   13  C21 UNL     1     -12.518  13.561  -1.150  1.00  0.00     0.070 A 
HETATM   14  C23 UNL     1     -12.568  14.608  -0.212  1.00  0.00     0.095 A 
HETATM   15  O6  UNL     1     -11.794  15.709  -0.454  1.00  0.00    -0.338 OA
HETATM   16  C24 UNL     1     -11.264  16.475   0.652  1.00  0.00     0.068 C 
HETATM   17  C25 UNL     1     -11.485  17.957   0.246  1.00  0.00     0.047 C 
HETATM   18  C26 UNL     1      -9.725  16.271   0.576  1.00  0.00     0.039 C 
HETATM   19  C27 UNL     1      -9.154  14.890   0.930  1.00  0.00     0.007 C 
HETATM   20  C28 UNL     1      -8.915  14.585   2.412  1.00  0.00     0.038 C 
ENDROOT
BRANCH   5  21
HETATM   21  C6  UNL     1     -12.563  15.999   5.409  1.00  0.00     0.057 C 
HETATM   22  C7  UNL     1     -13.892  16.763   5.373  1.00  0.00     0.046 C 
HETATM   23  C8  UNL     1     -12.188  15.524   6.818  1.00  0.00     0.046 C 
BRANCH  21  24
HETATM   24  O1  UNL     1     -12.856  14.774   4.689  1.00  0.00    -0.390 OA
HETATM   25  H12 UNL     1     -12.071  14.200   4.721  1.00  0.00     0.210 HD
ENDBRANCH  21  24
ENDBRANCH   5  21
BRANCH   8  26
HETATM   26  C12 UNL     1     -14.349  16.867   1.362  1.00  0.00     0.014 C 
BRANCH  26  27
HETATM   27  C13 UNL     1     -15.712  16.926   2.100  1.00  0.00    -0.022 C 
HETATM   28  C14 UNL     1     -15.765  15.871   3.209  1.00  0.00     0.009 C 
HETATM   29  C15 UNL     1     -15.962  18.303   2.721  1.00  0.00     0.009 C 
ENDBRANCH  26  27
ENDBRANCH   8  26
BRANCH  10  30
HETATM   30  O2  UNL     1     -15.058  13.247   2.142  1.00  0.00    -0.359 OA
HETATM   31  H26 UNL     1     -14.937  13.943   2.805  1.00  0.00     0.217 HD
ENDBRANCH  10  30
BRANCH  11  32
HETATM   32  C19 UNL     1     -15.075  11.193   0.308  1.00  0.00     0.275 C 
HETATM   33  O3  UNL     1     -14.620  10.059   0.440  1.00  0.00    -0.301 OA
ENDBRANCH  11  32
BRANCH  13  34
HETATM   34  C22 UNL     1     -11.568  13.686  -2.286  1.00  0.00     0.275 C 
HETATM   35  O5  UNL     1     -10.746  14.586  -2.404  1.00  0.00    -0.301 OA
ENDBRANCH  13  34
BRANCH  12  36
HETATM   36  O4  UNL     1     -13.308  11.447  -1.930  1.00  0.00    -0.359 OA
HETATM   37  H28 UNL     1     -13.907  10.712  -1.658  1.00  0.00     0.217 HD
ENDBRANCH  12  36
TORSDOF 8
ENDMDL
MODEL 3
REMARK minimizedAffinity -5.48088312
REMARK CNNscore 0.258281618
REMARK CNNaffinity 5.99833727
REMARK  8 active torsions:
REMARK  status: ('A' for Active; 'I' for Inactive)
REMARK    1  A    between atoms: C5_5  and  C6_6 
REMARK    2  A    between atoms: C6_6  and  O1_9 
REMARK    3  A    between atoms: C11_12  and  C12_13 
REMARK    4  A    between atoms: C12_13  and  C13_14 
REMARK    5  A    between atoms: C17_18  and  O2_19 
REMARK    6  A    between atoms: C18_20  and  C19_21 
REMARK    7  A    between atoms: C20_23  and  O4_24 
REMARK    8  A    between atoms: C21_25  and  C22_26 
ROOT
HETATM    1  C1  UNL     1     -15.980   5.387  21.937  1.00  0.00     0.019 C 
HETATM    2  C2  UNL     1     -15.856   4.256  22.652  1.00  0.00    -0.068 C 
HETATM    3  C3  UNL     1     -14.779   3.353  22.337  1.00  0.00     0.003 C 
HETATM    4  C4  UNL     1     -13.669   3.009  23.007  1.00  0.00    -0.019 C 
HETATM    5  C5  UNL     1     -12.988   3.315  24.344  1.00  0.00     0.042 C 
HETATM    6  C9  UNL     1     -13.569   4.453  25.257  1.00  0.00     0.020 C 
HETATM    7  C10 UNL     1     -14.772   4.243  26.224  1.00  0.00     0.030 C 
HETATM    8  C11 UNL     1     -14.461   3.633  27.632  1.00  0.00     0.031 C 
HETATM    9  C16 UNL     1     -15.811   3.299  28.241  1.00  0.00     0.015 A 
HETATM   10  C17 UNL     1     -16.108   2.101  28.918  1.00  0.00     0.091 A 
HETATM   11  C18 UNL     1     -17.380   1.893  29.482  1.00  0.00     0.069 A 
HETATM   12  C20 UNL     1     -18.383   2.865  29.350  1.00  0.00     0.097 A 
HETATM   13  C21 UNL     1     -18.106   4.050  28.661  1.00  0.00     0.070 A 
HETATM   14  C23 UNL     1     -16.825   4.261  28.117  1.00  0.00     0.095 A 
HETATM   15  O6  UNL     1     -16.593   5.458  27.500  1.00  0.00    -0.338 OA
HETATM   16  C24 UNL     1     -15.656   5.533  26.401  1.00  0.00     0.068 C 
HETATM   17  C25 UNL     1     -14.826   6.815  26.678  1.00  0.00     0.047 C 
HETATM   18  C26 UNL     1     -16.524   5.886  25.161  1.00  0.00     0.039 C 
HETATM   19  C27 UNL     1     -17.476   4.815  24.608  1.00  0.00     0.007 C 
HETATM   20  C28 UNL     1     -16.888   3.779  23.645  1.00  0.00     0.038 C 
ENDROOT
BRANCH   5  21
HETATM   21  C6  UNL     1     -12.512   1.967  25.009  1.00  0.00     0.057 C 
HETATM   22  C7  UNL     1     -12.228   2.092  26.511  1.00  0.00     0.046 C 
HETATM   23  C8  UNL     1     -11.371   1.288  24.243  1.00  0.00     0.046 C 
BRANCH  21  24
HETATM   24  O1  UNL     1     -13.599   1.008  24.949  1.00  0.00    -0.390 OA
HETATM   25  H12 UNL     1     -13.799   0.824  24.015  1.00  0.00     0.210 HD
ENDBRANCH  21  24
ENDBRANCH   5  21
BRANCH   8  26
HETATM   26  C12 UNL     1     -13.589   4.483  28.592  1.00  0.00     0.014 C 
BRANCH  26  27
HETATM   27  C13 UNL     1     -12.775   3.656  29.621  1.00  0.00    -0.022 C 
HETATM   28  C14 UNL     1     -13.559   3.512  30.929  1.00  0.00     0.009 C 
HETATM   29  C15 UNL     1     -12.445   2.257  29.091  1.00  0.00     0.009 C 
ENDBRANCH  26  27
ENDBRANCH   8  26
BRANCH  10  30
HETATM   30  O2  UNL     1     -15.186   1.103  29.081  1.00  0.00    -0.359 OA
HETATM   31  H26 UNL     1     -14.380   1.265  28.568  1.00  0.00     0.217 HD
ENDBRANCH  10  30
BRANCH  11  32
HETATM   32  C19 UNL     1     -17.641   0.650  30.242  1.00  0.00     0.275 C 
HETATM   33  O3  UNL     1     -18.050   0.691  31.401  1.00  0.00    -0.301 OA
ENDBRANCH  11  32
BRANCH  13  34
HETATM   34  C22 UNL     1     -19.136   5.101  28.453  1.00  0.00     0.275 C 
HETATM   35  O5  UNL     1     -20.220   4.910  27.917  1.00  0.00    -0.301 OA
ENDBRANCH  13  34
BRANCH  12  36
HETATM   36  O4  UNL     1     -19.618   2.696  29.920  1.00  0.00    -0.359 OA
HETATM   37  H28 UNL     1     -19.669   1.806  30.342  1.00  0.00     0.217 HD
ENDBRANCH  12  36
TORSDOF 8
ENDMDL
MODEL 4
REMARK minimizedAffinity -5.8374939
REMARK CNNscore 0.243429035
REMARK CNNaffinity 4.97216177
REMARK  8 active torsions:
REMARK  status: ('A' for Active; 'I' for Inactive)
REMARK    1  A    between atoms: C5_5  and  C6_6 
REMARK    2  A    between atoms: C6_6  and  O1_9 
REMARK    3  A    between atoms: C11_12  and  C12_13 
REMARK    4  A    between atoms: C12_13  and  C13_14 
REMARK    5  A    between atoms: C17_18  and  O2_19 
REMARK    6  A    between atoms: C18_20  and  C19_21 
REMARK    7  A    between atoms: C20_23  and  O4_24 
REMARK    8  A    between atoms: C21_25  and  C22_26 
ROOT
HETATM    1  C1  UNL     1     -14.777  -6.525  14.727  1.00  0.00     0.019 C 
HETATM    2  C2  UNL     1     -13.448  -6.543  14.924  1.00  0.00    -0.068 C 
HETATM    3  C3  UNL     1     -12.949  -6.585  16.275  1.00  0.00     0.003 C 
HETATM    4  C4  UNL     1     -12.308  -7.537  16.968  1.00  0.00    -0.019 C 
HETATM    5  C5  UNL     1     -11.774  -8.956  16.754  1.00  0.00     0.042 C 
HETATM    6  C9  UNL     1     -12.117  -9.711  15.421  1.00  0.00     0.020 C 
HETATM    7  C10 UNL     1     -11.331  -9.502  14.093  1.00  0.00     0.030 C 
HETATM    8  C11 UNL     1     -10.009 -10.321  13.907  1.00  0.00     0.031 C 
HETATM    9  C16 UNL     1      -9.333  -9.735  12.680  1.00  0.00     0.015 A 
HETATM   10  C17 UNL     1      -7.960  -9.440  12.588  1.00  0.00     0.091 A 
HETATM   11  C18 UNL     1      -7.414  -8.930  11.396  1.00  0.00     0.069 A 
HETATM   12  C20 UNL     1      -8.238  -8.678  10.289  1.00  0.00     0.097 A 
HETATM   13  C21 UNL     1      -9.608  -8.946  10.376  1.00  0.00     0.070 A 
HETATM   14  C23 UNL     1     -10.144  -9.475  11.564  1.00  0.00     0.095 A 
HETATM   15  O6  UNL     1     -11.479  -9.769  11.577  1.00  0.00    -0.338 OA
HETATM   16  C24 UNL     1     -12.228  -9.668  12.809  1.00  0.00     0.068 C 
HETATM   17  C25 UNL     1     -13.114 -10.942  12.838  1.00  0.00     0.047 C 
HETATM   18  C26 UNL     1     -13.226  -8.500  12.574  1.00  0.00     0.039 C 
HETATM   19  C27 UNL     1     -12.670  -7.070  12.499  1.00  0.00     0.007 C 
HETATM   20  C28 UNL     1     -12.438  -6.334  13.822  1.00  0.00     0.038 C 
ENDROOT
BRANCH   5  21
HETATM   21  C6  UNL     1     -10.312  -9.057  17.337  1.00  0.00     0.057 C 
HETATM   22  C7  UNL     1     -10.110 -10.252  18.277  1.00  0.00     0.046 C 
HETATM   23  C8  UNL     1      -9.809  -7.739  17.936  1.00  0.00     0.046 C 
BRANCH  21  24
HETATM   24  O1  UNL     1      -9.393  -9.324  16.247  1.00  0.00    -0.390 OA
HETATM   25  H12 UNL     1      -9.415  -8.572  15.631  1.00  0.00     0.210 HD
ENDBRANCH  21  24
ENDBRANCH   5  21
BRANCH   8  26
HETATM   26  C12 UNL     1     -10.141 -11.862  13.812  1.00  0.00     0.014 C 
BRANCH  26  27
HETATM   27  C13 UNL     1      -9.378 -12.500  12.621  1.00  0.00    -0.022 C 
HETATM   28  C14 UNL     1      -8.170 -13.295  13.125  1.00  0.00     0.009 C 
HETATM   29  C15 UNL     1     -10.277 -13.436  11.808  1.00  0.00     0.009 C 
ENDBRANCH  26  27
ENDBRANCH   8  26
BRANCH  10  30
HETATM   30  O2  UNL     1      -7.094  -9.651  13.627  1.00  0.00    -0.359 OA
HETATM   31  H26 UNL     1      -7.557  -9.887  14.444  1.00  0.00     0.217 HD
ENDBRANCH  10  30
BRANCH  11  32
HETATM   32  C19 UNL     1      -5.956  -8.691  11.310  1.00  0.00     0.275 C 
HETATM   33  O3  UNL     1      -5.158  -9.625  11.346  1.00  0.00    -0.301 OA
ENDBRANCH  11  32
BRANCH  13  34
HETATM   34  C22 UNL     1     -10.540  -8.665   9.253  1.00  0.00     0.275 C 
HETATM   35  O5  UNL     1     -11.686  -9.091   9.183  1.00  0.00    -0.301 OA
ENDBRANCH  13  34
BRANCH  12  36
HETATM   36  O4  UNL     1      -7.722  -8.213   9.108  1.00  0.00    -0.359 OA
HETATM   37  H28 UNL     1      -6.755  -8.045   9.211  1.00  0.00     0.217 HD
ENDBRANCH  12  36
TORSDOF 8
ENDMDL
MODEL 5
REMARK minimizedAffinity -5.75954676
REMARK CNNscore 0.224149406
REMARK CNNaffinity 5.50147629
REMARK  8 active torsions:
REMARK  status: ('A' for Active; 'I' for Inactive)
REMARK    1  A    between atoms: C5_5  and  C6_6 
REMARK    2  A    between atoms: C6_6  and  O1_9 
REMARK    3  A    between atoms: C11_12  and  C12_13 
REMARK    4  A    between atoms: C12_13  and  C13_14 
REMARK    5  A    between atoms: C17_18  and  O2_19 
REMARK    6  A    between atoms: C18_20  and  C19_21 
REMARK    7  A    between atoms: C20_23  and  O4_24 
REMARK    8  A    between atoms: C21_25  and  C22_26 
ROOT
HETATM    1  C1  UNL     1       3.056  15.785   5.167  1.00  0.00     0.019 C 
HETATM    2  C2  UNL     1       2.588  14.888   4.282  1.00  0.00    -0.068 C 
HETATM    3  C3  UNL     1       1.403  14.140   4.616  1.00  0.00     0.003 C 
HETATM    4  C4  UNL     1       0.158  14.159   4.118  1.00  0.00    -0.019 C 
HETATM    5  C5  UNL     1      -0.635  14.878   3.023  1.00  0.00     0.042 C 
HETATM    6  C9  UNL     1       0.031  16.075   2.255  1.00  0.00     0.020 C 
HETATM    7  C10 UNL     1       1.004  15.885   1.053  1.00  0.00     0.030 C 
HETATM    8  C11 UNL     1       0.363  15.679  -0.360  1.00  0.00     0.031 C 
HETATM    9  C16 UNL     1       1.503  15.262  -1.271  1.00  0.00     0.015 A 
HETATM   10  C17 UNL     1       1.434  14.219  -2.213  1.00  0.00     0.091 A 
HETATM   11  C18 UNL     1       2.534  13.926  -3.041  1.00  0.00     0.069 A 
HETATM   12  C20 UNL     1       3.728  14.650  -2.917  1.00  0.00     0.097 A 
HETATM   13  C21 UNL     1       3.817  15.675  -1.970  1.00  0.00     0.070 A 
HETATM   14  C23 UNL     1       2.707  15.977  -1.159  1.00  0.00     0.095 A 
HETATM   15  O6  UNL     1       2.829  17.022  -0.287  1.00  0.00    -0.338 OA
HETATM   16  C24 UNL     1       2.106  17.006   0.964  1.00  0.00     0.068 C 
HETATM   17  C25 UNL     1       1.535  18.443   1.108  1.00  0.00     0.047 C 
HETATM   18  C26 UNL     1       3.205  16.907   2.059  1.00  0.00     0.039 C 
HETATM   19  C27 UNL     1       3.978  15.588   2.198  1.00  0.00     0.007 C 
HETATM   20  C28 UNL     1       3.334  14.478   3.035  1.00  0.00     0.038 C 
ENDROOT
BRANCH   5  21
HETATM   21  C6  UNL     1      -1.481  13.824   2.211  1.00  0.00     0.057 C 
HETATM   22  C7  UNL     1      -2.924  14.271   1.946  1.00  0.00     0.046 C 
HETATM   23  C8  UNL     1      -1.395  12.408   2.791  1.00  0.00     0.046 C 
BRANCH  21  24
HETATM   24  O1  UNL     1      -0.916  13.697   0.881  1.00  0.00    -0.390 OA
HETATM   25  H12 UNL     1      -0.009  13.353   0.961  1.00  0.00     0.210 HD
ENDBRANCH  21  24
ENDBRANCH   5  21
BRANCH   8  26
HETATM   26  C12 UNL     1      -0.442  16.866  -0.950  1.00  0.00     0.014 C 
BRANCH  26  27
HETATM   27  C13 UNL     1      -1.979  16.751  -0.772  1.00  0.00    -0.022 C 
HETATM   28  C14 UNL     1      -2.517  17.951   0.014  1.00  0.00     0.009 C 
HETATM   29  C15 UNL     1      -2.703  16.682  -2.119  1.00  0.00     0.009 C 
ENDBRANCH  26  27
ENDBRANCH   8  26
BRANCH  10  30
HETATM   30  O2  UNL     1       0.307  13.462  -2.388  1.00  0.00    -0.359 OA
HETATM   31  H26 UNL     1      -0.359  13.641  -1.708  1.00  0.00     0.217 HD
ENDBRANCH  10  30
BRANCH  11  32
HETATM   32  C19 UNL     1       2.407  12.865  -4.065  1.00  0.00     0.275 C 
HETATM   33  O3  UNL     1       3.003  12.946  -5.137  1.00  0.00    -0.301 OA
ENDBRANCH  11  32
BRANCH  13  34
HETATM   34  C22 UNL     1       5.066  16.453  -1.763  1.00  0.00     0.275 C 
HETATM   35  O5  UNL     1       6.116  15.977  -1.350  1.00  0.00    -0.301 OA
ENDBRANCH  13  34
BRANCH  12  36
HETATM   36  O4  UNL     1       4.799  14.403  -3.735  1.00  0.00    -0.359 OA
HETATM   37  H28 UNL     1       4.597  13.638  -4.326  1.00  0.00     0.217 HD
ENDBRANCH  12  36
TORSDOF 8
ENDMDL
MODEL 6
REMARK minimizedAffinity -5.56384754
REMARK CNNscore 0.21487698
REMARK CNNaffinity 5.50324488
REMARK  8 active torsions:
REMARK  status: ('A' for Active; 'I' for Inactive)
REMARK    1  A    between atoms: C5_5  and  C6_6 
REMARK    2  A    between atoms: C6_6  and  O1_9 
REMARK    3  A    between atoms: C11_12  and  C12_13 
REMARK    4  A    between atoms: C12_13  and  C13_14 
REMARK    5  A    between atoms: C17_18  and  O2_19 
REMARK    6  A    between atoms: C18_20  and  C19_21 
REMARK    7  A    between atoms: C20_23  and  O4_24 
REMARK    8  A    between atoms: C21_25  and  C22_26 
ROOT
HETATM    1  C1  UNL     1       1.261  15.122   4.906  1.00  0.00     0.019 C 
HETATM    2  C2  UNL     1       0.873  14.617   3.723  1.00  0.00    -0.068 C 
HETATM    3  C3  UNL     1      -0.484  14.830   3.290  1.00  0.00     0.003 C 
HETATM    4  C4  UNL     1      -1.007  15.564   2.297  1.00  0.00    -0.019 C 
HETATM    5  C5  UNL     1      -0.529  16.476   1.164  1.00  0.00     0.042 C 
HETATM    6  C9  UNL     1       0.987  16.878   1.091  1.00  0.00     0.020 C 
HETATM    7  C10 UNL     1       2.084  15.969   0.462  1.00  0.00     0.030 C 
HETATM    8  C11 UNL     1       2.264  16.035  -1.092  1.00  0.00     0.031 C 
HETATM    9  C16 UNL     1       3.185  14.882  -1.448  1.00  0.00     0.015 A 
HETATM   10  C17 UNL     1       2.989  14.006  -2.532  1.00  0.00     0.091 A 
HETATM   11  C18 UNL     1       3.917  12.985  -2.807  1.00  0.00     0.069 A 
HETATM   12  C20 UNL     1       5.038  12.805  -1.983  1.00  0.00     0.097 A 
HETATM   13  C21 UNL     1       5.233  13.656  -0.891  1.00  0.00     0.070 A 
HETATM   14  C23 UNL     1       4.312  14.688  -0.633  1.00  0.00     0.095 A 
HETATM   15  O6  UNL     1       4.579  15.523   0.415  1.00  0.00    -0.338 OA
HETATM   16  C24 UNL     1       3.490  16.125   1.153  1.00  0.00     0.068 C 
HETATM   17  C25 UNL     1       3.918  17.603   1.351  1.00  0.00     0.047 C 
HETATM   18  C26 UNL     1       3.575  15.496   2.572  1.00  0.00     0.039 C 
HETATM   19  C27 UNL     1       3.203  14.015   2.737  1.00  0.00     0.007 C 
HETATM   20  C28 UNL     1       1.719  13.675   2.899  1.00  0.00     0.038 C 
ENDROOT
BRANCH   5  21
HETATM   21  C6  UNL     1      -1.286  16.097  -0.167  1.00  0.00     0.057 C 
HETATM   22  C7  UNL     1      -0.850  16.932  -1.377  1.00  0.00     0.046 C 
HETATM   23  C8  UNL     1      -2.808  16.042   0.001  1.00  0.00     0.046 C 
BRANCH  21  24
HETATM   24  O1  UNL     1      -0.921  14.743  -0.540  1.00  0.00    -0.390 OA
HETATM   25  H12 UNL     1      -1.225  14.137   0.158  1.00  0.00     0.210 HD
ENDBRANCH  21  24
ENDBRANCH   5  21
BRANCH   8  26
HETATM   26  C12 UNL     1       2.761  17.377  -1.689  1.00  0.00     0.014 C 
BRANCH  26  27
HETATM   27  C13 UNL     1       2.441  17.568  -3.195  1.00  0.00    -0.022 C 
HETATM   28  C14 UNL     1       1.698  18.888  -3.420  1.00  0.00     0.009 C 
HETATM   29  C15 UNL     1       3.712  17.568  -4.049  1.00  0.00     0.009 C 
ENDBRANCH  26  27
ENDBRANCH   8  26
BRANCH  10  30
HETATM   30  O2  UNL     1       1.916  14.113  -3.375  1.00  0.00    -0.359 OA
HETATM   31  H26 UNL     1       1.265  14.755  -3.056  1.00  0.00     0.217 HD
ENDBRANCH  10  30
BRANCH  11  32
HETATM   32  C19 UNL     1       3.715  12.121  -3.991  1.00  0.00     0.275 C 
HETATM   33  O3  UNL     1       3.613  12.604  -5.117  1.00  0.00    -0.301 OA
ENDBRANCH  11  32
BRANCH  13  34
HETATM   34  C22 UNL     1       6.379  13.493   0.042  1.00  0.00     0.275 C 
HETATM   35  O5  UNL     1       7.021  12.459   0.174  1.00  0.00    -0.301 OA
ENDBRANCH  13  34
BRANCH  12  36
HETATM   36  O4  UNL     1       5.971  11.838  -2.252  1.00  0.00    -0.359 OA
HETATM   37  H28 UNL     1       5.682  11.305  -3.030  1.00  0.00     0.217 HD
ENDBRANCH  12  36
TORSDOF 8
ENDMDL
MODEL 7
REMARK minimizedAffinity -6.44291115
REMARK CNNscore 0.209581912
REMARK CNNaffinity 5.67130804
REMARK  8 active torsions:
REMARK  status: ('A' for Active; 'I' for Inactive)
REMARK    1  A    between atoms: C5_5  and  C6_6 
REMARK    2  A    between atoms: C6_6  and  O1_9 
REMARK    3  A    between atoms: C11_12  and  C12_13 
REMARK    4  A    between atoms: C12_13  and  C13_14 
REMARK    5  A    between atoms: C17_18  and  O2_19 
REMARK    6  A    between atoms: C18_20  and  C19_21 
REMARK    7  A    between atoms: C20_23  and  O4_24 
REMARK    8  A    between atoms: C21_25  and  C22_26 
ROOT
HETATM    1  C1  UNL     1     -13.869   2.524  30.436  1.00  0.00     0.019 C 
HETATM    2  C2  UNL     1     -13.170   2.998  29.390  1.00  0.00    -0.068 C 
HETATM    3  C3  UNL     1     -12.307   2.097  28.670  1.00  0.00     0.003 C 
HETATM    4  C4  UNL     1     -12.372   1.587  27.431  1.00  0.00    -0.019 C 
HETATM    5  C5  UNL     1     -13.277   1.667  26.198  1.00  0.00     0.042 C 
HETATM    6  C9  UNL     1     -14.647   2.426  26.301  1.00  0.00     0.020 C 
HETATM    7  C10 UNL     1     -14.780   3.972  26.168  1.00  0.00     0.030 C 
HETATM    8  C11 UNL     1     -14.863   4.562  24.719  1.00  0.00     0.031 C 
HETATM    9  C16 UNL     1     -14.718   6.065  24.879  1.00  0.00     0.015 A 
HETATM   10  C17 UNL     1     -13.910   6.881  24.067  1.00  0.00     0.091 A 
HETATM   11  C18 UNL     1     -13.866   8.273  24.268  1.00  0.00     0.069 A 
HETATM   12  C20 UNL     1     -14.604   8.865  25.303  1.00  0.00     0.097 A 
HETATM   13  C21 UNL     1     -15.394   8.061  26.130  1.00  0.00     0.070 A 
HETATM   14  C23 UNL     1     -15.450   6.672  25.912  1.00  0.00     0.095 A 
HETATM   15  O6  UNL     1     -16.280   5.941  26.715  1.00  0.00    -0.338 OA
HETATM   16  C24 UNL     1     -15.948   4.571  27.038  1.00  0.00     0.068 C 
HETATM   17  C25 UNL     1     -17.285   3.796  26.891  1.00  0.00     0.047 C 
HETATM   18  C26 UNL     1     -15.663   4.580  28.566  1.00  0.00     0.039 C 
HETATM   19  C27 UNL     1     -14.387   5.273  29.066  1.00  0.00     0.007 C 
HETATM   20  C28 UNL     1     -13.087   4.463  29.037  1.00  0.00     0.038 C 
ENDROOT
BRANCH   5  21
HETATM   21  C6  UNL     1     -12.388   1.861  24.909  1.00  0.00     0.057 C 
HETATM   22  C7  UNL     1     -11.311   0.782  24.741  1.00  0.00     0.046 C 
HETATM   23  C8  UNL     1     -11.833   3.283  24.770  1.00  0.00     0.046 C 
BRANCH  21  24
HETATM   24  O1  UNL     1     -13.225   1.691  23.737  1.00  0.00    -0.390 OA
HETATM   25  H12 UNL     1     -13.905   2.387  23.737  1.00  0.00     0.210 HD
ENDBRANCH  21  24
ENDBRANCH   5  21
BRANCH   8  26
HETATM   26  C12 UNL     1     -16.108   4.188  23.875  1.00  0.00     0.014 C 
BRANCH  26  27
HETATM   27  C13 UNL     1     -15.836   4.055  22.354  1.00  0.00    -0.022 C 
HETATM   28  C14 UNL     1     -16.201   5.355  21.631  1.00  0.00     0.009 C 
HETATM   29  C15 UNL     1     -14.368   3.728  22.067  1.00  0.00     0.009 C 
ENDBRANCH  26  27
ENDBRANCH   8  26
BRANCH  10  30
HETATM   30  O2  UNL     1     -13.155   6.378  23.042  1.00  0.00    -0.359 OA
HETATM   31  H26 UNL     1     -13.143   5.409  23.042  1.00  0.00     0.217 HD
ENDBRANCH  10  30
BRANCH  11  32
HETATM   32  C19 UNL     1     -13.055   9.112  23.356  1.00  0.00     0.275 C 
HETATM   33  O3  UNL     1     -11.875   8.849  23.136  1.00  0.00    -0.301 OA
ENDBRANCH  11  32
BRANCH  13  34
HETATM   34  C22 UNL     1     -16.170   8.621  27.268  1.00  0.00     0.275 C 
HETATM   35  O5  UNL     1     -16.110   9.787  27.638  1.00  0.00    -0.301 OA
ENDBRANCH  13  34
BRANCH  12  36
HETATM   36  O4  UNL     1     -14.601  10.222  25.495  1.00  0.00    -0.359 OA
HETATM   37  H28 UNL     1     -13.978  10.645  24.858  1.00  0.00     0.217 HD
ENDBRANCH  12  36
TORSDOF 8
ENDMDL
MODEL 8
REMARK minimizedAffinity -5.56629419
REMARK CNNscore 0.207491949
REMARK CNNaffinity 5.29346895
REMARK  8 active torsions:
REMARK  status: ('A' for Active; 'I' for Inactive)
REMARK    1  A    between atoms: C5_5  and  C6_6 
REMARK    2  A    between atoms: C6_6  and  O1_9 
REMARK    3  A    between atoms: C11_12  and  C12_13 
REMARK    4  A    between atoms: C12_13  and  C13_14 
REMARK    5  A    between atoms: C17_18  and  O2_19 
REMARK    6  A    between atoms: C18_20  and  C19_21 
REMARK    7  A    between atoms: C20_23  and  O4_24 
REMARK    8  A    between atoms: C21_25  and  C22_26 
ROOT
HETATM    1  C1  UNL     1      17.683  -4.216  -0.624  1.00  0.00     0.019 C 
HETATM    2  C2  UNL     1      17.601  -3.757   0.636  1.00  0.00    -0.068 C 
HETATM    3  C3  UNL     1      17.268  -2.372   0.848  1.00  0.00     0.003 C 
HETATM    4  C4  UNL     1      16.180  -1.777   1.360  1.00  0.00    -0.019 C 
HETATM    5  C5  UNL     1      14.830  -2.169   1.966  1.00  0.00     0.042 C 
HETATM    6  C9  UNL     1      14.379  -3.672   1.925  1.00  0.00     0.020 C 
HETATM    7  C10 UNL     1      14.850  -4.736   2.961  1.00  0.00     0.030 C 
HETATM    8  C11 UNL     1      14.068  -4.813   4.315  1.00  0.00     0.031 C 
HETATM    9  C16 UNL     1      14.888  -5.722   5.212  1.00  0.00     0.015 A 
HETATM   10  C17 UNL     1      15.173  -5.465   6.566  1.00  0.00     0.091 A 
HETATM   11  C18 UNL     1      15.914  -6.385   7.330  1.00  0.00     0.069 A 
HETATM   12  C20 UNL     1      16.408  -7.560   6.744  1.00  0.00     0.097 A 
HETATM   13  C21 UNL     1      16.150  -7.816   5.394  1.00  0.00     0.070 A 
HETATM   14  C23 UNL     1      15.391  -6.902   4.640  1.00  0.00     0.095 A 
HETATM   15  O6  UNL     1      15.123  -7.227   3.340  1.00  0.00    -0.338 OA
HETATM   16  C24 UNL     1      14.974  -6.183   2.351  1.00  0.00     0.068 C 
HETATM   17  C25 UNL     1      13.737  -6.606   1.514  1.00  0.00     0.047 C 
HETATM   18  C26 UNL     1      16.182  -6.368   1.391  1.00  0.00     0.039 C 
HETATM   19  C27 UNL     1      17.586  -6.025   1.910  1.00  0.00     0.007 C 
HETATM   20  C28 UNL     1      18.022  -4.558   1.845  1.00  0.00     0.038 C 
ENDROOT
BRANCH   5  21
HETATM   21  C6  UNL     1      14.583  -1.331   3.280  1.00  0.00     0.057 C 
HETATM   22  C7  UNL     1      13.149  -1.435   3.811  1.00  0.00     0.046 C 
HETATM   23  C8  UNL     1      15.074   0.117   3.171  1.00  0.00     0.046 C 
BRANCH  21  24
HETATM   24  O1  UNL     1      15.383  -1.897   4.350  1.00  0.00    -0.390 OA
HETATM   25  H12 UNL     1      16.323  -1.810   4.114  1.00  0.00     0.210 HD
ENDBRANCH  21  24
ENDBRANCH   5  21
BRANCH   8  26
HETATM   26  C12 UNL     1      12.583  -5.254   4.248  1.00  0.00     0.014 C 
BRANCH  26  27
HETATM   27  C13 UNL     1      12.162  -6.260   5.351  1.00  0.00    -0.022 C 
HETATM   28  C14 UNL     1      10.894  -5.776   6.060  1.00  0.00     0.009 C 
HETATM   29  C15 UNL     1      11.901  -7.656   4.777  1.00  0.00     0.009 C 
ENDBRANCH  26  27
ENDBRANCH   8  26
BRANCH  10  30
HETATM   30  O2  UNL     1      14.733  -4.338   7.206  1.00  0.00    -0.359 OA
HETATM   31  H26 UNL     1      14.338  -3.702   6.592  1.00  0.00     0.217 HD
ENDBRANCH  10  30
BRANCH  11  32
HETATM   32  C19 UNL     1      16.142  -6.116   8.767  1.00  0.00     0.275 C 
HETATM   33  O3  UNL     1      15.207  -5.844   9.517  1.00  0.00    -0.301 OA
ENDBRANCH  11  32
BRANCH  13  34
HETATM   34  C22 UNL     1      16.677  -9.023   4.704  1.00  0.00     0.275 C 
HETATM   35  O5  UNL     1      16.472 -10.173   5.071  1.00  0.00    -0.301 OA
ENDBRANCH  13  34
BRANCH  12  36
HETATM   36  O4  UNL     1      17.104  -8.484   7.479  1.00  0.00    -0.359 OA
HETATM   37  H28 UNL     1      17.230  -8.150   8.398  1.00  0.00     0.217 HD
ENDBRANCH  12  36
TORSDOF 8
ENDMDL
MODEL 9
REMARK minimizedAffinity -5.48674297
REMARK CNNscore 0.203464001
REMARK CNNaffinity 4.86616325
REMARK  8 active torsions:
REMARK  status: ('A' for Active; 'I' for Inactive)
REMARK    1  A    between atoms: C5_5  and  C6_6 
REMARK    2  A    between atoms: C6_6  and  O1_9 
REMARK    3  A    between atoms: C11_12  and  C12_13 
REMARK    4  A    between atoms: C12_13  and  C13_14 
REMARK    5  A    between atoms: C17_18  and  O2_19 
REMARK    6  A    between atoms: C18_20  and  C19_21 
REMARK    7  A    between atoms: C20_23  and  O4_24 
REMARK    8  A    between atoms: C21_25  and  C22_26 
ROOT
HETATM    1  C1  UNL     1     -21.336   1.697  12.447  1.00  0.00     0.019 C 
HETATM    2  C2  UNL     1     -21.244   0.422  12.862  1.00  0.00    -0.068 C 
HETATM    3  C3  UNL     1     -21.790  -0.619  12.029  1.00  0.00     0.003 C 
HETATM    4  C4  UNL     1     -21.211  -1.598  11.318  1.00  0.00    -0.019 C 
HETATM    5  C5  UNL     1     -19.807  -2.135  11.028  1.00  0.00     0.042 C 
HETATM    6  C9  UNL     1     -18.558  -1.327  11.530  1.00  0.00     0.020 C 
HETATM    7  C10 UNL     1     -18.003  -1.425  12.982  1.00  0.00     0.030 C 
HETATM    8  C11 UNL     1     -17.034  -2.613  13.300  1.00  0.00     0.031 C 
HETATM    9  C16 UNL     1     -16.870  -2.616  14.809  1.00  0.00     0.015 A 
HETATM   10  C17 UNL     1     -16.906  -3.769  15.615  1.00  0.00     0.091 A 
HETATM   11  C18 UNL     1     -16.709  -3.679  17.005  1.00  0.00     0.069 A 
HETATM   12  C20 UNL     1     -16.505  -2.432  17.614  1.00  0.00     0.097 A 
HETATM   13  C21 UNL     1     -16.489  -1.277  16.827  1.00  0.00     0.070 A 
HETATM   14  C23 UNL     1     -16.666  -1.376  15.434  1.00  0.00     0.095 A 
HETATM   15  O6  UNL     1     -16.588  -0.221  14.706  1.00  0.00    -0.338 OA
HETATM   16  C24 UNL     1     -17.361  -0.081  13.492  1.00  0.00     0.068 C 
HETATM   17  C25 UNL     1     -16.381   0.559  12.473  1.00  0.00     0.047 C 
HETATM   18  C26 UNL     1     -18.392   1.039  13.804  1.00  0.00     0.039 C 
HETATM   19  C27 UNL     1     -19.527   0.731  14.792  1.00  0.00     0.007 C 
HETATM   20  C28 UNL     1     -20.770   0.025  14.240  1.00  0.00     0.038 C 
ENDROOT
BRANCH   5  21
HETATM   21  C6  UNL     1     -19.809  -3.707  11.166  1.00  0.00     0.057 C 
HETATM   22  C7  UNL     1     -20.711  -4.409  10.144  1.00  0.00     0.046 C 
HETATM   23  C8  UNL     1     -20.053  -4.184  12.602  1.00  0.00     0.046 C 
BRANCH  21  24
HETATM   24  O1  UNL     1     -18.485  -4.204  10.847  1.00  0.00    -0.390 OA
HETATM   25  H12 UNL     1     -17.855  -3.849  11.498  1.00  0.00     0.210 HD
ENDBRANCH  21  24
ENDBRANCH   5  21
BRANCH   8  26
HETATM   26  C12 UNL     1     -15.665  -2.621  12.571  1.00  0.00     0.014 C 
BRANCH  26  27
HETATM   27  C13 UNL     1     -14.809  -3.889  12.827  1.00  0.00    -0.022 C 
HETATM   28  C14 UNL     1     -15.360  -5.075  12.029  1.00  0.00     0.009 C 
HETATM   29  C15 UNL     1     -13.344  -3.673  12.436  1.00  0.00     0.009 C 
ENDBRANCH  26  27
ENDBRANCH   8  26
BRANCH  10  30
HETATM   30  O2  UNL     1     -17.107  -5.020  15.097  1.00  0.00    -0.359 OA
HETATM   31  H26 UNL     1     -17.352  -4.990  14.160  1.00  0.00     0.217 HD
ENDBRANCH  10  30
BRANCH  11  32
HETATM   32  C19 UNL     1     -16.689  -4.917  17.816  1.00  0.00     0.275 C 
HETATM   33  O3  UNL     1     -15.661  -5.582  17.932  1.00  0.00    -0.301 OA
ENDBRANCH  11  32
BRANCH  13  34
HETATM   34  C22 UNL     1     -16.317   0.077  17.415  1.00  0.00     0.275 C 
HETATM   35  O5  UNL     1     -15.241   0.652  17.522  1.00  0.00    -0.301 OA
ENDBRANCH  13  34
BRANCH  12  36
HETATM   36  O4  UNL     1     -16.279  -2.326  18.962  1.00  0.00    -0.359 OA
HETATM   37  H28 UNL     1     -16.350  -3.216  19.381  1.00  0.00     0.217 HD
ENDBRANCH  12  36
TORSDOF 8
ENDMDL
