MODEL 1
REMARK minimizedAffinity -9.71361446
REMARK CNNscore 0.576688409
REMARK CNNaffinity 7.38312769
REMARK  4 active torsions:
REMARK  status: ('A' for Active; 'I' for Inactive)
REMARK    1  A    between atoms: C2_2  and  C3_3 
REMARK    2  A    between atoms: C7_7  and  C8_8 
REMARK    3  A    between atoms: C8_8  and  C9_9 
REMARK    4  A    between atoms: C26_31  and  O5_32 
ROOT
HETATM    1  C3  UNL     1       0.588  52.653 -19.661  1.00  0.00     0.008 C 
HETATM    2  C4  UNL     1      -0.813  52.163 -19.362  1.00  0.00    -0.026 C 
HETATM    3  C5  UNL     1      -1.106  50.855 -19.261  1.00  0.00    -0.028 C 
HETATM    4  C6  UNL     1      -2.467  50.293 -18.957  1.00  0.00     0.059 C 
HETATM    5  C7  UNL     1      -2.957  49.121 -19.853  1.00  0.00     0.135 C 
HETATM    6  O1  UNL     1      -3.338  49.540 -21.180  1.00  0.00    -0.315 OA
HETATM    7  C12 UNL     1      -4.518  50.218 -21.276  1.00  0.00     0.276 C 
HETATM    8  O2  UNL     1      -5.164  50.606 -20.303  1.00  0.00    -0.264 OA
HETATM    9  C13 UNL     1      -5.074  50.265 -22.735  1.00  0.00     0.095 C 
HETATM   10  C14 UNL     1      -5.903  51.561 -22.896  1.00  0.00     0.036 C 
HETATM   11  C15 UNL     1      -6.078  49.122 -22.708  1.00  0.00     0.003 C 
HETATM   12  C16 UNL     1      -6.497  48.273 -23.648  1.00  0.00     0.072 C 
HETATM   13  C17 UNL     1      -6.129  48.197 -25.062  1.00  0.00     0.245 C 
HETATM   14  O3  UNL     1      -6.814  47.499 -25.808  1.00  0.00    -0.268 OA
HETATM   15  N1  UNL     1      -5.043  48.828 -25.547  1.00  0.00    -0.320 N 
HETATM   16  C18 UNL     1      -4.059  49.638 -25.037  1.00  0.00     0.098 C 
HETATM   17  C19 UNL     1      -4.005  50.235 -23.833  1.00  0.00     0.045 C 
HETATM   18  C20 UNL     1      -2.822  51.127 -23.556  1.00  0.00     0.194 C 
HETATM   19  O4  UNL     1      -2.877  51.958 -22.659  1.00  0.00    -0.287 OA
HETATM   20  C21 UNL     1      -1.638  51.100 -24.431  1.00  0.00     0.046 A 
HETATM   21  C22 UNL     1      -1.777  50.592 -25.711  1.00  0.00     0.032 A 
HETATM   22  C23 UNL     1      -0.746  50.719 -26.657  1.00  0.00     0.026 A 
HETATM   23  C24 UNL     1       0.460  51.353 -26.328  1.00  0.00    -0.027 A 
HETATM   24  C25 UNL     1       1.530  51.488 -27.372  1.00  0.00     0.051 C 
HETATM   25  C26 UNL     1       0.632  51.793 -25.012  1.00  0.00     0.086 A 
HETATM   26  C27 UNL     1      -0.406  51.663 -24.072  1.00  0.00     0.059 A 
HETATM   27  C28 UNL     1      -0.056  51.875 -22.658  1.00  0.00     0.163 C 
HETATM   28  O6  UNL     1       0.348  50.884 -22.057  1.00  0.00    -0.292 OA
HETATM   29  C29 UNL     1      -0.206  53.273 -22.088  1.00  0.00     0.084 C 
HETATM   30  C30 UNL     1       0.686  53.593 -20.886  1.00  0.00     0.016 C 
HETATM   31  C31 UNL     1      -3.004  49.886 -26.080  1.00  0.00     0.210 C 
HETATM   32  O7  UNL     1      -3.162  49.477 -27.228  1.00  0.00    -0.285 OA
HETATM   33  H26 UNL     1      -4.907  48.589 -26.532  1.00  0.00     0.169 HD
ENDROOT
BRANCH   5  34
HETATM   34  C8  UNL     1      -1.912  47.993 -19.981  1.00  0.00     0.037 C 
BRANCH  34  35
HETATM   35  C9  UNL     1      -2.118  46.968 -21.121  1.00  0.00    -0.020 C 
HETATM   36  C10 UNL     1      -3.454  46.233 -21.021  1.00  0.00     0.009 C 
HETATM   37  C11 UNL     1      -1.939  47.565 -22.517  1.00  0.00     0.009 C 
ENDBRANCH  34  35
ENDBRANCH   5  34
BRANCH   1  38
HETATM   38  C2  UNL     1       1.252  53.273 -18.410  1.00  0.00     0.004 C 
HETATM   39  C1  UNL     1       1.433  52.339 -17.219  1.00  0.00     0.006 C 
ENDBRANCH   1  38
BRANCH  25  40
HETATM   40  O5  UNL     1       1.808  52.359 -24.605  1.00  0.00    -0.359 OA
HETATM   41  H31 UNL     1       2.533  52.076 -25.189  1.00  0.00     0.217 HD
ENDBRANCH  25  40
TORSDOF 4
ENDMDL
MODEL 2
REMARK minimizedAffinity -10.6718369
REMARK CNNscore 0.419628173
REMARK CNNaffinity 7.52276468
REMARK  4 active torsions:
REMARK  status: ('A' for Active; 'I' for Inactive)
REMARK    1  A    between atoms: C2_2  and  C3_3 
REMARK    2  A    between atoms: C7_7  and  C8_8 
REMARK    3  A    between atoms: C8_8  and  C9_9 
REMARK    4  A    between atoms: C26_31  and  O5_32 
ROOT
HETATM    1  C3  UNL     1      -5.336  48.351 -26.137  1.00  0.00     0.008 C 
HETATM    2  C4  UNL     1      -5.163  47.903 -24.701  1.00  0.00    -0.026 C 
HETATM    3  C5  UNL     1      -5.660  48.607 -23.669  1.00  0.00    -0.028 C 
HETATM    4  C6  UNL     1      -5.540  48.223 -22.221  1.00  0.00     0.059 C 
HETATM    5  C7  UNL     1      -5.100  49.341 -21.234  1.00  0.00     0.135 C 
HETATM    6  O1  UNL     1      -3.701  49.679 -21.343  1.00  0.00    -0.315 OA
HETATM    7  C12 UNL     1      -2.825  48.765 -20.833  1.00  0.00     0.276 C 
HETATM    8  O2  UNL     1      -3.155  47.647 -20.441  1.00  0.00    -0.264 OA
HETATM    9  C13 UNL     1      -1.400  49.359 -20.596  1.00  0.00     0.095 C 
HETATM   10  C14 UNL     1      -0.368  48.216 -20.742  1.00  0.00     0.036 C 
HETATM   11  C15 UNL     1      -1.457  49.689 -19.111  1.00  0.00     0.003 C 
HETATM   12  C16 UNL     1      -0.879  50.643 -18.380  1.00  0.00     0.072 C 
HETATM   13  C17 UNL     1       0.054  51.691 -18.793  1.00  0.00     0.245 C 
HETATM   14  O3  UNL     1       0.658  52.314 -17.920  1.00  0.00    -0.268 OA
HETATM   15  N1  UNL     1       0.227  52.017 -20.087  1.00  0.00    -0.320 N 
HETATM   16  C18 UNL     1      -0.272  51.588 -21.292  1.00  0.00     0.098 C 
HETATM   17  C19 UNL     1      -1.007  50.491 -21.551  1.00  0.00     0.045 C 
HETATM   18  C20 UNL     1      -1.374  50.229 -22.990  1.00  0.00     0.194 C 
HETATM   19  O4  UNL     1      -1.719  49.109 -23.341  1.00  0.00    -0.287 OA
HETATM   20  C21 UNL     1      -1.207  51.277 -24.011  1.00  0.00     0.046 A 
HETATM   21  C22 UNL     1      -0.338  52.321 -23.747  1.00  0.00     0.032 A 
HETATM   22  C23 UNL     1       0.016  53.240 -24.750  1.00  0.00     0.026 A 
HETATM   23  C24 UNL     1      -0.510  53.133 -26.044  1.00  0.00    -0.027 A 
HETATM   24  C25 UNL     1      -0.092  54.121 -27.094  1.00  0.00     0.051 C 
HETATM   25  C26 UNL     1      -1.451  52.127 -26.288  1.00  0.00     0.086 A 
HETATM   26  C27 UNL     1      -1.799  51.211 -25.280  1.00  0.00     0.059 A 
HETATM   27  C28 UNL     1      -2.990  50.379 -25.516  1.00  0.00     0.163 C 
HETATM   28  O6  UNL     1      -4.058  50.872 -25.166  1.00  0.00    -0.292 OA
HETATM   29  C29 UNL     1      -2.796  49.026 -26.173  1.00  0.00     0.084 C 
HETATM   30  C30 UNL     1      -4.011  48.480 -26.927  1.00  0.00     0.016 C 
HETATM   31  C31 UNL     1       0.199  52.492 -22.398  1.00  0.00     0.210 C 
HETATM   32  O7  UNL     1       1.012  53.383 -22.162  1.00  0.00    -0.285 OA
HETATM   33  H26 UNL     1       0.853  52.823 -20.168  1.00  0.00     0.169 HD
ENDROOT
BRANCH   5  34
HETATM   34  C8  UNL     1      -5.925  50.634 -21.393  1.00  0.00     0.037 C 
BRANCH  34  35
HETATM   35  C9  UNL     1      -6.465  50.956 -22.806  1.00  0.00    -0.020 C 
HETATM   36  C10 UNL     1      -5.352  51.193 -23.825  1.00  0.00     0.009 C 
HETATM   37  C11 UNL     1      -7.458  49.918 -23.330  1.00  0.00     0.009 C 
ENDBRANCH  34  35
ENDBRANCH   5  34
BRANCH   1  38
HETATM   38  C2  UNL     1      -6.365  47.473 -26.886  1.00  0.00     0.004 C 
HETATM   39  C1  UNL     1      -6.508  47.742 -28.380  1.00  0.00     0.006 C 
ENDBRANCH   1  38
BRANCH  25  40
HETATM   40  O5  UNL     1      -2.054  52.008 -27.510  1.00  0.00    -0.359 OA
HETATM   41  H31 UNL     1      -2.024  52.858 -27.980  1.00  0.00     0.217 HD
ENDBRANCH  25  40
TORSDOF 4
ENDMDL
MODEL 3
REMARK minimizedAffinity -6.69020414
REMARK CNNscore 0.342959017
REMARK CNNaffinity 5.66967535
REMARK  4 active torsions:
REMARK  status: ('A' for Active; 'I' for Inactive)
REMARK    1  A    between atoms: C2_2  and  C3_3 
REMARK    2  A    between atoms: C7_7  and  C8_8 
REMARK    3  A    between atoms: C8_8  and  C9_9 
REMARK    4  A    between atoms: C26_31  and  O5_32 
ROOT
HETATM    1  C3  UNL     1     -13.009  46.431 -27.361  1.00  0.00     0.008 C 
HETATM    2  C4  UNL     1     -14.160  47.027 -26.579  1.00  0.00    -0.026 C 
HETATM    3  C5  UNL     1     -14.285  46.858 -25.250  1.00  0.00    -0.028 C 
HETATM    4  C6  UNL     1     -15.390  47.427 -24.406  1.00  0.00     0.059 C 
HETATM    5  C7  UNL     1     -16.071  46.458 -23.398  1.00  0.00     0.135 C 
HETATM    6  O1  UNL     1     -16.941  45.496 -24.031  1.00  0.00    -0.315 OA
HETATM    7  C12 UNL     1     -18.128  45.982 -24.497  1.00  0.00     0.276 C 
HETATM    8  O2  UNL     1     -18.408  47.179 -24.536  1.00  0.00    -0.264 OA
HETATM    9  C13 UNL     1     -19.177  44.857 -24.773  1.00  0.00     0.095 C 
HETATM   10  C14 UNL     1     -20.114  45.337 -25.906  1.00  0.00     0.036 C 
HETATM   11  C15 UNL     1     -20.002  44.900 -23.495  1.00  0.00     0.003 C 
HETATM   12  C16 UNL     1     -20.660  43.956 -22.820  1.00  0.00     0.072 C 
HETATM   13  C17 UNL     1     -20.824  42.536 -23.130  1.00  0.00     0.245 C 
HETATM   14  O3  UNL     1     -21.671  41.895 -22.509  1.00  0.00    -0.268 OA
HETATM   15  N1  UNL     1     -20.045  41.913 -24.034  1.00  0.00    -0.320 N 
HETATM   16  C18 UNL     1     -19.016  42.272 -24.868  1.00  0.00     0.098 C 
HETATM   17  C19 UNL     1     -18.579  43.506 -25.179  1.00  0.00     0.045 C 
HETATM   18  C20 UNL     1     -17.457  43.611 -26.179  1.00  0.00     0.194 C 
HETATM   19  O4  UNL     1     -17.252  44.667 -26.763  1.00  0.00    -0.287 OA
HETATM   20  C21 UNL     1     -16.673  42.423 -26.557  1.00  0.00     0.046 A 
HETATM   21  C22 UNL     1     -17.222  41.173 -26.334  1.00  0.00     0.032 A 
HETATM   22  C23 UNL     1     -16.618  40.014 -26.849  1.00  0.00     0.026 A 
HETATM   23  C24 UNL     1     -15.434  40.089 -27.594  1.00  0.00    -0.027 A 
HETATM   24  C25 UNL     1     -14.830  38.830 -28.146  1.00  0.00     0.051 C 
HETATM   25  C26 UNL     1     -14.834  41.342 -27.749  1.00  0.00     0.086 A 
HETATM   26  C27 UNL     1     -15.446  42.498 -27.231  1.00  0.00     0.059 A 
HETATM   27  C28 UNL     1     -14.627  43.719 -27.178  1.00  0.00     0.163 C 
HETATM   28  O6  UNL     1     -13.950  43.860 -26.163  1.00  0.00    -0.292 OA
HETATM   29  C29 UNL     1     -14.678  44.665 -28.362  1.00  0.00     0.084 C 
HETATM   30  C30 UNL     1     -13.441  45.547 -28.555  1.00  0.00     0.016 C 
HETATM   31  C31 UNL     1     -18.435  41.049 -25.526  1.00  0.00     0.210 C 
HETATM   32  O7  UNL     1     -18.963  39.952 -25.364  1.00  0.00    -0.285 OA
HETATM   33  H26 UNL     1     -20.256  40.912 -24.051  1.00  0.00     0.169 HD
ENDROOT
BRANCH   5  34
HETATM   34  C8  UNL     1     -15.052  45.691 -22.529  1.00  0.00     0.037 C 
BRANCH  34  35
HETATM   35  C9  UNL     1     -14.674  46.320 -21.168  1.00  0.00    -0.020 C 
HETATM   36  C10 UNL     1     -13.510  47.304 -21.273  1.00  0.00     0.009 C 
HETATM   37  C11 UNL     1     -15.857  46.964 -20.445  1.00  0.00     0.009 C 
ENDBRANCH  34  35
ENDBRANCH   5  34
BRANCH   1  38
HETATM   38  C2  UNL     1     -11.992  47.513 -27.790  1.00  0.00     0.004 C 
HETATM   39  C1  UNL     1     -10.999  47.956 -26.721  1.00  0.00     0.006 C 
ENDBRANCH   1  38
BRANCH  25  40
HETATM   40  O5  UNL     1     -13.643  41.478 -28.407  1.00  0.00    -0.359 OA
HETATM   41  H31 UNL     1     -13.158  40.635 -28.394  1.00  0.00     0.217 HD
ENDBRANCH  25  40
TORSDOF 4
ENDMDL
MODEL 4
REMARK minimizedAffinity -7.46230745
REMARK CNNscore 0.315742821
REMARK CNNaffinity 6.32177925
REMARK  4 active torsions:
REMARK  status: ('A' for Active; 'I' for Inactive)
REMARK    1  A    between atoms: C2_2  and  C3_3 
REMARK    2  A    between atoms: C7_7  and  C8_8 
REMARK    3  A    between atoms: C8_8  and  C9_9 
REMARK    4  A    between atoms: C26_31  and  O5_32 
ROOT
HETATM    1  C3  UNL     1       2.428  49.580 -12.686  1.00  0.00     0.008 C 
HETATM    2  C4  UNL     1       3.572  50.329 -12.034  1.00  0.00    -0.026 C 
HETATM    3  C5  UNL     1       3.821  50.243 -10.716  1.00  0.00    -0.028 C 
HETATM    4  C6  UNL     1       4.941  50.945  -9.999  1.00  0.00     0.059 C 
HETATM    5  C7  UNL     1       4.575  51.681  -8.679  1.00  0.00     0.135 C 
HETATM    6  O1  UNL     1       3.838  52.903  -8.892  1.00  0.00    -0.315 OA
HETATM    7  C12 UNL     1       4.557  53.955  -9.379  1.00  0.00     0.276 C 
HETATM    8  O2  UNL     1       5.720  53.865  -9.771  1.00  0.00    -0.264 OA
HETATM    9  C13 UNL     1       3.832  55.325  -9.187  1.00  0.00     0.095 C 
HETATM   10  C14 UNL     1       4.279  56.273 -10.325  1.00  0.00     0.036 C 
HETATM   11  C15 UNL     1       4.498  55.841  -7.921  1.00  0.00     0.003 C 
HETATM   12  C16 UNL     1       4.058  56.611  -6.924  1.00  0.00     0.072 C 
HETATM   13  C17 UNL     1       2.753  57.249  -6.750  1.00  0.00     0.245 C 
HETATM   14  O3  UNL     1       2.636  58.115  -5.884  1.00  0.00    -0.268 OA
HETATM   15  N1  UNL     1       1.681  56.880  -7.476  1.00  0.00    -0.320 N 
HETATM   16  C18 UNL     1       1.425  55.969  -8.470  1.00  0.00     0.098 C 
HETATM   17  C19 UNL     1       2.301  55.250  -9.195  1.00  0.00     0.045 C 
HETATM   18  C20 UNL     1       1.740  54.359 -10.273  1.00  0.00     0.194 C 
HETATM   19  O4  UNL     1       2.461  53.962 -11.179  1.00  0.00    -0.287 OA
HETATM   20  C21 UNL     1       0.300  54.054 -10.324  1.00  0.00     0.046 A 
HETATM   21  C22 UNL     1      -0.575  54.901  -9.666  1.00  0.00     0.032 A 
HETATM   22  C23 UNL     1      -1.965  54.782  -9.838  1.00  0.00     0.026 A 
HETATM   23  C24 UNL     1      -2.506  53.794 -10.672  1.00  0.00    -0.027 A 
HETATM   24  C25 UNL     1      -3.995  53.712 -10.848  1.00  0.00     0.051 C 
HETATM   25  C26 UNL     1      -1.626  52.887 -11.271  1.00  0.00     0.086 A 
HETATM   26  C27 UNL     1      -0.237  53.014 -11.094  1.00  0.00     0.059 A 
HETATM   27  C28 UNL     1       0.595  51.872 -11.506  1.00  0.00     0.163 C 
HETATM   28  O6  UNL     1       0.763  51.004 -10.654  1.00  0.00    -0.292 OA
HETATM   29  C29 UNL     1       1.143  51.861 -12.920  1.00  0.00     0.084 C 
HETATM   30  C30 UNL     1       1.459  50.477 -13.493  1.00  0.00     0.016 C 
HETATM   31  C31 UNL     1      -0.052  55.917  -8.755  1.00  0.00     0.210 C 
HETATM   32  O7  UNL     1      -0.814  56.710  -8.205  1.00  0.00    -0.285 OA
HETATM   33  H26 UNL     1       0.848  57.380  -7.154  1.00  0.00     0.169 HD
ENDROOT
BRANCH   5  34
HETATM   34  C8  UNL     1       3.770  50.793  -7.707  1.00  0.00     0.037 C 
BRANCH  34  35
HETATM   35  C9  UNL     1       4.551  50.130  -6.548  1.00  0.00    -0.020 C 
HETATM   36  C10 UNL     1       5.121  48.763  -6.926  1.00  0.00     0.009 C 
HETATM   37  C11 UNL     1       5.644  51.022  -5.961  1.00  0.00     0.009 C 
ENDBRANCH  34  35
ENDBRANCH   5  34
BRANCH   1  38
HETATM   38  C2  UNL     1       2.937  48.387 -13.527  1.00  0.00     0.004 C 
HETATM   39  C1  UNL     1       1.881  47.646 -14.339  1.00  0.00     0.006 C 
ENDBRANCH   1  38
BRANCH  25  40
HETATM   40  O5  UNL     1      -2.091  51.858 -12.042  1.00  0.00    -0.359 OA
HETATM   41  H31 UNL     1      -3.012  51.655 -11.806  1.00  0.00     0.217 HD
ENDBRANCH  25  40
TORSDOF 4
ENDMDL
MODEL 5
REMARK minimizedAffinity -8.44238472
REMARK CNNscore 0.253195226
REMARK CNNaffinity 6.6877923
REMARK  4 active torsions:
REMARK  status: ('A' for Active; 'I' for Inactive)
REMARK    1  A    between atoms: C2_2  and  C3_3 
REMARK    2  A    between atoms: C7_7  and  C8_8 
REMARK    3  A    between atoms: C8_8  and  C9_9 
REMARK    4  A    between atoms: C26_31  and  O5_32 
ROOT
HETATM    1  C3  UNL     1      -0.210  50.127 -17.071  1.00  0.00     0.008 C 
HETATM    2  C4  UNL     1      -1.630  49.607 -16.994  1.00  0.00    -0.026 C 
HETATM    3  C5  UNL     1      -1.977  48.403 -17.483  1.00  0.00    -0.028 C 
HETATM    4  C6  UNL     1      -3.360  47.815 -17.434  1.00  0.00     0.059 C 
HETATM    5  C7  UNL     1      -3.900  47.186 -18.750  1.00  0.00     0.135 C 
HETATM    6  O1  UNL     1      -4.265  48.168 -19.742  1.00  0.00    -0.315 OA
HETATM    7  C12 UNL     1      -5.416  48.860 -19.501  1.00  0.00     0.276 C 
HETATM    8  O2  UNL     1      -6.044  48.795 -18.445  1.00  0.00    -0.264 OA
HETATM    9  C13 UNL     1      -5.972  49.574 -20.774  1.00  0.00     0.095 C 
HETATM   10  C14 UNL     1      -6.747  50.835 -20.322  1.00  0.00     0.036 C 
HETATM   11  C15 UNL     1      -7.023  48.577 -21.240  1.00  0.00     0.003 C 
HETATM   12  C16 UNL     1      -7.478  48.254 -22.452  1.00  0.00     0.072 C 
HETATM   13  C17 UNL     1      -7.116  48.805 -23.758  1.00  0.00     0.245 C 
HETATM   14  O3  UNL     1      -7.831  48.540 -24.723  1.00  0.00    -0.268 OA
HETATM   15  N1  UNL     1      -6.006  49.546 -23.932  1.00  0.00    -0.320 N 
HETATM   16  C18 UNL     1      -4.988  50.007 -23.133  1.00  0.00     0.098 C 
HETATM   17  C19 UNL     1      -4.907  50.000 -21.791  1.00  0.00     0.045 C 
HETATM   18  C20 UNL     1      -3.687  50.630 -21.168  1.00  0.00     0.194 C 
HETATM   19  O4  UNL     1      -3.706  50.973 -19.993  1.00  0.00    -0.287 OA
HETATM   20  C21 UNL     1      -2.507  50.954 -21.987  1.00  0.00     0.046 A 
HETATM   21  C22 UNL     1      -2.669  51.077 -23.356  1.00  0.00     0.032 A 
HETATM   22  C23 UNL     1      -1.635  51.576 -24.166  1.00  0.00     0.026 A 
HETATM   23  C24 UNL     1      -0.404  51.951 -23.613  1.00  0.00    -0.027 A 
HETATM   24  C25 UNL     1       0.670  52.500 -24.508  1.00  0.00     0.051 C 
HETATM   25  C26 UNL     1      -0.211  51.750 -22.242  1.00  0.00     0.086 A 
HETATM   26  C27 UNL     1      -1.252  51.251 -21.439  1.00  0.00     0.059 A 
HETATM   27  C28 UNL     1      -0.891  50.796 -20.087  1.00  0.00     0.163 C 
HETATM   28  O6  UNL     1      -0.527  49.627 -20.000  1.00  0.00    -0.292 OA
HETATM   29  C29 UNL     1      -0.982  51.795 -18.949  1.00  0.00     0.084 C 
HETATM   30  C30 UNL     1      -0.075  51.511 -17.749  1.00  0.00     0.016 C 
HETATM   31  C31 UNL     1      -3.925  50.656 -23.977  1.00  0.00     0.210 C 
HETATM   32  O7  UNL     1      -4.102  50.809 -25.183  1.00  0.00    -0.285 OA
HETATM   33  H26 UNL     1      -5.881  49.768 -24.923  1.00  0.00     0.169 HD
ENDROOT
BRANCH   5  34
HETATM   34  C8  UNL     1      -2.903  46.197 -19.389  1.00  0.00     0.037 C 
BRANCH  34  35
HETATM   35  C9  UNL     1      -3.028  45.957 -20.912  1.00  0.00    -0.020 C 
HETATM   36  C10 UNL     1      -4.470  45.717 -21.357  1.00  0.00     0.009 C 
HETATM   37  C11 UNL     1      -2.382  47.055 -21.757  1.00  0.00     0.009 C 
ENDBRANCH  34  35
ENDBRANCH   5  34
BRANCH   1  38
HETATM   38  C2  UNL     1       0.481  50.097 -15.688  1.00  0.00     0.004 C 
HETATM   39  C1  UNL     1       1.523  51.182 -15.441  1.00  0.00     0.006 C 
ENDBRANCH   1  38
BRANCH  25  40
HETATM   40  O5  UNL     1       0.989  52.031 -21.649  1.00  0.00    -0.359 OA
HETATM   41  H31 UNL     1       1.700  52.013 -22.313  1.00  0.00     0.217 HD
ENDBRANCH  25  40
TORSDOF 4
ENDMDL
MODEL 6
REMARK minimizedAffinity -6.92674589
REMARK CNNscore 0.213708997
REMARK CNNaffinity 5.1903348
REMARK  4 active torsions:
REMARK  status: ('A' for Active; 'I' for Inactive)
REMARK    1  A    between atoms: C2_2  and  C3_3 
REMARK    2  A    between atoms: C7_7  and  C8_8 
REMARK    3  A    between atoms: C8_8  and  C9_9 
REMARK    4  A    between atoms: C26_31  and  O5_32 
ROOT
HETATM    1  C3  UNL     1     -11.594  46.471 -20.958  1.00  0.00     0.008 C 
HETATM    2  C4  UNL     1     -11.591  45.583 -22.185  1.00  0.00    -0.026 C 
HETATM    3  C5  UNL     1     -11.828  46.067 -23.417  1.00  0.00    -0.028 C 
HETATM    4  C6  UNL     1     -11.831  45.253 -24.680  1.00  0.00     0.059 C 
HETATM    5  C7  UNL     1     -13.025  45.474 -25.652  1.00  0.00     0.135 C 
HETATM    6  O1  UNL     1     -14.259  44.894 -25.181  1.00  0.00    -0.315 OA
HETATM    7  C12 UNL     1     -14.343  43.534 -25.250  1.00  0.00     0.276 C 
HETATM    8  O2  UNL     1     -13.396  42.805 -25.541  1.00  0.00    -0.264 OA
HETATM    9  C13 UNL     1     -15.811  43.011 -25.137  1.00  0.00     0.095 C 
HETATM   10  C14 UNL     1     -15.775  41.599 -24.506  1.00  0.00     0.036 C 
HETATM   11  C15 UNL     1     -16.170  42.810 -26.602  1.00  0.00     0.003 C 
HETATM   12  C16 UNL     1     -17.323  42.910 -27.265  1.00  0.00     0.072 C 
HETATM   13  C17 UNL     1     -18.660  43.225 -26.762  1.00  0.00     0.245 C 
HETATM   14  O3  UNL     1     -19.625  43.024 -27.498  1.00  0.00    -0.268 OA
HETATM   15  N1  UNL     1     -18.850  43.767 -25.544  1.00  0.00    -0.320 N 
HETATM   16  C18 UNL     1     -18.051  44.149 -24.495  1.00  0.00     0.098 C 
HETATM   17  C19 UNL     1     -16.745  43.891 -24.299  1.00  0.00     0.045 C 
HETATM   18  C20 UNL     1     -16.128  44.387 -23.017  1.00  0.00     0.194 C 
HETATM   19  O4  UNL     1     -15.079  43.903 -22.613  1.00  0.00    -0.287 OA
HETATM   20  C21 UNL     1     -16.832  45.367 -22.172  1.00  0.00     0.046 A 
HETATM   21  C22 UNL     1     -18.201  45.503 -22.324  1.00  0.00     0.032 A 
HETATM   22  C23 UNL     1     -18.957  46.268 -21.420  1.00  0.00     0.026 A 
HETATM   23  C24 UNL     1     -18.345  46.927 -20.346  1.00  0.00    -0.027 A 
HETATM   24  C25 UNL     1     -19.190  47.718 -19.389  1.00  0.00     0.051 C 
HETATM   25  C26 UNL     1     -16.953  46.858 -20.241  1.00  0.00     0.086 A 
HETATM   26  C27 UNL     1     -16.203  46.088 -21.148  1.00  0.00     0.059 A 
HETATM   27  C28 UNL     1     -14.746  46.295 -21.154  1.00  0.00     0.163 C 
HETATM   28  O6  UNL     1     -14.341  47.195 -21.884  1.00  0.00    -0.292 OA
HETATM   29  C29 UNL     1     -13.896  45.409 -20.264  1.00  0.00     0.084 C 
HETATM   30  C30 UNL     1     -12.551  46.002 -19.836  1.00  0.00     0.016 C 
HETATM   31  C31 UNL     1     -18.871  44.865 -23.456  1.00  0.00     0.210 C 
HETATM   32  O7  UNL     1     -20.092  44.933 -23.574  1.00  0.00    -0.285 OA
HETATM   33  H26 UNL     1     -19.839  43.989 -25.407  1.00  0.00     0.169 HD
ENDROOT
BRANCH   5  34
HETATM   34  C8  UNL     1     -13.276  46.965 -25.957  1.00  0.00     0.037 C 
BRANCH  34  35
HETATM   35  C9  UNL     1     -13.444  47.363 -27.442  1.00  0.00    -0.020 C 
HETATM   36  C10 UNL     1     -12.181  47.987 -28.034  1.00  0.00     0.009 C 
HETATM   37  C11 UNL     1     -13.940  46.219 -28.326  1.00  0.00     0.009 C 
ENDBRANCH  34  35
ENDBRANCH   5  34
BRANCH   1  38
HETATM   38  C2  UNL     1     -10.162  46.709 -20.425  1.00  0.00     0.004 C 
HETATM   39  C1  UNL     1      -9.890  48.089 -19.838  1.00  0.00     0.006 C 
ENDBRANCH   1  38
BRANCH  25  40
HETATM   40  O5  UNL     1     -16.284  47.532 -19.256  1.00  0.00    -0.359 OA
HETATM   41  H31 UNL     1     -16.823  48.278 -18.940  1.00  0.00     0.217 HD
ENDBRANCH  25  40
TORSDOF 4
ENDMDL
MODEL 7
REMARK minimizedAffinity -6.78280735
REMARK CNNscore 0.202453375
REMARK CNNaffinity 5.02409983
REMARK  4 active torsions:
REMARK  status: ('A' for Active; 'I' for Inactive)
REMARK    1  A    between atoms: C2_2  and  C3_3 
REMARK    2  A    between atoms: C7_7  and  C8_8 
REMARK    3  A    between atoms: C8_8  and  C9_9 
REMARK    4  A    between atoms: C26_31  and  O5_32 
ROOT
HETATM    1  C3  UNL     1     -10.140  44.650 -22.907  1.00  0.00     0.008 C 
HETATM    2  C4  UNL     1     -11.006  44.236 -24.078  1.00  0.00    -0.026 C 
HETATM    3  C5  UNL     1     -11.460  45.124 -24.980  1.00  0.00    -0.028 C 
HETATM    4  C6  UNL     1     -12.313  44.788 -26.171  1.00  0.00     0.059 C 
HETATM    5  C7  UNL     1     -13.557  45.690 -26.418  1.00  0.00     0.135 C 
HETATM    6  O1  UNL     1     -14.628  45.450 -25.483  1.00  0.00    -0.315 OA
HETATM    7  C12 UNL     1     -15.327  44.292 -25.660  1.00  0.00     0.276 C 
HETATM    8  O2  UNL     1     -14.998  43.409 -26.451  1.00  0.00    -0.264 OA
HETATM    9  C13 UNL     1     -16.702  44.293 -24.917  1.00  0.00     0.095 C 
HETATM   10  C14 UNL     1     -17.054  42.832 -24.549  1.00  0.00     0.036 C 
HETATM   11  C15 UNL     1     -17.648  44.685 -26.042  1.00  0.00     0.003 C 
HETATM   12  C16 UNL     1     -18.793  45.370 -26.053  1.00  0.00     0.072 C 
HETATM   13  C17 UNL     1     -19.539  45.952 -24.938  1.00  0.00     0.245 C 
HETATM   14  O3  UNL     1     -20.693  46.328 -25.138  1.00  0.00    -0.268 OA
HETATM   15  N1  UNL     1     -18.980  46.126 -23.725  1.00  0.00    -0.320 N 
HETATM   16  C18 UNL     1     -17.758  45.871 -23.153  1.00  0.00     0.098 C 
HETATM   17  C19 UNL     1     -16.741  45.137 -23.638  1.00  0.00     0.045 C 
HETATM   18  C20 UNL     1     -15.526  44.974 -22.762  1.00  0.00     0.194 C 
HETATM   19  O4  UNL     1     -14.736  44.062 -22.971  1.00  0.00    -0.287 OA
HETATM   20  C21 UNL     1     -15.334  45.826 -21.577  1.00  0.00     0.046 A 
HETATM   21  C22 UNL     1     -16.438  46.461 -21.036  1.00  0.00     0.032 A 
HETATM   22  C23 UNL     1     -16.360  47.122 -19.798  1.00  0.00     0.026 A 
HETATM   23  C24 UNL     1     -15.157  47.170 -19.082  1.00  0.00    -0.027 A 
HETATM   24  C25 UNL     1     -15.118  47.868 -17.753  1.00  0.00     0.051 C 
HETATM   25  C26 UNL     1     -14.022  46.601 -19.667  1.00  0.00     0.086 A 
HETATM   26  C27 UNL     1     -14.109  45.940 -20.905  1.00  0.00     0.059 A 
HETATM   27  C28 UNL     1     -12.842  45.628 -21.586  1.00  0.00     0.163 C 
HETATM   28  O6  UNL     1     -12.398  46.514 -22.311  1.00  0.00    -0.292 OA
HETATM   29  C29 UNL     1     -12.203  44.278 -21.322  1.00  0.00     0.084 C 
HETATM   30  C30 UNL     1     -10.687  44.216 -21.526  1.00  0.00     0.016 C 
HETATM   31  C31 UNL     1     -17.701  46.469 -21.773  1.00  0.00     0.210 C 
HETATM   32  O7  UNL     1     -18.703  46.982 -21.281  1.00  0.00    -0.285 OA
HETATM   33  H26 UNL     1     -19.628  46.619 -23.106  1.00  0.00     0.169 HD
ENDROOT
BRANCH   5  34
HETATM   34  C8  UNL     1     -13.216  47.194 -26.391  1.00  0.00     0.037 C 
BRANCH  34  35
HETATM   35  C9  UNL     1     -12.522  47.782 -27.641  1.00  0.00    -0.020 C 
HETATM   36  C10 UNL     1     -11.012  47.937 -27.462  1.00  0.00     0.009 C 
HETATM   37  C11 UNL     1     -12.833  47.016 -28.927  1.00  0.00     0.009 C 
ENDBRANCH  34  35
ENDBRANCH   5  34
BRANCH   1  38
HETATM   38  C2  UNL     1      -8.671  44.210 -23.104  1.00  0.00     0.004 C 
HETATM   39  C1  UNL     1      -7.856  45.032 -24.096  1.00  0.00     0.006 C 
ENDBRANCH   1  38
BRANCH  25  40
HETATM   40  O5  UNL     1     -12.801  46.671 -19.053  1.00  0.00    -0.359 OA
HETATM   41  H31 UNL     1     -12.783  47.421 -18.434  1.00  0.00     0.217 HD
ENDBRANCH  25  40
TORSDOF 4
ENDMDL
MODEL 8
REMARK minimizedAffinity -6.64577103
REMARK CNNscore 0.186158851
REMARK CNNaffinity 6.09621429
REMARK  4 active torsions:
REMARK  status: ('A' for Active; 'I' for Inactive)
REMARK    1  A    between atoms: C2_2  and  C3_3 
REMARK    2  A    between atoms: C7_7  and  C8_8 
REMARK    3  A    between atoms: C8_8  and  C9_9 
REMARK    4  A    between atoms: C26_31  and  O5_32 
ROOT
HETATM    1  C3  UNL     1       2.220  46.801 -13.553  1.00  0.00     0.008 C 
HETATM    2  C4  UNL     1       0.841  47.420 -13.469  1.00  0.00    -0.026 C 
HETATM    3  C5  UNL     1       0.491  48.489 -14.206  1.00  0.00    -0.028 C 
HETATM    4  C6  UNL     1      -0.859  49.150 -14.186  1.00  0.00     0.059 C 
HETATM    5  C7  UNL     1      -0.877  50.701 -14.081  1.00  0.00     0.135 C 
HETATM    6  O1  UNL     1      -0.530  51.188 -12.768  1.00  0.00    -0.315 OA
HETATM    7  C12 UNL     1      -1.480  51.027 -11.802  1.00  0.00     0.276 C 
HETATM    8  O2  UNL     1      -2.511  50.375 -11.960  1.00  0.00    -0.264 OA
HETATM    9  C13 UNL     1      -1.231  51.929 -10.551  1.00  0.00     0.095 C 
HETATM   10  C14 UNL     1      -1.823  51.214  -9.313  1.00  0.00     0.036 C 
HETATM   11  C15 UNL     1      -2.154  53.103 -10.842  1.00  0.00     0.003 C 
HETATM   12  C16 UNL     1      -2.077  54.401 -10.542  1.00  0.00     0.072 C 
HETATM   13  C17 UNL     1      -1.055  55.119  -9.781  1.00  0.00     0.245 C 
HETATM   14  O3  UNL     1      -1.300  56.267  -9.410  1.00  0.00    -0.268 OA
HETATM   15  N1  UNL     1       0.149  54.576  -9.522  1.00  0.00    -0.320 N 
HETATM   16  C18 UNL     1       0.775  53.383  -9.788  1.00  0.00     0.098 C 
HETATM   17  C19 UNL     1       0.242  52.246 -10.268  1.00  0.00     0.045 C 
HETATM   18  C20 UNL     1       1.159  51.058 -10.409  1.00  0.00     0.194 C 
HETATM   19  O4  UNL     1       0.693  49.930 -10.494  1.00  0.00    -0.287 OA
HETATM   20  C21 UNL     1       2.620  51.221 -10.323  1.00  0.00     0.046 A 
HETATM   21  C22 UNL     1       3.120  52.353  -9.703  1.00  0.00     0.032 A 
HETATM   22  C23 UNL     1       4.490  52.474  -9.413  1.00  0.00     0.026 A 
HETATM   23  C24 UNL     1       5.391  51.457  -9.755  1.00  0.00    -0.027 A 
HETATM   24  C25 UNL     1       6.845  51.613  -9.410  1.00  0.00     0.051 C 
HETATM   25  C26 UNL     1       4.899  50.351 -10.455  1.00  0.00     0.086 A 
HETATM   26  C27 UNL     1       3.526  50.237 -10.740  1.00  0.00     0.059 A 
HETATM   27  C28 UNL     1       3.131  49.211 -11.718  1.00  0.00     0.163 C 
HETATM   28  O6  UNL     1       3.147  49.565 -12.894  1.00  0.00    -0.292 OA
HETATM   29  C29 UNL     1       2.766  47.834 -11.199  1.00  0.00     0.084 C 
HETATM   30  C30 UNL     1       2.949  46.685 -12.193  1.00  0.00     0.016 C 
HETATM   31  C31 UNL     1       2.218  53.454  -9.368  1.00  0.00     0.210 C 
HETATM   32  O7  UNL     1       2.640  54.441  -8.770  1.00  0.00    -0.285 OA
HETATM   33  H26 UNL     1       0.750  55.259  -9.053  1.00  0.00     0.169 HD
ENDROOT
BRANCH   5  34
HETATM   34  C8  UNL     1       0.052  51.378 -15.110  1.00  0.00     0.037 C 
BRANCH  34  35
HETATM   35  C9  UNL     1      -0.142  50.992 -16.595  1.00  0.00    -0.020 C 
HETATM   36  C10 UNL     1      -1.613  50.940 -17.005  1.00  0.00     0.009 C 
HETATM   37  C11 UNL     1       0.652  51.871 -17.561  1.00  0.00     0.009 C 
ENDBRANCH  34  35
ENDBRANCH   5  34
BRANCH   1  38
HETATM   38  C2  UNL     1       2.192  45.450 -14.304  1.00  0.00     0.004 C 
HETATM   39  C1  UNL     1       3.221  44.418 -13.859  1.00  0.00     0.006 C 
ENDBRANCH   1  38
BRANCH  25  40
HETATM   40  O5  UNL     1       5.735  49.355 -10.879  1.00  0.00    -0.359 OA
HETATM   41  H31 UNL     1       6.643  49.693 -10.954  1.00  0.00     0.217 HD
ENDBRANCH  25  40
TORSDOF 4
ENDMDL
MODEL 9
REMARK minimizedAffinity -6.76129198
REMARK CNNscore 0.173824981
REMARK CNNaffinity 5.26030874
REMARK  4 active torsions:
REMARK  status: ('A' for Active; 'I' for Inactive)
REMARK    1  A    between atoms: C2_2  and  C3_3 
REMARK    2  A    between atoms: C7_7  and  C8_8 
REMARK    3  A    between atoms: C8_8  and  C9_9 
REMARK    4  A    between atoms: C26_31  and  O5_32 
ROOT
HETATM    1  C3  UNL     1      -9.173  47.570 -30.745  1.00  0.00     0.008 C 
HETATM    2  C4  UNL     1      -9.876  48.013 -29.480  1.00  0.00    -0.026 C 
HETATM    3  C5  UNL     1      -9.403  47.714 -28.257  1.00  0.00    -0.028 C 
HETATM    4  C6  UNL     1     -10.037  48.127 -26.958  1.00  0.00     0.059 C 
HETATM    5  C7  UNL     1     -10.189  47.025 -25.872  1.00  0.00     0.135 C 
HETATM    6  O1  UNL     1     -11.230  46.071 -26.169  1.00  0.00    -0.315 OA
HETATM    7  C12 UNL     1     -12.510  46.518 -26.016  1.00  0.00     0.276 C 
HETATM    8  O2  UNL     1     -12.802  47.692 -25.795  1.00  0.00    -0.264 OA
HETATM    9  C13 UNL     1     -13.552  45.357 -25.935  1.00  0.00     0.095 C 
HETATM   10  C14 UNL     1     -14.900  45.877 -26.488  1.00  0.00     0.036 C 
HETATM   11  C15 UNL     1     -13.735  45.225 -24.430  1.00  0.00     0.003 C 
HETATM   12  C16 UNL     1     -14.013  44.181 -23.648  1.00  0.00     0.072 C 
HETATM   13  C17 UNL     1     -14.269  42.788 -24.014  1.00  0.00     0.245 C 
HETATM   14  O3  UNL     1     -14.746  42.038 -23.164  1.00  0.00    -0.268 OA
HETATM   15  N1  UNL     1     -13.953  42.305 -25.230  1.00  0.00    -0.320 N 
HETATM   16  C18 UNL     1     -13.400  42.808 -26.382  1.00  0.00     0.098 C 
HETATM   17  C19 UNL     1     -13.168  44.091 -26.709  1.00  0.00     0.045 C 
HETATM   18  C20 UNL     1     -12.599  44.363 -28.078  1.00  0.00     0.194 C 
HETATM   19  O4  UNL     1     -12.691  45.480 -28.570  1.00  0.00    -0.287 OA
HETATM   20  C21 UNL     1     -12.037  43.271 -28.890  1.00  0.00     0.046 A 
HETATM   21  C22 UNL     1     -12.409  41.972 -28.593  1.00  0.00     0.032 A 
HETATM   22  C23 UNL     1     -12.070  40.908 -29.446  1.00  0.00     0.026 A 
HETATM   23  C24 UNL     1     -11.334  41.130 -30.617  1.00  0.00    -0.027 A 
HETATM   24  C25 UNL     1     -11.009  39.971 -31.515  1.00  0.00     0.051 C 
HETATM   25  C26 UNL     1     -10.887  42.430 -30.875  1.00  0.00     0.086 A 
HETATM   26  C27 UNL     1     -11.232  43.489 -30.016  1.00  0.00     0.059 A 
HETATM   27  C28 UNL     1     -10.495  44.752 -30.186  1.00  0.00     0.163 C 
HETATM   28  O6  UNL     1      -9.445  44.842 -29.556  1.00  0.00    -0.292 OA
HETATM   29  C29 UNL     1     -11.078  45.798 -31.116  1.00  0.00     0.084 C 
HETATM   30  C30 UNL     1     -10.068  46.774 -31.725  1.00  0.00     0.016 C 
HETATM   31  C31 UNL     1     -13.143  41.693 -27.359  1.00  0.00     0.210 C 
HETATM   32  O7  UNL     1     -13.526  40.552 -27.109  1.00  0.00    -0.285 OA
HETATM   33  H26 UNL     1     -14.131  41.298 -25.266  1.00  0.00     0.169 HD
ENDROOT
BRANCH   5  34
HETATM   34  C8  UNL     1      -8.878  46.250 -25.623  1.00  0.00     0.037 C 
BRANCH  34  35
HETATM   35  C9  UNL     1      -7.865  46.878 -24.638  1.00  0.00    -0.020 C 
HETATM   36  C10 UNL     1      -6.774  47.681 -25.344  1.00  0.00     0.009 C 
HETATM   37  C11 UNL     1      -8.521  47.717 -23.541  1.00  0.00     0.009 C 
ENDBRANCH  34  35
ENDBRANCH   5  34
BRANCH   1  38
HETATM   38  C2  UNL     1      -8.467  48.753 -31.448  1.00  0.00     0.004 C 
HETATM   39  C1  UNL     1      -8.778  50.138 -30.894  1.00  0.00     0.006 C 
ENDBRANCH   1  38
BRANCH  25  40
HETATM   40  O5  UNL     1     -10.106  42.705 -31.964  1.00  0.00    -0.359 OA
HETATM   41  H31 UNL     1      -9.649  41.899 -32.258  1.00  0.00     0.217 HD
ENDBRANCH  25  40
TORSDOF 4
ENDMDL
