MODEL 1
REMARK minimizedAffinity -9.84822273
REMARK  6 active torsions:
REMARK  status: ('A' for Active; 'I' for Inactive)
REMARK    1  A    between atoms: C2_2  and  C3_3 
REMARK    2  A    between atoms: C2_2  and  C9_11 
REMARK    3  A    between atoms: C3_3  and  C4_4 
REMARK    4  A    between atoms: C5_5  and  C6_6 
REMARK    5  A    between atoms: C6_6  and  O1_9 
REMARK    6  A    between atoms: O1_9  and  O2_10 
ROOT
HETATM    1  C9  UNL     1      -2.619   7.719  14.736  1.00  0.00    -0.001 C 
HETATM    2  C10 UNL     1      -1.719   8.571  15.676  1.00  0.00     0.007 C 
HETATM    3  C11 UNL     1      -0.303   8.585  15.073  1.00  0.00     0.024 C 
HETATM    4  C12 UNL     1      -0.461   7.930  13.720  1.00  0.00     0.092 C 
HETATM    5  C13 UNL     1      -0.854   8.959  12.628  1.00  0.00     0.272 C 
HETATM    6  O3  UNL     1      -1.454  10.009  12.772  1.00  0.00    -0.264 OA
HETATM    7  O4  UNL     1      -0.415   8.483  11.406  1.00  0.00    -0.305 OA
HETATM    8  C14 UNL     1       0.237   7.205  11.605  1.00  0.00     0.113 C 
HETATM    9  C15 UNL     1      -0.887   6.122  11.550  1.00  0.00     0.043 C 
HETATM   10  C16 UNL     1      -2.079   6.412  12.506  1.00  0.00     0.014 C 
HETATM   11  C17 UNL     1      -1.601   6.874  13.908  1.00  0.00    -0.020 C 
HETATM   12  C18 UNL     1      -1.143   5.624  14.691  1.00  0.00     0.017 C 
HETATM   13  C19 UNL     1       0.704   7.352  13.016  1.00  0.00     0.137 A 
HETATM   14  O5  UNL     1       1.569   6.411  13.620  1.00  0.00    -0.364 OA
HETATM   15  C20 UNL     1       2.127   7.715  13.347  1.00  0.00     0.162 A 
HETATM   16  C21 UNL     1       3.169   7.733  12.278  1.00  0.00     0.041 C 
HETATM   17  C22 UNL     1       2.573   8.018  10.882  1.00  0.00     0.010 C 
HETATM   18  C23 UNL     1       3.680   8.044   9.791  1.00  0.00     0.056 C 
HETATM   19  C24 UNL     1       4.758   9.099  10.061  1.00  0.00     0.018 C 
HETATM   20  C25 UNL     1       3.050   8.282   8.422  1.00  0.00     0.131 C 
HETATM   21  O6  UNL     1       3.474   9.119   7.626  1.00  0.00    -0.298 OA
HETATM   22  C26 UNL     1       1.918   7.362   8.039  1.00  0.00     0.079 C 
HETATM   23  C27 UNL     1       0.854   7.378   9.126  1.00  0.00     0.020 C 
HETATM   24  C28 UNL     1       1.392   7.023  10.547  1.00  0.00    -0.004 C 
HETATM   25  C29 UNL     1       1.883   5.551  10.530  1.00  0.00     0.019 C 
ENDROOT
BRANCH   1  26
HETATM   26  C2  UNL     1      -3.859   7.101  15.446  1.00  0.00    -0.010 C 
HETATM   27  C1  UNL     1      -3.805   5.597  15.757  1.00  0.00     0.010 C 
BRANCH  26  28
HETATM   28  C3  UNL     1      -5.171   7.461  14.714  1.00  0.00     0.031 C 
BRANCH  28  29
HETATM   29  C4  UNL     1      -5.576   6.434  13.689  1.00  0.00    -0.027 C 
HETATM   30  C5  UNL     1      -6.337   5.363  13.966  1.00  0.00     0.009 C 
BRANCH  30  31
HETATM   31  C6  UNL     1      -6.798   4.280  13.004  1.00  0.00     0.106 C 
HETATM   32  C7  UNL     1      -5.726   3.716  12.059  1.00  0.00     0.053 C 
HETATM   33  C8  UNL     1      -7.941   4.853  12.152  1.00  0.00     0.053 C 
BRANCH  31  34
HETATM   34  O1  UNL     1      -7.388   3.213  13.778  1.00  0.00    -0.229 OA
BRANCH  34  35
HETATM   35  O2  UNL     1      -8.043   2.292  12.850  1.00  0.00    -0.249 OA
HETATM   36  H15 UNL     1      -7.313   1.649  12.797  1.00  0.00     0.253 HD
ENDBRANCH  34  35
ENDBRANCH  31  34
ENDBRANCH  30  31
ENDBRANCH  28  29
ENDBRANCH  26  28
ENDBRANCH   1  26
TORSDOF 6
ENDMDL
MODEL 2
REMARK minimizedAffinity -9.11476994
REMARK  6 active torsions:
REMARK  status: ('A' for Active; 'I' for Inactive)
REMARK    1  A    between atoms: C2_2  and  C3_3 
REMARK    2  A    between atoms: C2_2  and  C9_11 
REMARK    3  A    between atoms: C3_3  and  C4_4 
REMARK    4  A    between atoms: C5_5  and  C6_6 
REMARK    5  A    between atoms: C6_6  and  O1_9 
REMARK    6  A    between atoms: O1_9  and  O2_10 
ROOT
HETATM    1  C9  UNL     1      -0.268   7.977  13.421  1.00  0.00    -0.001 C 
HETATM    2  C10 UNL     1      -0.321   7.256  12.043  1.00  0.00     0.007 C 
HETATM    3  C11 UNL     1      -1.671   6.520  11.958  1.00  0.00     0.024 C 
HETATM    4  C12 UNL     1      -2.436   6.992  13.173  1.00  0.00     0.092 C 
HETATM    5  C13 UNL     1      -3.218   8.300  12.885  1.00  0.00     0.272 C 
HETATM    6  O3  UNL     1      -2.955   9.164  12.067  1.00  0.00    -0.264 OA
HETATM    7  O4  UNL     1      -4.303   8.355  13.740  1.00  0.00    -0.305 OA
HETATM    8  C14 UNL     1      -4.297   7.177  14.584  1.00  0.00     0.113 C 
HETATM    9  C15 UNL     1      -3.394   7.519  15.813  1.00  0.00     0.043 C 
HETATM   10  C16 UNL     1      -1.990   8.060  15.421  1.00  0.00     0.014 C 
HETATM   11  C17 UNL     1      -1.349   7.239  14.271  1.00  0.00    -0.020 C 
HETATM   12  C18 UNL     1      -0.792   5.930  14.873  1.00  0.00     0.017 C 
HETATM   13  C19 UNL     1      -3.575   6.211  13.702  1.00  0.00     0.137 A 
HETATM   14  O5  UNL     1      -3.475   4.838  14.021  1.00  0.00    -0.364 OA
HETATM   15  C20 UNL     1      -4.310   5.177  12.892  1.00  0.00     0.162 A 
HETATM   16  C21 UNL     1      -5.769   4.946  13.106  1.00  0.00     0.041 C 
HETATM   17  C22 UNL     1      -6.489   6.202  13.644  1.00  0.00     0.010 C 
HETATM   18  C23 UNL     1      -8.007   5.938  13.846  1.00  0.00     0.056 C 
HETATM   19  C24 UNL     1      -8.715   5.512  12.555  1.00  0.00     0.018 C 
HETATM   20  C25 UNL     1      -8.677   7.184  14.419  1.00  0.00     0.131 C 
HETATM   21  O6  UNL     1      -9.715   7.658  13.961  1.00  0.00    -0.298 OA
HETATM   22  C26 UNL     1      -8.047   7.769  15.658  1.00  0.00     0.079 C 
HETATM   23  C27 UNL     1      -6.567   8.023  15.412  1.00  0.00     0.020 C 
HETATM   24  C28 UNL     1      -5.777   6.764  14.938  1.00  0.00    -0.004 C 
HETATM   25  C29 UNL     1      -5.787   5.720  16.085  1.00  0.00     0.019 C 
ENDROOT
BRANCH   1  26
HETATM   26  C2  UNL     1       1.178   8.246  13.931  1.00  0.00    -0.010 C 
HETATM   27  C1  UNL     1       1.830   9.571  13.508  1.00  0.00     0.010 C 
BRANCH  26  28
HETATM   28  C3  UNL     1       2.116   7.055  13.632  1.00  0.00     0.031 C 
BRANCH  28  29
HETATM   29  C4  UNL     1       2.987   7.278  12.423  1.00  0.00    -0.027 C 
HETATM   30  C5  UNL     1       2.916   6.537  11.305  1.00  0.00     0.009 C 
BRANCH  30  31
HETATM   31  C6  UNL     1       3.747   6.688  10.040  1.00  0.00     0.106 C 
HETATM   32  C7  UNL     1       3.914   8.119   9.508  1.00  0.00     0.053 C 
HETATM   33  C8  UNL     1       3.098   5.835   8.939  1.00  0.00     0.053 C 
BRANCH  31  34
HETATM   34  O1  UNL     1       5.041   6.094  10.280  1.00  0.00    -0.229 OA
BRANCH  34  35
HETATM   35  O2  UNL     1       4.958   4.676   9.934  1.00  0.00    -0.249 OA
HETATM   36  H15 UNL     1       5.327   4.758   9.036  1.00  0.00     0.253 HD
ENDBRANCH  34  35
ENDBRANCH  31  34
ENDBRANCH  30  31
ENDBRANCH  28  29
ENDBRANCH  26  28
ENDBRANCH   1  26
TORSDOF 6
ENDMDL
MODEL 3
REMARK minimizedAffinity -9.06506634
REMARK  6 active torsions:
REMARK  status: ('A' for Active; 'I' for Inactive)
REMARK    1  A    between atoms: C2_2  and  C3_3 
REMARK    2  A    between atoms: C2_2  and  C9_11 
REMARK    3  A    between atoms: C3_3  and  C4_4 
REMARK    4  A    between atoms: C5_5  and  C6_6 
REMARK    5  A    between atoms: C6_6  and  O1_9 
REMARK    6  A    between atoms: O1_9  and  O2_10 
ROOT
HETATM    1  C9  UNL     1      -2.119   6.652  12.992  1.00  0.00    -0.001 C 
HETATM    2  C10 UNL     1      -1.927   5.691  11.784  1.00  0.00     0.007 C 
HETATM    3  C11 UNL     1      -0.493   5.890  11.259  1.00  0.00     0.024 C 
HETATM    4  C12 UNL     1       0.164   6.788  12.282  1.00  0.00     0.092 C 
HETATM    5  C13 UNL     1       0.784   5.973  13.446  1.00  0.00     0.272 C 
HETATM    6  O3  UNL     1       0.443   4.877  13.857  1.00  0.00    -0.264 OA
HETATM    7  O4  UNL     1       1.823   6.709  13.986  1.00  0.00    -0.305 OA
HETATM    8  C14 UNL     1       1.935   7.962  13.267  1.00  0.00     0.113 C 
HETATM    9  C15 UNL     1       0.954   8.959  13.963  1.00  0.00     0.043 C 
HETATM   10  C16 UNL     1      -0.493   8.408  14.110  1.00  0.00     0.014 C 
HETATM   11  C17 UNL     1      -0.984   7.709  12.815  1.00  0.00    -0.020 C 
HETATM   12  C18 UNL     1      -1.394   8.807  11.807  1.00  0.00     0.017 C 
HETATM   13  C19 UNL     1       1.372   7.569  11.941  1.00  0.00     0.137 A 
HETATM   14  O5  UNL     1       1.435   8.426  10.819  1.00  0.00    -0.364 OA
HETATM   15  C20 UNL     1       2.259   7.241  10.769  1.00  0.00     0.162 A 
HETATM   16  C21 UNL     1       3.728   7.503  10.837  1.00  0.00     0.041 C 
HETATM   17  C22 UNL     1       4.264   7.462  12.285  1.00  0.00     0.010 C 
HETATM   18  C23 UNL     1       5.796   7.725  12.325  1.00  0.00     0.056 C 
HETATM   19  C24 UNL     1       6.597   6.710  11.503  1.00  0.00     0.018 C 
HETATM   20  C25 UNL     1       6.282   7.723  13.772  1.00  0.00     0.131 C 
HETATM   21  O6  UNL     1       7.268   7.090  14.146  1.00  0.00    -0.298 OA
HETATM   22  C26 UNL     1       5.541   8.624  14.726  1.00  0.00     0.079 C 
HETATM   23  C27 UNL     1       4.050   8.324  14.664  1.00  0.00     0.020 C 
HETATM   24  C28 UNL     1       3.441   8.425  13.231  1.00  0.00    -0.004 C 
HETATM   25  C29 UNL     1       3.543   9.899  12.759  1.00  0.00     0.019 C 
ENDROOT
BRANCH   1  26
HETATM   26  C2  UNL     1      -3.604   7.035  13.258  1.00  0.00    -0.010 C 
HETATM   27  C1  UNL     1      -4.031   8.464  12.889  1.00  0.00     0.010 C 
BRANCH  26  28
HETATM   28  C3  UNL     1      -4.028   6.694  14.704  1.00  0.00     0.031 C 
BRANCH  28  29
HETATM   29  C4  UNL     1      -5.391   6.057  14.786  1.00  0.00    -0.027 C 
HETATM   30  C5  UNL     1      -6.043   5.552  13.726  1.00  0.00     0.009 C 
BRANCH  30  31
HETATM   31  C6  UNL     1      -7.412   4.891  13.710  1.00  0.00     0.106 C 
HETATM   32  C7  UNL     1      -7.421   3.356  13.656  1.00  0.00     0.053 C 
HETATM   33  C8  UNL     1      -8.185   5.423  12.493  1.00  0.00     0.053 C 
BRANCH  31  34
HETATM   34  O1  UNL     1      -8.146   5.350  14.867  1.00  0.00    -0.229 OA
BRANCH  34  35
HETATM   35  O2  UNL     1      -8.021   4.335  15.912  1.00  0.00    -0.249 OA
HETATM   36  H15 UNL     1      -7.288   4.761  16.393  1.00  0.00     0.253 HD
ENDBRANCH  34  35
ENDBRANCH  31  34
ENDBRANCH  30  31
ENDBRANCH  28  29
ENDBRANCH  26  28
ENDBRANCH   1  26
TORSDOF 6
ENDMDL
MODEL 4
REMARK minimizedAffinity -9.04196644
REMARK  6 active torsions:
REMARK  status: ('A' for Active; 'I' for Inactive)
REMARK    1  A    between atoms: C2_2  and  C3_3 
REMARK    2  A    between atoms: C2_2  and  C9_11 
REMARK    3  A    between atoms: C3_3  and  C4_4 
REMARK    4  A    between atoms: C5_5  and  C6_6 
REMARK    5  A    between atoms: C6_6  and  O1_9 
REMARK    6  A    between atoms: O1_9  and  O2_10 
ROOT
HETATM    1  C9  UNL     1      -2.636   7.656  14.663  1.00  0.00    -0.001 C 
HETATM    2  C10 UNL     1      -1.744   8.478  15.637  1.00  0.00     0.007 C 
HETATM    3  C11 UNL     1      -0.319   8.497  15.054  1.00  0.00     0.024 C 
HETATM    4  C12 UNL     1      -0.463   7.876  13.683  1.00  0.00     0.092 C 
HETATM    5  C13 UNL     1      -0.833   8.934  12.611  1.00  0.00     0.272 C 
HETATM    6  O3  UNL     1      -1.428   9.985  12.772  1.00  0.00    -0.264 OA
HETATM    7  O4  UNL     1      -0.381   8.485  11.384  1.00  0.00    -0.305 OA
HETATM    8  C14 UNL     1       0.260   7.199  11.561  1.00  0.00     0.113 C 
HETATM    9  C15 UNL     1      -0.871   6.125  11.463  1.00  0.00     0.043 C 
HETATM   10  C16 UNL     1      -2.074   6.400  12.409  1.00  0.00     0.014 C 
HETATM   11  C17 UNL     1      -1.613   6.824  13.829  1.00  0.00    -0.020 C 
HETATM   12  C18 UNL     1      -1.174   5.552  14.587  1.00  0.00     0.017 C 
HETATM   13  C19 UNL     1       0.708   7.307  12.981  1.00  0.00     0.137 A 
HETATM   14  O5  UNL     1       1.558   6.346  13.574  1.00  0.00    -0.364 OA
HETATM   15  C20 UNL     1       2.129   7.652  13.340  1.00  0.00     0.162 A 
HETATM   16  C21 UNL     1       3.186   7.689  12.287  1.00  0.00     0.041 C 
HETATM   17  C22 UNL     1       2.611   8.012  10.891  1.00  0.00     0.010 C 
HETATM   18  C23 UNL     1       3.734   8.057   9.817  1.00  0.00     0.056 C 
HETATM   19  C24 UNL     1       4.815   9.098  10.127  1.00  0.00     0.018 C 
HETATM   20  C25 UNL     1       3.125   8.333   8.444  1.00  0.00     0.131 C 
HETATM   21  O6  UNL     1       3.565   9.186   7.675  1.00  0.00    -0.298 OA
HETATM   22  C26 UNL     1       1.993   7.431   8.024  1.00  0.00     0.079 C 
HETATM   23  C27 UNL     1       0.913   7.427   9.096  1.00  0.00     0.020 C 
HETATM   24  C28 UNL     1       1.428   7.034  10.515  1.00  0.00    -0.004 C 
HETATM   25  C29 UNL     1       1.909   5.560  10.469  1.00  0.00     0.019 C 
ENDROOT
BRANCH   1  26
HETATM   26  C2  UNL     1      -3.890   7.029  15.341  1.00  0.00    -0.010 C 
HETATM   27  C1  UNL     1      -4.462   5.754  14.704  1.00  0.00     0.010 C 
BRANCH  26  28
HETATM   28  C3  UNL     1      -5.004   8.079  15.554  1.00  0.00     0.031 C 
BRANCH  28  29
HETATM   29  C4  UNL     1      -6.385   7.535  15.302  1.00  0.00    -0.027 C 
HETATM   30  C5  UNL     1      -7.508   8.262  15.422  1.00  0.00     0.009 C 
BRANCH  30  31
HETATM   31  C6  UNL     1      -8.938   7.803  15.187  1.00  0.00     0.106 C 
HETATM   32  C7  UNL     1      -9.151   6.821  14.025  1.00  0.00     0.053 C 
HETATM   33  C8  UNL     1      -9.804   9.048  14.934  1.00  0.00     0.053 C 
BRANCH  31  34
HETATM   34  O1  UNL     1      -9.434   7.231  16.417  1.00  0.00    -0.229 OA
BRANCH  34  35
HETATM   35  O2  UNL     1     -10.009   8.310  17.218  1.00  0.00    -0.249 OA
HETATM   36  H15 UNL     1     -10.934   8.165  16.952  1.00  0.00     0.253 HD
ENDBRANCH  34  35
ENDBRANCH  31  34
ENDBRANCH  30  31
ENDBRANCH  28  29
ENDBRANCH  26  28
ENDBRANCH   1  26
TORSDOF 6
ENDMDL
MODEL 5
REMARK minimizedAffinity -8.97449017
REMARK  6 active torsions:
REMARK  status: ('A' for Active; 'I' for Inactive)
REMARK    1  A    between atoms: C2_2  and  C3_3 
REMARK    2  A    between atoms: C2_2  and  C9_11 
REMARK    3  A    between atoms: C3_3  and  C4_4 
REMARK    4  A    between atoms: C5_5  and  C6_6 
REMARK    5  A    between atoms: C6_6  and  O1_9 
REMARK    6  A    between atoms: O1_9  and  O2_10 
ROOT
HETATM    1  C9  UNL     1      -2.374   6.642  13.094  1.00  0.00    -0.001 C 
HETATM    2  C10 UNL     1      -2.130   5.729  11.858  1.00  0.00     0.007 C 
HETATM    3  C11 UNL     1      -0.695   5.991  11.366  1.00  0.00     0.024 C 
HETATM    4  C12 UNL     1      -0.085   6.874  12.430  1.00  0.00     0.092 C 
HETATM    5  C13 UNL     1       0.542   6.039  13.577  1.00  0.00     0.272 C 
HETATM    6  O3  UNL     1       0.229   4.921  13.945  1.00  0.00    -0.264 OA
HETATM    7  O4  UNL     1       1.546   6.790  14.161  1.00  0.00    -0.305 OA
HETATM    8  C14 UNL     1       1.630   8.069  13.487  1.00  0.00     0.113 C 
HETATM    9  C15 UNL     1       0.605   9.010  14.197  1.00  0.00     0.043 C 
HETATM   10  C16 UNL     1      -0.825   8.409  14.299  1.00  0.00     0.014 C 
HETATM   11  C17 UNL     1      -1.271   7.740  12.972  1.00  0.00    -0.020 C 
HETATM   12  C18 UNL     1      -1.698   8.857  11.995  1.00  0.00     0.017 C 
HETATM   13  C19 UNL     1       1.104   7.704  12.138  1.00  0.00     0.137 A 
HETATM   14  O5  UNL     1       1.157   8.600  11.046  1.00  0.00    -0.364 OA
HETATM   15  C20 UNL     1       2.021   7.444  10.972  1.00  0.00     0.162 A 
HETATM   16  C21 UNL     1       3.478   7.750  11.076  1.00  0.00     0.041 C 
HETATM   17  C22 UNL     1       3.991   7.677  12.531  1.00  0.00     0.010 C 
HETATM   18  C23 UNL     1       5.512   7.987  12.608  1.00  0.00     0.056 C 
HETATM   19  C24 UNL     1       6.360   7.027  11.768  1.00  0.00     0.018 C 
HETATM   20  C25 UNL     1       5.974   7.951  14.062  1.00  0.00     0.131 C 
HETATM   21  O6  UNL     1       6.973   7.337  14.433  1.00  0.00    -0.298 OA
HETATM   22  C26 UNL     1       5.187   8.795  15.033  1.00  0.00     0.079 C 
HETATM   23  C27 UNL     1       3.708   8.451  14.933  1.00  0.00     0.020 C 
HETATM   24  C28 UNL     1       3.121   8.581  13.493  1.00  0.00    -0.004 C 
HETATM   25  C29 UNL     1       3.183  10.073  13.073  1.00  0.00     0.019 C 
ENDROOT
BRANCH   1  26
HETATM   26  C2  UNL     1      -3.875   6.968  13.344  1.00  0.00    -0.010 C 
HETATM   27  C1  UNL     1      -4.185   8.153  14.271  1.00  0.00     0.010 C 
BRANCH  26  28
HETATM   28  C3  UNL     1      -4.663   5.712  13.781  1.00  0.00     0.031 C 
BRANCH  28  29
HETATM   29  C4  UNL     1      -4.450   4.534  12.868  1.00  0.00    -0.027 C 
HETATM   30  C5  UNL     1      -5.449   3.817  12.329  1.00  0.00     0.009 C 
BRANCH  30  31
HETATM   31  C6  UNL     1      -5.333   2.619  11.399  1.00  0.00     0.106 C 
HETATM   32  C7  UNL     1      -6.364   1.500  11.607  1.00  0.00     0.053 C 
HETATM   33  C8  UNL     1      -3.928   2.020  11.566  1.00  0.00     0.053 C 
BRANCH  31  34
HETATM   34  O1  UNL     1      -5.391   3.100  10.038  1.00  0.00    -0.229 OA
BRANCH  34  35
HETATM   35  O2  UNL     1      -4.024   3.381   9.601  1.00  0.00    -0.249 OA
HETATM   36  H15 UNL     1      -3.880   2.535   9.139  1.00  0.00     0.253 HD
ENDBRANCH  34  35
ENDBRANCH  31  34
ENDBRANCH  30  31
ENDBRANCH  28  29
ENDBRANCH  26  28
ENDBRANCH   1  26
TORSDOF 6
ENDMDL
MODEL 6
REMARK minimizedAffinity -8.8720541
REMARK  6 active torsions:
REMARK  status: ('A' for Active; 'I' for Inactive)
REMARK    1  A    between atoms: C2_2  and  C3_3 
REMARK    2  A    between atoms: C2_2  and  C9_11 
REMARK    3  A    between atoms: C3_3  and  C4_4 
REMARK    4  A    between atoms: C5_5  and  C6_6 
REMARK    5  A    between atoms: C6_6  and  O1_9 
REMARK    6  A    between atoms: O1_9  and  O2_10 
ROOT
HETATM    1  C9  UNL     1      -2.362   7.331  13.216  1.00  0.00    -0.001 C 
HETATM    2  C10 UNL     1      -2.775   8.805  13.496  1.00  0.00     0.007 C 
HETATM    3  C11 UNL     1      -1.482   9.623  13.664  1.00  0.00     0.024 C 
HETATM    4  C12 UNL     1      -0.376   8.668  13.280  1.00  0.00     0.092 C 
HETATM    5  C13 UNL     1      -0.103   8.692  11.753  1.00  0.00     0.272 C 
HETATM    6  O3  UNL     1      -0.880   8.977  10.859  1.00  0.00    -0.264 OA
HETATM    7  O4  UNL     1       1.210   8.313  11.541  1.00  0.00    -0.305 OA
HETATM    8  C14 UNL     1       1.830   8.031  12.819  1.00  0.00     0.113 C 
HETATM    9  C15 UNL     1       1.519   6.534  13.140  1.00  0.00     0.043 C 
HETATM   10  C16 UNL     1       0.008   6.179  13.046  1.00  0.00     0.014 C 
HETATM   11  C17 UNL     1      -0.886   7.254  13.718  1.00  0.00    -0.020 C 
HETATM   12  C18 UNL     1      -0.825   7.038  15.246  1.00  0.00     0.017 C 
HETATM   13  C19 UNL     1       1.016   8.902  13.718  1.00  0.00     0.137 A 
HETATM   14  O5  UNL     1       1.363   9.112  15.072  1.00  0.00    -0.364 OA
HETATM   15  C20 UNL     1       1.515  10.244  14.187  1.00  0.00     0.162 A 
HETATM   16  C21 UNL     1       2.929  10.652  13.938  1.00  0.00     0.041 C 
HETATM   17  C22 UNL     1       3.526   9.966  12.690  1.00  0.00     0.010 C 
HETATM   18  C23 UNL     1       4.994  10.419  12.447  1.00  0.00     0.056 C 
HETATM   19  C24 UNL     1       5.126  11.933  12.254  1.00  0.00     0.018 C 
HETATM   20  C25 UNL     1       5.566   9.689  11.235  1.00  0.00     0.131 C 
HETATM   21  O6  UNL     1       6.164  10.263  10.327  1.00  0.00    -0.298 OA
HETATM   22  C26 UNL     1       5.445   8.186  11.244  1.00  0.00     0.079 C 
HETATM   23  C27 UNL     1       3.993   7.788  11.471  1.00  0.00     0.020 C 
HETATM   24  C28 UNL     1       3.363   8.396  12.762  1.00  0.00    -0.004 C 
HETATM   25  C29 UNL     1       4.105   7.809  13.992  1.00  0.00     0.019 C 
ENDROOT
BRANCH   1  26
HETATM   26  C2  UNL     1      -3.450   6.290  13.610  1.00  0.00    -0.010 C 
HETATM   27  C1  UNL     1      -3.527   5.891  15.091  1.00  0.00     0.010 C 
BRANCH  26  28
HETATM   28  C3  UNL     1      -3.389   5.036  12.708  1.00  0.00     0.031 C 
BRANCH  28  29
HETATM   29  C4  UNL     1      -4.619   4.173  12.813  1.00  0.00    -0.027 C 
HETATM   30  C5  UNL     1      -5.851   4.654  13.047  1.00  0.00     0.009 C 
BRANCH  30  31
HETATM   31  C6  UNL     1      -7.146   3.866  13.166  1.00  0.00     0.106 C 
HETATM   32  C7  UNL     1      -7.171   2.499  12.466  1.00  0.00     0.053 C 
HETATM   33  C8  UNL     1      -8.282   4.726  12.591  1.00  0.00     0.053 C 
BRANCH  31  34
HETATM   34  O1  UNL     1      -7.449   3.710  14.570  1.00  0.00    -0.229 OA
BRANCH  34  35
HETATM   35  O2  UNL     1      -8.107   4.932  15.028  1.00  0.00    -0.249 OA
HETATM   36  H15 UNL     1      -9.021   4.604  14.946  1.00  0.00     0.253 HD
ENDBRANCH  34  35
ENDBRANCH  31  34
ENDBRANCH  30  31
ENDBRANCH  28  29
ENDBRANCH  26  28
ENDBRANCH   1  26
TORSDOF 6
ENDMDL
MODEL 7
REMARK minimizedAffinity -8.76226139
REMARK  6 active torsions:
REMARK  status: ('A' for Active; 'I' for Inactive)
REMARK    1  A    between atoms: C2_2  and  C3_3 
REMARK    2  A    between atoms: C2_2  and  C9_11 
REMARK    3  A    between atoms: C3_3  and  C4_4 
REMARK    4  A    between atoms: C5_5  and  C6_6 
REMARK    5  A    between atoms: C6_6  and  O1_9 
REMARK    6  A    between atoms: O1_9  and  O2_10 
ROOT
HETATM    1  C9  UNL     1       0.308   9.306  13.865  1.00  0.00    -0.001 C 
HETATM    2  C10 UNL     1       0.907   8.320  12.821  1.00  0.00     0.007 C 
HETATM    3  C11 UNL     1      -0.084   7.152  12.667  1.00  0.00     0.024 C 
HETATM    4  C12 UNL     1      -1.303   7.584  13.451  1.00  0.00     0.092 C 
HETATM    5  C13 UNL     1      -2.275   8.424  12.582  1.00  0.00     0.272 C 
HETATM    6  O3  UNL     1      -2.007   9.114  11.614  1.00  0.00    -0.264 OA
HETATM    7  O4  UNL     1      -3.550   8.282  13.097  1.00  0.00    -0.305 OA
HETATM    8  C14 UNL     1      -3.497   7.410  14.253  1.00  0.00     0.113 C 
HETATM    9  C15 UNL     1      -3.174   8.323  15.480  1.00  0.00     0.043 C 
HETATM   10  C16 UNL     1      -1.924   9.224  15.273  1.00  0.00     0.014 C 
HETATM   11  C17 UNL     1      -0.745   8.447  14.632  1.00  0.00    -0.020 C 
HETATM   12  C18 UNL     1      -0.078   7.597  15.737  1.00  0.00     0.017 C 
HETATM   13  C19 UNL     1      -2.292   6.592  13.924  1.00  0.00     0.137 A 
HETATM   14  O5  UNL     1      -1.929   5.456  14.683  1.00  0.00    -0.364 OA
HETATM   15  C20 UNL     1      -2.409   5.207  13.344  1.00  0.00     0.162 A 
HETATM   16  C21 UNL     1      -3.736   4.526  13.276  1.00  0.00     0.041 C 
HETATM   17  C22 UNL     1      -4.906   5.530  13.195  1.00  0.00     0.010 C 
HETATM   18  C23 UNL     1      -6.273   4.795  13.113  1.00  0.00     0.056 C 
HETATM   19  C24 UNL     1      -6.377   3.862  11.902  1.00  0.00     0.018 C 
HETATM   20  C25 UNL     1      -7.408   5.816  13.080  1.00  0.00     0.131 C 
HETATM   21  O6  UNL     1      -8.327   5.771  12.265  1.00  0.00    -0.298 OA
HETATM   22  C26 UNL     1      -7.402   6.854  14.174  1.00  0.00     0.079 C 
HETATM   23  C27 UNL     1      -6.053   7.556  14.211  1.00  0.00     0.020 C 
HETATM   24  C28 UNL     1      -4.838   6.589  14.367  1.00  0.00    -0.004 C 
HETATM   25  C29 UNL     1      -4.935   5.902  15.754  1.00  0.00     0.019 C 
ENDROOT
BRANCH   1  26
HETATM   26  C2  UNL     1       1.376  10.182  14.583  1.00  0.00    -0.010 C 
HETATM   27  C1  UNL     1       2.580   9.450  15.196  1.00  0.00     0.010 C 
BRANCH  26  28
HETATM   28  C3  UNL     1       0.730  11.132  15.617  1.00  0.00     0.031 C 
BRANCH  28  29
HETATM   29  C4  UNL     1       0.955  10.695  17.041  1.00  0.00    -0.027 C 
HETATM   30  C5  UNL     1       1.664  11.403  17.935  1.00  0.00     0.009 C 
BRANCH  30  31
HETATM   31  C6  UNL     1       1.942  11.047  19.387  1.00  0.00     0.106 C 
HETATM   32  C7  UNL     1       0.715  10.957  20.308  1.00  0.00     0.053 C 
HETATM   33  C8  UNL     1       2.902  12.100  19.962  1.00  0.00     0.053 C 
BRANCH  31  34
HETATM   34  O1  UNL     1       2.672   9.801  19.412  1.00  0.00    -0.229 OA
BRANCH  34  35
HETATM   35  O2  UNL     1       3.246   9.642  20.747  1.00  0.00    -0.249 OA
HETATM   36  H15 UNL     1       2.545   9.066  21.102  1.00  0.00     0.253 HD
ENDBRANCH  34  35
ENDBRANCH  31  34
ENDBRANCH  30  31
ENDBRANCH  28  29
ENDBRANCH  26  28
ENDBRANCH   1  26
TORSDOF 6
ENDMDL
MODEL 8
REMARK minimizedAffinity -8.74805546
REMARK  6 active torsions:
REMARK  status: ('A' for Active; 'I' for Inactive)
REMARK    1  A    between atoms: C2_2  and  C3_3 
REMARK    2  A    between atoms: C2_2  and  C9_11 
REMARK    3  A    between atoms: C3_3  and  C4_4 
REMARK    4  A    between atoms: C5_5  and  C6_6 
REMARK    5  A    between atoms: C6_6  and  O1_9 
REMARK    6  A    between atoms: O1_9  and  O2_10 
ROOT
HETATM    1  C9  UNL     1      -2.006   6.095  12.556  1.00  0.00    -0.001 C 
HETATM    2  C10 UNL     1      -2.862   5.330  13.606  1.00  0.00     0.007 C 
HETATM    3  C11 UNL     1      -2.972   6.226  14.853  1.00  0.00     0.024 C 
HETATM    4  C12 UNL     1      -2.369   7.545  14.426  1.00  0.00     0.092 C 
HETATM    5  C13 UNL     1      -3.423   8.469  13.761  1.00  0.00     0.272 C 
HETATM    6  O3  UNL     1      -4.435   8.142  13.166  1.00  0.00    -0.264 OA
HETATM    7  O4  UNL     1      -3.023   9.780  13.937  1.00  0.00    -0.305 OA
HETATM    8  C14 UNL     1      -1.772   9.797  14.668  1.00  0.00     0.113 C 
HETATM    9  C15 UNL     1      -0.637   9.663  13.603  1.00  0.00     0.043 C 
HETATM   10  C16 UNL     1      -0.825   8.455  12.641  1.00  0.00     0.014 C 
HETATM   11  C17 UNL     1      -1.250   7.169  13.398  1.00  0.00    -0.020 C 
HETATM   12  C18 UNL     1       0.008   6.573  14.067  1.00  0.00     0.017 C 
HETATM   13  C19 UNL     1      -1.881   8.516  15.428  1.00  0.00     0.137 A 
HETATM   14  O5  UNL     1      -0.961   8.167  16.442  1.00  0.00    -0.364 OA
HETATM   15  C20 UNL     1      -2.302   8.486  16.874  1.00  0.00     0.162 A 
HETATM   16  C21 UNL     1      -2.418   9.755  17.653  1.00  0.00     0.041 C 
HETATM   17  C22 UNL     1      -2.732  10.969  16.752  1.00  0.00     0.010 C 
HETATM   18  C23 UNL     1      -2.861  12.273  17.589  1.00  0.00     0.056 C 
HETATM   19  C24 UNL     1      -3.956  12.190  18.657  1.00  0.00     0.018 C 
HETATM   20  C25 UNL     1      -3.126  13.457  16.664  1.00  0.00     0.131 C 
HETATM   21  O6  UNL     1      -4.016  14.281  16.867  1.00  0.00    -0.298 OA
HETATM   22  C26 UNL     1      -2.167  13.631  15.512  1.00  0.00     0.079 C 
HETATM   23  C27 UNL     1      -2.082  12.338  14.714  1.00  0.00     0.020 C 
HETATM   24  C28 UNL     1      -1.694  11.090  15.566  1.00  0.00    -0.004 C 
HETATM   25  C29 UNL     1      -0.251  11.292  16.100  1.00  0.00     0.019 C 
ENDROOT
BRANCH   1  26
HETATM   26  C2  UNL     1      -1.297   5.164  11.529  1.00  0.00    -0.010 C 
HETATM   27  C1  UNL     1      -1.966   3.813  11.235  1.00  0.00     0.010 C 
BRANCH  26  28
HETATM   28  C3  UNL     1       0.197   4.970  11.877  1.00  0.00     0.031 C 
BRANCH  28  29
HETATM   29  C4  UNL     1       1.125   5.602  10.873  1.00  0.00    -0.027 C 
HETATM   30  C5  UNL     1       2.371   5.164  10.630  1.00  0.00     0.009 C 
BRANCH  30  31
HETATM   31  C6  UNL     1       3.375   5.732   9.639  1.00  0.00     0.106 C 
HETATM   32  C7  UNL     1       4.229   6.906  10.141  1.00  0.00     0.053 C 
HETATM   33  C8  UNL     1       2.605   6.193   8.391  1.00  0.00     0.053 C 
BRANCH  31  34
HETATM   34  O1  UNL     1       4.226   4.653   9.194  1.00  0.00    -0.229 OA
BRANCH  34  35
HETATM   35  O2  UNL     1       3.545   3.392   9.484  1.00  0.00    -0.249 OA
HETATM   36  H15 UNL     1       3.168   3.263   8.595  1.00  0.00     0.253 HD
ENDBRANCH  34  35
ENDBRANCH  31  34
ENDBRANCH  30  31
ENDBRANCH  28  29
ENDBRANCH  26  28
ENDBRANCH   1  26
TORSDOF 6
ENDMDL
MODEL 9
REMARK minimizedAffinity -8.65457916
REMARK  6 active torsions:
REMARK  status: ('A' for Active; 'I' for Inactive)
REMARK    1  A    between atoms: C2_2  and  C3_3 
REMARK    2  A    between atoms: C2_2  and  C9_11 
REMARK    3  A    between atoms: C3_3  and  C4_4 
REMARK    4  A    between atoms: C5_5  and  C6_6 
REMARK    5  A    between atoms: C6_6  and  O1_9 
REMARK    6  A    between atoms: O1_9  and  O2_10 
ROOT
HETATM    1  C9  UNL     1      -7.043   7.321  14.247  1.00  0.00    -0.001 C 
HETATM    2  C10 UNL     1      -6.842   8.665  15.006  1.00  0.00     0.007 C 
HETATM    3  C11 UNL     1      -5.340   8.799  15.316  1.00  0.00     0.024 C 
HETATM    4  C12 UNL     1      -4.694   7.659  14.564  1.00  0.00     0.092 C 
HETATM    5  C13 UNL     1      -4.350   8.057  13.104  1.00  0.00     0.272 C 
HETATM    6  O3  UNL     1      -4.896   8.896  12.410  1.00  0.00    -0.264 OA
HETATM    7  O4  UNL     1      -3.293   7.275  12.679  1.00  0.00    -0.305 OA
HETATM    8  C14 UNL     1      -2.910   6.378  13.750  1.00  0.00     0.113 C 
HETATM    9  C15 UNL     1      -3.815   5.112  13.611  1.00  0.00     0.043 C 
HETATM   10  C16 UNL     1      -5.333   5.439  13.534  1.00  0.00     0.014 C 
HETATM   11  C17 UNL     1      -5.753   6.507  14.578  1.00  0.00    -0.020 C 
HETATM   12  C18 UNL     1      -5.868   5.810  15.952  1.00  0.00     0.017 C 
HETATM   13  C19 UNL     1      -3.351   7.166  14.939  1.00  0.00     0.137 A 
HETATM   14  O5  UNL     1      -3.023   6.778  16.258  1.00  0.00    -0.364 OA
HETATM   15  C20 UNL     1      -2.380   7.972  15.761  1.00  0.00     0.162 A 
HETATM   16  C21 UNL     1      -0.910   7.839  15.538  1.00  0.00     0.041 C 
HETATM   17  C22 UNL     1      -0.573   7.407  14.095  1.00  0.00     0.010 C 
HETATM   18  C23 UNL     1       0.964   7.289  13.887  1.00  0.00     0.056 C 
HETATM   19  C24 UNL     1       1.706   8.600  14.167  1.00  0.00     0.018 C 
HETATM   20  C25 UNL     1       1.258   6.818  12.465  1.00  0.00     0.131 C 
HETATM   21  O6  UNL     1       2.086   7.363  11.737  1.00  0.00    -0.298 OA
HETATM   22  C26 UNL     1       0.541   5.571  12.014  1.00  0.00     0.079 C 
HETATM   23  C27 UNL     1      -0.958   5.735  12.223  1.00  0.00     0.020 C 
HETATM   24  C28 UNL     1      -1.359   6.099  13.686  1.00  0.00    -0.004 C 
HETATM   25  C29 UNL     1      -0.985   4.907  14.606  1.00  0.00     0.019 C 
ENDROOT
BRANCH   1  26
HETATM   26  C2  UNL     1      -8.478   6.734  14.383  1.00  0.00    -0.010 C 
HETATM   27  C1  UNL     1      -9.070   6.048  13.143  1.00  0.00     0.010 C 
BRANCH  26  28
HETATM   28  C3  UNL     1      -9.466   7.777  14.954  1.00  0.00     0.031 C 
BRANCH  28  29
HETATM   29  C4  UNL     1     -10.865   7.620  14.419  1.00  0.00    -0.027 C 
HETATM   30  C5  UNL     1     -11.571   8.622  13.870  1.00  0.00     0.009 C 
BRANCH  30  31
HETATM   31  C6  UNL     1     -12.981   8.560  13.304  1.00  0.00     0.106 C 
HETATM   32  C7  UNL     1     -14.111   8.976  14.257  1.00  0.00     0.053 C 
HETATM   33  C8  UNL     1     -13.245   7.119  12.840  1.00  0.00     0.053 C 
BRANCH  31  34
HETATM   34  O1  UNL     1     -13.020   9.366  12.106  1.00  0.00    -0.229 OA
BRANCH  34  35
HETATM   35  O2  UNL     1     -11.660   9.455  11.577  1.00  0.00    -0.249 OA
HETATM   36  H15 UNL     1     -11.749   8.741  10.921  1.00  0.00     0.253 HD
ENDBRANCH  34  35
ENDBRANCH  31  34
ENDBRANCH  30  31
ENDBRANCH  28  29
ENDBRANCH  26  28
ENDBRANCH   1  26
TORSDOF 6
ENDMDL
