MODEL 1
REMARK minimizedAffinity -9.1896162
REMARK  7 active torsions:
REMARK  status: ('A' for Active; 'I' for Inactive)
REMARK    1  A    between atoms: C2_2  and  C30_32 
REMARK    2  A    between atoms: C3_3  and  C4_4 
REMARK    3  A    between atoms: C4_4  and  C5_5 
REMARK    4  A    between atoms: C5_5  and  C6_6 
REMARK    5  A    between atoms: C6_6  and  C8_8 
REMARK    6  A    between atoms: C29_30  and  O2_31 
REMARK    7  A    between atoms: C30_32  and  O3_33 
ROOT
HETATM    1  C8  UNL     1      -5.617   6.910  14.583  1.00  0.00    -0.002 C 
HETATM    2  C9  UNL     1      -5.515   8.250  15.353  1.00  0.00     0.007 C 
HETATM    3  C10 UNL     1      -4.119   8.836  15.039  1.00  0.00     0.015 C 
HETATM    4  C11 UNL     1      -3.578   8.009  13.855  1.00  0.00    -0.010 C 
HETATM    5  C12 UNL     1      -4.179   8.626  12.551  1.00  0.00     0.021 C 
HETATM    6  C13 UNL     1      -2.070   7.916  13.612  1.00  0.00    -0.039 C 
HETATM    7  C14 UNL     1      -1.568   6.827  12.966  1.00  0.00    -0.066 C 
HETATM    8  C15 UNL     1      -2.476   5.654  12.543  1.00  0.00     0.036 C 
HETATM    9  C16 UNL     1      -3.946   5.668  13.017  1.00  0.00     0.015 C 
HETATM   10  C17 UNL     1      -4.136   6.585  14.230  1.00  0.00    -0.029 C 
HETATM   11  C18 UNL     1      -3.413   5.937  15.447  1.00  0.00     0.016 C 
HETATM   12  C19 UNL     1      -0.055   6.678  12.641  1.00  0.00    -0.015 C 
HETATM   13  C20 UNL     1       0.514   5.606  13.604  1.00  0.00     0.020 C 
HETATM   14  C21 UNL     1       0.138   6.196  11.172  1.00  0.00     0.021 C 
HETATM   15  C22 UNL     1       1.476   6.547  10.526  1.00  0.00     0.080 C 
HETATM   16  C23 UNL     1       2.551   6.885  11.530  1.00  0.00     0.135 C 
HETATM   17  O1  UNL     1       3.651   6.334  11.478  1.00  0.00    -0.297 OA
HETATM   18  C24 UNL     1       2.235   7.999  12.535  1.00  0.00     0.018 C 
HETATM   19  C25 UNL     1       2.709   9.321  11.893  1.00  0.00     0.023 C 
HETATM   20  C26 UNL     1       3.066   7.790  13.817  1.00  0.00     0.023 C 
HETATM   21  C27 UNL     1       0.687   8.057  12.775  1.00  0.00     0.016 C 
HETATM   22  C28 UNL     1       0.292   8.758  14.083  1.00  0.00     0.043 C 
HETATM   23  C29 UNL     1      -1.206   9.052  14.111  1.00  0.00     0.148 C 
ENDROOT
BRANCH   1  24
HETATM   24  C6  UNL     1      -6.497   5.798  15.230  1.00  0.00    -0.014 C 
HETATM   25  C7  UNL     1      -7.238   6.206  16.510  1.00  0.00     0.010 C 
BRANCH  24  26
HETATM   26  C5  UNL     1      -7.516   5.281  14.177  1.00  0.00     0.008 C 
BRANCH  26  27
HETATM   27  C4  UNL     1      -7.215   3.873  13.652  1.00  0.00     0.028 C 
BRANCH  27  28
HETATM   28  C3  UNL     1      -6.415   3.931  12.378  1.00  0.00    -0.022 C 
HETATM   29  C2  UNL     1      -6.055   2.899  11.587  1.00  0.00    -0.064 C 
HETATM   30  C1  UNL     1      -6.460   1.467  11.818  1.00  0.00     0.045 C 
BRANCH  29  31
HETATM   31  C30 UNL     1      -5.218   3.125  10.355  1.00  0.00     0.197 C 
BRANCH  31  32
HETATM   32  O3  UNL     1      -3.879   2.745  10.634  1.00  0.00    -0.397 OA
HETATM   33  H48 UNL     1      -3.379   2.875   9.813  1.00  0.00     0.209 HD
ENDBRANCH  31  32
ENDBRANCH  29  31
ENDBRANCH  27  28
ENDBRANCH  26  27
ENDBRANCH  24  26
ENDBRANCH   1  24
BRANCH  23  34
HETATM   34  O2  UNL     1      -1.431  10.198  13.292  1.00  0.00    -0.391 OA
HETATM   35  H45 UNL     1      -2.279  10.581  13.568  1.00  0.00     0.210 HD
ENDBRANCH  23  34
TORSDOF 7
ENDMDL
MODEL 2
REMARK minimizedAffinity -9.01478577
REMARK  7 active torsions:
REMARK  status: ('A' for Active; 'I' for Inactive)
REMARK    1  A    between atoms: C2_2  and  C30_32 
REMARK    2  A    between atoms: C3_3  and  C4_4 
REMARK    3  A    between atoms: C4_4  and  C5_5 
REMARK    4  A    between atoms: C5_5  and  C6_6 
REMARK    5  A    between atoms: C6_6  and  C8_8 
REMARK    6  A    between atoms: C29_30  and  O2_31 
REMARK    7  A    between atoms: C30_32  and  O3_33 
ROOT
HETATM    1  C8  UNL     1      -5.628   6.927  14.743  1.00  0.00    -0.002 C 
HETATM    2  C9  UNL     1      -5.455   8.295  15.449  1.00  0.00     0.007 C 
HETATM    3  C10 UNL     1      -4.070   8.839  15.030  1.00  0.00     0.015 C 
HETATM    4  C11 UNL     1      -3.616   7.952  13.852  1.00  0.00    -0.010 C 
HETATM    5  C12 UNL     1      -4.282   8.529  12.560  1.00  0.00     0.021 C 
HETATM    6  C13 UNL     1      -2.127   7.818  13.525  1.00  0.00    -0.039 C 
HETATM    7  C14 UNL     1      -1.685   6.693  12.897  1.00  0.00    -0.066 C 
HETATM    8  C15 UNL     1      -2.638   5.524  12.576  1.00  0.00     0.036 C 
HETATM    9  C16 UNL     1      -4.077   5.589  13.135  1.00  0.00     0.015 C 
HETATM   10  C17 UNL     1      -4.177   6.557  14.317  1.00  0.00    -0.029 C 
HETATM   11  C18 UNL     1      -3.396   5.943  15.515  1.00  0.00     0.016 C 
HETATM   12  C19 UNL     1      -0.196   6.499  12.490  1.00  0.00    -0.015 C 
HETATM   13  C20 UNL     1       0.408   5.455  13.462  1.00  0.00     0.020 C 
HETATM   14  C21 UNL     1      -0.101   5.955  11.033  1.00  0.00     0.021 C 
HETATM   15  C22 UNL     1       1.204   6.250  10.296  1.00  0.00     0.080 C 
HETATM   16  C23 UNL     1       2.342   6.606  11.221  1.00  0.00     0.135 C 
HETATM   17  O1  UNL     1       3.426   6.030  11.127  1.00  0.00    -0.297 OA
HETATM   18  C24 UNL     1       2.108   7.766  12.196  1.00  0.00     0.018 C 
HETATM   19  C25 UNL     1       2.567   9.051  11.472  1.00  0.00     0.023 C 
HETATM   20  C26 UNL     1       3.009   7.591  13.434  1.00  0.00     0.023 C 
HETATM   21  C27 UNL     1       0.578   7.866  12.524  1.00  0.00     0.016 C 
HETATM   22  C28 UNL     1       0.274   8.628  13.822  1.00  0.00     0.043 C 
HETATM   23  C29 UNL     1      -1.214   8.955  13.925  1.00  0.00     0.148 C 
ENDROOT
BRANCH   1  24
HETATM   24  C6  UNL     1      -6.489   5.861  15.486  1.00  0.00    -0.014 C 
HETATM   25  C7  UNL     1      -7.330   6.392  16.655  1.00  0.00     0.010 C 
BRANCH  24  26
HETATM   26  C5  UNL     1      -7.413   5.149  14.458  1.00  0.00     0.008 C 
BRANCH  26  27
HETATM   27  C4  UNL     1      -7.812   6.023  13.264  1.00  0.00     0.028 C 
BRANCH  27  28
HETATM   28  C3  UNL     1      -9.308   6.146  13.162  1.00  0.00    -0.022 C 
HETATM   29  C2  UNL     1     -10.108   7.011  13.821  1.00  0.00    -0.064 C 
HETATM   30  C1  UNL     1      -9.614   8.081  14.759  1.00  0.00     0.045 C 
BRANCH  29  31
HETATM   31  C30 UNL     1     -11.602   6.981  13.630  1.00  0.00     0.197 C 
BRANCH  31  32
HETATM   32  O3  UNL     1     -12.189   6.281  14.717  1.00  0.00    -0.397 OA
HETATM   33  H48 UNL     1     -13.148   6.309  14.576  1.00  0.00     0.209 HD
ENDBRANCH  31  32
ENDBRANCH  29  31
ENDBRANCH  27  28
ENDBRANCH  26  27
ENDBRANCH  24  26
ENDBRANCH   1  24
BRANCH  23  34
HETATM   34  O2  UNL     1      -1.466  10.071  13.074  1.00  0.00    -0.391 OA
HETATM   35  H45 UNL     1      -2.288  10.483  13.382  1.00  0.00     0.210 HD
ENDBRANCH  23  34
TORSDOF 7
ENDMDL
MODEL 3
REMARK minimizedAffinity -8.8643446
REMARK  7 active torsions:
REMARK  status: ('A' for Active; 'I' for Inactive)
REMARK    1  A    between atoms: C2_2  and  C30_32 
REMARK    2  A    between atoms: C3_3  and  C4_4 
REMARK    3  A    between atoms: C4_4  and  C5_5 
REMARK    4  A    between atoms: C5_5  and  C6_6 
REMARK    5  A    between atoms: C6_6  and  C8_8 
REMARK    6  A    between atoms: C29_30  and  O2_31 
REMARK    7  A    between atoms: C30_32  and  O3_33 
ROOT
HETATM    1  C8  UNL     1       3.910   7.240  10.482  1.00  0.00    -0.002 C 
HETATM    2  C9  UNL     1       3.941   5.711  10.238  1.00  0.00     0.007 C 
HETATM    3  C10 UNL     1       2.547   5.170  10.631  1.00  0.00     0.015 C 
HETATM    4  C11 UNL     1       1.646   6.414  10.777  1.00  0.00    -0.010 C 
HETATM    5  C12 UNL     1       1.145   6.788   9.344  1.00  0.00     0.021 C 
HETATM    6  C13 UNL     1       0.391   6.351  11.650  1.00  0.00    -0.039 C 
HETATM    7  C14 UNL     1      -0.086   7.499  12.209  1.00  0.00    -0.066 C 
HETATM    8  C15 UNL     1       0.653   8.842  12.040  1.00  0.00     0.036 C 
HETATM    9  C16 UNL     1       2.039   8.826  11.361  1.00  0.00     0.015 C 
HETATM   10  C17 UNL     1       2.670   7.430  11.405  1.00  0.00    -0.029 C 
HETATM   11  C18 UNL     1       3.035   7.109  12.884  1.00  0.00     0.016 C 
HETATM   12  C19 UNL     1      -1.380   7.528  13.071  1.00  0.00    -0.015 C 
HETATM   13  C20 UNL     1      -0.939   7.718  14.544  1.00  0.00     0.020 C 
HETATM   14  C21 UNL     1      -2.283   8.725  12.651  1.00  0.00     0.021 C 
HETATM   15  C22 UNL     1      -3.772   8.575  12.954  1.00  0.00     0.080 C 
HETATM   16  C23 UNL     1      -4.063   7.528  14.001  1.00  0.00     0.135 C 
HETATM   17  O1  UNL     1      -4.774   7.794  14.971  1.00  0.00    -0.297 OA
HETATM   18  C24 UNL     1      -3.515   6.118  13.745  1.00  0.00     0.018 C 
HETATM   19  C25 UNL     1      -4.611   5.352  12.972  1.00  0.00     0.023 C 
HETATM   20  C26 UNL     1      -3.310   5.391  15.089  1.00  0.00     0.023 C 
HETATM   21  C27 UNL     1      -2.223   6.218  12.864  1.00  0.00     0.016 C 
HETATM   22  C28 UNL     1      -1.323   4.976  12.947  1.00  0.00     0.043 C 
HETATM   23  C29 UNL     1      -0.259   5.001  11.852  1.00  0.00     0.148 C 
ENDROOT
BRANCH   1  24
HETATM   24  C6  UNL     1       5.258   7.911  10.885  1.00  0.00    -0.014 C 
HETATM   25  C7  UNL     1       5.441   9.358  10.408  1.00  0.00     0.010 C 
BRANCH  24  26
HETATM   26  C5  UNL     1       5.415   7.845  12.430  1.00  0.00     0.008 C 
BRANCH  26  27
HETATM   27  C4  UNL     1       6.720   7.193  12.899  1.00  0.00     0.028 C 
BRANCH  27  28
HETATM   28  C3  UNL     1       7.089   7.657  14.282  1.00  0.00    -0.022 C 
HETATM   29  C2  UNL     1       8.319   7.958  14.747  1.00  0.00    -0.064 C 
HETATM   30  C1  UNL     1       9.572   7.940  13.912  1.00  0.00     0.045 C 
BRANCH  29  31
HETATM   31  C30 UNL     1       8.524   8.378  16.179  1.00  0.00     0.197 C 
BRANCH  31  32
HETATM   32  O3  UNL     1       9.042   7.277  16.910  1.00  0.00    -0.397 OA
HETATM   33  H48 UNL     1       9.188   7.592  17.816  1.00  0.00     0.209 HD
ENDBRANCH  31  32
ENDBRANCH  29  31
ENDBRANCH  27  28
ENDBRANCH  26  27
ENDBRANCH  24  26
ENDBRANCH   1  24
BRANCH  23  34
HETATM   34  O2  UNL     1      -0.889   4.606  10.636  1.00  0.00    -0.391 OA
HETATM   35  H45 UNL     1      -0.189   4.297  10.040  1.00  0.00     0.210 HD
ENDBRANCH  23  34
TORSDOF 7
ENDMDL
MODEL 4
REMARK minimizedAffinity -8.84404087
REMARK  7 active torsions:
REMARK  status: ('A' for Active; 'I' for Inactive)
REMARK    1  A    between atoms: C2_2  and  C30_32 
REMARK    2  A    between atoms: C3_3  and  C4_4 
REMARK    3  A    between atoms: C4_4  and  C5_5 
REMARK    4  A    between atoms: C5_5  and  C6_6 
REMARK    5  A    between atoms: C6_6  and  C8_8 
REMARK    6  A    between atoms: C29_30  and  O2_31 
REMARK    7  A    between atoms: C30_32  and  O3_33 
ROOT
HETATM    1  C8  UNL     1      -2.994   8.583  15.386  1.00  0.00    -0.002 C 
HETATM    2  C9  UNL     1      -1.931   8.380  16.493  1.00  0.00     0.007 C 
HETATM    3  C10 UNL     1      -0.577   8.173  15.776  1.00  0.00     0.015 C 
HETATM    4  C11 UNL     1      -0.818   8.584  14.309  1.00  0.00    -0.010 C 
HETATM    5  C12 UNL     1      -0.670  10.139  14.237  1.00  0.00     0.021 C 
HETATM    6  C13 UNL     1       0.082   8.031  13.202  1.00  0.00    -0.039 C 
HETATM    7  C14 UNL     1      -0.409   7.934  11.935  1.00  0.00    -0.066 C 
HETATM    8  C15 UNL     1      -1.871   8.300  11.609  1.00  0.00     0.036 C 
HETATM    9  C16 UNL     1      -2.817   8.620  12.787  1.00  0.00     0.015 C 
HETATM   10  C17 UNL     1      -2.285   8.051  14.106  1.00  0.00    -0.029 C 
HETATM   11  C18 UNL     1      -2.376   6.498  14.036  1.00  0.00     0.016 C 
HETATM   12  C19 UNL     1       0.455   7.426  10.746  1.00  0.00    -0.015 C 
HETATM   13  C20 UNL     1      -0.050   6.004  10.394  1.00  0.00     0.020 C 
HETATM   14  C21 UNL     1       0.270   8.353   9.508  1.00  0.00     0.021 C 
HETATM   15  C22 UNL     1       1.420   8.360   8.503  1.00  0.00     0.080 C 
HETATM   16  C23 UNL     1       2.322   7.156   8.623  1.00  0.00     0.135 C 
HETATM   17  O1  UNL     1       2.601   6.483   7.630  1.00  0.00    -0.297 OA
HETATM   18  C24 UNL     1       2.935   6.882  10.002  1.00  0.00     0.018 C 
HETATM   19  C25 UNL     1       4.282   7.636  10.044  1.00  0.00     0.023 C 
HETATM   20  C26 UNL     1       3.248   5.379  10.139  1.00  0.00     0.023 C 
HETATM   21  C27 UNL     1       1.982   7.444  11.113  1.00  0.00     0.016 C 
HETATM   22  C28 UNL     1       2.214   6.820  12.497  1.00  0.00     0.043 C 
HETATM   23  C29 UNL     1       1.485   7.613  13.579  1.00  0.00     0.148 C 
ENDROOT
BRANCH   1  24
HETATM   24  C6  UNL     1      -4.438   8.092  15.705  1.00  0.00    -0.014 C 
HETATM   25  C7  UNL     1      -5.568   9.011  15.220  1.00  0.00     0.010 C 
BRANCH  24  26
HETATM   26  C5  UNL     1      -4.632   6.667  15.113  1.00  0.00     0.008 C 
BRANCH  26  27
HETATM   27  C4  UNL     1      -5.814   6.547  14.145  1.00  0.00     0.028 C 
BRANCH  27  28
HETATM   28  C3  UNL     1      -5.964   5.134  13.650  1.00  0.00    -0.022 C 
HETATM   29  C2  UNL     1      -7.009   4.605  12.981  1.00  0.00    -0.064 C 
HETATM   30  C1  UNL     1      -8.223   5.382  12.545  1.00  0.00     0.045 C 
BRANCH  29  31
HETATM   31  C30 UNL     1      -7.017   3.151  12.583  1.00  0.00     0.197 C 
BRANCH  31  32
HETATM   32  O3  UNL     1      -8.297   2.606  12.867  1.00  0.00    -0.397 OA
HETATM   33  H48 UNL     1      -8.275   1.682  12.571  1.00  0.00     0.209 HD
ENDBRANCH  31  32
ENDBRANCH  29  31
ENDBRANCH  27  28
ENDBRANCH  26  27
ENDBRANCH  24  26
ENDBRANCH   1  24
BRANCH  23  34
HETATM   34  O2  UNL     1       2.258   8.780  13.847  1.00  0.00    -0.391 OA
HETATM   35  H45 UNL     1       2.001   9.095  14.728  1.00  0.00     0.210 HD
ENDBRANCH  23  34
TORSDOF 7
ENDMDL
MODEL 5
REMARK minimizedAffinity -8.76941395
REMARK  7 active torsions:
REMARK  status: ('A' for Active; 'I' for Inactive)
REMARK    1  A    between atoms: C2_2  and  C30_32 
REMARK    2  A    between atoms: C3_3  and  C4_4 
REMARK    3  A    between atoms: C4_4  and  C5_5 
REMARK    4  A    between atoms: C5_5  and  C6_6 
REMARK    5  A    between atoms: C6_6  and  C8_8 
REMARK    6  A    between atoms: C29_30  and  O2_31 
REMARK    7  A    between atoms: C30_32  and  O3_33 
ROOT
HETATM    1  C8  UNL     1      -2.250   5.884  13.068  1.00  0.00    -0.002 C 
HETATM    2  C9  UNL     1      -2.295   5.222  11.669  1.00  0.00     0.007 C 
HETATM    3  C10 UNL     1      -0.861   5.298  11.096  1.00  0.00     0.015 C 
HETATM    4  C11 UNL     1       0.040   5.694  12.284  1.00  0.00    -0.010 C 
HETATM    5  C12 UNL     1       0.374   4.382  13.065  1.00  0.00     0.021 C 
HETATM    6  C13 UNL     1       1.384   6.378  12.029  1.00  0.00    -0.039 C 
HETATM    7  C14 UNL     1       1.911   7.185  12.992  1.00  0.00    -0.066 C 
HETATM    8  C15 UNL     1       1.146   7.483  14.298  1.00  0.00     0.036 C 
HETATM    9  C16 UNL     1      -0.308   6.975  14.418  1.00  0.00     0.015 C 
HETATM   10  C17 UNL     1      -0.918   6.688  13.042  1.00  0.00    -0.029 C 
HETATM   11  C18 UNL     1      -1.112   8.045  12.305  1.00  0.00     0.016 C 
HETATM   12  C19 UNL     1       3.293   7.881  12.830  1.00  0.00    -0.015 C 
HETATM   13  C20 UNL     1       3.018   9.385  12.582  1.00  0.00     0.020 C 
HETATM   14  C21 UNL     1       4.133   7.724  14.133  1.00  0.00     0.021 C 
HETATM   15  C22 UNL     1       5.648   7.815  13.963  1.00  0.00     0.080 C 
HETATM   16  C23 UNL     1       6.063   8.487  12.677  1.00  0.00     0.135 C 
HETATM   17  O1  UNL     1       6.875   9.412  12.689  1.00  0.00    -0.297 OA
HETATM   18  C24 UNL     1       5.502   7.901  11.375  1.00  0.00     0.018 C 
HETATM   19  C25 UNL     1       6.512   6.832  10.901  1.00  0.00     0.023 C 
HETATM   20  C26 UNL     1       5.455   8.997  10.293  1.00  0.00     0.023 C 
HETATM   21  C27 UNL     1       4.119   7.224  11.666  1.00  0.00     0.016 C 
HETATM   22  C28 UNL     1       3.245   7.046  10.416  1.00  0.00     0.043 C 
HETATM   23  C29 UNL     1       2.065   6.120  10.704  1.00  0.00     0.148 C 
ENDROOT
BRANCH   1  24
HETATM   24  C6  UNL     1      -3.551   6.600  13.545  1.00  0.00    -0.014 C 
HETATM   25  C7  UNL     1      -3.739   8.034  13.031  1.00  0.00     0.010 C 
BRANCH  24  26
HETATM   26  C5  UNL     1      -4.780   5.735  13.147  1.00  0.00     0.008 C 
BRANCH  26  27
HETATM   27  C4  UNL     1      -6.095   6.183  13.794  1.00  0.00     0.028 C 
BRANCH  27  28
HETATM   28  C3  UNL     1      -7.157   5.126  13.645  1.00  0.00    -0.022 C 
HETATM   29  C2  UNL     1      -7.051   3.941  13.008  1.00  0.00    -0.064 C 
HETATM   30  C1  UNL     1      -5.788   3.427  12.369  1.00  0.00     0.045 C 
BRANCH  29  31
HETATM   31  C30 UNL     1      -8.228   3.004  12.920  1.00  0.00     0.197 C 
BRANCH  31  32
HETATM   32  O3  UNL     1      -7.759   1.714  12.557  1.00  0.00    -0.397 OA
HETATM   33  H48 UNL     1      -8.536   1.133  12.539  1.00  0.00     0.209 HD
ENDBRANCH  31  32
ENDBRANCH  29  31
ENDBRANCH  27  28
ENDBRANCH  26  27
ENDBRANCH  24  26
ENDBRANCH   1  24
BRANCH  23  34
HETATM   34  O2  UNL     1       2.559   4.783  10.691  1.00  0.00    -0.391 OA
HETATM   35  H45 UNL     1       1.799   4.201  10.534  1.00  0.00     0.210 HD
ENDBRANCH  23  34
TORSDOF 7
ENDMDL
MODEL 6
REMARK minimizedAffinity -8.67043972
REMARK  7 active torsions:
REMARK  status: ('A' for Active; 'I' for Inactive)
REMARK    1  A    between atoms: C2_2  and  C30_32 
REMARK    2  A    between atoms: C3_3  and  C4_4 
REMARK    3  A    between atoms: C4_4  and  C5_5 
REMARK    4  A    between atoms: C5_5  and  C6_6 
REMARK    5  A    between atoms: C6_6  and  C8_8 
REMARK    6  A    between atoms: C29_30  and  O2_31 
REMARK    7  A    between atoms: C30_32  and  O3_33 
ROOT
HETATM    1  C8  UNL     1      -1.407   5.826  11.714  1.00  0.00    -0.002 C 
HETATM    2  C9  UNL     1      -1.892   6.466  13.038  1.00  0.00     0.007 C 
HETATM    3  C10 UNL     1      -0.791   7.458  13.481  1.00  0.00     0.015 C 
HETATM    4  C11 UNL     1       0.138   7.618  12.260  1.00  0.00    -0.010 C 
HETATM    5  C12 UNL     1      -0.513   8.688  11.324  1.00  0.00     0.021 C 
HETATM    6  C13 UNL     1       1.588   8.066  12.456  1.00  0.00    -0.039 C 
HETATM    7  C14 UNL     1       2.523   7.706  11.533  1.00  0.00    -0.066 C 
HETATM    8  C15 UNL     1       2.167   6.796  10.340  1.00  0.00     0.036 C 
HETATM    9  C16 UNL     1       0.758   6.165  10.306  1.00  0.00     0.015 C 
HETATM   10  C17 UNL     1       0.116   6.148  11.697  1.00  0.00    -0.029 C 
HETATM   11  C18 UNL     1       0.900   5.134  12.581  1.00  0.00     0.016 C 
HETATM   12  C19 UNL     1       4.008   8.158  11.635  1.00  0.00    -0.015 C 
HETATM   13  C20 UNL     1       4.833   6.917  12.057  1.00  0.00     0.020 C 
HETATM   14  C21 UNL     1       4.516   8.662  10.252  1.00  0.00     0.021 C 
HETATM   15  C22 UNL     1       5.686   9.643  10.288  1.00  0.00     0.080 C 
HETATM   16  C23 UNL     1       6.447   9.612  11.591  1.00  0.00     0.135 C 
HETATM   17  O1  UNL     1       7.673   9.489  11.596  1.00  0.00    -0.297 OA
HETATM   18  C24 UNL     1       5.637   9.836  12.874  1.00  0.00     0.018 C 
HETATM   19  C25 UNL     1       5.646  11.356  13.143  1.00  0.00     0.023 C 
HETATM   20  C26 UNL     1       6.350   9.156  14.060  1.00  0.00     0.023 C 
HETATM   21  C27 UNL     1       4.164   9.351  12.647  1.00  0.00     0.016 C 
HETATM   22  C28 UNL     1       3.403   9.059  13.948  1.00  0.00     0.043 C 
HETATM   23  C29 UNL     1       1.909   8.894  13.680  1.00  0.00     0.148 C 
ENDROOT
BRANCH   1  24
HETATM   24  C6  UNL     1      -1.870   4.364  11.434  1.00  0.00    -0.014 C 
HETATM   25  C7  UNL     1      -0.819   3.278  11.704  1.00  0.00     0.010 C 
BRANCH  24  26
HETATM   26  C5  UNL     1      -3.152   4.070  12.262  1.00  0.00     0.008 C 
BRANCH  26  27
HETATM   27  C4  UNL     1      -4.413   3.870  11.414  1.00  0.00     0.028 C 
BRANCH  27  28
HETATM   28  C3  UNL     1      -5.561   3.389  12.260  1.00  0.00    -0.022 C 
HETATM   29  C2  UNL     1      -6.281   4.105  13.149  1.00  0.00    -0.064 C 
HETATM   30  C1  UNL     1      -6.093   5.576  13.410  1.00  0.00     0.045 C 
BRANCH  29  31
HETATM   31  C30 UNL     1      -7.386   3.460  13.946  1.00  0.00     0.197 C 
BRANCH  31  32
HETATM   32  O3  UNL     1      -8.500   3.244  13.093  1.00  0.00    -0.397 OA
HETATM   33  H48 UNL     1      -9.177   2.802  13.630  1.00  0.00     0.209 HD
ENDBRANCH  31  32
ENDBRANCH  29  31
ENDBRANCH  27  28
ENDBRANCH  26  27
ENDBRANCH  24  26
ENDBRANCH   1  24
BRANCH  23  34
HETATM   34  O2  UNL     1       1.358  10.198  13.514  1.00  0.00    -0.391 OA
HETATM   35  H45 UNL     1       0.405  10.127  13.681  1.00  0.00     0.210 HD
ENDBRANCH  23  34
TORSDOF 7
ENDMDL
MODEL 7
REMARK minimizedAffinity -8.62747669
REMARK  7 active torsions:
REMARK  status: ('A' for Active; 'I' for Inactive)
REMARK    1  A    between atoms: C2_2  and  C30_32 
REMARK    2  A    between atoms: C3_3  and  C4_4 
REMARK    3  A    between atoms: C4_4  and  C5_5 
REMARK    4  A    between atoms: C5_5  and  C6_6 
REMARK    5  A    between atoms: C6_6  and  C8_8 
REMARK    6  A    between atoms: C29_30  and  O2_31 
REMARK    7  A    between atoms: C30_32  and  O3_33 
ROOT
HETATM    1  C8  UNL     1      -5.487   5.720  13.432  1.00  0.00    -0.002 C 
HETATM    2  C9  UNL     1      -6.618   6.462  14.184  1.00  0.00     0.007 C 
HETATM    3  C10 UNL     1      -5.975   7.709  14.835  1.00  0.00     0.015 C 
HETATM    4  C11 UNL     1      -4.583   7.843  14.185  1.00  0.00    -0.010 C 
HETATM    5  C12 UNL     1      -4.779   8.597  12.829  1.00  0.00     0.021 C 
HETATM    6  C13 UNL     1      -3.466   8.591  14.916  1.00  0.00    -0.039 C 
HETATM    7  C14 UNL     1      -2.169   8.273  14.648  1.00  0.00    -0.066 C 
HETATM    8  C15 UNL     1      -1.805   7.128  13.682  1.00  0.00     0.036 C 
HETATM    9  C16 UNL     1      -2.950   6.237  13.151  1.00  0.00     0.015 C 
HETATM   10  C17 UNL     1      -4.191   6.325  14.045  1.00  0.00    -0.029 C 
HETATM   11  C18 UNL     1      -3.859   5.643  15.404  1.00  0.00     0.016 C 
HETATM   12  C19 UNL     1      -0.976   9.017  15.314  1.00  0.00    -0.015 C 
HETATM   13  C20 UNL     1      -0.359   8.046  16.353  1.00  0.00     0.020 C 
HETATM   14  C21 UNL     1       0.102   9.375  14.248  1.00  0.00     0.021 C 
HETATM   15  C22 UNL     1       1.007  10.557  14.587  1.00  0.00     0.080 C 
HETATM   16  C23 UNL     1       1.024  10.891  16.059  1.00  0.00     0.135 C 
HETATM   17  O1  UNL     1       2.092  11.011  16.660  1.00  0.00    -0.297 OA
HETATM   18  C24 UNL     1      -0.331  11.160  16.725  1.00  0.00     0.018 C 
HETATM   19  C25 UNL     1      -0.593  12.676  16.596  1.00  0.00     0.023 C 
HETATM   20  C26 UNL     1      -0.239  10.838  18.230  1.00  0.00     0.023 C 
HETATM   21  C27 UNL     1      -1.449  10.367  15.965  1.00  0.00     0.016 C 
HETATM   22  C28 UNL     1      -2.723  10.151  16.793  1.00  0.00     0.043 C 
HETATM   23  C29 UNL     1      -3.868   9.656  15.912  1.00  0.00     0.148 C 
ENDROOT
BRANCH   1  24
HETATM   24  C6  UNL     1      -5.617   4.170  13.327  1.00  0.00    -0.014 C 
HETATM   25  C7  UNL     1      -6.856   3.663  12.576  1.00  0.00     0.010 C 
BRANCH  24  26
HETATM   26  C5  UNL     1      -4.333   3.597  12.666  1.00  0.00     0.008 C 
BRANCH  26  27
HETATM   27  C4  UNL     1      -4.588   2.417  11.722  1.00  0.00     0.028 C 
BRANCH  27  28
HETATM   28  C3  UNL     1      -3.336   1.606  11.521  1.00  0.00    -0.022 C 
HETATM   29  C2  UNL     1      -2.156   2.028  11.022  1.00  0.00    -0.064 C 
HETATM   30  C1  UNL     1      -1.859   3.450  10.624  1.00  0.00     0.045 C 
BRANCH  29  31
HETATM   31  C30 UNL     1      -1.002   1.074  10.854  1.00  0.00     0.197 C 
BRANCH  31  32
HETATM   32  O3  UNL     1      -0.840   0.791   9.472  1.00  0.00    -0.397 OA
HETATM   33  H48 UNL     1      -0.073   0.201   9.399  1.00  0.00     0.209 HD
ENDBRANCH  31  32
ENDBRANCH  29  31
ENDBRANCH  27  28
ENDBRANCH  26  27
ENDBRANCH  24  26
ENDBRANCH   1  24
BRANCH  23  34
HETATM   34  O2  UNL     1      -4.379  10.782  15.203  1.00  0.00    -0.391 OA
HETATM   35  H45 UNL     1      -5.279  10.555  14.922  1.00  0.00     0.210 HD
ENDBRANCH  23  34
TORSDOF 7
ENDMDL
MODEL 8
REMARK minimizedAffinity -8.61762905
REMARK  7 active torsions:
REMARK  status: ('A' for Active; 'I' for Inactive)
REMARK    1  A    between atoms: C2_2  and  C30_32 
REMARK    2  A    between atoms: C3_3  and  C4_4 
REMARK    3  A    between atoms: C4_4  and  C5_5 
REMARK    4  A    between atoms: C5_5  and  C6_6 
REMARK    5  A    between atoms: C6_6  and  C8_8 
REMARK    6  A    between atoms: C29_30  and  O2_31 
REMARK    7  A    between atoms: C30_32  and  O3_33 
ROOT
HETATM    1  C8  UNL     1      -3.418   7.019  14.748  1.00  0.00    -0.002 C 
HETATM    2  C9  UNL     1      -4.001   5.907  13.842  1.00  0.00     0.007 C 
HETATM    3  C10 UNL     1      -2.858   5.455  12.903  1.00  0.00     0.015 C 
HETATM    4  C11 UNL     1      -1.570   6.065  13.494  1.00  0.00    -0.010 C 
HETATM    5  C12 UNL     1      -1.082   5.102  14.625  1.00  0.00     0.021 C 
HETATM    6  C13 UNL     1      -0.354   6.300  12.597  1.00  0.00    -0.039 C 
HETATM    7  C14 UNL     1       0.536   7.277  12.929  1.00  0.00    -0.066 C 
HETATM    8  C15 UNL     1       0.304   8.197  14.144  1.00  0.00     0.036 C 
HETATM    9  C16 UNL     1      -1.049   8.094  14.882  1.00  0.00     0.015 C 
HETATM   10  C17 UNL     1      -2.123   7.450  14.000  1.00  0.00    -0.029 C 
HETATM   11  C18 UNL     1      -2.462   8.440  12.847  1.00  0.00     0.016 C 
HETATM   12  C19 UNL     1       1.821   7.549  12.096  1.00  0.00    -0.015 C 
HETATM   13  C20 UNL     1       1.590   8.872  11.323  1.00  0.00     0.020 C 
HETATM   14  C21 UNL     1       3.051   7.716  13.037  1.00  0.00     0.021 C 
HETATM   15  C22 UNL     1       4.412   7.412  12.415  1.00  0.00     0.080 C 
HETATM   16  C23 UNL     1       4.398   7.448  10.906  1.00  0.00     0.135 C 
HETATM   17  O1  UNL     1       5.230   8.115  10.289  1.00  0.00    -0.297 OA
HETATM   18  C24 UNL     1       3.374   6.551  10.200  1.00  0.00     0.018 C 
HETATM   19  C25 UNL     1       4.070   5.195   9.955  1.00  0.00     0.023 C 
HETATM   20  C26 UNL     1       3.031   7.146   8.820  1.00  0.00     0.023 C 
HETATM   21  C27 UNL     1       2.134   6.345  11.136  1.00  0.00     0.016 C 
HETATM   22  C28 UNL     1       0.866   5.903  10.391  1.00  0.00     0.043 C 
HETATM   23  C29 UNL     1      -0.203   5.426  11.373  1.00  0.00     0.148 C 
ENDROOT
BRANCH   1  24
HETATM   24  C6  UNL     1      -4.411   8.120  15.229  1.00  0.00    -0.014 C 
HETATM   25  C7  UNL     1      -3.771   9.463  15.607  1.00  0.00     0.010 C 
BRANCH  24  26
HETATM   26  C5  UNL     1      -5.490   8.343  14.134  1.00  0.00     0.008 C 
BRANCH  26  27
HETATM   27  C4  UNL     1      -6.854   7.725  14.463  1.00  0.00     0.028 C 
BRANCH  27  28
HETATM   28  C3  UNL     1      -7.108   6.502  13.624  1.00  0.00    -0.022 C 
HETATM   29  C2  UNL     1      -8.302   5.962  13.301  1.00  0.00    -0.064 C 
HETATM   30  C1  UNL     1      -9.634   6.548  13.687  1.00  0.00     0.045 C 
BRANCH  29  31
HETATM   31  C30 UNL     1      -8.383   4.705  12.474  1.00  0.00     0.197 C 
BRANCH  31  32
HETATM   32  O3  UNL     1      -8.731   3.621  13.323  1.00  0.00    -0.397 OA
HETATM   33  H48 UNL     1      -8.803   2.838  12.754  1.00  0.00     0.209 HD
ENDBRANCH  31  32
ENDBRANCH  29  31
ENDBRANCH  27  28
ENDBRANCH  26  27
ENDBRANCH  24  26
ENDBRANCH   1  24
BRANCH  23  34
HETATM   34  O2  UNL     1       0.153   4.110  11.786  1.00  0.00    -0.391 OA
HETATM   35  H45 UNL     1      -0.655   3.688  12.118  1.00  0.00     0.210 HD
ENDBRANCH  23  34
TORSDOF 7
ENDMDL
MODEL 9
REMARK minimizedAffinity -8.56299877
REMARK  7 active torsions:
REMARK  status: ('A' for Active; 'I' for Inactive)
REMARK    1  A    between atoms: C2_2  and  C30_32 
REMARK    2  A    between atoms: C3_3  and  C4_4 
REMARK    3  A    between atoms: C4_4  and  C5_5 
REMARK    4  A    between atoms: C5_5  and  C6_6 
REMARK    5  A    between atoms: C6_6  and  C8_8 
REMARK    6  A    between atoms: C29_30  and  O2_31 
REMARK    7  A    between atoms: C30_32  and  O3_33 
ROOT
HETATM    1  C8  UNL     1       1.445   8.087  13.527  1.00  0.00    -0.002 C 
HETATM    2  C9  UNL     1       1.565   8.825  14.883  1.00  0.00     0.007 C 
HETATM    3  C10 UNL     1       0.186   8.713  15.573  1.00  0.00     0.015 C 
HETATM    4  C11 UNL     1      -0.593   7.649  14.771  1.00  0.00    -0.010 C 
HETATM    5  C12 UNL     1      -0.157   6.251  15.317  1.00  0.00     0.021 C 
HETATM    6  C13 UNL     1      -2.123   7.644  14.794  1.00  0.00    -0.039 C 
HETATM    7  C14 UNL     1      -2.800   7.113  13.737  1.00  0.00    -0.066 C 
HETATM    8  C15 UNL     1      -2.060   6.589  12.490  1.00  0.00     0.036 C 
HETATM    9  C16 UNL     1      -0.538   6.832  12.396  1.00  0.00     0.015 C 
HETATM   10  C17 UNL     1      -0.093   7.975  13.314  1.00  0.00    -0.029 C 
HETATM   11  C18 UNL     1      -0.665   9.306  12.745  1.00  0.00     0.016 C 
HETATM   12  C19 UNL     1      -4.353   7.028  13.703  1.00  0.00    -0.015 C 
HETATM   13  C20 UNL     1      -4.844   8.098  12.695  1.00  0.00     0.020 C 
HETATM   14  C21 UNL     1      -4.806   5.621  13.214  1.00  0.00     0.021 C 
HETATM   15  C22 UNL     1      -6.199   5.178  13.657  1.00  0.00     0.080 C 
HETATM   16  C23 UNL     1      -7.076   6.325  14.097  1.00  0.00     0.135 C 
HETATM   17  O1  UNL     1      -8.209   6.458  13.633  1.00  0.00    -0.297 OA
HETATM   18  C24 UNL     1      -6.525   7.238  15.199  1.00  0.00     0.018 C 
HETATM   19  C25 UNL     1      -6.991   6.638  16.543  1.00  0.00     0.023 C 
HETATM   20  C26 UNL     1      -7.160   8.637  15.076  1.00  0.00     0.023 C 
HETATM   21  C27 UNL     1      -4.958   7.236  15.137  1.00  0.00     0.016 C 
HETATM   22  C28 UNL     1      -4.313   8.447  15.827  1.00  0.00     0.043 C 
HETATM   23  C29 UNL     1      -2.811   8.236  16.003  1.00  0.00     0.148 C 
ENDROOT
BRANCH   1  24
HETATM   24  C6  UNL     1       2.328   8.623  12.360  1.00  0.00    -0.014 C 
HETATM   25  C7  UNL     1       3.191   9.847  12.695  1.00  0.00     0.010 C 
BRANCH  24  26
HETATM   26  C5  UNL     1       3.234   7.472  11.839  1.00  0.00     0.008 C 
BRANCH  26  27
HETATM   27  C4  UNL     1       4.052   7.832  10.594  1.00  0.00     0.028 C 
BRANCH  27  28
HETATM   28  C3  UNL     1       3.153   8.105   9.419  1.00  0.00    -0.022 C 
HETATM   29  C2  UNL     1       2.702   7.219   8.506  1.00  0.00    -0.064 C 
HETATM   30  C1  UNL     1       2.982   5.740   8.546  1.00  0.00     0.045 C 
BRANCH  29  31
HETATM   31  C30 UNL     1       1.830   7.665   7.361  1.00  0.00     0.197 C 
BRANCH  31  32
HETATM   32  O3  UNL     1       1.908   6.699   6.324  1.00  0.00    -0.397 OA
HETATM   33  H48 UNL     1       1.314   7.002   5.619  1.00  0.00     0.209 HD
ENDBRANCH  31  32
ENDBRANCH  29  31
ENDBRANCH  27  28
ENDBRANCH  26  27
ENDBRANCH  24  26
ENDBRANCH   1  24
BRANCH  23  34
HETATM   34  O2  UNL     1      -2.630   7.361  17.113  1.00  0.00    -0.391 OA
HETATM   35  H45 UNL     1      -1.724   7.491  17.433  1.00  0.00     0.210 HD
ENDBRANCH  23  34
TORSDOF 7
ENDMDL
