MODEL 1
REMARK minimizedAffinity -10.6315479
REMARK  6 active torsions:
REMARK  status: ('A' for Active; 'I' for Inactive)
REMARK    1  A    between atoms: C12_13  and  C13_14 
REMARK    2  A    between atoms: C13_14  and  C15_16 
REMARK    3  A    between atoms: C15_16  and  C16_17 
REMARK    4  A    between atoms: C16_17  and  C17_18 
REMARK    5  A    between atoms: C18_19  and  C20_21 
REMARK    6  A    between atoms: C20_21  and  O3_23 
ROOT
HETATM    1  C1  UNL     1      -5.169  47.899 -28.705  1.00  0.00     0.052 C 
HETATM    2  C2  UNL     1      -5.333  48.060 -27.217  1.00  0.00    -0.013 C 
HETATM    3  C3  UNL     1      -4.388  48.442 -26.324  1.00  0.00    -0.066 C 
HETATM    4  C4  UNL     1      -2.959  48.735 -26.737  1.00  0.00     0.036 C 
HETATM    5  C5  UNL     1      -2.456  50.058 -26.170  1.00  0.00     0.010 C 
HETATM    6  C6  UNL     1      -2.512  50.023 -24.641  1.00  0.00     0.007 C 
HETATM    7  C7  UNL     1      -3.979  49.826 -24.167  1.00  0.00     0.068 C 
HETATM    8  C8  UNL     1      -3.997  49.793 -22.626  1.00  0.00     0.133 C 
HETATM    9  O1  UNL     1      -4.563  48.907 -21.986  1.00  0.00    -0.298 OA
HETATM   10  C9  UNL     1      -3.291  50.932 -21.889  1.00  0.00     0.089 C 
HETATM   11  C10 UNL     1      -1.839  51.022 -22.377  1.00  0.00    -0.026 C 
HETATM   12  C11 UNL     1      -1.112  49.708 -21.942  1.00  0.00     0.016 C 
HETATM   13  C12 UNL     1      -0.984  52.242 -21.910  1.00  0.00    -0.002 C 
HETATM   14  C21 UNL     1       0.110  52.322 -23.025  1.00  0.00     0.006 C 
HETATM   15  C22 UNL     1      -0.384  51.502 -24.233  1.00  0.00     0.011 C 
HETATM   16  C23 UNL     1      -1.871  51.258 -23.944  1.00  0.00    -0.032 C 
HETATM   17  C24 UNL     1      -2.618  52.562 -24.384  1.00  0.00     0.016 C 
HETATM   18  C25 UNL     1      -4.653  48.573 -24.811  1.00  0.00     0.027 C 
HETATM   19  C26 UNL     1      -6.170  48.610 -24.523  1.00  0.00     0.018 C 
HETATM   20  C27 UNL     1      -6.907  47.509 -25.254  1.00  0.00     0.084 C 
HETATM   21  C28 UNL     1      -6.702  47.670 -26.733  1.00  0.00     0.155 C 
HETATM   22  O4  UNL     1      -7.607  47.432 -27.531  1.00  0.00    -0.293 OA
ENDROOT
BRANCH  13  23
HETATM   23  C13 UNL     1      -0.354  52.266 -20.482  1.00  0.00    -0.014 C 
HETATM   24  C14 UNL     1       0.931  53.099 -20.431  1.00  0.00     0.010 C 
BRANCH  23  25
HETATM   25  C15 UNL     1      -0.056  50.815 -20.006  1.00  0.00     0.008 C 
BRANCH  25  26
HETATM   26  C16 UNL     1      -0.432  50.492 -18.552  1.00  0.00     0.028 C 
BRANCH  26  27
HETATM   27  C17 UNL     1       0.302  51.340 -17.551  1.00  0.00    -0.013 C 
HETATM   28  C18 UNL     1       0.746  50.962 -16.336  1.00  0.00     0.008 C 
HETATM   29  C19 UNL     1       0.554  49.611 -15.716  1.00  0.00     0.055 C 
BRANCH  28  30
HETATM   30  C20 UNL     1       1.463  51.992 -15.540  1.00  0.00     0.171 C 
HETATM   31  O2  UNL     1       2.035  51.825 -14.478  1.00  0.00    -0.646 OA
BRANCH  30  32
HETATM   32  O3  UNL     1       1.426  53.203 -16.120  1.00  0.00    -0.773 OA
HETATM   33  H28 UNL     1       1.922  53.770 -15.493  1.00  0.00     0.167 HD
ENDBRANCH  30  32
ENDBRANCH  28  30
ENDBRANCH  26  27
ENDBRANCH  25  26
ENDBRANCH  23  25
ENDBRANCH  13  23
TORSDOF 6
ENDMDL
MODEL 2
REMARK minimizedAffinity -10.0498505
REMARK  6 active torsions:
REMARK  status: ('A' for Active; 'I' for Inactive)
REMARK    1  A    between atoms: C12_13  and  C13_14 
REMARK    2  A    between atoms: C13_14  and  C15_16 
REMARK    3  A    between atoms: C15_16  and  C16_17 
REMARK    4  A    between atoms: C16_17  and  C17_18 
REMARK    5  A    between atoms: C18_19  and  C20_21 
REMARK    6  A    between atoms: C20_21  and  O3_23 
ROOT
HETATM    1  C1  UNL     1      -5.270  47.777 -28.410  1.00  0.00     0.052 C 
HETATM    2  C2  UNL     1      -5.374  48.021 -26.929  1.00  0.00    -0.013 C 
HETATM    3  C3  UNL     1      -4.390  48.435 -26.093  1.00  0.00    -0.066 C 
HETATM    4  C4  UNL     1      -2.974  48.681 -26.574  1.00  0.00     0.036 C 
HETATM    5  C5  UNL     1      -2.431  50.024 -26.100  1.00  0.00     0.010 C 
HETATM    6  C6  UNL     1      -2.428  50.073 -24.570  1.00  0.00     0.007 C 
HETATM    7  C7  UNL     1      -3.879  49.927 -24.033  1.00  0.00     0.068 C 
HETATM    8  C8  UNL     1      -3.839  49.979 -22.492  1.00  0.00     0.133 C 
HETATM    9  O1  UNL     1      -4.394  49.138 -21.784  1.00  0.00    -0.298 OA
HETATM   10  C9  UNL     1      -3.089  51.144 -21.846  1.00  0.00     0.089 C 
HETATM   11  C10 UNL     1      -1.656  51.183 -22.392  1.00  0.00    -0.026 C 
HETATM   12  C11 UNL     1      -0.932  49.882 -21.912  1.00  0.00     0.016 C 
HETATM   13  C12 UNL     1      -0.765  52.411 -22.024  1.00  0.00    -0.002 C 
HETATM   14  C21 UNL     1       0.286  52.412 -23.181  1.00  0.00     0.006 C 
HETATM   15  C22 UNL     1      -0.266  51.536 -24.324  1.00  0.00     0.011 C 
HETATM   16  C23 UNL     1      -1.744  51.334 -23.967  1.00  0.00    -0.032 C 
HETATM   17  C24 UNL     1      -2.487  52.624 -24.449  1.00  0.00     0.016 C 
HETATM   18  C25 UNL     1      -4.596  48.653 -24.581  1.00  0.00     0.027 C 
HETATM   19  C26 UNL     1      -6.101  48.731 -24.239  1.00  0.00     0.018 C 
HETATM   20  C27 UNL     1      -6.881  47.605 -24.881  1.00  0.00     0.084 C 
HETATM   21  C28 UNL     1      -6.730  47.681 -26.373  1.00  0.00     0.155 C 
HETATM   22  O4  UNL     1      -7.668  47.416 -27.123  1.00  0.00    -0.293 OA
ENDROOT
BRANCH  13  23
HETATM   23  C13 UNL     1      -0.081  52.502 -20.624  1.00  0.00    -0.014 C 
HETATM   24  C14 UNL     1       1.399  52.884 -20.727  1.00  0.00     0.010 C 
BRANCH  23  25
HETATM   25  C15 UNL     1      -0.222  51.147 -19.873  1.00  0.00     0.008 C 
BRANCH  25  26
HETATM   26  C16 UNL     1      -1.018  51.182 -18.560  1.00  0.00     0.028 C 
BRANCH  26  27
HETATM   27  C17 UNL     1      -0.554  50.159 -17.561  1.00  0.00    -0.013 C 
HETATM   28  C18 UNL     1       0.375  50.327 -16.599  1.00  0.00     0.008 C 
HETATM   29  C19 UNL     1       1.171  51.574 -16.359  1.00  0.00     0.055 C 
BRANCH  28  30
HETATM   30  C20 UNL     1       0.643  49.157 -15.723  1.00  0.00     0.171 C 
HETATM   31  O2  UNL     1       1.362  49.131 -14.741  1.00  0.00    -0.646 OA
BRANCH  30  32
HETATM   32  O3  UNL     1      -0.012  48.056 -16.127  1.00  0.00    -0.773 OA
HETATM   33  H28 UNL     1       0.260  47.378 -15.473  1.00  0.00     0.167 HD
ENDBRANCH  30  32
ENDBRANCH  28  30
ENDBRANCH  26  27
ENDBRANCH  25  26
ENDBRANCH  23  25
ENDBRANCH  13  23
TORSDOF 6
ENDMDL
MODEL 3
REMARK minimizedAffinity -9.83912468
REMARK  6 active torsions:
REMARK  status: ('A' for Active; 'I' for Inactive)
REMARK    1  A    between atoms: C12_13  and  C13_14 
REMARK    2  A    between atoms: C13_14  and  C15_16 
REMARK    3  A    between atoms: C15_16  and  C16_17 
REMARK    4  A    between atoms: C16_17  and  C17_18 
REMARK    5  A    between atoms: C18_19  and  C20_21 
REMARK    6  A    between atoms: C20_21  and  O3_23 
ROOT
HETATM    1  C1  UNL     1      -7.809  46.523 -26.130  1.00  0.00     0.052 C 
HETATM    2  C2  UNL     1      -6.576  47.355 -26.358  1.00  0.00    -0.013 C 
HETATM    3  C3  UNL     1      -5.914  48.109 -25.447  1.00  0.00    -0.066 C 
HETATM    4  C4  UNL     1      -6.387  48.241 -24.013  1.00  0.00     0.036 C 
HETATM    5  C5  UNL     1      -5.259  48.013 -23.013  1.00  0.00     0.010 C 
HETATM    6  C6  UNL     1      -4.146  49.039 -23.242  1.00  0.00     0.007 C 
HETATM    7  C7  UNL     1      -3.559  48.873 -24.672  1.00  0.00     0.068 C 
HETATM    8  C8  UNL     1      -2.445  49.921 -24.869  1.00  0.00     0.133 C 
HETATM    9  O1  UNL     1      -2.395  50.663 -25.850  1.00  0.00    -0.298 OA
HETATM   10  C9  UNL     1      -1.359  50.005 -23.795  1.00  0.00     0.089 C 
HETATM   11  C10 UNL     1      -2.021  50.220 -22.428  1.00  0.00    -0.026 C 
HETATM   12  C11 UNL     1      -2.715  51.621 -22.453  1.00  0.00     0.016 C 
HETATM   13  C12 UNL     1      -1.119  50.135 -21.156  1.00  0.00    -0.002 C 
HETATM   14  C21 UNL     1      -2.158  49.788 -20.040  1.00  0.00     0.006 C 
HETATM   15  C22 UNL     1      -3.440  49.278 -20.728  1.00  0.00     0.011 C 
HETATM   16  C23 UNL     1      -3.013  49.009 -22.176  1.00  0.00    -0.032 C 
HETATM   17  C24 UNL     1      -2.324  47.603 -22.172  1.00  0.00     0.016 C 
HETATM   18  C25 UNL     1      -4.656  48.935 -25.781  1.00  0.00     0.027 C 
HETATM   19  C26 UNL     1      -4.044  48.480 -27.125  1.00  0.00     0.018 C 
HETATM   20  C27 UNL     1      -5.094  48.364 -28.208  1.00  0.00     0.084 C 
HETATM   21  C28 UNL     1      -6.128  47.356 -27.794  1.00  0.00     0.155 C 
HETATM   22  O4  UNL     1      -6.638  46.594 -28.613  1.00  0.00    -0.293 OA
ENDROOT
BRANCH  13  23
HETATM   23  C13 UNL     1      -0.214  51.338 -20.746  1.00  0.00    -0.014 C 
HETATM   24  C14 UNL     1      -0.527  51.843 -19.334  1.00  0.00     0.010 C 
BRANCH  23  25
HETATM   25  C15 UNL     1      -0.378  52.501 -21.767  1.00  0.00     0.008 C 
BRANCH  25  26
HETATM   26  C16 UNL     1       0.727  52.632 -22.825  1.00  0.00     0.028 C 
BRANCH  26  27
HETATM   27  C17 UNL     1       0.280  53.369 -24.056  1.00  0.00    -0.013 C 
HETATM   28  C18 UNL     1       0.473  52.999 -25.338  1.00  0.00     0.008 C 
HETATM   29  C19 UNL     1       1.220  51.783 -25.796  1.00  0.00     0.055 C 
BRANCH  28  30
HETATM   30  C20 UNL     1      -0.087  53.899 -26.380  1.00  0.00     0.171 C 
HETATM   31  O2  UNL     1      -0.805  53.579 -27.311  1.00  0.00    -0.646 OA
BRANCH  30  32
HETATM   32  O3  UNL     1       0.287  55.177 -26.206  1.00  0.00    -0.773 OA
HETATM   33  H28 UNL     1      -0.142  55.643 -26.954  1.00  0.00     0.167 HD
ENDBRANCH  30  32
ENDBRANCH  28  30
ENDBRANCH  26  27
ENDBRANCH  25  26
ENDBRANCH  23  25
ENDBRANCH  13  23
TORSDOF 6
ENDMDL
MODEL 4
REMARK minimizedAffinity -9.8340826
REMARK  6 active torsions:
REMARK  status: ('A' for Active; 'I' for Inactive)
REMARK    1  A    between atoms: C12_13  and  C13_14 
REMARK    2  A    between atoms: C13_14  and  C15_16 
REMARK    3  A    between atoms: C15_16  and  C16_17 
REMARK    4  A    between atoms: C16_17  and  C17_18 
REMARK    5  A    between atoms: C18_19  and  C20_21 
REMARK    6  A    between atoms: C20_21  and  O3_23 
ROOT
HETATM    1  C1  UNL     1      -4.729  48.269 -26.679  1.00  0.00     0.052 C 
HETATM    2  C2  UNL     1      -3.760  49.254 -26.082  1.00  0.00    -0.013 C 
HETATM    3  C3  UNL     1      -3.552  49.507 -24.767  1.00  0.00    -0.066 C 
HETATM    4  C4  UNL     1      -4.346  48.815 -23.676  1.00  0.00     0.036 C 
HETATM    5  C5  UNL     1      -3.447  48.254 -22.580  1.00  0.00     0.010 C 
HETATM    6  C6  UNL     1      -2.644  49.387 -21.936  1.00  0.00     0.007 C 
HETATM    7  C7  UNL     1      -1.736  50.064 -23.000  1.00  0.00     0.068 C 
HETATM    8  C8  UNL     1      -0.945  51.199 -22.319  1.00  0.00     0.133 C 
HETATM    9  O1  UNL     1      -0.892  52.341 -22.777  1.00  0.00    -0.298 OA
HETATM   10  C9  UNL     1      -0.190  50.859 -21.034  1.00  0.00     0.089 C 
HETATM   11  C10 UNL     1      -1.168  50.246 -20.024  1.00  0.00    -0.026 C 
HETATM   12  C11 UNL     1      -2.204  51.352 -19.637  1.00  0.00     0.016 C 
HETATM   13  C12 UNL     1      -0.581  49.636 -18.712  1.00  0.00    -0.002 C 
HETATM   14  C21 UNL     1      -1.699  48.628 -18.289  1.00  0.00     0.006 C 
HETATM   15  C22 UNL     1      -2.603  48.382 -19.514  1.00  0.00     0.011 C 
HETATM   16  C23 UNL     1      -1.811  48.961 -20.693  1.00  0.00    -0.032 C 
HETATM   17  C24 UNL     1      -0.774  47.861 -21.100  1.00  0.00     0.016 C 
HETATM   18  C25 UNL     1      -2.535  50.545 -24.252  1.00  0.00     0.027 C 
HETATM   19  C26 UNL     1      -1.541  50.936 -25.368  1.00  0.00     0.018 C 
HETATM   20  C27 UNL     1      -2.251  51.259 -26.664  1.00  0.00     0.084 C 
HETATM   21  C28 UNL     1      -3.026  50.056 -27.120  1.00  0.00     0.155 C 
HETATM   22  O4  UNL     1      -3.110  49.767 -28.313  1.00  0.00    -0.293 OA
ENDROOT
BRANCH  13  23
HETATM   23  C13 UNL     1      -0.162  50.561 -17.527  1.00  0.00    -0.014 C 
HETATM   24  C14 UNL     1      -1.278  50.713 -16.489  1.00  0.00     0.010 C 
BRANCH  23  25
HETATM   25  C15 UNL     1       0.248  51.963 -18.064  1.00  0.00     0.008 C 
BRANCH  25  26
HETATM   26  C16 UNL     1       1.514  52.577 -17.449  1.00  0.00     0.028 C 
BRANCH  26  27
HETATM   27  C17 UNL     1       1.803  52.069 -16.064  1.00  0.00    -0.013 C 
HETATM   28  C18 UNL     1       3.007  51.990 -15.463  1.00  0.00     0.008 C 
HETATM   29  C19 UNL     1       4.321  52.359 -16.083  1.00  0.00     0.055 C 
BRANCH  28  30
HETATM   30  C20 UNL     1       3.022  51.464 -14.073  1.00  0.00     0.171 C 
HETATM   31  O2  UNL     1       3.228  50.313 -13.731  1.00  0.00    -0.646 OA
BRANCH  30  32
HETATM   32  O3  UNL     1       2.772  52.419 -13.162  1.00  0.00    -0.773 OA
HETATM   33  H28 UNL     1       2.806  51.935 -12.311  1.00  0.00     0.167 HD
ENDBRANCH  30  32
ENDBRANCH  28  30
ENDBRANCH  26  27
ENDBRANCH  25  26
ENDBRANCH  23  25
ENDBRANCH  13  23
TORSDOF 6
ENDMDL
MODEL 5
REMARK minimizedAffinity -9.59742355
REMARK  6 active torsions:
REMARK  status: ('A' for Active; 'I' for Inactive)
REMARK    1  A    between atoms: C12_13  and  C13_14 
REMARK    2  A    between atoms: C13_14  and  C15_16 
REMARK    3  A    between atoms: C15_16  and  C16_17 
REMARK    4  A    between atoms: C16_17  and  C17_18 
REMARK    5  A    between atoms: C18_19  and  C20_21 
REMARK    6  A    between atoms: C20_21  and  O3_23 
ROOT
HETATM    1  C1  UNL     1      -8.349  45.482 -23.432  1.00  0.00     0.052 C 
HETATM    2  C2  UNL     1      -7.453  46.514 -24.062  1.00  0.00    -0.013 C 
HETATM    3  C3  UNL     1      -6.585  47.343 -23.432  1.00  0.00    -0.066 C 
HETATM    4  C4  UNL     1      -6.432  47.355 -21.924  1.00  0.00     0.036 C 
HETATM    5  C5  UNL     1      -4.970  47.292 -21.495  1.00  0.00     0.010 C 
HETATM    6  C6  UNL     1      -4.210  48.495 -22.059  1.00  0.00     0.007 C 
HETATM    7  C7  UNL     1      -4.254  48.468 -23.612  1.00  0.00     0.068 C 
HETATM    8  C8  UNL     1      -3.483  49.691 -24.146  1.00  0.00     0.133 C 
HETATM    9  O1  UNL     1      -3.951  50.458 -24.989  1.00  0.00    -0.298 OA
HETATM   10  C9  UNL     1      -2.072  49.927 -23.604  1.00  0.00     0.089 C 
HETATM   11  C10 UNL     1      -2.128  49.991 -22.072  1.00  0.00    -0.026 C 
HETATM   12  C11 UNL     1      -2.959  51.257 -21.682  1.00  0.00     0.016 C 
HETATM   13  C12 UNL     1      -0.777  50.024 -21.290  1.00  0.00    -0.002 C 
HETATM   14  C21 UNL     1      -1.197  49.478 -19.886  1.00  0.00     0.006 C 
HETATM   15  C22 UNL     1      -2.564  48.780 -20.038  1.00  0.00     0.011 C 
HETATM   16  C23 UNL     1      -2.744  48.626 -21.554  1.00  0.00    -0.032 C 
HETATM   17  C24 UNL     1      -1.926  47.355 -21.961  1.00  0.00     0.016 C 
HETATM   18  C25 UNL     1      -5.710  48.376 -24.170  1.00  0.00     0.027 C 
HETATM   19  C26 UNL     1      -5.655  48.066 -25.682  1.00  0.00     0.018 C 
HETATM   20  C27 UNL     1      -7.033  47.805 -26.251  1.00  0.00     0.084 C 
HETATM   21  C28 UNL     1      -7.647  46.629 -25.549  1.00  0.00     0.155 C 
HETATM   22  O4  UNL     1      -8.340  45.814 -26.157  1.00  0.00    -0.293 OA
ENDROOT
BRANCH  13  23
HETATM   23  C13 UNL     1       0.038  51.350 -21.173  1.00  0.00    -0.014 C 
HETATM   24  C14 UNL     1      -0.199  52.058 -19.835  1.00  0.00     0.010 C 
BRANCH  23  25
HETATM   25  C15 UNL     1      -0.329  52.307 -22.344  1.00  0.00     0.008 C 
BRANCH  25  26
HETATM   26  C16 UNL     1       0.714  52.433 -23.464  1.00  0.00     0.028 C 
BRANCH  26  27
HETATM   27  C17 UNL     1       0.257  53.307 -24.598  1.00  0.00    -0.013 C 
HETATM   28  C18 UNL     1       0.380  53.057 -25.917  1.00  0.00     0.008 C 
HETATM   29  C19 UNL     1       1.045  51.857 -26.522  1.00  0.00     0.055 C 
BRANCH  28  30
HETATM   30  C20 UNL     1      -0.173  54.080 -26.842  1.00  0.00     0.171 C 
HETATM   31  O2  UNL     1      -0.907  53.882 -27.794  1.00  0.00    -0.646 OA
BRANCH  30  32
HETATM   32  O3  UNL     1       0.227  55.323 -26.528  1.00  0.00    -0.773 OA
HETATM   33  H28 UNL     1      -0.200  55.879 -27.212  1.00  0.00     0.167 HD
ENDBRANCH  30  32
ENDBRANCH  28  30
ENDBRANCH  26  27
ENDBRANCH  25  26
ENDBRANCH  23  25
ENDBRANCH  13  23
TORSDOF 6
ENDMDL
MODEL 6
REMARK minimizedAffinity -9.57967567
REMARK  6 active torsions:
REMARK  status: ('A' for Active; 'I' for Inactive)
REMARK    1  A    between atoms: C12_13  and  C13_14 
REMARK    2  A    between atoms: C13_14  and  C15_16 
REMARK    3  A    between atoms: C15_16  and  C16_17 
REMARK    4  A    between atoms: C16_17  and  C17_18 
REMARK    5  A    between atoms: C18_19  and  C20_21 
REMARK    6  A    between atoms: C20_21  and  O3_23 
ROOT
HETATM    1  C1  UNL     1       0.552  52.787 -20.047  1.00  0.00     0.052 C 
HETATM    2  C2  UNL     1       0.440  52.780 -21.547  1.00  0.00    -0.013 C 
HETATM    3  C3  UNL     1      -0.174  51.852 -22.321  1.00  0.00    -0.066 C 
HETATM    4  C4  UNL     1      -0.827  50.616 -21.734  1.00  0.00     0.036 C 
HETATM    5  C5  UNL     1      -2.235  50.398 -22.277  1.00  0.00     0.010 C 
HETATM    6  C6  UNL     1      -2.185  50.232 -23.798  1.00  0.00     0.007 C 
HETATM    7  C7  UNL     1      -1.614  51.520 -24.453  1.00  0.00     0.068 C 
HETATM    8  C8  UNL     1      -1.577  51.317 -25.981  1.00  0.00     0.133 C 
HETATM    9  O1  UNL     1      -0.574  51.544 -26.658  1.00  0.00    -0.298 OA
HETATM   10  C9  UNL     1      -2.859  50.834 -26.659  1.00  0.00     0.089 C 
HETATM   11  C10 UNL     1      -3.323  49.535 -25.987  1.00  0.00    -0.026 C 
HETATM   12  C11 UNL     1      -2.243  48.442 -26.274  1.00  0.00     0.016 C 
HETATM   13  C12 UNL     1      -4.723  48.966 -26.381  1.00  0.00    -0.002 C 
HETATM   14  C21 UNL     1      -5.085  48.093 -25.135  1.00  0.00     0.006 C 
HETATM   15  C22 UNL     1      -4.166  48.521 -23.973  1.00  0.00     0.011 C 
HETATM   16  C23 UNL     1      -3.544  49.841 -24.448  1.00  0.00    -0.032 C 
HETATM   17  C24 UNL     1      -4.610  50.951 -24.158  1.00  0.00     0.016 C 
HETATM   18  C25 UNL     1      -0.230  51.932 -23.860  1.00  0.00     0.027 C 
HETATM   19  C26 UNL     1       0.128  53.353 -24.347  1.00  0.00     0.018 C 
HETATM   20  C27 UNL     1       1.382  53.875 -23.680  1.00  0.00     0.084 C 
HETATM   21  C28 UNL     1       1.172  53.923 -22.194  1.00  0.00     0.155 C 
HETATM   22  O4  UNL     1       1.636  54.838 -21.515  1.00  0.00    -0.293 OA
ENDROOT
BRANCH  13  23
HETATM   23  C13 UNL     1      -4.909  48.173 -27.713  1.00  0.00    -0.014 C 
HETATM   24  C14 UNL     1      -4.563  49.019 -28.942  1.00  0.00     0.010 C 
BRANCH  23  25
HETATM   25  C15 UNL     1      -6.373  47.658 -27.827  1.00  0.00     0.008 C 
BRANCH  25  26
HETATM   26  C16 UNL     1      -6.985  47.671 -29.235  1.00  0.00     0.028 C 
BRANCH  26  27
HETATM   27  C17 UNL     1      -6.034  47.190 -30.296  1.00  0.00    -0.013 C 
HETATM   28  C18 UNL     1      -5.968  45.953 -30.827  1.00  0.00     0.008 C 
HETATM   29  C19 UNL     1      -6.815  44.783 -30.427  1.00  0.00     0.055 C 
BRANCH  28  30
HETATM   30  C20 UNL     1      -4.943  45.736 -31.880  1.00  0.00     0.171 C 
HETATM   31  O2  UNL     1      -3.831  46.231 -31.929  1.00  0.00    -0.646 OA
BRANCH  30  32
HETATM   32  O3  UNL     1      -5.367  44.899 -32.841  1.00  0.00    -0.773 OA
HETATM   33  H28 UNL     1      -4.606  44.857 -33.458  1.00  0.00     0.167 HD
ENDBRANCH  30  32
ENDBRANCH  28  30
ENDBRANCH  26  27
ENDBRANCH  25  26
ENDBRANCH  23  25
ENDBRANCH  13  23
TORSDOF 6
ENDMDL
MODEL 7
REMARK minimizedAffinity -9.54402351
REMARK  6 active torsions:
REMARK  status: ('A' for Active; 'I' for Inactive)
REMARK    1  A    between atoms: C12_13  and  C13_14 
REMARK    2  A    between atoms: C13_14  and  C15_16 
REMARK    3  A    between atoms: C15_16  and  C16_17 
REMARK    4  A    between atoms: C16_17  and  C17_18 
REMARK    5  A    between atoms: C18_19  and  C20_21 
REMARK    6  A    between atoms: C20_21  and  O3_23 
ROOT
HETATM    1  C1  UNL     1      -3.058  51.685 -26.578  1.00  0.00     0.052 C 
HETATM    2  C2  UNL     1      -1.882  52.281 -25.852  1.00  0.00    -0.013 C 
HETATM    3  C3  UNL     1      -1.745  52.455 -24.514  1.00  0.00    -0.066 C 
HETATM    4  C4  UNL     1      -2.842  52.084 -23.536  1.00  0.00     0.036 C 
HETATM    5  C5  UNL     1      -2.314  51.255 -22.370  1.00  0.00     0.010 C 
HETATM    6  C6  UNL     1      -1.247  52.047 -21.610  1.00  0.00     0.007 C 
HETATM    7  C7  UNL     1      -0.052  52.365 -22.551  1.00  0.00     0.068 C 
HETATM    8  C8  UNL     1       1.000  53.163 -21.755  1.00  0.00     0.133 C 
HETATM    9  O1  UNL     1       1.491  54.214 -22.168  1.00  0.00    -0.298 OA
HETATM   10  C9  UNL     1       1.449  52.591 -20.409  1.00  0.00     0.089 C 
HETATM   11  C10 UNL     1       0.215  52.358 -19.527  1.00  0.00    -0.026 C 
HETATM   12  C11 UNL     1      -0.414  53.755 -19.216  1.00  0.00     0.016 C 
HETATM   13  C12 UNL     1       0.412  51.591 -18.181  1.00  0.00    -0.002 C 
HETATM   14  C21 UNL     1      -1.022  51.031 -17.911  1.00  0.00     0.006 C 
HETATM   15  C22 UNL     1      -1.817  51.104 -19.230  1.00  0.00     0.011 C 
HETATM   16  C23 UNL     1      -0.751  51.368 -20.301  1.00  0.00    -0.032 C 
HETATM   17  C24 UNL     1      -0.115  49.976 -20.633  1.00  0.00     0.016 C 
HETATM   18  C25 UNL     1      -0.496  53.083 -23.864  1.00  0.00     0.027 C 
HETATM   19  C26 UNL     1       0.687  53.102 -24.856  1.00  0.00     0.018 C 
HETATM   20  C27 UNL     1       0.276  53.643 -26.209  1.00  0.00     0.084 C 
HETATM   21  C28 UNL     1      -0.809  52.776 -26.782  1.00  0.00     0.155 C 
HETATM   22  O4  UNL     1      -0.856  52.527 -27.985  1.00  0.00    -0.293 OA
ENDROOT
BRANCH  13  23
HETATM   23  C13 UNL     1       0.990  52.322 -16.930  1.00  0.00    -0.014 C 
HETATM   24  C14 UNL     1       2.500  52.557 -17.044  1.00  0.00     0.010 C 
BRANCH  23  25
HETATM   25  C15 UNL     1       0.684  51.503 -15.644  1.00  0.00     0.008 C 
BRANCH  25  26
HETATM   26  C16 UNL     1       1.449  51.919 -14.379  1.00  0.00     0.028 C 
BRANCH  26  27
HETATM   27  C17 UNL     1       2.424  50.876 -13.910  1.00  0.00    -0.013 C 
HETATM   28  C18 UNL     1       3.085  50.852 -12.735  1.00  0.00     0.008 C 
HETATM   29  C19 UNL     1       3.008  51.900 -11.666  1.00  0.00     0.055 C 
BRANCH  28  30
HETATM   30  C20 UNL     1       3.985  49.692 -12.503  1.00  0.00     0.171 C 
HETATM   31  O2  UNL     1       3.833  48.804 -11.683  1.00  0.00    -0.646 OA
BRANCH  30  32
HETATM   32  O3  UNL     1       5.051  49.701 -13.319  1.00  0.00    -0.773 OA
HETATM   33  H28 UNL     1       5.547  48.899 -13.053  1.00  0.00     0.167 HD
ENDBRANCH  30  32
ENDBRANCH  28  30
ENDBRANCH  26  27
ENDBRANCH  25  26
ENDBRANCH  23  25
ENDBRANCH  13  23
TORSDOF 6
ENDMDL
MODEL 8
REMARK minimizedAffinity -9.54059696
REMARK  6 active torsions:
REMARK  status: ('A' for Active; 'I' for Inactive)
REMARK    1  A    between atoms: C12_13  and  C13_14 
REMARK    2  A    between atoms: C13_14  and  C15_16 
REMARK    3  A    between atoms: C15_16  and  C16_17 
REMARK    4  A    between atoms: C16_17  and  C17_18 
REMARK    5  A    between atoms: C18_19  and  C20_21 
REMARK    6  A    between atoms: C20_21  and  O3_23 
ROOT
HETATM    1  C1  UNL     1      -8.261  46.043 -26.052  1.00  0.00     0.052 C 
HETATM    2  C2  UNL     1      -7.135  46.907 -26.552  1.00  0.00    -0.013 C 
HETATM    3  C3  UNL     1      -6.431  47.827 -25.849  1.00  0.00    -0.066 C 
HETATM    4  C4  UNL     1      -6.736  48.139 -24.397  1.00  0.00     0.036 C 
HETATM    5  C5  UNL     1      -5.482  48.132 -23.531  1.00  0.00     0.010 C 
HETATM    6  C6  UNL     1      -4.490  49.180 -24.044  1.00  0.00     0.007 C 
HETATM    7  C7  UNL     1      -4.068  48.842 -25.501  1.00  0.00     0.068 C 
HETATM    8  C8  UNL     1      -3.073  49.915 -25.985  1.00  0.00     0.133 C 
HETATM    9  O1  UNL     1      -3.202  50.507 -27.058  1.00  0.00    -0.298 OA
HETATM   10  C9  UNL     1      -1.877  50.224 -25.085  1.00  0.00     0.089 C 
HETATM   11  C10 UNL     1      -2.384  50.597 -23.686  1.00  0.00    -0.026 C 
HETATM   12  C11 UNL     1      -3.186  51.934 -23.814  1.00  0.00     0.016 C 
HETATM   13  C12 UNL     1      -1.332  50.757 -22.543  1.00  0.00    -0.002 C 
HETATM   14  C21 UNL     1      -2.197  50.515 -21.264  1.00  0.00     0.006 C 
HETATM   15  C22 UNL     1      -3.508  49.830 -21.701  1.00  0.00     0.011 C 
HETATM   16  C23 UNL     1      -3.238  49.378 -23.142  1.00  0.00    -0.032 C 
HETATM   17  C24 UNL     1      -2.444  48.033 -23.032  1.00  0.00     0.016 C 
HETATM   18  C25 UNL     1      -5.292  48.671 -26.456  1.00  0.00     0.027 C 
HETATM   19  C26 UNL     1      -4.812  48.061 -27.791  1.00  0.00     0.018 C 
HETATM   20  C27 UNL     1      -5.972  47.722 -28.702  1.00  0.00     0.084 C 
HETATM   21  C28 UNL     1      -6.864  46.724 -28.020  1.00  0.00     0.155 C 
HETATM   22  O4  UNL     1      -7.407  45.819 -28.652  1.00  0.00    -0.293 OA
ENDROOT
BRANCH  13  23
HETATM   23  C13 UNL     1      -0.483  52.061 -22.426  1.00  0.00    -0.014 C 
HETATM   24  C14 UNL     1       0.319  52.346 -23.700  1.00  0.00     0.010 C 
BRANCH  23  25
HETATM   25  C15 UNL     1       0.484  51.961 -21.211  1.00  0.00     0.008 C 
BRANCH  25  26
HETATM   26  C16 UNL     1       0.744  53.267 -20.446  1.00  0.00     0.028 C 
BRANCH  26  27
HETATM   27  C17 UNL     1       1.211  53.041 -19.035  1.00  0.00    -0.013 C 
HETATM   28  C18 UNL     1       0.608  52.293 -18.090  1.00  0.00     0.008 C 
HETATM   29  C19 UNL     1      -0.691  51.563 -18.249  1.00  0.00     0.055 C 
BRANCH  28  30
HETATM   30  C20 UNL     1       1.287  52.216 -16.770  1.00  0.00     0.171 C 
HETATM   31  O2  UNL     1       1.628  51.205 -16.183  1.00  0.00    -0.646 OA
BRANCH  30  32
HETATM   32  O3  UNL     1       1.507  53.429 -16.237  1.00  0.00    -0.773 OA
HETATM   33  H28 UNL     1       1.945  53.227 -15.384  1.00  0.00     0.167 HD
ENDBRANCH  30  32
ENDBRANCH  28  30
ENDBRANCH  26  27
ENDBRANCH  25  26
ENDBRANCH  23  25
ENDBRANCH  13  23
TORSDOF 6
ENDMDL
MODEL 9
REMARK minimizedAffinity -9.51580429
REMARK  6 active torsions:
REMARK  status: ('A' for Active; 'I' for Inactive)
REMARK    1  A    between atoms: C12_13  and  C13_14 
REMARK    2  A    between atoms: C13_14  and  C15_16 
REMARK    3  A    between atoms: C15_16  and  C16_17 
REMARK    4  A    between atoms: C16_17  and  C17_18 
REMARK    5  A    between atoms: C18_19  and  C20_21 
REMARK    6  A    between atoms: C20_21  and  O3_23 
ROOT
HETATM    1  C1  UNL     1      -0.052  50.405 -16.373  1.00  0.00     0.052 C 
HETATM    2  C2  UNL     1       0.039  51.072 -17.718  1.00  0.00    -0.013 C 
HETATM    3  C3  UNL     1      -0.404  50.591 -18.905  1.00  0.00    -0.066 C 
HETATM    4  C4  UNL     1      -1.048  49.224 -19.032  1.00  0.00     0.036 C 
HETATM    5  C5  UNL     1      -2.353  49.275 -19.819  1.00  0.00     0.010 C 
HETATM    6  C6  UNL     1      -2.090  49.809 -21.229  1.00  0.00     0.007 C 
HETATM    7  C7  UNL     1      -1.521  51.253 -21.151  1.00  0.00     0.068 C 
HETATM    8  C8  UNL     1      -1.267  51.757 -22.586  1.00  0.00     0.133 C 
HETATM    9  O1  UNL     1      -0.199  52.262 -22.934  1.00  0.00    -0.298 OA
HETATM   10  C9  UNL     1      -2.412  51.631 -23.591  1.00  0.00     0.089 C 
HETATM   11  C10 UNL     1      -2.876  50.170 -23.642  1.00  0.00    -0.026 C 
HETATM   12  C11 UNL     1      -1.698  49.320 -24.220  1.00  0.00     0.016 C 
HETATM   13  C12 UNL     1      -4.170  49.840 -24.452  1.00  0.00    -0.002 C 
HETATM   14  C21 UNL     1      -4.637  48.502 -23.792  1.00  0.00     0.006 C 
HETATM   15  C22 UNL     1      -3.912  48.362 -22.438  1.00  0.00     0.011 C 
HETATM   16  C23 UNL     1      -3.321  49.753 -22.179  1.00  0.00    -0.032 C 
HETATM   17  C24 UNL     1      -4.486  50.616 -21.590  1.00  0.00     0.016 C 
HETATM   18  C25 UNL     1      -0.259  51.353 -20.238  1.00  0.00     0.027 C 
HETATM   19  C26 UNL     1       0.067  52.841 -19.984  1.00  0.00     0.018 C 
HETATM   20  C27 UNL     1       1.184  53.007 -18.976  1.00  0.00     0.084 C 
HETATM   21  C28 UNL     1       0.774  52.383 -17.673  1.00  0.00     0.155 C 
HETATM   22  O4  UNL     1       1.082  52.895 -16.598  1.00  0.00    -0.293 OA
ENDROOT
BRANCH  13  23
HETATM   23  C13 UNL     1      -4.123  49.730 -26.008  1.00  0.00    -0.014 C 
HETATM   24  C14 UNL     1      -4.497  48.327 -26.500  1.00  0.00     0.010 C 
BRANCH  23  25
HETATM   25  C15 UNL     1      -2.706  50.106 -26.527  1.00  0.00     0.008 C 
BRANCH  25  26
HETATM   26  C16 UNL     1      -2.631  51.320 -27.464  1.00  0.00     0.028 C 
BRANCH  26  27
HETATM   27  C17 UNL     1      -1.768  52.427 -26.926  1.00  0.00    -0.013 C 
HETATM   28  C18 UNL     1      -0.421  52.466 -26.895  1.00  0.00     0.008 C 
HETATM   29  C19 UNL     1       0.496  51.376 -27.361  1.00  0.00     0.055 C 
BRANCH  28  30
HETATM   30  C20 UNL     1       0.196  53.691 -26.322  1.00  0.00     0.171 C 
HETATM   31  O2  UNL     1       0.063  54.832 -26.727  1.00  0.00    -0.646 OA
BRANCH  30  32
HETATM   32  O3  UNL     1       0.965  53.424 -25.254  1.00  0.00    -0.773 OA
HETATM   33  H28 UNL     1       1.303  54.305 -24.992  1.00  0.00     0.167 HD
ENDBRANCH  30  32
ENDBRANCH  28  30
ENDBRANCH  26  27
ENDBRANCH  25  26
ENDBRANCH  23  25
ENDBRANCH  13  23
TORSDOF 6
ENDMDL
