MODEL 1
REMARK minimizedAffinity -8.13777065
REMARK CNNscore 0.436002403
REMARK CNNaffinity 6.2615242
REMARK  13 active torsions:
REMARK  status: ('A' for Active; 'I' for Inactive)
REMARK    1  A    between atoms: C19_21  and  O3_22 
REMARK    2  A    between atoms: C19_21  and  C20_23 
REMARK    3  A    between atoms: C20_23  and  C21_25 
REMARK    4  A    between atoms: C21_25  and  O5_26 
REMARK    5  A    between atoms: O5_26  and  C22_27 
REMARK    6  A    between atoms: C22_27  and  C23_29 
REMARK    7  A    between atoms: C23_29  and  C24_30 
REMARK    8  A    between atoms: C24_30  and  C25_31 
REMARK       I    between atoms: C25_31  and  N1_33 
REMARK    9  A    between atoms: N1_33  and  C26_34 
REMARK   10  A    between atoms: C26_34  and  C27_35 
REMARK   11  A    between atoms: C27_35  and  C28_36 
REMARK   12  A    between atoms: C27_35  and  C29_39 
REMARK   13  A    between atoms: C28_36  and  O9_38 
ROOT
HETATM    1  C20 UNL     1       0.841  11.202  16.299  1.00  0.00     0.185 C 
HETATM    2  O4  UNL     1       1.035  12.273  15.720  1.00  0.00    -0.292 OA
ENDROOT
BRANCH   1   3
HETATM    3  C19 UNL     1       0.950   9.826  15.591  1.00  0.00     0.128 C 
HETATM    4  C14 UNL     1      -0.355   9.278  14.924  1.00  0.00     0.005 C 
HETATM    5  C13 UNL     1      -0.747   9.989  13.610  1.00  0.00     0.091 C 
HETATM    6  C15 UNL     1      -1.592   9.316  15.868  1.00  0.00     0.019 C 
HETATM    7  C16 UNL     1       0.020   7.772  14.711  1.00  0.00     0.002 C 
HETATM    8  C12 UNL     1      -0.725   9.005  12.459  1.00  0.00     0.133 C 
HETATM    9  C11 UNL     1       0.632   8.357  12.230  1.00  0.00     0.072 C 
HETATM   10  O2  UNL     1      -1.746   8.722  11.842  1.00  0.00    -0.297 OA
HETATM   11  C2  UNL     1       1.002   7.811  10.800  1.00  0.00    -0.009 C 
HETATM   12  C10 UNL     1       0.851   7.394  13.432  1.00  0.00     0.003 C 
HETATM   13  C1  UNL     1       0.089   8.385   9.693  1.00  0.00     0.021 C 
HETATM   14  C3  UNL     1       2.472   8.241  10.497  1.00  0.00     0.022 C 
HETATM   15  C7  UNL     1       0.954   6.293  10.737  1.00  0.00    -0.067 C 
HETATM   16  C4  UNL     1       3.036   7.655   9.205  1.00  0.00     0.084 C 
HETATM   17  C5  UNL     1       2.792   6.170   9.094  1.00  0.00     0.149 C 
HETATM   18  O1  UNL     1       3.426   5.465   8.312  1.00  0.00    -0.293 OA
HETATM   19  C6  UNL     1       1.754   5.551   9.951  1.00  0.00     0.053 C 
HETATM   20  C8  UNL     1       0.028   5.643  11.720  1.00  0.00     0.035 C 
HETATM   21  C9  UNL     1       0.603   5.894  13.108  1.00  0.00     0.010 C 
HETATM   22  C17 UNL     1       0.780   7.400  15.997  1.00  0.00     0.009 C 
HETATM   23  C18 UNL     1       1.340   8.708  16.575  1.00  0.00     0.047 C 
BRANCH   3  24
HETATM   24  O3  UNL     1       1.971   9.916  14.585  1.00  0.00    -0.381 OA
HETATM   25  H25 UNL     1       2.839   9.910  15.029  1.00  0.00     0.211 HD
ENDBRANCH   3  24
ENDBRANCH   1   3
BRANCH   1  26
HETATM   26  C21 UNL     1       0.517  11.198  17.791  1.00  0.00     0.260 C 
BRANCH  26  27
HETATM   27  O5  UNL     1       1.703  11.372  18.563  1.00  0.00    -0.314 OA
BRANCH  27  28
HETATM   28  C22 UNL     1       1.638  10.831  19.811  1.00  0.00     0.259 C 
HETATM   29  O6  UNL     1       0.609  10.473  20.365  1.00  0.00    -0.265 OA
BRANCH  28  30
HETATM   30  C23 UNL     1       3.012  10.819  20.435  1.00  0.00     0.120 C 
BRANCH  30  31
HETATM   31  C24 UNL     1       3.125   9.737  21.501  1.00  0.00     0.112 C 
BRANCH  31  32
HETATM   32  C25 UNL     1       4.135  10.111  22.568  1.00  0.00     0.218 C 
HETATM   33  O7  UNL     1       4.149   9.609  23.688  1.00  0.00    -0.274 OA
HETATM   34  N1  UNL     1       5.042  11.057  22.142  1.00  0.00    -0.360 N 
HETATM   35  H32 UNL     1       4.785  11.626  21.343  1.00  0.00     0.162 HD
BRANCH  34  36
HETATM   36  C26 UNL     1       5.999  11.650  23.068  1.00  0.00     0.142 C 
BRANCH  36  37
HETATM   37  C27 UNL     1       7.068  12.513  22.369  1.00  0.00     0.134 C 
BRANCH  37  38
HETATM   38  C28 UNL     1       8.437  11.843  22.416  1.00  0.00     0.150 C 
HETATM   39  O8  UNL     1       9.316  11.871  21.569  1.00  0.00    -0.649 OA
BRANCH  38  40
HETATM   40  O9  UNL     1       8.636  11.090  23.522  1.00  0.00    -0.776 OA
HETATM   41  H36 UNL     1       9.510  10.678  23.347  1.00  0.00     0.167 HD
ENDBRANCH  38  40
ENDBRANCH  37  38
BRANCH  37  42
HETATM   42  C29 UNL     1       7.071  13.911  22.978  1.00  0.00    -0.042 A 
HETATM   43  C30 UNL     1       5.867  14.626  23.080  1.00  0.00     0.008 A 
HETATM   44  C31 UNL     1       5.841  15.897  23.658  1.00  0.00     0.001 A 
HETATM   45  C32 UNL     1       7.015  16.469  24.145  1.00  0.00     0.000 A 
HETATM   46  C33 UNL     1       8.216  15.766  24.059  1.00  0.00     0.001 A 
HETATM   47  C34 UNL     1       8.245  14.495  23.484  1.00  0.00     0.008 A 
ENDBRANCH  37  42
ENDBRANCH  36  37
ENDBRANCH  34  36
ENDBRANCH  31  32
ENDBRANCH  30  31
ENDBRANCH  28  30
ENDBRANCH  27  28
ENDBRANCH  26  27
ENDBRANCH   1  26
TORSDOF 13
ENDMDL
MODEL 2
REMARK minimizedAffinity -8.18054008
REMARK CNNscore 0.424491048
REMARK CNNaffinity 6.89796209
REMARK  13 active torsions:
REMARK  status: ('A' for Active; 'I' for Inactive)
REMARK    1  A    between atoms: C19_21  and  O3_22 
REMARK    2  A    between atoms: C19_21  and  C20_23 
REMARK    3  A    between atoms: C20_23  and  C21_25 
REMARK    4  A    between atoms: C21_25  and  O5_26 
REMARK    5  A    between atoms: O5_26  and  C22_27 
REMARK    6  A    between atoms: C22_27  and  C23_29 
REMARK    7  A    between atoms: C23_29  and  C24_30 
REMARK    8  A    between atoms: C24_30  and  C25_31 
REMARK       I    between atoms: C25_31  and  N1_33 
REMARK    9  A    between atoms: N1_33  and  C26_34 
REMARK   10  A    between atoms: C26_34  and  C27_35 
REMARK   11  A    between atoms: C27_35  and  C28_36 
REMARK   12  A    between atoms: C27_35  and  C29_39 
REMARK   13  A    between atoms: C28_36  and  O9_38 
ROOT
HETATM    1  C20 UNL     1       1.233   7.208  14.822  1.00  0.00     0.185 C 
HETATM    2  O4  UNL     1       1.694   6.215  14.256  1.00  0.00    -0.292 OA
ENDROOT
BRANCH   1   3
HETATM    3  C19 UNL     1      -0.201   7.740  14.563  1.00  0.00     0.128 C 
HETATM    4  C14 UNL     1      -0.873   7.310  13.216  1.00  0.00     0.005 C 
HETATM    5  C13 UNL     1      -1.347   5.841  13.180  1.00  0.00     0.091 C 
HETATM    6  C15 UNL     1       0.035   7.545  11.974  1.00  0.00     0.019 C 
HETATM    7  C16 UNL     1      -2.056   8.333  13.127  1.00  0.00     0.002 C 
HETATM    8  C12 UNL     1      -2.850   5.784  12.998  1.00  0.00     0.133 C 
HETATM    9  C11 UNL     1      -3.629   6.478  14.105  1.00  0.00     0.072 C 
HETATM   10  O2  UNL     1      -3.353   5.284  11.998  1.00  0.00    -0.297 OA
HETATM   11  C2  UNL     1      -5.108   6.032  14.413  1.00  0.00    -0.009 C 
HETATM   12  C10 UNL     1      -3.378   8.001  13.910  1.00  0.00     0.003 C 
HETATM   13  C1  UNL     1      -5.443   4.644  13.822  1.00  0.00     0.021 C 
HETATM   14  C3  UNL     1      -5.265   5.957  15.963  1.00  0.00     0.022 C 
HETATM   15  C7  UNL     1      -6.127   7.039  13.905  1.00  0.00    -0.067 C 
HETATM   16  C4  UNL     1      -6.692   5.685  16.431  1.00  0.00     0.084 C 
HETATM   17  C5  UNL     1      -7.699   6.581  15.752  1.00  0.00     0.149 C 
HETATM   18  O1  UNL     1      -8.829   6.746  16.204  1.00  0.00    -0.293 OA
HETATM   19  C6  UNL     1      -7.308   7.275  14.503  1.00  0.00     0.053 C 
HETATM   20  C8  UNL     1      -5.678   7.870  12.741  1.00  0.00     0.035 C 
HETATM   21  C9  UNL     1      -4.553   8.768  13.241  1.00  0.00     0.010 C 
HETATM   22  C17 UNL     1      -1.436   9.654  13.619  1.00  0.00     0.009 C 
HETATM   23  C18 UNL     1      -0.236   9.277  14.502  1.00  0.00     0.047 C 
BRANCH   3  24
HETATM   24  O3  UNL     1      -1.042   7.314  15.646  1.00  0.00    -0.381 OA
HETATM   25  H25 UNL     1      -0.834   7.857  16.428  1.00  0.00     0.211 HD
ENDBRANCH   3  24
ENDBRANCH   1   3
BRANCH   1  26
HETATM   26  C21 UNL     1       2.077   7.945  15.859  1.00  0.00     0.260 C 
BRANCH  26  27
HETATM   27  O5  UNL     1       3.343   7.309  16.019  1.00  0.00    -0.314 OA
BRANCH  27  28
HETATM   28  C22 UNL     1       4.360   7.918  15.347  1.00  0.00     0.259 C 
HETATM   29  O6  UNL     1       5.373   7.359  14.955  1.00  0.00    -0.265 OA
BRANCH  28  30
HETATM   30  C23 UNL     1       4.081   9.397  15.232  1.00  0.00     0.120 C 
BRANCH  30  31
HETATM   31  C24 UNL     1       5.111  10.085  14.344  1.00  0.00     0.112 C 
BRANCH  31  32
HETATM   32  C25 UNL     1       4.767   9.937  12.876  1.00  0.00     0.218 C 
HETATM   33  O7  UNL     1       5.120  10.739  12.017  1.00  0.00    -0.274 OA
HETATM   34  N1  UNL     1       4.033   8.802  12.607  1.00  0.00    -0.360 N 
HETATM   35  H32 UNL     1       3.535   8.372  13.380  1.00  0.00     0.162 HD
BRANCH  34  36
HETATM   36  C26 UNL     1       3.482   8.561  11.280  1.00  0.00     0.142 C 
BRANCH  36  37
HETATM   37  C27 UNL     1       3.833   7.169  10.718  1.00  0.00     0.134 C 
BRANCH  37  38
HETATM   38  C28 UNL     1       5.338   6.924  10.745  1.00  0.00     0.150 C 
HETATM   39  O8  UNL     1       6.235   7.746  10.635  1.00  0.00    -0.649 OA
BRANCH  38  40
HETATM   40  O9  UNL     1       5.674   5.617  10.849  1.00  0.00    -0.776 OA
HETATM   41  H36 UNL     1       6.653   5.641  10.768  1.00  0.00     0.167 HD
ENDBRANCH  38  40
ENDBRANCH  37  38
BRANCH  37  42
HETATM   42  C29 UNL     1       3.233   7.015   9.324  1.00  0.00    -0.042 A 
HETATM   43  C30 UNL     1       2.766   8.150   8.642  1.00  0.00     0.008 A 
HETATM   44  C31 UNL     1       2.236   8.038   7.355  1.00  0.00     0.001 A 
HETATM   45  C32 UNL     1       2.169   6.794   6.731  1.00  0.00     0.000 A 
HETATM   46  C33 UNL     1       2.638   5.660   7.394  1.00  0.00     0.001 A 
HETATM   47  C34 UNL     1       3.170   5.769   8.680  1.00  0.00     0.008 A 
ENDBRANCH  37  42
ENDBRANCH  36  37
ENDBRANCH  34  36
ENDBRANCH  31  32
ENDBRANCH  30  31
ENDBRANCH  28  30
ENDBRANCH  27  28
ENDBRANCH  26  27
ENDBRANCH   1  26
TORSDOF 13
ENDMDL
MODEL 3
REMARK minimizedAffinity -8.80171394
REMARK CNNscore 0.364002764
REMARK CNNaffinity 6.94501066
REMARK  13 active torsions:
REMARK  status: ('A' for Active; 'I' for Inactive)
REMARK    1  A    between atoms: C19_21  and  O3_22 
REMARK    2  A    between atoms: C19_21  and  C20_23 
REMARK    3  A    between atoms: C20_23  and  C21_25 
REMARK    4  A    between atoms: C21_25  and  O5_26 
REMARK    5  A    between atoms: O5_26  and  C22_27 
REMARK    6  A    between atoms: C22_27  and  C23_29 
REMARK    7  A    between atoms: C23_29  and  C24_30 
REMARK    8  A    between atoms: C24_30  and  C25_31 
REMARK       I    between atoms: C25_31  and  N1_33 
REMARK    9  A    between atoms: N1_33  and  C26_34 
REMARK   10  A    between atoms: C26_34  and  C27_35 
REMARK   11  A    between atoms: C27_35  and  C28_36 
REMARK   12  A    between atoms: C27_35  and  C29_39 
REMARK   13  A    between atoms: C28_36  and  O9_38 
ROOT
HETATM    1  C20 UNL     1       0.456   5.502  11.350  1.00  0.00     0.185 C 
HETATM    2  O4  UNL     1      -0.135   4.769  10.555  1.00  0.00    -0.292 OA
ENDROOT
BRANCH   1   3
HETATM    3  C19 UNL     1       1.757   6.266  10.989  1.00  0.00     0.128 C 
HETATM    4  C14 UNL     1       1.716   7.824  11.135  1.00  0.00     0.005 C 
HETATM    5  C13 UNL     1       1.754   8.329  12.593  1.00  0.00     0.091 C 
HETATM    6  C15 UNL     1       0.483   8.474  10.442  1.00  0.00     0.019 C 
HETATM    7  C16 UNL     1       2.983   8.240  10.314  1.00  0.00     0.002 C 
HETATM    8  C12 UNL     1       2.999   9.161  12.823  1.00  0.00     0.133 C 
HETATM    9  C11 UNL     1       4.296   8.407  12.577  1.00  0.00     0.072 C 
HETATM   10  O2  UNL     1       2.926  10.353  13.105  1.00  0.00    -0.297 OA
HETATM   11  C2  UNL     1       5.615   8.869  13.305  1.00  0.00    -0.009 C 
HETATM   12  C10 UNL     1       4.378   8.194  11.038  1.00  0.00     0.003 C 
HETATM   13  C1  UNL     1       5.332   9.785  14.516  1.00  0.00     0.021 C 
HETATM   14  C3  UNL     1       6.344   7.587  13.817  1.00  0.00     0.022 C 
HETATM   15  C7  UNL     1       6.569   9.583  12.361  1.00  0.00    -0.067 C 
HETATM   16  C4  UNL     1       7.723   7.854  14.415  1.00  0.00     0.084 C 
HETATM   17  C5  UNL     1       8.571   8.734  13.529  1.00  0.00     0.149 C 
HETATM   18  O1  UNL     1       9.790   8.805  13.663  1.00  0.00    -0.293 OA
HETATM   19  C6  UNL     1       7.908   9.536  12.474  1.00  0.00     0.053 C 
HETATM   20  C8  UNL     1       5.922  10.259  11.190  1.00  0.00     0.035 C 
HETATM   21  C9  UNL     1       5.347   9.162  10.304  1.00  0.00     0.010 C 
HETATM   22  C17 UNL     1       2.958   7.297   9.098  1.00  0.00     0.009 C 
HETATM   23  C18 UNL     1       2.149   6.059   9.515  1.00  0.00     0.047 C 
BRANCH   3  24
HETATM   24  O3  UNL     1       2.820   5.761  11.811  1.00  0.00    -0.381 OA
HETATM   25  H25 UNL     1       3.079   4.884  11.473  1.00  0.00     0.211 HD
ENDBRANCH   3  24
ENDBRANCH   1   3
BRANCH   1  26
HETATM   26  C21 UNL     1      -0.118   5.718  12.748  1.00  0.00     0.260 C 
BRANCH  26  27
HETATM   27  O5  UNL     1      -1.015   4.664  13.090  1.00  0.00    -0.314 OA
BRANCH  27  28
HETATM   28  C22 UNL     1      -2.300   4.878  12.691  1.00  0.00     0.259 C 
HETATM   29  O6  UNL     1      -2.842   5.971  12.634  1.00  0.00    -0.265 OA
BRANCH  28  30
HETATM   30  C23 UNL     1      -2.975   3.556  12.412  1.00  0.00     0.120 C 
BRANCH  30  31
HETATM   31  C24 UNL     1      -3.952   3.671  11.249  1.00  0.00     0.112 C 
BRANCH  31  32
HETATM   32  C25 UNL     1      -5.346   3.230  11.649  1.00  0.00     0.218 C 
HETATM   33  O7  UNL     1      -5.918   2.267  11.146  1.00  0.00    -0.274 OA
HETATM   34  N1  UNL     1      -5.892   4.010  12.645  1.00  0.00    -0.360 N 
HETATM   35  H32 UNL     1      -5.500   4.935  12.783  1.00  0.00     0.162 HD
BRANCH  34  36
HETATM   36  C26 UNL     1      -7.278   3.835  13.062  1.00  0.00     0.142 C 
BRANCH  36  37
HETATM   37  C27 UNL     1      -7.858   5.066  13.785  1.00  0.00     0.134 C 
BRANCH  37  38
HETATM   38  C28 UNL     1      -8.938   5.742  12.947  1.00  0.00     0.150 C 
HETATM   39  O8  UNL     1      -8.977   5.869  11.733  1.00  0.00    -0.649 OA
BRANCH  38  40
HETATM   40  O9  UNL     1      -9.923   6.305  13.684  1.00  0.00    -0.776 OA
HETATM   41  H36 UNL     1     -10.469   6.755  13.002  1.00  0.00     0.167 HD
ENDBRANCH  38  40
ENDBRANCH  37  38
BRANCH  37  42
HETATM   42  C29 UNL     1      -6.724   6.013  14.167  1.00  0.00    -0.042 A 
HETATM   43  C30 UNL     1      -5.929   5.724  15.288  1.00  0.00     0.008 A 
HETATM   44  C31 UNL     1      -4.869   6.562  15.643  1.00  0.00     0.001 A 
HETATM   45  C32 UNL     1      -4.588   7.695  14.881  1.00  0.00     0.000 A 
HETATM   46  C33 UNL     1      -5.364   7.988  13.761  1.00  0.00     0.001 A 
HETATM   47  C34 UNL     1      -6.423   7.151  13.403  1.00  0.00     0.008 A 
ENDBRANCH  37  42
ENDBRANCH  36  37
ENDBRANCH  34  36
ENDBRANCH  31  32
ENDBRANCH  30  31
ENDBRANCH  28  30
ENDBRANCH  27  28
ENDBRANCH  26  27
ENDBRANCH   1  26
TORSDOF 13
ENDMDL
MODEL 4
REMARK minimizedAffinity -8.47343826
REMARK CNNscore 0.362247825
REMARK CNNaffinity 6.46005058
REMARK  13 active torsions:
REMARK  status: ('A' for Active; 'I' for Inactive)
REMARK    1  A    between atoms: C19_21  and  O3_22 
REMARK    2  A    between atoms: C19_21  and  C20_23 
REMARK    3  A    between atoms: C20_23  and  C21_25 
REMARK    4  A    between atoms: C21_25  and  O5_26 
REMARK    5  A    between atoms: O5_26  and  C22_27 
REMARK    6  A    between atoms: C22_27  and  C23_29 
REMARK    7  A    between atoms: C23_29  and  C24_30 
REMARK    8  A    between atoms: C24_30  and  C25_31 
REMARK       I    between atoms: C25_31  and  N1_33 
REMARK    9  A    between atoms: N1_33  and  C26_34 
REMARK   10  A    between atoms: C26_34  and  C27_35 
REMARK   11  A    between atoms: C27_35  and  C28_36 
REMARK   12  A    between atoms: C27_35  and  C29_39 
REMARK   13  A    between atoms: C28_36  and  O9_38 
ROOT
HETATM    1  C20 UNL     1      -5.196   8.055  13.924  1.00  0.00     0.185 C 
HETATM    2  O4  UNL     1      -5.767   7.261  13.173  1.00  0.00    -0.292 OA
ENDROOT
BRANCH   1   3
HETATM    3  C19 UNL     1      -3.670   8.325  13.866  1.00  0.00     0.128 C 
HETATM    4  C14 UNL     1      -2.739   7.197  14.424  1.00  0.00     0.005 C 
HETATM    5  C13 UNL     1      -2.615   5.961  13.507  1.00  0.00     0.091 C 
HETATM    6  C15 UNL     1      -3.158   6.697  15.837  1.00  0.00     0.019 C 
HETATM    7  C16 UNL     1      -1.387   7.971  14.588  1.00  0.00     0.002 C 
HETATM    8  C12 UNL     1      -1.178   5.790  13.057  1.00  0.00     0.133 C 
HETATM    9  C11 UNL     1      -0.631   6.979  12.283  1.00  0.00     0.072 C 
HETATM   10  O2  UNL     1      -0.523   4.803  13.376  1.00  0.00    -0.297 OA
HETATM   11  C2  UNL     1       0.550   6.766  11.262  1.00  0.00    -0.009 C 
HETATM   12  C10 UNL     1      -0.469   8.125  13.322  1.00  0.00     0.003 C 
HETATM   13  C1  UNL     1       0.729   5.284  10.865  1.00  0.00     0.021 C 
HETATM   14  C3  UNL     1       0.215   7.583   9.976  1.00  0.00     0.022 C 
HETATM   15  C7  UNL     1       1.871   7.292  11.799  1.00  0.00    -0.067 C 
HETATM   16  C4  UNL     1       1.340   7.605   8.943  1.00  0.00     0.084 C 
HETATM   17  C5  UNL     1       2.676   7.943   9.559  1.00  0.00     0.149 C 
HETATM   18  O1  UNL     1       3.627   8.320   8.877  1.00  0.00    -0.293 OA
HETATM   19  C6  UNL     1       2.841   7.809  11.025  1.00  0.00     0.053 C 
HETATM   20  C8  UNL     1       1.986   7.321  13.294  1.00  0.00     0.035 C 
HETATM   21  C9  UNL     1       0.992   8.359  13.798  1.00  0.00     0.010 C 
HETATM   22  C17 UNL     1      -1.816   9.346  15.132  1.00  0.00     0.009 C 
HETATM   23  C18 UNL     1      -3.277   9.555  14.704  1.00  0.00     0.047 C 
BRANCH   3  24
HETATM   24  O3  UNL     1      -3.308   8.578  12.500  1.00  0.00    -0.381 OA
HETATM   25  H25 UNL     1      -3.614   9.472  12.263  1.00  0.00     0.211 HD
ENDBRANCH   3  24
ENDBRANCH   1   3
BRANCH   1  26
HETATM   26  C21 UNL     1      -6.011   8.852  14.940  1.00  0.00     0.260 C 
BRANCH  26  27
HETATM   27  O5  UNL     1      -6.906   7.996  15.647  1.00  0.00    -0.314 OA
BRANCH  27  28
HETATM   28  C22 UNL     1      -8.223   8.243  15.398  1.00  0.00     0.259 C 
HETATM   29  O6  UNL     1      -8.713   9.354  15.260  1.00  0.00    -0.265 OA
BRANCH  28  30
HETATM   30  C23 UNL     1      -8.994   6.945  15.401  1.00  0.00     0.120 C 
BRANCH  30  31
HETATM   31  C24 UNL     1      -9.498   6.600  14.005  1.00  0.00     0.112 C 
BRANCH  31  32
HETATM   32  C25 UNL     1     -10.897   7.133  13.772  1.00  0.00     0.218 C 
HETATM   33  O7  UNL     1     -11.167   7.960  12.906  1.00  0.00    -0.274 OA
HETATM   34  N1  UNL     1     -11.832   6.579  14.619  1.00  0.00    -0.360 N 
HETATM   35  H32 UNL     1     -11.494   6.155  15.476  1.00  0.00     0.162 HD
BRANCH  34  36
HETATM   36  C26 UNL     1     -13.204   7.070  14.647  1.00  0.00     0.142 C 
BRANCH  36  37
HETATM   37  C27 UNL     1     -14.161   6.257  13.753  1.00  0.00     0.134 C 
BRANCH  37  38
HETATM   38  C28 UNL     1     -14.756   7.122  12.647  1.00  0.00     0.150 C 
HETATM   39  O8  UNL     1     -14.431   8.253  12.322  1.00  0.00    -0.649 OA
BRANCH  38  40
HETATM   40  O9  UNL     1     -15.804   6.547  12.013  1.00  0.00    -0.776 OA
HETATM   41  H36 UNL     1     -16.105   7.261  11.408  1.00  0.00     0.167 HD
ENDBRANCH  38  40
ENDBRANCH  37  38
BRANCH  37  42
HETATM   42  C29 UNL     1     -15.224   5.589  14.620  1.00  0.00    -0.042 A 
HETATM   43  C30 UNL     1     -15.351   4.191  14.608  1.00  0.00     0.008 A 
HETATM   44  C31 UNL     1     -16.300   3.556  15.412  1.00  0.00     0.001 A 
HETATM   45  C32 UNL     1     -17.130   4.308  16.242  1.00  0.00     0.000 A 
HETATM   46  C33 UNL     1     -17.007   5.696  16.272  1.00  0.00     0.001 A 
HETATM   47  C34 UNL     1     -16.059   6.334  15.470  1.00  0.00     0.008 A 
ENDBRANCH  37  42
ENDBRANCH  36  37
ENDBRANCH  34  36
ENDBRANCH  31  32
ENDBRANCH  30  31
ENDBRANCH  28  30
ENDBRANCH  27  28
ENDBRANCH  26  27
ENDBRANCH   1  26
TORSDOF 13
ENDMDL
MODEL 5
REMARK minimizedAffinity -7.99329853
REMARK CNNscore 0.325206131
REMARK CNNaffinity 5.93903017
REMARK  13 active torsions:
REMARK  status: ('A' for Active; 'I' for Inactive)
REMARK    1  A    between atoms: C19_21  and  O3_22 
REMARK    2  A    between atoms: C19_21  and  C20_23 
REMARK    3  A    between atoms: C20_23  and  C21_25 
REMARK    4  A    between atoms: C21_25  and  O5_26 
REMARK    5  A    between atoms: O5_26  and  C22_27 
REMARK    6  A    between atoms: C22_27  and  C23_29 
REMARK    7  A    between atoms: C23_29  and  C24_30 
REMARK    8  A    between atoms: C24_30  and  C25_31 
REMARK       I    between atoms: C25_31  and  N1_33 
REMARK    9  A    between atoms: N1_33  and  C26_34 
REMARK   10  A    between atoms: C26_34  and  C27_35 
REMARK   11  A    between atoms: C27_35  and  C28_36 
REMARK   12  A    between atoms: C27_35  and  C29_39 
REMARK   13  A    between atoms: C28_36  and  O9_38 
ROOT
HETATM    1  C20 UNL     1       9.507  11.388  15.423  1.00  0.00     0.185 C 
HETATM    2  O4  UNL     1       9.089  12.313  16.122  1.00  0.00    -0.292 OA
ENDROOT
BRANCH   1   3
HETATM    3  C19 UNL     1      11.018  11.106  15.209  1.00  0.00     0.128 C 
HETATM    4  C14 UNL     1      11.818  12.172  14.389  1.00  0.00     0.005 C 
HETATM    5  C13 UNL     1      12.111  13.480  15.157  1.00  0.00     0.091 C 
HETATM    6  C15 UNL     1      11.133  12.557  13.046  1.00  0.00     0.019 C 
HETATM    7  C16 UNL     1      13.117  11.372  14.035  1.00  0.00     0.002 C 
HETATM    8  C12 UNL     1      13.606  13.672  15.306  1.00  0.00     0.133 C 
HETATM    9  C11 UNL     1      14.298  12.546  16.060  1.00  0.00     0.072 C 
HETATM   10  O2  UNL     1      14.182  14.621  14.786  1.00  0.00    -0.297 OA
HETATM   11  C2  UNL     1      15.653  12.830  16.812  1.00  0.00    -0.009 C 
HETATM   12  C10 UNL     1      14.263  11.315  15.109  1.00  0.00     0.003 C 
HETATM   13  C1  UNL     1      15.897  14.339  17.041  1.00  0.00     0.021 C 
HETATM   14  C3  UNL     1      15.575  12.128  18.203  1.00  0.00     0.022 C 
HETATM   15  C7  UNL     1      16.848  12.245  16.077  1.00  0.00    -0.067 C 
HETATM   16  C4  UNL     1      16.878  12.180  18.998  1.00  0.00     0.084 C 
HETATM   17  C5  UNL     1      18.072  11.777  18.169  1.00  0.00     0.149 C 
HETATM   18  O1  UNL     1      19.138  11.447  18.684  1.00  0.00    -0.293 OA
HETATM   19  C6  UNL     1      17.951  11.784  16.692  1.00  0.00     0.053 C 
HETATM   20  C8  UNL     1      16.674  12.090  14.597  1.00  0.00     0.035 C 
HETATM   21  C9  UNL     1      15.606  11.025  14.382  1.00  0.00     0.010 C 
HETATM   22  C17 UNL     1      12.598   9.961  13.702  1.00  0.00     0.009 C 
HETATM   23  C18 UNL     1      11.248   9.806  14.418  1.00  0.00     0.047 C 
BRANCH   3  24
HETATM   24  O3  UNL     1      11.637  10.965  16.497  1.00  0.00    -0.381 OA
HETATM   25  H25 UNL     1      11.387  10.097  16.863  1.00  0.00     0.211 HD
ENDBRANCH   3  24
ENDBRANCH   1   3
BRANCH   1  26
HETATM   26  C21 UNL     1       8.516  10.436  14.759  1.00  0.00     0.260 C 
BRANCH  26  27
HETATM   27  O5  UNL     1       7.605   9.910  15.720  1.00  0.00    -0.314 OA
BRANCH  27  28
HETATM   28  C22 UNL     1       6.763   8.959  15.226  1.00  0.00     0.259 C 
HETATM   29  O6  UNL     1       5.627   8.754  15.626  1.00  0.00    -0.265 OA
BRANCH  28  30
HETATM   30  C23 UNL     1       7.475   8.148  14.170  1.00  0.00     0.120 C 
BRANCH  30  31
HETATM   31  C24 UNL     1       6.665   6.918  13.780  1.00  0.00     0.112 C 
BRANCH  31  32
HETATM   32  C25 UNL     1       6.451   6.845  12.282  1.00  0.00     0.218 C 
HETATM   33  O7  UNL     1       7.336   7.072  11.463  1.00  0.00    -0.274 OA
HETATM   34  N1  UNL     1       5.166   6.482  11.939  1.00  0.00    -0.360 N 
HETATM   35  H32 UNL     1       4.441   6.611  12.636  1.00  0.00     0.162 HD
BRANCH  34  36
HETATM   36  C26 UNL     1       4.727   6.500  10.549  1.00  0.00     0.142 C 
BRANCH  36  37
HETATM   37  C27 UNL     1       3.441   5.685  10.306  1.00  0.00     0.134 C 
BRANCH  37  38
HETATM   38  C28 UNL     1       3.750   4.353   9.629  1.00  0.00     0.150 C 
HETATM   39  O8  UNL     1       4.592   4.122   8.775  1.00  0.00    -0.649 OA
BRANCH  38  40
HETATM   40  O9  UNL     1       2.929   3.348  10.011  1.00  0.00    -0.776 OA
HETATM   41  H36 UNL     1       3.211   2.608   9.428  1.00  0.00     0.167 HD
ENDBRANCH  38  40
ENDBRANCH  37  38
BRANCH  37  42
HETATM   42  C29 UNL     1       2.442   6.530   9.523  1.00  0.00    -0.042 A 
HETATM   43  C30 UNL     1       1.352   7.110  10.191  1.00  0.00     0.008 A 
HETATM   44  C31 UNL     1       0.438   7.910   9.500  1.00  0.00     0.001 A 
HETATM   45  C32 UNL     1       0.604   8.144   8.136  1.00  0.00     0.000 A 
HETATM   46  C33 UNL     1       1.688   7.582   7.464  1.00  0.00     0.001 A 
HETATM   47  C34 UNL     1       2.604   6.784   8.151  1.00  0.00     0.008 A 
ENDBRANCH  37  42
ENDBRANCH  36  37
ENDBRANCH  34  36
ENDBRANCH  31  32
ENDBRANCH  30  31
ENDBRANCH  28  30
ENDBRANCH  27  28
ENDBRANCH  26  27
ENDBRANCH   1  26
TORSDOF 13
ENDMDL
MODEL 6
REMARK minimizedAffinity -7.83332396
REMARK CNNscore 0.307787031
REMARK CNNaffinity 5.76092958
REMARK  13 active torsions:
REMARK  status: ('A' for Active; 'I' for Inactive)
REMARK    1  A    between atoms: C19_21  and  O3_22 
REMARK    2  A    between atoms: C19_21  and  C20_23 
REMARK    3  A    between atoms: C20_23  and  C21_25 
REMARK    4  A    between atoms: C21_25  and  O5_26 
REMARK    5  A    between atoms: O5_26  and  C22_27 
REMARK    6  A    between atoms: C22_27  and  C23_29 
REMARK    7  A    between atoms: C23_29  and  C24_30 
REMARK    8  A    between atoms: C24_30  and  C25_31 
REMARK       I    between atoms: C25_31  and  N1_33 
REMARK    9  A    between atoms: N1_33  and  C26_34 
REMARK   10  A    between atoms: C26_34  and  C27_35 
REMARK   11  A    between atoms: C27_35  and  C28_36 
REMARK   12  A    between atoms: C27_35  and  C29_39 
REMARK   13  A    between atoms: C28_36  and  O9_38 
ROOT
HETATM    1  C20 UNL     1       7.871  13.355  16.797  1.00  0.00     0.185 C 
HETATM    2  O4  UNL     1       7.192  14.193  16.201  1.00  0.00    -0.292 OA
ENDROOT
BRANCH   1   3
HETATM    3  C19 UNL     1       7.589  12.922  18.259  1.00  0.00     0.128 C 
HETATM    4  C14 UNL     1       6.875  13.973  19.174  1.00  0.00     0.005 C 
HETATM    5  C13 UNL     1       5.372  14.159  18.877  1.00  0.00     0.091 C 
HETATM    6  C15 UNL     1       7.543  15.378  19.133  1.00  0.00     0.019 C 
HETATM    7  C16 UNL     1       7.144  13.372  20.595  1.00  0.00     0.002 C 
HETATM    8  C12 UNL     1       4.550  13.765  20.087  1.00  0.00     0.133 C 
HETATM    9  C11 UNL     1       4.745  12.320  20.517  1.00  0.00     0.072 C 
HETATM   10  O2  UNL     1       3.862  14.585  20.685  1.00  0.00    -0.297 OA
HETATM   11  C2  UNL     1       3.602  11.583  21.313  1.00  0.00    -0.009 C 
HETATM   12  C10 UNL     1       6.180  12.244  21.112  1.00  0.00     0.003 C 
HETATM   13  C1  UNL     1       2.239  12.302  21.191  1.00  0.00     0.021 C 
HETATM   14  C3  UNL     1       3.458  10.150  20.713  1.00  0.00     0.022 C 
HETATM   15  C7  UNL     1       3.942  11.423  22.786  1.00  0.00    -0.067 C 
HETATM   16  C4  UNL     1       2.490   9.250  21.479  1.00  0.00     0.084 C 
HETATM   17  C5  UNL     1       2.741   9.275  22.966  1.00  0.00     0.149 C 
HETATM   18  O1  UNL     1       2.302   8.402  23.712  1.00  0.00    -0.293 OA
HETATM   19  C6  UNL     1       3.537  10.385  23.539  1.00  0.00     0.053 C 
HETATM   20  C8  UNL     1       4.885  12.449  23.338  1.00  0.00     0.035 C 
HETATM   21  C9  UNL     1       6.233  12.224  22.666  1.00  0.00     0.010 C 
HETATM   22  C17 UNL     1       8.596  12.866  20.510  1.00  0.00     0.009 C 
HETATM   23  C18 UNL     1       8.890  12.615  19.023  1.00  0.00     0.047 C 
BRANCH   3  24
HETATM   24  O3  UNL     1       6.792  11.729  18.231  1.00  0.00    -0.381 OA
HETATM   25  H25 UNL     1       7.366  10.983  17.976  1.00  0.00     0.211 HD
ENDBRANCH   3  24
ENDBRANCH   1   3
BRANCH   1  26
HETATM   26  C21 UNL     1       9.025  12.666  16.072  1.00  0.00     0.260 C 
BRANCH  26  27
HETATM   27  O5  UNL     1       8.745  11.280  15.888  1.00  0.00    -0.314 OA
BRANCH  27  28
HETATM   28  C22 UNL     1       8.908  10.847  14.607  1.00  0.00     0.259 C 
HETATM   29  O6  UNL     1       9.985  10.714  14.045  1.00  0.00    -0.265 OA
BRANCH  28  30
HETATM   30  C23 UNL     1       7.559  10.635  13.965  1.00  0.00     0.120 C 
BRANCH  30  31
HETATM   31  C24 UNL     1       7.696  10.332  12.478  1.00  0.00     0.112 C 
BRANCH  31  32
HETATM   32  C25 UNL     1       6.359   9.987  11.854  1.00  0.00     0.218 C 
HETATM   33  O7  UNL     1       5.857  10.631  10.938  1.00  0.00    -0.274 OA
HETATM   34  N1  UNL     1       5.778   8.869  12.412  1.00  0.00    -0.360 N 
HETATM   35  H32 UNL     1       6.092   8.589  13.335  1.00  0.00     0.162 HD
BRANCH  34  36
HETATM   36  C26 UNL     1       4.426   8.465  12.047  1.00  0.00     0.142 C 
BRANCH  36  37
HETATM   37  C27 UNL     1       4.364   7.079  11.376  1.00  0.00     0.134 C 
BRANCH  37  38
HETATM   38  C28 UNL     1       5.746   6.441  11.295  1.00  0.00     0.150 C 
HETATM   39  O8  UNL     1       6.467   6.330  10.315  1.00  0.00    -0.649 OA
BRANCH  38  40
HETATM   40  O9  UNL     1       6.160   5.894  12.462  1.00  0.00    -0.776 OA
HETATM   41  H36 UNL     1       7.008   5.466  12.208  1.00  0.00     0.167 HD
ENDBRANCH  38  40
ENDBRANCH  37  38
BRANCH  37  42
HETATM   42  C29 UNL     1       3.687   7.203  10.014  1.00  0.00    -0.042 A 
HETATM   43  C30 UNL     1       3.694   8.439   9.347  1.00  0.00     0.008 A 
HETATM   44  C31 UNL     1       3.103   8.570   8.088  1.00  0.00     0.001 A 
HETATM   45  C32 UNL     1       2.505   7.469   7.478  1.00  0.00     0.000 A 
HETATM   46  C33 UNL     1       2.500   6.235   8.124  1.00  0.00     0.001 A 
HETATM   47  C34 UNL     1       3.091   6.100   9.382  1.00  0.00     0.008 A 
ENDBRANCH  37  42
ENDBRANCH  36  37
ENDBRANCH  34  36
ENDBRANCH  31  32
ENDBRANCH  30  31
ENDBRANCH  28  30
ENDBRANCH  27  28
ENDBRANCH  26  27
ENDBRANCH   1  26
TORSDOF 13
ENDMDL
MODEL 7
REMARK minimizedAffinity -8.09437656
REMARK CNNscore 0.284460902
REMARK CNNaffinity 6.24610901
REMARK  13 active torsions:
REMARK  status: ('A' for Active; 'I' for Inactive)
REMARK    1  A    between atoms: C19_21  and  O3_22 
REMARK    2  A    between atoms: C19_21  and  C20_23 
REMARK    3  A    between atoms: C20_23  and  C21_25 
REMARK    4  A    between atoms: C21_25  and  O5_26 
REMARK    5  A    between atoms: O5_26  and  C22_27 
REMARK    6  A    between atoms: C22_27  and  C23_29 
REMARK    7  A    between atoms: C23_29  and  C24_30 
REMARK    8  A    between atoms: C24_30  and  C25_31 
REMARK       I    between atoms: C25_31  and  N1_33 
REMARK    9  A    between atoms: N1_33  and  C26_34 
REMARK   10  A    between atoms: C26_34  and  C27_35 
REMARK   11  A    between atoms: C27_35  and  C28_36 
REMARK   12  A    between atoms: C27_35  and  C29_39 
REMARK   13  A    between atoms: C28_36  and  O9_38 
ROOT
HETATM    1  C20 UNL     1     -13.641   6.192  22.482  1.00  0.00     0.185 C 
HETATM    2  O4  UNL     1     -13.766   5.884  21.295  1.00  0.00    -0.292 OA
ENDROOT
BRANCH   1   3
HETATM    3  C19 UNL     1     -14.352   5.431  23.632  1.00  0.00     0.128 C 
HETATM    4  C14 UNL     1     -14.206   3.873  23.635  1.00  0.00     0.005 C 
HETATM    5  C13 UNL     1     -12.817   3.364  24.077  1.00  0.00     0.091 C 
HETATM    6  C15 UNL     1     -14.531   3.223  22.258  1.00  0.00     0.019 C 
HETATM    7  C16 UNL     1     -15.348   3.461  24.624  1.00  0.00     0.002 C 
HETATM    8  C12 UNL     1     -12.945   2.533  25.337  1.00  0.00     0.133 C 
HETATM    9  C11 UNL     1     -13.540   3.290  26.514  1.00  0.00     0.072 C 
HETATM   10  O2  UNL     1     -12.659   1.341  25.347  1.00  0.00    -0.297 OA
HETATM   11  C2  UNL     1     -13.209   2.829  27.984  1.00  0.00    -0.009 C 
HETATM   12  C10 UNL     1     -15.040   3.509  26.165  1.00  0.00     0.003 C 
HETATM   13  C1  UNL     1     -11.969   1.909  28.050  1.00  0.00     0.021 C 
HETATM   14  C3  UNL     1     -12.915   4.110  28.825  1.00  0.00     0.022 C 
HETATM   15  C7  UNL     1     -14.382   2.120  28.639  1.00  0.00    -0.067 C 
HETATM   16  C4  UNL     1     -12.725   3.845  30.316  1.00  0.00     0.084 C 
HETATM   17  C5  UNL     1     -13.814   2.969  30.885  1.00  0.00     0.149 C 
HETATM   18  O1  UNL     1     -14.025   2.900  32.094  1.00  0.00    -0.293 OA
HETATM   19  C6  UNL     1     -14.646   2.169  29.957  1.00  0.00     0.053 C 
HETATM   20  C8  UNL     1     -15.330   1.446  27.693  1.00  0.00     0.035 C 
HETATM   21  C9  UNL     1     -16.018   2.544  26.893  1.00  0.00     0.010 C 
HETATM   22  C17 UNL     1     -16.506   4.409  24.261  1.00  0.00     0.009 C 
HETATM   23  C18 UNL     1     -15.877   5.644  23.598  1.00  0.00     0.047 C 
BRANCH   3  24
HETATM   24  O3  UNL     1     -13.856   5.936  24.881  1.00  0.00    -0.381 OA
HETATM   25  H25 UNL     1     -14.249   6.815  25.035  1.00  0.00     0.211 HD
ENDBRANCH   3  24
ENDBRANCH   1   3
BRANCH   1  26
HETATM   26  C21 UNL     1     -12.718   7.345  22.870  1.00  0.00     0.260 C 
BRANCH  26  27
HETATM   27  O5  UNL     1     -12.504   8.211  21.758  1.00  0.00    -0.314 OA
BRANCH  27  28
HETATM   28  C22 UNL     1     -11.826   9.352  22.065  1.00  0.00     0.259 C 
HETATM   29  O6  UNL     1     -11.745   9.838  23.183  1.00  0.00    -0.265 OA
BRANCH  28  30
HETATM   30  C23 UNL     1     -11.261   9.965  20.806  1.00  0.00     0.120 C 
BRANCH  30  31
HETATM   31  C24 UNL     1     -11.781   9.252  19.564  1.00  0.00     0.112 C 
BRANCH  31  32
HETATM   32  C25 UNL     1     -10.965   9.607  18.338  1.00  0.00     0.218 C 
HETATM   33  O7  UNL     1     -10.781  10.760  17.961  1.00  0.00    -0.274 OA
HETATM   34  N1  UNL     1     -10.440   8.502  17.703  1.00  0.00    -0.360 N 
HETATM   35  H32 UNL     1     -10.876   7.605  17.886  1.00  0.00     0.162 HD
BRANCH  34  36
HETATM   36  C26 UNL     1      -9.749   8.628  16.425  1.00  0.00     0.142 C 
BRANCH  36  37
HETATM   37  C27 UNL     1      -9.045   7.330  15.983  1.00  0.00     0.134 C 
BRANCH  37  38
HETATM   38  C28 UNL     1      -7.543   7.400  16.239  1.00  0.00     0.150 C 
HETATM   39  O8  UNL     1      -6.734   8.174  15.752  1.00  0.00    -0.649 OA
BRANCH  38  40
HETATM   40  O9  UNL     1      -7.089   6.433  17.070  1.00  0.00    -0.776 OA
HETATM   41  H36 UNL     1      -6.117   6.577  17.053  1.00  0.00     0.167 HD
ENDBRANCH  38  40
ENDBRANCH  37  38
BRANCH  37  42
HETATM   42  C29 UNL     1      -9.384   7.038  14.525  1.00  0.00    -0.042 A 
HETATM   43  C30 UNL     1      -8.531   6.222  13.764  1.00  0.00     0.008 A 
HETATM   44  C31 UNL     1      -8.834   5.920  12.435  1.00  0.00     0.001 A 
HETATM   45  C32 UNL     1      -9.995   6.423  11.851  1.00  0.00     0.000 A 
HETATM   46  C33 UNL     1     -10.856   7.225  12.597  1.00  0.00     0.001 A 
HETATM   47  C34 UNL     1     -10.556   7.528  13.927  1.00  0.00     0.008 A 
ENDBRANCH  37  42
ENDBRANCH  36  37
ENDBRANCH  34  36
ENDBRANCH  31  32
ENDBRANCH  30  31
ENDBRANCH  28  30
ENDBRANCH  27  28
ENDBRANCH  26  27
ENDBRANCH   1  26
TORSDOF 13
ENDMDL
MODEL 8
REMARK minimizedAffinity -8.44753456
REMARK CNNscore 0.270632833
REMARK CNNaffinity 6.43684149
REMARK  13 active torsions:
REMARK  status: ('A' for Active; 'I' for Inactive)
REMARK    1  A    between atoms: C19_21  and  O3_22 
REMARK    2  A    between atoms: C19_21  and  C20_23 
REMARK    3  A    between atoms: C20_23  and  C21_25 
REMARK    4  A    between atoms: C21_25  and  O5_26 
REMARK    5  A    between atoms: O5_26  and  C22_27 
REMARK    6  A    between atoms: C22_27  and  C23_29 
REMARK    7  A    between atoms: C23_29  and  C24_30 
REMARK    8  A    between atoms: C24_30  and  C25_31 
REMARK       I    between atoms: C25_31  and  N1_33 
REMARK    9  A    between atoms: N1_33  and  C26_34 
REMARK   10  A    between atoms: C26_34  and  C27_35 
REMARK   11  A    between atoms: C27_35  and  C28_36 
REMARK   12  A    between atoms: C27_35  and  C29_39 
REMARK   13  A    between atoms: C28_36  and  O9_38 
ROOT
HETATM    1  C20 UNL     1     -15.524   7.204  12.857  1.00  0.00     0.185 C 
HETATM    2  O4  UNL     1     -15.666   7.046  11.643  1.00  0.00    -0.292 OA
ENDROOT
BRANCH   1   3
HETATM    3  C19 UNL     1     -16.236   6.319  13.914  1.00  0.00     0.128 C 
HETATM    4  C14 UNL     1     -17.518   5.557  13.438  1.00  0.00     0.005 C 
HETATM    5  C13 UNL     1     -17.236   4.344  12.526  1.00  0.00     0.091 C 
HETATM    6  C15 UNL     1     -18.541   6.472  12.704  1.00  0.00     0.019 C 
HETATM    7  C16 UNL     1     -18.157   5.152  14.809  1.00  0.00     0.002 C 
HETATM    8  C12 UNL     1     -17.723   3.071  13.188  1.00  0.00     0.133 C 
HETATM    9  C11 UNL     1     -17.065   2.786  14.529  1.00  0.00     0.072 C 
HETATM   10  O2  UNL     1     -18.624   2.400  12.696  1.00  0.00    -0.297 OA
HETATM   11  C2  UNL     1     -16.978   1.303  15.054  1.00  0.00    -0.009 C 
HETATM   12  C10 UNL     1     -17.626   3.851  15.514  1.00  0.00     0.003 C 
HETATM   13  C1  UNL     1     -17.206   0.264  13.932  1.00  0.00     0.021 C 
HETATM   14  C3  UNL     1     -15.547   1.092  15.637  1.00  0.00     0.022 C 
HETATM   15  C7  UNL     1     -17.967   1.035  16.177  1.00  0.00    -0.067 C 
HETATM   16  C4  UNL     1     -15.350  -0.256  16.328  1.00  0.00     0.084 C 
HETATM   17  C5  UNL     1     -16.463  -0.570  17.297  1.00  0.00     0.149 C 
HETATM   18  O1  UNL     1     -16.341  -1.426  18.170  1.00  0.00    -0.293 OA
HETATM   19  C6  UNL     1     -17.740   0.173  17.184  1.00  0.00     0.053 C 
HETATM   20  C8  UNL     1     -19.189   1.903  16.172  1.00  0.00     0.035 C 
HETATM   21  C9  UNL     1     -18.730   3.324  16.472  1.00  0.00     0.010 C 
HETATM   22  C17 UNL     1     -17.939   6.391  15.696  1.00  0.00     0.009 C 
HETATM   23  C18 UNL     1     -16.742   7.152  15.106  1.00  0.00     0.047 C 
BRANCH   3  24
HETATM   24  O3  UNL     1     -15.292   5.357  14.406  1.00  0.00    -0.381 OA
HETATM   25  H25 UNL     1     -14.673   5.813  15.005  1.00  0.00     0.211 HD
ENDBRANCH   3  24
ENDBRANCH   1   3
BRANCH   1  26
HETATM   26  C21 UNL     1     -14.579   8.287  13.371  1.00  0.00     0.260 C 
BRANCH  26  27
HETATM   27  O5  UNL     1     -13.796   8.818  12.304  1.00  0.00    -0.314 OA
BRANCH  27  28
HETATM   28  C22 UNL     1     -12.451   8.724  12.501  1.00  0.00     0.259 C 
HETATM   29  O6  UNL     1     -11.603   9.262  11.807  1.00  0.00    -0.265 OA
BRANCH  28  30
HETATM   30  C23 UNL     1     -12.169   7.790  13.654  1.00  0.00     0.120 C 
BRANCH  30  31
HETATM   31  C24 UNL     1     -10.920   6.957  13.396  1.00  0.00     0.112 C 
BRANCH  31  32
HETATM   32  C25 UNL     1      -9.978   6.985  14.583  1.00  0.00     0.218 C 
HETATM   33  O7  UNL     1     -10.108   7.758  15.528  1.00  0.00    -0.274 OA
HETATM   34  N1  UNL     1      -8.975   6.045  14.496  1.00  0.00    -0.360 N 
HETATM   35  H32 UNL     1      -8.761   5.672  13.577  1.00  0.00     0.162 HD
BRANCH  34  36
HETATM   36  C26 UNL     1      -7.888   6.014  15.467  1.00  0.00     0.142 C 
BRANCH  36  37
HETATM   37  C27 UNL     1      -6.495   5.891  14.819  1.00  0.00     0.134 C 
BRANCH  37  38
HETATM   38  C28 UNL     1      -6.076   7.198  14.153  1.00  0.00     0.150 C 
HETATM   39  O8  UNL     1      -5.114   7.397  13.429  1.00  0.00    -0.649 OA
BRANCH  38  40
HETATM   40  O9  UNL     1      -6.864   8.249  14.478  1.00  0.00    -0.776 OA
HETATM   41  H36 UNL     1      -6.408   9.001  14.040  1.00  0.00     0.167 HD
ENDBRANCH  38  40
ENDBRANCH  37  38
BRANCH  37  42
HETATM   42  C29 UNL     1      -6.482   4.706  13.859  1.00  0.00    -0.042 A 
HETATM   43  C30 UNL     1      -7.531   3.772  13.896  1.00  0.00     0.008 A 
HETATM   44  C31 UNL     1      -7.554   2.693  13.010  1.00  0.00     0.001 A 
HETATM   45  C32 UNL     1      -6.535   2.535  12.073  1.00  0.00     0.000 A 
HETATM   46  C33 UNL     1      -5.493   3.460  12.019  1.00  0.00     0.001 A 
HETATM   47  C34 UNL     1      -5.468   4.540  12.902  1.00  0.00     0.008 A 
ENDBRANCH  37  42
ENDBRANCH  36  37
ENDBRANCH  34  36
ENDBRANCH  31  32
ENDBRANCH  30  31
ENDBRANCH  28  30
ENDBRANCH  27  28
ENDBRANCH  26  27
ENDBRANCH   1  26
TORSDOF 13
ENDMDL
MODEL 9
REMARK minimizedAffinity -7.80574608
REMARK CNNscore 0.269061089
REMARK CNNaffinity 5.34433031
REMARK  13 active torsions:
REMARK  status: ('A' for Active; 'I' for Inactive)
REMARK    1  A    between atoms: C19_21  and  O3_22 
REMARK    2  A    between atoms: C19_21  and  C20_23 
REMARK    3  A    between atoms: C20_23  and  C21_25 
REMARK    4  A    between atoms: C21_25  and  O5_26 
REMARK    5  A    between atoms: O5_26  and  C22_27 
REMARK    6  A    between atoms: C22_27  and  C23_29 
REMARK    7  A    between atoms: C23_29  and  C24_30 
REMARK    8  A    between atoms: C24_30  and  C25_31 
REMARK       I    between atoms: C25_31  and  N1_33 
REMARK    9  A    between atoms: N1_33  and  C26_34 
REMARK   10  A    between atoms: C26_34  and  C27_35 
REMARK   11  A    between atoms: C27_35  and  C28_36 
REMARK   12  A    between atoms: C27_35  and  C29_39 
REMARK   13  A    between atoms: C28_36  and  O9_38 
ROOT
HETATM    1  C20 UNL     1       1.773  12.221  21.080  1.00  0.00     0.185 C 
HETATM    2  O4  UNL     1       1.103  13.211  20.780  1.00  0.00    -0.292 OA
ENDROOT
BRANCH   1   3
HETATM    3  C19 UNL     1       3.138  12.314  21.813  1.00  0.00     0.128 C 
HETATM    4  C14 UNL     1       4.404  12.496  20.911  1.00  0.00     0.005 C 
HETATM    5  C13 UNL     1       4.562  13.910  20.313  1.00  0.00     0.091 C 
HETATM    6  C15 UNL     1       4.476  11.476  19.738  1.00  0.00     0.019 C 
HETATM    7  C16 UNL     1       5.549  12.130  21.916  1.00  0.00     0.002 C 
HETATM    8  C12 UNL     1       5.840  14.549  20.817  1.00  0.00     0.133 C 
HETATM    9  C11 UNL     1       5.898  14.694  22.330  1.00  0.00     0.072 C 
HETATM   10  O2  UNL     1       6.755  14.836  20.053  1.00  0.00    -0.297 OA
HETATM   11  C2  UNL     1       6.801  15.815  22.971  1.00  0.00    -0.009 C 
HETATM   12  C10 UNL     1       6.061  13.251  22.890  1.00  0.00     0.003 C 
HETATM   13  C1  UNL     1       7.196  16.909  21.954  1.00  0.00     0.021 C 
HETATM   14  C3  UNL     1       5.982  16.482  24.118  1.00  0.00     0.022 C 
HETATM   15  C7  UNL     1       8.066  15.245  23.593  1.00  0.00    -0.067 C 
HETATM   16  C4  UNL     1       6.776  17.492  24.943  1.00  0.00     0.084 C 
HETATM   17  C5  UNL     1       8.116  16.949  25.377  1.00  0.00     0.149 C 
HETATM   18  O1  UNL     1       8.757  17.460  26.292  1.00  0.00    -0.293 OA
HETATM   19  C6  UNL     1       8.670  15.770  24.673  1.00  0.00     0.053 C 
HETATM   20  C8  UNL     1       8.545  13.955  22.997  1.00  0.00     0.035 C 
HETATM   21  C9  UNL     1       7.506  12.894  23.337  1.00  0.00     0.010 C 
HETATM   22  C17 UNL     1       4.979  10.933  22.699  1.00  0.00     0.009 C 
HETATM   23  C18 UNL     1       3.448  11.030  22.604  1.00  0.00     0.047 C 
BRANCH   3  24
HETATM   24  O3  UNL     1       3.079  13.409  22.740  1.00  0.00    -0.381 OA
HETATM   25  H25 UNL     1       2.534  13.137  23.501  1.00  0.00     0.211 HD
ENDBRANCH   3  24
ENDBRANCH   1   3
BRANCH   1  26
HETATM   26  C21 UNL     1       1.241  10.826  20.765  1.00  0.00     0.260 C 
BRANCH  26  27
HETATM   27  O5  UNL     1       0.086  10.906  19.933  1.00  0.00    -0.314 OA
BRANCH  27  28
HETATM   28  C22 UNL     1       0.333  10.669  18.614  1.00  0.00     0.259 C 
HETATM   29  O6  UNL     1       1.389  10.250  18.165  1.00  0.00    -0.265 OA
BRANCH  28  30
HETATM   30  C23 UNL     1      -0.862  11.081  17.789  1.00  0.00     0.120 C 
BRANCH  30  31
HETATM   31  C24 UNL     1      -2.147  10.471  18.337  1.00  0.00     0.112 C 
BRANCH  31  32
HETATM   32  C25 UNL     1      -3.124  10.143  17.226  1.00  0.00     0.218 C 
HETATM   33  O7  UNL     1      -4.100  10.839  16.961  1.00  0.00    -0.274 OA
HETATM   34  N1  UNL     1      -2.792   8.996  16.538  1.00  0.00    -0.360 N 
HETATM   35  H32 UNL     1      -2.174   8.337  16.998  1.00  0.00     0.162 HD
BRANCH  34  36
HETATM   36  C26 UNL     1      -3.687   8.439  15.532  1.00  0.00     0.142 C 
BRANCH  36  37
HETATM   37  C27 UNL     1      -3.623   6.901  15.444  1.00  0.00     0.134 C 
BRANCH  37  38
HETATM   38  C28 UNL     1      -2.366   6.440  14.714  1.00  0.00     0.150 C 
HETATM   39  O8  UNL     1      -1.845   6.938  13.728  1.00  0.00    -0.649 OA
BRANCH  38  40
HETATM   40  O9  UNL     1      -1.830   5.306  15.220  1.00  0.00    -0.776 OA
HETATM   41  H36 UNL     1      -1.099   5.116  14.591  1.00  0.00     0.167 HD
ENDBRANCH  38  40
ENDBRANCH  37  38
BRANCH  37  42
HETATM   42  C29 UNL     1      -4.906   6.373  14.809  1.00  0.00    -0.042 A 
HETATM   43  C30 UNL     1      -6.145   6.894  15.213  1.00  0.00     0.008 A 
HETATM   44  C31 UNL     1      -7.331   6.445  14.628  1.00  0.00     0.001 A 
HETATM   45  C32 UNL     1      -7.294   5.474  13.628  1.00  0.00     0.000 A 
HETATM   46  C33 UNL     1      -6.069   4.956  13.210  1.00  0.00     0.001 A 
HETATM   47  C34 UNL     1      -4.882   5.404  13.793  1.00  0.00     0.008 A 
ENDBRANCH  37  42
ENDBRANCH  36  37
ENDBRANCH  34  36
ENDBRANCH  31  32
ENDBRANCH  30  31
ENDBRANCH  28  30
ENDBRANCH  27  28
ENDBRANCH  26  27
ENDBRANCH   1  26
TORSDOF 13
ENDMDL
