MODEL 1
REMARK minimizedAffinity -7.00522566
REMARK CNNscore 0.660381854
REMARK CNNaffinity 6.63665342
REMARK  5 active torsions:
REMARK  status: ('A' for Active; 'I' for Inactive)
REMARK    1  A    between atoms: C2_2  and  C4_4 
REMARK    2  A    between atoms: C7_7  and  C8_8 
REMARK    3  A    between atoms: C8_8  and  O2_10 
REMARK    4  A    between atoms: C11_13  and  C12_14 
REMARK    5  A    between atoms: C12_14  and  O4_16 
ROOT
HETATM    1  C4  UNL     1       2.988  56.325  -9.082  1.00  0.00     0.019 C 
HETATM    2  C5  UNL     1       3.766  56.984  -7.914  1.00  0.00     0.011 C 
HETATM    3  C6  UNL     1       3.519  56.108  -6.676  1.00  0.00     0.021 C 
HETATM    4  C7  UNL     1       2.189  55.409  -6.979  1.00  0.00     0.050 C 
HETATM    5  C9  UNL     1       1.939  54.126  -6.185  1.00  0.00     0.022 C 
HETATM    6  C10 UNL     1       0.718  53.358  -6.737  1.00  0.00     0.023 C 
HETATM    7  C11 UNL     1       0.656  53.131  -8.299  1.00  0.00     0.057 C 
HETATM    8  C13 UNL     1       1.141  54.393  -9.086  1.00  0.00     0.011 C 
HETATM    9  C14 UNL     1       1.303  54.081 -10.576  1.00  0.00     0.007 C 
HETATM   10  C15 UNL     1       0.226  53.163 -11.161  1.00  0.00     0.006 C 
HETATM   11  C16 UNL     1      -1.093  53.103 -10.359  1.00  0.00     0.003 C 
HETATM   12  C17 UNL     1      -2.264  52.270 -11.104  1.00  0.00    -0.035 C 
HETATM   13  C18 UNL     1      -3.603  53.037 -10.894  1.00  0.00     0.016 C 
HETATM   14  C19 UNL     1      -2.030  52.202 -12.644  1.00  0.00     0.017 C 
HETATM   15  C20 UNL     1      -3.041  51.359 -13.407  1.00  0.00     0.080 C 
HETATM   16  C21 UNL     1      -3.106  49.960 -12.852  1.00  0.00     0.135 C 
HETATM   17  O5  UNL     1      -3.150  49.001 -13.626  1.00  0.00    -0.297 OA
HETATM   18  C22 UNL     1      -3.246  49.791 -11.329  1.00  0.00     0.017 C 
HETATM   19  C23 UNL     1      -4.736  49.916 -10.973  1.00  0.00     0.023 C 
HETATM   20  C24 UNL     1      -2.816  48.338 -10.991  1.00  0.00     0.023 C 
HETATM   21  C25 UNL     1      -2.299  50.797 -10.576  1.00  0.00     0.009 C 
HETATM   22  C26 UNL     1      -2.490  50.777  -9.050  1.00  0.00     0.007 C 
HETATM   23  C27 UNL     1      -1.271  51.359  -8.355  1.00  0.00     0.011 C 
HETATM   24  C28 UNL     1      -0.876  52.799  -8.792  1.00  0.00    -0.022 C 
HETATM   25  C29 UNL     1      -1.886  53.741  -8.047  1.00  0.00     0.017 C 
HETATM   26  C30 UNL     1       2.400  55.034  -8.463  1.00  0.00     0.018 C 
ENDROOT
BRANCH   4  27
HETATM   27  C8  UNL     1       1.063  56.418  -6.701  1.00  0.00     0.149 C 
HETATM   28  O1  UNL     1       0.112  56.688  -7.412  1.00  0.00    -0.649 OA
BRANCH  27  29
HETATM   29  O2  UNL     1       1.215  57.065  -5.527  1.00  0.00    -0.776 OA
HETATM   30  H11 UNL     1       0.454  57.681  -5.496  1.00  0.00     0.167 HD
ENDBRANCH  27  29
ENDBRANCH   4  27
BRANCH   1  31
HETATM   31  C2  UNL     1       3.856  56.150 -10.318  1.00  0.00    -0.088 C 
HETATM   32  C1  UNL     1       3.565  56.795 -11.462  1.00  0.00     0.014 C 
HETATM   33  C3  UNL     1       5.068  55.257 -10.236  1.00  0.00     0.043 C 
ENDBRANCH   1  31
BRANCH   7  34
HETATM   34  C12 UNL     1       1.621  51.947  -8.628  1.00  0.00     0.149 C 
HETATM   35  O3  UNL     1       1.827  51.423  -9.711  1.00  0.00    -0.649 OA
BRANCH  34  36
HETATM   36  O4  UNL     1       2.332  51.486  -7.583  1.00  0.00    -0.776 OA
HETATM   37  H16 UNL     1       2.877  50.770  -7.976  1.00  0.00     0.167 HD
ENDBRANCH  34  36
ENDBRANCH   7  34
TORSDOF 5
ENDMDL
MODEL 2
REMARK minimizedAffinity -7.37071848
REMARK CNNscore 0.656129539
REMARK CNNaffinity 6.48328638
REMARK  5 active torsions:
REMARK  status: ('A' for Active; 'I' for Inactive)
REMARK    1  A    between atoms: C2_2  and  C4_4 
REMARK    2  A    between atoms: C7_7  and  C8_8 
REMARK    3  A    between atoms: C8_8  and  O2_10 
REMARK    4  A    between atoms: C11_13  and  C12_14 
REMARK    5  A    between atoms: C12_14  and  O4_16 
ROOT
HETATM    1  C4  UNL     1      -2.588  52.099 -12.298  1.00  0.00     0.019 C 
HETATM    2  C5  UNL     1      -3.255  50.977 -13.135  1.00  0.00     0.011 C 
HETATM    3  C6  UNL     1      -2.283  49.787 -13.123  1.00  0.00     0.021 C 
HETATM    4  C7  UNL     1      -0.916  50.432 -12.866  1.00  0.00     0.050 C 
HETATM    5  C9  UNL     1       0.149  49.486 -12.311  1.00  0.00     0.022 C 
HETATM    6  C10 UNL     1       1.396  50.264 -11.840  1.00  0.00     0.023 C 
HETATM    7  C11 UNL     1       1.153  51.520 -10.914  1.00  0.00     0.057 C 
HETATM    8  C13 UNL     1      -0.092  52.346 -11.375  1.00  0.00     0.011 C 
HETATM    9  C14 UNL     1      -0.458  53.413 -10.338  1.00  0.00     0.007 C 
HETATM   10  C15 UNL     1       0.740  54.107  -9.682  1.00  0.00     0.006 C 
HETATM   11  C16 UNL     1       2.063  54.028 -10.477  1.00  0.00     0.003 C 
HETATM   12  C17 UNL     1       3.251  54.924  -9.842  1.00  0.00    -0.035 C 
HETATM   13  C18 UNL     1       4.014  55.605 -11.015  1.00  0.00     0.016 C 
HETATM   14  C19 UNL     1       2.690  56.075  -8.952  1.00  0.00     0.017 C 
HETATM   15  C20 UNL     1       3.747  56.910  -8.246  1.00  0.00     0.080 C 
HETATM   16  C21 UNL     1       4.657  56.041  -7.418  1.00  0.00     0.135 C 
HETATM   17  O5  UNL     1       4.978  56.405  -6.284  1.00  0.00    -0.297 OA
HETATM   18  C22 UNL     1       5.257  54.787  -8.077  1.00  0.00     0.017 C 
HETATM   19  C23 UNL     1       6.509  55.214  -8.859  1.00  0.00     0.023 C 
HETATM   20  C24 UNL     1       5.732  53.854  -6.930  1.00  0.00     0.023 C 
HETATM   21  C25 UNL     1       4.167  54.041  -8.931  1.00  0.00     0.009 C 
HETATM   22  C26 UNL     1       4.734  52.854  -9.728  1.00  0.00     0.007 C 
HETATM   23  C27 UNL     1       3.620  51.898 -10.120  1.00  0.00     0.011 C 
HETATM   24  C28 UNL     1       2.449  52.530 -10.927  1.00  0.00    -0.022 C 
HETATM   25  C29 UNL     1       2.995  52.670 -12.391  1.00  0.00     0.017 C 
HETATM   26  C30 UNL     1      -1.287  51.451 -11.766  1.00  0.00     0.018 C 
ENDROOT
BRANCH   4  27
HETATM   27  C8  UNL     1      -0.432  51.033 -14.195  1.00  0.00     0.149 C 
HETATM   28  O1  UNL     1      -0.284  50.464 -15.261  1.00  0.00    -0.649 OA
BRANCH  27  29
HETATM   29  O2  UNL     1      -0.129  52.345 -14.099  1.00  0.00    -0.776 OA
HETATM   30  H11 UNL     1       0.182  52.583 -14.997  1.00  0.00     0.167 HD
ENDBRANCH  27  29
ENDBRANCH   4  27
BRANCH   1  31
HETATM   31  C2  UNL     1      -3.536  52.673 -11.256  1.00  0.00    -0.088 C 
HETATM   32  C1  UNL     1      -3.758  53.998 -11.182  1.00  0.00     0.014 C 
HETATM   33  C3  UNL     1      -4.244  51.729 -10.318  1.00  0.00     0.043 C 
ENDBRANCH   1  31
BRANCH   7  34
HETATM   34  C12 UNL     1       0.878  50.980  -9.473  1.00  0.00     0.149 C 
HETATM   35  O3  UNL     1       0.967  49.830  -9.071  1.00  0.00    -0.649 OA
BRANCH  34  36
HETATM   36  O4  UNL     1       0.540  51.918  -8.570  1.00  0.00    -0.776 OA
HETATM   37  H16 UNL     1       0.421  51.404  -7.742  1.00  0.00     0.167 HD
ENDBRANCH  34  36
ENDBRANCH   7  34
TORSDOF 5
ENDMDL
MODEL 3
REMARK minimizedAffinity -7.71950769
REMARK CNNscore 0.622067153
REMARK CNNaffinity 6.09054375
REMARK  5 active torsions:
REMARK  status: ('A' for Active; 'I' for Inactive)
REMARK    1  A    between atoms: C2_2  and  C4_4 
REMARK    2  A    between atoms: C7_7  and  C8_8 
REMARK    3  A    between atoms: C8_8  and  O2_10 
REMARK    4  A    between atoms: C11_13  and  C12_14 
REMARK    5  A    between atoms: C12_14  and  O4_16 
ROOT
HETATM    1  C4  UNL     1     -16.950  45.937 -20.875  1.00  0.00     0.019 C 
HETATM    2  C5  UNL     1     -15.849  46.936 -20.434  1.00  0.00     0.011 C 
HETATM    3  C6  UNL     1     -15.326  47.603 -21.715  1.00  0.00     0.021 C 
HETATM    4  C7  UNL     1     -15.638  46.582 -22.816  1.00  0.00     0.050 C 
HETATM    5  C9  UNL     1     -15.694  47.157 -24.231  1.00  0.00     0.022 C 
HETATM    6  C10 UNL     1     -16.268  46.128 -25.229  1.00  0.00     0.023 C 
HETATM    7  C11 UNL     1     -17.602  45.391 -24.816  1.00  0.00     0.057 C 
HETATM    8  C13 UNL     1     -17.610  45.018 -23.297  1.00  0.00     0.011 C 
HETATM    9  C14 UNL     1     -18.994  44.526 -22.860  1.00  0.00     0.007 C 
HETATM   10  C15 UNL     1     -19.714  43.644 -23.884  1.00  0.00     0.006 C 
HETATM   11  C16 UNL     1     -18.798  42.970 -24.931  1.00  0.00     0.003 C 
HETATM   12  C17 UNL     1     -19.572  41.907 -25.875  1.00  0.00    -0.035 C 
HETATM   13  C18 UNL     1     -18.640  40.676 -26.072  1.00  0.00     0.016 C 
HETATM   14  C19 UNL     1     -20.871  41.375 -25.197  1.00  0.00     0.017 C 
HETATM   15  C20 UNL     1     -21.704  40.438 -26.059  1.00  0.00     0.080 C 
HETATM   16  C21 UNL     1     -22.058  41.084 -27.372  1.00  0.00     0.135 C 
HETATM   17  O5  UNL     1     -23.203  40.969 -27.817  1.00  0.00    -0.297 OA
HETATM   18  C22 UNL     1     -20.932  41.759 -28.175  1.00  0.00     0.017 C 
HETATM   19  C23 UNL     1     -20.217  40.672 -28.994  1.00  0.00     0.023 C 
HETATM   20  C24 UNL     1     -21.609  42.722 -29.187  1.00  0.00     0.023 C 
HETATM   21  C25 UNL     1     -19.998  42.588 -27.219  1.00  0.00     0.009 C 
HETATM   22  C26 UNL     1     -18.771  43.176 -27.936  1.00  0.00     0.007 C 
HETATM   23  C27 UNL     1     -18.193  44.331 -27.137  1.00  0.00     0.011 C 
HETATM   24  C28 UNL     1     -17.803  44.000 -25.667  1.00  0.00    -0.022 C 
HETATM   25  C29 UNL     1     -16.433  43.242 -25.772  1.00  0.00     0.017 C 
HETATM   26  C30 UNL     1     -17.064  46.153 -22.404  1.00  0.00     0.018 C 
ENDROOT
BRANCH   4  27
HETATM   27  C8  UNL     1     -14.566  45.484 -22.745  1.00  0.00     0.149 C 
HETATM   28  O1  UNL     1     -14.735  44.284 -22.627  1.00  0.00    -0.649 OA
BRANCH  27  29
HETATM   29  O2  UNL     1     -13.309  45.971 -22.801  1.00  0.00    -0.776 OA
HETATM   30  H11 UNL     1     -12.742  45.176 -22.721  1.00  0.00     0.167 HD
ENDBRANCH  27  29
ENDBRANCH   4  27
BRANCH   1  31
HETATM   31  C2  UNL     1     -18.228  46.104 -20.069  1.00  0.00    -0.088 C 
HETATM   32  C1  UNL     1     -18.864  47.289 -20.025  1.00  0.00     0.014 C 
HETATM   33  C3  UNL     1     -18.788  44.913 -19.337  1.00  0.00     0.043 C 
ENDBRANCH   1  31
BRANCH   7  34
HETATM   34  C12 UNL     1     -18.776  46.387 -25.084  1.00  0.00     0.149 C 
HETATM   35  O3  UNL     1     -18.879  47.546 -24.713  1.00  0.00    -0.649 OA
BRANCH  34  36
HETATM   36  O4  UNL     1     -19.769  45.902 -25.852  1.00  0.00    -0.776 OA
HETATM   37  H16 UNL     1     -20.394  46.655 -25.918  1.00  0.00     0.167 HD
ENDBRANCH  34  36
ENDBRANCH   7  34
TORSDOF 5
ENDMDL
MODEL 4
REMARK minimizedAffinity -6.94856405
REMARK CNNscore 0.460359216
REMARK CNNaffinity 5.73706484
REMARK  5 active torsions:
REMARK  status: ('A' for Active; 'I' for Inactive)
REMARK    1  A    between atoms: C2_2  and  C4_4 
REMARK    2  A    between atoms: C7_7  and  C8_8 
REMARK    3  A    between atoms: C8_8  and  O2_10 
REMARK    4  A    between atoms: C11_13  and  C12_14 
REMARK    5  A    between atoms: C12_14  and  O4_16 
ROOT
HETATM    1  C4  UNL     1     -17.188  43.145 -26.983  1.00  0.00     0.019 C 
HETATM    2  C5  UNL     1     -18.401  42.774 -27.876  1.00  0.00     0.011 C 
HETATM    3  C6  UNL     1     -19.601  43.564 -27.334  1.00  0.00     0.021 C 
HETATM    4  C7  UNL     1     -19.236  43.828 -25.868  1.00  0.00     0.050 C 
HETATM    5  C9  UNL     1     -19.979  44.995 -25.218  1.00  0.00     0.022 C 
HETATM    6  C10 UNL     1     -19.368  45.352 -23.846  1.00  0.00     0.023 C 
HETATM    7  C11 UNL     1     -17.798  45.514 -23.779  1.00  0.00     0.057 C 
HETATM    8  C13 UNL     1     -17.067  44.437 -24.647  1.00  0.00     0.011 C 
HETATM    9  C14 UNL     1     -15.573  44.750 -24.765  1.00  0.00     0.007 C 
HETATM   10  C15 UNL     1     -14.926  45.291 -23.486  1.00  0.00     0.006 C 
HETATM   11  C16 UNL     1     -15.687  44.973 -22.180  1.00  0.00     0.003 C 
HETATM   12  C17 UNL     1     -14.881  45.402 -20.843  1.00  0.00    -0.035 C 
HETATM   13  C18 UNL     1     -15.076  44.276 -19.786  1.00  0.00     0.016 C 
HETATM   14  C19 UNL     1     -13.347  45.502 -21.105  1.00  0.00     0.017 C 
HETATM   15  C20 UNL     1     -12.527  45.987 -19.919  1.00  0.00     0.080 C 
HETATM   16  C21 UNL     1     -13.034  47.315 -19.420  1.00  0.00     0.135 C 
HETATM   17  O5  UNL     1     -12.228  48.200 -19.122  1.00  0.00    -0.297 OA
HETATM   18  C22 UNL     1     -14.546  47.469 -19.178  1.00  0.00     0.017 C 
HETATM   19  C23 UNL     1     -14.862  46.914 -17.781  1.00  0.00     0.023 C 
HETATM   20  C24 UNL     1     -14.848  48.992 -19.144  1.00  0.00     0.023 C 
HETATM   21  C25 UNL     1     -15.359  46.809 -20.352  1.00  0.00     0.009 C 
HETATM   22  C26 UNL     1     -16.877  46.806 -20.106  1.00  0.00     0.007 C 
HETATM   23  C27 UNL     1     -17.626  46.629 -21.416  1.00  0.00     0.011 C 
HETATM   24  C28 UNL     1     -17.249  45.363 -22.238  1.00  0.00    -0.022 C 
HETATM   25  C29 UNL     1     -17.994  44.180 -21.525  1.00  0.00     0.017 C 
HETATM   26  C30 UNL     1     -17.748  44.215 -26.014  1.00  0.00     0.018 C 
ENDROOT
BRANCH   4  27
HETATM   27  C8  UNL     1     -19.514  42.536 -25.084  1.00  0.00     0.149 C 
HETATM   28  O1  UNL     1     -20.568  41.934 -24.987  1.00  0.00    -0.649 OA
BRANCH  27  29
HETATM   29  O2  UNL     1     -18.429  42.077 -24.425  1.00  0.00    -0.776 OA
HETATM   30  H11 UNL     1     -18.755  41.279 -23.959  1.00  0.00     0.167 HD
ENDBRANCH  27  29
ENDBRANCH   4  27
BRANCH   1  31
HETATM   31  C2  UNL     1     -15.974  43.542 -27.806  1.00  0.00    -0.088 C 
HETATM   32  C1  UNL     1     -15.948  44.709 -28.476  1.00  0.00     0.014 C 
HETATM   33  C3  UNL     1     -14.784  42.619 -27.841  1.00  0.00     0.043 C 
ENDBRANCH   1  31
BRANCH   7  34
HETATM   34  C12 UNL     1     -17.458  46.925 -24.359  1.00  0.00     0.149 C 
HETATM   35  O3  UNL     1     -16.362  47.454 -24.459  1.00  0.00    -0.649 OA
BRANCH  34  36
HETATM   36  O4  UNL     1     -18.512  47.610 -24.840  1.00  0.00    -0.776 OA
HETATM   37  H16 UNL     1     -18.111  48.445 -25.165  1.00  0.00     0.167 HD
ENDBRANCH  34  36
ENDBRANCH   7  34
TORSDOF 5
ENDMDL
MODEL 5
REMARK minimizedAffinity -6.63928127
REMARK CNNscore 0.399178535
REMARK CNNaffinity 5.70996666
REMARK  5 active torsions:
REMARK  status: ('A' for Active; 'I' for Inactive)
REMARK    1  A    between atoms: C2_2  and  C4_4 
REMARK    2  A    between atoms: C7_7  and  C8_8 
REMARK    3  A    between atoms: C8_8  and  O2_10 
REMARK    4  A    between atoms: C11_13  and  C12_14 
REMARK    5  A    between atoms: C12_14  and  O4_16 
ROOT
HETATM    1  C4  UNL     1     -13.065  44.334 -23.874  1.00  0.00     0.019 C 
HETATM    2  C5  UNL     1     -14.452  44.286 -23.181  1.00  0.00     0.011 C 
HETATM    3  C6  UNL     1     -15.485  44.689 -24.245  1.00  0.00     0.021 C 
HETATM    4  C7  UNL     1     -14.679  45.527 -25.243  1.00  0.00     0.050 C 
HETATM    5  C9  UNL     1     -15.297  45.644 -26.636  1.00  0.00     0.022 C 
HETATM    6  C10 UNL     1     -14.305  46.273 -27.637  1.00  0.00     0.023 C 
HETATM    7  C11 UNL     1     -12.840  45.682 -27.667  1.00  0.00     0.057 C 
HETATM    8  C13 UNL     1     -12.319  45.356 -26.228  1.00  0.00     0.011 C 
HETATM    9  C14 UNL     1     -11.007  44.568 -26.286  1.00  0.00     0.007 C 
HETATM   10  C15 UNL     1     -10.038  45.014 -27.384  1.00  0.00     0.006 C 
HETATM   11  C16 UNL     1     -10.260  46.448 -27.915  1.00  0.00     0.003 C 
HETATM   12  C17 UNL     1      -9.107  46.943 -28.938  1.00  0.00    -0.035 C 
HETATM   13  C18 UNL     1      -8.786  48.430 -28.611  1.00  0.00     0.016 C 
HETATM   14  C19 UNL     1      -7.781  46.149 -28.737  1.00  0.00     0.017 C 
HETATM   15  C20 UNL     1      -6.674  46.494 -29.722  1.00  0.00     0.080 C 
HETATM   16  C21 UNL     1      -7.145  46.324 -31.143  1.00  0.00     0.135 C 
HETATM   17  O5  UNL     1      -6.404  45.781 -31.967  1.00  0.00    -0.297 OA
HETATM   18  C22 UNL     1      -8.489  46.956 -31.541  1.00  0.00     0.017 C 
HETATM   19  C23 UNL     1      -8.237  48.432 -31.886  1.00  0.00     0.023 C 
HETATM   20  C24 UNL     1      -8.952  46.255 -32.847  1.00  0.00     0.023 C 
HETATM   21  C25 UNL     1      -9.564  46.714 -30.417  1.00  0.00     0.009 C 
HETATM   22  C26 UNL     1     -10.893  47.438 -30.689  1.00  0.00     0.007 C 
HETATM   23  C27 UNL     1     -12.015  46.804 -29.884  1.00  0.00     0.011 C 
HETATM   24  C28 UNL     1     -11.784  46.741 -28.347  1.00  0.00    -0.022 C 
HETATM   25  C29 UNL     1     -12.085  48.192 -27.831  1.00  0.00     0.017 C 
HETATM   26  C30 UNL     1     -13.391  44.680 -25.347  1.00  0.00     0.018 C 
ENDROOT
BRANCH   4  27
HETATM   27  C8  UNL     1     -14.506  46.928 -24.635  1.00  0.00     0.149 C 
HETATM   28  O1  UNL     1     -15.378  47.700 -24.281  1.00  0.00    -0.649 OA
BRANCH  27  29
HETATM   29  O2  UNL     1     -13.213  47.300 -24.528  1.00  0.00    -0.776 OA
HETATM   30  H11 UNL     1     -13.256  48.205 -24.156  1.00  0.00     0.167 HD
ENDBRANCH  27  29
ENDBRANCH   4  27
BRANCH   1  31
HETATM   31  C2  UNL     1     -12.265  43.063 -23.637  1.00  0.00    -0.088 C 
HETATM   32  C1  UNL     1     -12.643  41.897 -24.193  1.00  0.00     0.014 C 
HETATM   33  C3  UNL     1     -11.024  43.132 -22.785  1.00  0.00     0.043 C 
ENDBRANCH   1  31
BRANCH   7  34
HETATM   34  C12 UNL     1     -12.901  44.350 -28.480  1.00  0.00     0.149 C 
HETATM   35  O3  UNL     1     -13.548  43.344 -28.231  1.00  0.00    -0.649 OA
BRANCH  34  36
HETATM   36  O4  UNL     1     -12.176  44.342 -29.614  1.00  0.00    -0.776 OA
HETATM   37  H16 UNL     1     -12.344  43.449 -29.986  1.00  0.00     0.167 HD
ENDBRANCH  34  36
ENDBRANCH   7  34
TORSDOF 5
ENDMDL
MODEL 6
REMARK minimizedAffinity -7.69983578
REMARK CNNscore 0.390945852
REMARK CNNaffinity 6.2024703
REMARK  5 active torsions:
REMARK  status: ('A' for Active; 'I' for Inactive)
REMARK    1  A    between atoms: C2_2  and  C4_4 
REMARK    2  A    between atoms: C7_7  and  C8_8 
REMARK    3  A    between atoms: C8_8  and  O2_10 
REMARK    4  A    between atoms: C11_13  and  C12_14 
REMARK    5  A    between atoms: C12_14  and  O4_16 
ROOT
HETATM    1  C4  UNL     1      -3.431  50.661  -9.516  1.00  0.00     0.019 C 
HETATM    2  C5  UNL     1      -4.372  50.138 -10.632  1.00  0.00     0.011 C 
HETATM    3  C6  UNL     1      -3.733  50.543 -11.968  1.00  0.00     0.021 C 
HETATM    4  C7  UNL     1      -2.869  51.757 -11.609  1.00  0.00     0.050 C 
HETATM    5  C9  UNL     1      -1.746  52.066 -12.600  1.00  0.00     0.022 C 
HETATM    6  C10 UNL     1      -0.776  53.125 -12.033  1.00  0.00     0.023 C 
HETATM    7  C11 UNL     1      -0.248  52.903 -10.561  1.00  0.00     0.057 C 
HETATM    8  C13 UNL     1      -1.374  52.364  -9.618  1.00  0.00     0.011 C 
HETATM    9  C14 UNL     1      -0.796  51.928  -8.268  1.00  0.00     0.007 C 
HETATM   10  C15 UNL     1       0.313  52.832  -7.722  1.00  0.00     0.006 C 
HETATM   11  C16 UNL     1       0.338  54.265  -8.301  1.00  0.00     0.003 C 
HETATM   12  C17 UNL     1       1.403  55.238  -7.568  1.00  0.00    -0.035 C 
HETATM   13  C18 UNL     1       0.737  56.635  -7.402  1.00  0.00     0.016 C 
HETATM   14  C19 UNL     1       1.746  54.737  -6.132  1.00  0.00     0.017 C 
HETATM   15  C20 UNL     1       2.809  55.550  -5.409  1.00  0.00     0.080 C 
HETATM   16  C21 UNL     1       4.074  55.628  -6.222  1.00  0.00     0.135 C 
HETATM   17  O5  UNL     1       5.165  55.481  -5.665  1.00  0.00    -0.297 OA
HETATM   18  C22 UNL     1       3.959  56.019  -7.705  1.00  0.00     0.017 C 
HETATM   19  C23 UNL     1       3.905  57.553  -7.789  1.00  0.00     0.023 C 
HETATM   20  C24 UNL     1       5.274  55.570  -8.398  1.00  0.00     0.023 C 
HETATM   21  C25 UNL     1       2.744  55.278  -8.375  1.00  0.00     0.009 C 
HETATM   22  C26 UNL     1       2.487  55.729  -9.823  1.00  0.00     0.007 C 
HETATM   23  C27 UNL     1       1.671  54.684 -10.567  1.00  0.00     0.011 C 
HETATM   24  C28 UNL     1       0.313  54.304  -9.912  1.00  0.00    -0.022 C 
HETATM   25  C29 UNL     1      -0.658  55.481 -10.278  1.00  0.00     0.017 C 
HETATM   26  C30 UNL     1      -2.236  51.271 -10.287  1.00  0.00     0.018 C 
ENDROOT
BRANCH   4  27
HETATM   27  C8  UNL     1      -3.804  52.971 -11.493  1.00  0.00     0.149 C 
HETATM   28  O1  UNL     1      -4.203  53.510 -10.476  1.00  0.00    -0.649 OA
BRANCH  27  29
HETATM   29  O2  UNL     1      -4.217  53.434 -12.691  1.00  0.00    -0.776 OA
HETATM   30  H11 UNL     1      -4.814  54.177 -12.465  1.00  0.00     0.167 HD
ENDBRANCH  27  29
ENDBRANCH   4  27
BRANCH   1  31
HETATM   31  C2  UNL     1      -3.102  49.584  -8.495  1.00  0.00    -0.088 C 
HETATM   32  C1  UNL     1      -3.694  48.377  -8.553  1.00  0.00     0.014 C 
HETATM   33  C3  UNL     1      -2.080  49.879  -7.428  1.00  0.00     0.043 C 
ENDBRANCH   1  31
BRANCH   7  34
HETATM   34  C12 UNL     1       0.884  51.828 -10.639  1.00  0.00     0.149 C 
HETATM   35  O3  UNL     1       2.042  51.927 -10.265  1.00  0.00    -0.649 OA
BRANCH  34  36
HETATM   36  O4  UNL     1       0.506  50.642 -11.148  1.00  0.00    -0.776 OA
HETATM   37  H16 UNL     1       1.327  50.105 -11.107  1.00  0.00     0.167 HD
ENDBRANCH  34  36
ENDBRANCH   7  34
TORSDOF 5
ENDMDL
MODEL 7
REMARK minimizedAffinity -7.27494431
REMARK CNNscore 0.364063203
REMARK CNNaffinity 5.95452118
REMARK  5 active torsions:
REMARK  status: ('A' for Active; 'I' for Inactive)
REMARK    1  A    between atoms: C2_2  and  C4_4 
REMARK    2  A    between atoms: C7_7  and  C8_8 
REMARK    3  A    between atoms: C8_8  and  O2_10 
REMARK    4  A    between atoms: C11_13  and  C12_14 
REMARK    5  A    between atoms: C12_14  and  O4_16 
ROOT
HETATM    1  C4  UNL     1      -9.645  47.196 -23.628  1.00  0.00     0.019 C 
HETATM    2  C5  UNL     1     -10.778  46.727 -22.679  1.00  0.00     0.011 C 
HETATM    3  C6  UNL     1     -11.524  45.602 -23.411  1.00  0.00     0.021 C 
HETATM    4  C7  UNL     1     -11.250  45.883 -24.893  1.00  0.00     0.050 C 
HETATM    5  C9  UNL     1     -11.433  44.682 -25.822  1.00  0.00     0.022 C 
HETATM    6  C10 UNL     1     -10.888  44.982 -27.235  1.00  0.00     0.023 C 
HETATM    7  C11 UNL     1      -9.444  45.614 -27.331  1.00  0.00     0.057 C 
HETATM    8  C13 UNL     1      -9.206  46.683 -26.214  1.00  0.00     0.011 C 
HETATM    9  C14 UNL     1      -7.735  47.110 -26.168  1.00  0.00     0.007 C 
HETATM   10  C15 UNL     1      -7.064  47.249 -27.538  1.00  0.00     0.006 C 
HETATM   11  C16 UNL     1      -8.030  47.446 -28.727  1.00  0.00     0.003 C 
HETATM   12  C17 UNL     1      -7.278  47.770 -30.123  1.00  0.00    -0.035 C 
HETATM   13  C18 UNL     1      -8.096  48.868 -30.863  1.00  0.00     0.016 C 
HETATM   14  C19 UNL     1      -5.855  48.364 -29.885  1.00  0.00     0.017 C 
HETATM   15  C20 UNL     1      -5.047  48.613 -31.149  1.00  0.00     0.080 C 
HETATM   16  C21 UNL     1      -4.930  47.355 -31.971  1.00  0.00     0.135 C 
HETATM   17  O5  UNL     1      -3.844  47.060 -32.477  1.00  0.00    -0.297 OA
HETATM   18  C22 UNL     1      -6.211  46.553 -32.253  1.00  0.00     0.017 C 
HETATM   19  C23 UNL     1      -6.909  47.186 -33.468  1.00  0.00     0.023 C 
HETATM   20  C24 UNL     1      -5.770  45.125 -32.674  1.00  0.00     0.023 C 
HETATM   21  C25 UNL     1      -7.097  46.458 -30.957  1.00  0.00     0.009 C 
HETATM   22  C26 UNL     1      -8.458  45.787 -31.205  1.00  0.00     0.007 C 
HETATM   23  C27 UNL     1      -9.046  45.282 -29.898  1.00  0.00     0.011 C 
HETATM   24  C28 UNL     1      -9.211  46.352 -28.780  1.00  0.00    -0.022 C 
HETATM   25  C29 UNL     1     -10.499  47.156 -29.176  1.00  0.00     0.017 C 
HETATM   26  C30 UNL     1      -9.748  46.237 -24.840  1.00  0.00     0.018 C 
ENDROOT
BRANCH   4  27
HETATM   27  C8  UNL     1     -12.187  47.021 -25.328  1.00  0.00     0.149 C 
HETATM   28  O1  UNL     1     -13.401  47.061 -25.241  1.00  0.00    -0.649 OA
BRANCH  27  29
HETATM   29  O2  UNL     1     -11.531  48.058 -25.888  1.00  0.00    -0.776 OA
HETATM   30  H11 UNL     1     -12.242  48.685 -26.134  1.00  0.00     0.167 HD
ENDBRANCH  27  29
ENDBRANCH   4  27
BRANCH   1  31
HETATM   31  C2  UNL     1      -8.299  47.257 -22.924  1.00  0.00    -0.088 C 
HETATM   32  C1  UNL     1      -7.787  48.433 -22.519  1.00  0.00     0.014 C 
HETATM   33  C3  UNL     1      -7.554  45.973 -22.664  1.00  0.00     0.043 C 
ENDBRANCH   1  31
BRANCH   7  34
HETATM   34  C12 UNL     1      -8.421  44.451 -27.123  1.00  0.00     0.149 C 
HETATM   35  O3  UNL     1      -8.249  43.770 -26.124  1.00  0.00    -0.649 OA
BRANCH  34  36
HETATM   36  O4  UNL     1      -7.674  44.152 -28.202  1.00  0.00    -0.776 OA
HETATM   37  H16 UNL     1      -7.114  43.408 -27.891  1.00  0.00     0.167 HD
ENDBRANCH  34  36
ENDBRANCH   7  34
TORSDOF 5
ENDMDL
MODEL 8
REMARK minimizedAffinity -7.08688402
REMARK CNNscore 0.351938844
REMARK CNNaffinity 5.69641733
REMARK  5 active torsions:
REMARK  status: ('A' for Active; 'I' for Inactive)
REMARK    1  A    between atoms: C2_2  and  C4_4 
REMARK    2  A    between atoms: C7_7  and  C8_8 
REMARK    3  A    between atoms: C8_8  and  O2_10 
REMARK    4  A    between atoms: C11_13  and  C12_14 
REMARK    5  A    between atoms: C12_14  and  O4_16 
ROOT
HETATM    1  C4  UNL     1       5.643  63.700 -34.287  1.00  0.00     0.019 C 
HETATM    2  C5  UNL     1       6.999  63.184 -33.737  1.00  0.00     0.011 C 
HETATM    3  C6  UNL     1       8.033  64.283 -34.026  1.00  0.00     0.021 C 
HETATM    4  C7  UNL     1       7.441  65.042 -35.219  1.00  0.00     0.050 C 
HETATM    5  C9  UNL     1       7.976  66.461 -35.410  1.00  0.00     0.022 C 
HETATM    6  C10 UNL     1       7.145  67.234 -36.457  1.00  0.00     0.023 C 
HETATM    7  C11 UNL     1       5.574  67.189 -36.306  1.00  0.00     0.057 C 
HETATM    8  C13 UNL     1       5.075  65.768 -35.881  1.00  0.00     0.011 C 
HETATM    9  C14 UNL     1       3.590  65.798 -35.507  1.00  0.00     0.007 C 
HETATM   10  C15 UNL     1       2.722  66.698 -36.392  1.00  0.00     0.006 C 
HETATM   11  C16 UNL     1       3.315  67.022 -37.781  1.00  0.00     0.003 C 
HETATM   12  C17 UNL     1       2.292  67.819 -38.749  1.00  0.00    -0.035 C 
HETATM   13  C18 UNL     1       2.436  67.233 -40.183  1.00  0.00     0.016 C 
HETATM   14  C19 UNL     1       0.808  67.595 -38.326  1.00  0.00     0.017 C 
HETATM   15  C20 UNL     1      -0.213  68.383 -39.132  1.00  0.00     0.080 C 
HETATM   16  C21 UNL     1       0.096  69.857 -39.099  1.00  0.00     0.135 C 
HETATM   17  O5  UNL     1      -0.822  70.666 -38.938  1.00  0.00    -0.297 OA
HETATM   18  C22 UNL     1       1.537  70.303 -39.399  1.00  0.00     0.017 C 
HETATM   19  C23 UNL     1       1.700  70.384 -40.925  1.00  0.00     0.023 C 
HETATM   20  C24 UNL     1       1.692  71.745 -38.846  1.00  0.00     0.023 C 
HETATM   21  C25 UNL     1       2.565  69.359 -38.674  1.00  0.00     0.009 C 
HETATM   22  C26 UNL     1       4.027  69.664 -39.042  1.00  0.00     0.007 C 
HETATM   23  C27 UNL     1       4.968  69.099 -37.991  1.00  0.00     0.011 C 
HETATM   24  C28 UNL     1       4.828  67.573 -37.718  1.00  0.00    -0.022 C 
HETATM   25  C29 UNL     1       5.568  66.877 -38.913  1.00  0.00     0.017 C 
HETATM   26  C30 UNL     1       5.960  65.129 -34.790  1.00  0.00     0.018 C 
ENDROOT
BRANCH   4  27
HETATM   27  C8  UNL     1       7.721  64.209 -36.480  1.00  0.00     0.149 C 
HETATM   28  O1  UNL     1       8.795  63.796 -36.878  1.00  0.00    -0.649 OA
BRANCH  27  29
HETATM   29  O2  UNL     1       6.609  63.960 -37.203  1.00  0.00    -0.776 OA
HETATM   30  H11 UNL     1       6.936  63.453 -37.975  1.00  0.00     0.167 HD
ENDBRANCH  27  29
ENDBRANCH   4  27
BRANCH   1  31
HETATM   31  C2  UNL     1       4.527  63.573 -33.263  1.00  0.00    -0.088 C 
HETATM   32  C1  UNL     1       3.744  62.479 -33.230  1.00  0.00     0.014 C 
HETATM   33  C3  UNL     1       4.325  64.683 -32.265  1.00  0.00     0.043 C 
ENDBRANCH   1  31
BRANCH   7  34
HETATM   34  C12 UNL     1       5.194  68.200 -35.177  1.00  0.00     0.149 C 
HETATM   35  O3  UNL     1       4.515  69.210 -35.269  1.00  0.00    -0.649 OA
BRANCH  34  36
HETATM   36  O4  UNL     1       5.648  67.880 -33.951  1.00  0.00    -0.776 OA
HETATM   37  H16 UNL     1       5.308  68.607 -33.386  1.00  0.00     0.167 HD
ENDBRANCH  34  36
ENDBRANCH   7  34
TORSDOF 5
ENDMDL
MODEL 9
REMARK minimizedAffinity -6.72515869
REMARK CNNscore 0.334081292
REMARK CNNaffinity 5.72197914
REMARK  5 active torsions:
REMARK  status: ('A' for Active; 'I' for Inactive)
REMARK    1  A    between atoms: C2_2  and  C4_4 
REMARK    2  A    between atoms: C7_7  and  C8_8 
REMARK    3  A    between atoms: C8_8  and  O2_10 
REMARK    4  A    between atoms: C11_13  and  C12_14 
REMARK    5  A    between atoms: C12_14  and  O4_16 
ROOT
HETATM    1  C4  UNL     1     -11.716  47.128 -25.522  1.00  0.00     0.019 C 
HETATM    2  C5  UNL     1     -11.882  47.109 -27.064  1.00  0.00     0.011 C 
HETATM    3  C6  UNL     1     -10.483  46.865 -27.651  1.00  0.00     0.021 C 
HETATM    4  C7  UNL     1      -9.533  47.371 -26.560  1.00  0.00     0.050 C 
HETATM    5  C9  UNL     1      -8.111  46.814 -26.633  1.00  0.00     0.022 C 
HETATM    6  C10 UNL     1      -7.308  47.164 -25.362  1.00  0.00     0.023 C 
HETATM    7  C11 UNL     1      -8.002  46.884 -23.971  1.00  0.00     0.057 C 
HETATM    8  C13 UNL     1      -9.522  47.253 -24.000  1.00  0.00     0.011 C 
HETATM    9  C14 UNL     1     -10.231  46.756 -22.736  1.00  0.00     0.007 C 
HETATM   10  C15 UNL     1      -9.417  46.898 -21.446  1.00  0.00     0.006 C 
HETATM   11  C16 UNL     1      -8.277  47.940 -21.499  1.00  0.00     0.003 C 
HETATM   12  C17 UNL     1      -7.564  48.189 -20.067  1.00  0.00    -0.035 C 
HETATM   13  C18 UNL     1      -7.297  49.716 -19.926  1.00  0.00     0.016 C 
HETATM   14  C19 UNL     1      -8.498  47.792 -18.883  1.00  0.00     0.017 C 
HETATM   15  C20 UNL     1      -7.867  47.912 -17.504  1.00  0.00     0.080 C 
HETATM   16  C21 UNL     1      -6.593  47.113 -17.422  1.00  0.00     0.135 C 
HETATM   17  O5  UNL     1      -6.367  46.432 -16.419  1.00  0.00    -0.297 OA
HETATM   18  C22 UNL     1      -5.558  47.283 -18.547  1.00  0.00     0.017 C 
HETATM   19  C23 UNL     1      -4.707  48.522 -18.226  1.00  0.00     0.023 C 
HETATM   20  C24 UNL     1      -4.613  46.052 -18.485  1.00  0.00     0.023 C 
HETATM   21  C25 UNL     1      -6.271  47.316 -19.949  1.00  0.00     0.009 C 
HETATM   22  C26 UNL     1      -5.307  47.621 -21.108  1.00  0.00     0.007 C 
HETATM   23  C27 UNL     1      -5.906  47.166 -22.429  1.00  0.00     0.011 C 
HETATM   24  C28 UNL     1      -7.304  47.759 -22.769  1.00  0.00    -0.022 C 
HETATM   25  C29 UNL     1      -7.014  49.215 -23.276  1.00  0.00     0.017 C 
HETATM   26  C30 UNL     1     -10.219  46.799 -25.300  1.00  0.00     0.018 C 
ENDROOT
BRANCH   4  27
HETATM   27  C8  UNL     1      -9.493  48.904 -26.657  1.00  0.00     0.149 C 
HETATM   28  O1  UNL     1      -9.814  49.714 -25.805  1.00  0.00    -0.649 OA
BRANCH  27  29
HETATM   29  O2  UNL     1      -9.068  49.345 -27.859  1.00  0.00    -0.776 OA
HETATM   30  H11 UNL     1      -9.117  50.320 -27.786  1.00  0.00     0.167 HD
ENDBRANCH  27  29
ENDBRANCH   4  27
BRANCH   1  31
HETATM   31  C2  UNL     1     -12.720  46.221 -24.829  1.00  0.00    -0.088 C 
HETATM   32  C1  UNL     1     -12.630  44.883 -24.938  1.00  0.00     0.014 C 
HETATM   33  C3  UNL     1     -13.809  46.844 -23.995  1.00  0.00     0.043 C 
ENDBRANCH   1  31
BRANCH   7  34
HETATM   34  C12 UNL     1      -7.874  45.351 -23.697  1.00  0.00     0.149 C 
HETATM   35  O3  UNL     1      -7.433  44.799 -22.701  1.00  0.00    -0.649 OA
BRANCH  34  36
HETATM   36  O4  UNL     1      -8.350  44.557 -24.674  1.00  0.00    -0.776 OA
HETATM   37  H16 UNL     1      -8.198  43.652 -24.326  1.00  0.00     0.167 HD
ENDBRANCH  34  36
ENDBRANCH   7  34
TORSDOF 5
ENDMDL
