MODEL 1
REMARK minimizedAffinity -6.82938862
REMARK CNNscore 0.79986769
REMARK CNNaffinity 7.42619944
REMARK  7 active torsions:
REMARK  status: ('A' for Active; 'I' for Inactive)
REMARK    1  A    between atoms: C2_2  and  C4_4 
REMARK    2  A    between atoms: C4_4  and  O2_6 
REMARK    3  A    between atoms: O2_6  and  C5_7 
REMARK    4  A    between atoms: C5_7  and  C6_8 
REMARK    5  A    between atoms: C6_8  and  C7_10 
REMARK    6  A    between atoms: C8_12  and  C9_13 
REMARK    7  A    between atoms: C29_35  and  O7_36 
ROOT
HETATM    1  C7  UNL     1       1.847  53.531  -9.600  1.00  0.00     0.160 C 
HETATM    2  O4  UNL     1       1.620  53.110  -8.254  1.00  0.00    -0.339 OA
HETATM    3  C8  UNL     1       1.694  54.289  -7.448  1.00  0.00     0.266 C 
HETATM    4  O5  UNL     1       1.388  55.429  -8.245  1.00  0.00    -0.352 OA
HETATM    5  C15 UNL     1       1.394  55.001  -9.605  1.00  0.00     0.168 C 
HETATM    6  C16 UNL     1      -0.043  55.028 -10.162  1.00  0.00     0.041 C 
HETATM    7  C17 UNL     1      -0.444  53.554 -10.209  1.00  0.00     0.004 C 
HETATM    8  C18 UNL     1      -1.678  53.177 -11.060  1.00  0.00    -0.001 C 
HETATM    9  C19 UNL     1      -2.925  53.533 -10.214  1.00  0.00     0.010 C 
HETATM   10  C20 UNL     1      -4.239  53.043 -10.791  1.00  0.00     0.036 C 
HETATM   11  C21 UNL     1      -4.149  51.567 -11.059  1.00  0.00    -0.064 A 
HETATM   12  C22 UNL     1      -5.003  50.708 -10.475  1.00  0.00     0.058 A 
HETATM   13  C23 UNL     1      -4.941  49.253 -10.731  1.00  0.00     0.172 A 
HETATM   14  O6  UNL     1      -5.713  48.476 -10.183  1.00  0.00    -0.289 OA
HETATM   15  C24 UNL     1      -3.914  48.778 -11.676  1.00  0.00     0.052 A 
HETATM   16  C25 UNL     1      -3.061  49.637 -12.251  1.00  0.00    -0.009 A 
HETATM   17  C26 UNL     1      -3.039  51.137 -12.013  1.00  0.00     0.004 A 
HETATM   18  C27 UNL     1      -3.330  51.749 -13.412  1.00  0.00     0.025 C 
HETATM   19  C28 UNL     1      -1.635  51.664 -11.511  1.00  0.00     0.035 C 
HETATM   20  C29 UNL     1      -0.852  50.844 -10.446  1.00  0.00     0.124 C 
HETATM   21  C30 UNL     1       0.625  51.315 -10.312  1.00  0.00     0.045 C 
HETATM   22  C31 UNL     1       0.856  52.820 -10.574  1.00  0.00     0.004 C 
HETATM   23  C32 UNL     1       1.299  53.063 -12.041  1.00  0.00     0.019 C 
ENDROOT
BRANCH   1  24
HETATM   24  C6  UNL     1       3.328  53.358  -9.971  1.00  0.00     0.188 C 
HETATM   25  O3  UNL     1       3.922  52.287  -9.808  1.00  0.00    -0.292 OA
BRANCH  24  26
HETATM   26  C5  UNL     1       4.058  54.606 -10.467  1.00  0.00     0.260 C 
BRANCH  26  27
HETATM   27  O2  UNL     1       5.162  54.957  -9.630  1.00  0.00    -0.314 OA
BRANCH  27  28
HETATM   28  C4  UNL     1       4.908  56.004  -8.797  1.00  0.00     0.262 C 
HETATM   29  O1  UNL     1       4.096  56.892  -9.030  1.00  0.00    -0.265 OA
BRANCH  28  30
HETATM   30  C2  UNL     1       5.699  55.907  -7.506  1.00  0.00     0.077 C 
HETATM   31  C1  UNL     1       5.735  57.229  -6.741  1.00  0.00     0.020 C 
HETATM   32  C3  UNL     1       7.102  55.394  -7.802  1.00  0.00     0.020 C 
ENDBRANCH  28  30
ENDBRANCH  27  28
ENDBRANCH  26  27
ENDBRANCH  24  26
ENDBRANCH   1  24
BRANCH   3  33
HETATM   33  C9  UNL     1       0.700  54.177  -6.282  1.00  0.00     0.041 C 
HETATM   34  C10 UNL     1       0.722  55.439  -5.397  1.00  0.00     0.009 C 
HETATM   35  C11 UNL     1      -0.574  55.666  -4.616  1.00  0.00     0.001 C 
HETATM   36  C12 UNL     1      -1.295  54.361  -4.312  1.00  0.00     0.000 C 
HETATM   37  C13 UNL     1      -1.671  53.608  -5.589  1.00  0.00     0.001 C 
HETATM   38  C14 UNL     1      -0.724  53.872  -6.764  1.00  0.00     0.009 C 
ENDBRANCH   3  33
BRANCH  20  39
HETATM   39  O7  UNL     1      -0.778  49.459 -10.769  1.00  0.00    -0.395 OA
HETATM   40  H39 UNL     1      -0.525  48.980  -9.959  1.00  0.00     0.210 HD
ENDBRANCH  20  39
TORSDOF 7
ENDMDL
MODEL 2
REMARK minimizedAffinity -7.07330036
REMARK CNNscore 0.60296011
REMARK CNNaffinity 6.98079348
REMARK  7 active torsions:
REMARK  status: ('A' for Active; 'I' for Inactive)
REMARK    1  A    between atoms: C2_2  and  C4_4 
REMARK    2  A    between atoms: C4_4  and  O2_6 
REMARK    3  A    between atoms: O2_6  and  C5_7 
REMARK    4  A    between atoms: C5_7  and  C6_8 
REMARK    5  A    between atoms: C6_8  and  C7_10 
REMARK    6  A    between atoms: C8_12  and  C9_13 
REMARK    7  A    between atoms: C29_35  and  O7_36 
ROOT
HETATM    1  C7  UNL     1      -0.446  53.355  -9.786  1.00  0.00     0.160 C 
HETATM    2  O4  UNL     1       0.064  52.022  -9.842  1.00  0.00    -0.339 OA
HETATM    3  C8  UNL     1      -0.090  51.592 -11.197  1.00  0.00     0.266 C 
HETATM    4  O5  UNL     1      -0.122  52.729 -12.055  1.00  0.00    -0.352 OA
HETATM    5  C15 UNL     1      -0.268  53.877 -11.222  1.00  0.00     0.168 C 
HETATM    6  C16 UNL     1       1.035  54.701 -11.244  1.00  0.00     0.041 C 
HETATM    7  C17 UNL     1       1.679  54.403  -9.890  1.00  0.00     0.004 C 
HETATM    8  C18 UNL     1       2.809  55.344  -9.416  1.00  0.00    -0.001 C 
HETATM    9  C19 UNL     1       4.091  54.912 -10.168  1.00  0.00     0.010 C 
HETATM   10  C20 UNL     1       5.362  55.581  -9.683  1.00  0.00     0.036 C 
HETATM   11  C21 UNL     1       5.494  55.389  -8.199  1.00  0.00    -0.064 A 
HETATM   12  C22 UNL     1       6.570  54.771  -7.678  1.00  0.00     0.058 A 
HETATM   13  C23 UNL     1       6.727  54.579  -6.220  1.00  0.00     0.172 A 
HETATM   14  O6  UNL     1       7.703  54.001  -5.755  1.00  0.00    -0.289 OA
HETATM   15  C24 UNL     1       5.665  55.114  -5.351  1.00  0.00     0.052 A 
HETATM   16  C25 UNL     1       4.592  55.724  -5.874  1.00  0.00    -0.009 A 
HETATM   17  C26 UNL     1       4.341  55.929  -7.358  1.00  0.00     0.004 A 
HETATM   18  C27 UNL     1       4.293  57.473  -7.528  1.00  0.00     0.025 C 
HETATM   19  C28 UNL     1       2.964  55.322  -7.844  1.00  0.00     0.035 C 
HETATM   20  C29 UNL     1       2.519  53.928  -7.315  1.00  0.00     0.124 C 
HETATM   21  C30 UNL     1       1.023  53.635  -7.622  1.00  0.00     0.045 C 
HETATM   22  C31 UNL     1       0.488  54.266  -8.928  1.00  0.00     0.004 C 
HETATM   23  C32 UNL     1      -0.218  55.617  -8.639  1.00  0.00     0.019 C 
ENDROOT
BRANCH   1  24
HETATM   24  C6  UNL     1      -1.912  53.348  -9.327  1.00  0.00     0.188 C 
HETATM   25  O3  UNL     1      -2.281  52.720  -8.329  1.00  0.00    -0.292 OA
BRANCH  24  26
HETATM   26  C5  UNL     1      -2.910  54.082 -10.221  1.00  0.00     0.260 C 
BRANCH  26  27
HETATM   27  O2  UNL     1      -4.050  53.279 -10.534  1.00  0.00    -0.314 OA
BRANCH  27  28
HETATM   28  C4  UNL     1      -3.870  52.466 -11.611  1.00  0.00     0.262 C 
HETATM   29  O1  UNL     1      -3.769  52.861 -12.767  1.00  0.00    -0.265 OA
BRANCH  28  30
HETATM   30  C2  UNL     1      -3.734  51.010 -11.206  1.00  0.00     0.077 C 
HETATM   31  C1  UNL     1      -3.450  50.095 -12.397  1.00  0.00     0.020 C 
HETATM   32  C3  UNL     1      -4.981  50.570 -10.450  1.00  0.00     0.020 C 
ENDBRANCH  28  30
ENDBRANCH  27  28
ENDBRANCH  26  27
ENDBRANCH  24  26
ENDBRANCH   1  24
BRANCH   3  33
HETATM   33  C9  UNL     1       1.081  50.675 -11.581  1.00  0.00     0.041 C 
HETATM   34  C10 UNL     1       1.391  50.753 -13.089  1.00  0.00     0.009 C 
HETATM   35  C11 UNL     1       2.828  50.365 -13.443  1.00  0.00     0.001 C 
HETATM   36  C12 UNL     1       3.415  49.374 -12.450  1.00  0.00     0.000 C 
HETATM   37  C13 UNL     1       3.444  49.939 -11.030  1.00  0.00     0.001 C 
HETATM   38  C14 UNL     1       2.338  50.961 -10.749  1.00  0.00     0.009 C 
ENDBRANCH   3  33
BRANCH  20  39
HETATM   39  O7  UNL     1       2.642  53.816  -5.900  1.00  0.00    -0.395 OA
HETATM   40  H39 UNL     1       2.611  52.869  -5.675  1.00  0.00     0.210 HD
ENDBRANCH  20  39
TORSDOF 7
ENDMDL
MODEL 3
REMARK minimizedAffinity -8.20988083
REMARK CNNscore 0.525019884
REMARK CNNaffinity 7.18713713
REMARK  7 active torsions:
REMARK  status: ('A' for Active; 'I' for Inactive)
REMARK    1  A    between atoms: C2_2  and  C4_4 
REMARK    2  A    between atoms: C4_4  and  O2_6 
REMARK    3  A    between atoms: O2_6  and  C5_7 
REMARK    4  A    between atoms: C5_7  and  C6_8 
REMARK    5  A    between atoms: C6_8  and  C7_10 
REMARK    6  A    between atoms: C8_12  and  C9_13 
REMARK    7  A    between atoms: C29_35  and  O7_36 
ROOT
HETATM    1  C7  UNL     1      -2.877  49.400 -20.507  1.00  0.00     0.160 C 
HETATM    2  O4  UNL     1      -3.231  49.755 -21.844  1.00  0.00    -0.339 OA
HETATM    3  C8  UNL     1      -2.208  49.217 -22.686  1.00  0.00     0.266 C 
HETATM    4  O5  UNL     1      -1.590  48.111 -22.034  1.00  0.00    -0.352 OA
HETATM    5  C15 UNL     1      -2.031  48.126 -20.678  1.00  0.00     0.168 C 
HETATM    6  C16 UNL     1      -2.966  46.927 -20.425  1.00  0.00     0.041 C 
HETATM    7  C17 UNL     1      -4.359  47.553 -20.375  1.00  0.00     0.004 C 
HETATM    8  C18 UNL     1      -5.501  46.706 -19.771  1.00  0.00    -0.001 C 
HETATM    9  C19 UNL     1      -5.943  45.708 -20.870  1.00  0.00     0.010 C 
HETATM   10  C20 UNL     1      -7.199  44.925 -20.542  1.00  0.00     0.036 C 
HETATM   11  C21 UNL     1      -8.302  45.878 -20.176  1.00  0.00    -0.064 A 
HETATM   12  C22 UNL     1      -9.454  45.896 -20.870  1.00  0.00     0.058 A 
HETATM   13  C23 UNL     1     -10.558  46.817 -20.523  1.00  0.00     0.172 A 
HETATM   14  O6  UNL     1     -11.598  46.837 -21.170  1.00  0.00    -0.289 OA
HETATM   15  C24 UNL     1     -10.356  47.705 -19.365  1.00  0.00     0.052 A 
HETATM   16  C25 UNL     1      -9.204  47.689 -18.681  1.00  0.00    -0.009 A 
HETATM   17  C26 UNL     1      -8.013  46.799 -18.995  1.00  0.00     0.004 A 
HETATM   18  C27 UNL     1      -7.844  45.924 -17.722  1.00  0.00     0.025 C 
HETATM   19  C28 UNL     1      -6.678  47.611 -19.233  1.00  0.00     0.035 C 
HETATM   20  C29 UNL     1      -6.725  48.922 -20.069  1.00  0.00     0.124 C 
HETATM   21  C30 UNL     1      -5.418  49.754 -19.929  1.00  0.00     0.045 C 
HETATM   22  C31 UNL     1      -4.134  48.922 -19.713  1.00  0.00     0.004 C 
HETATM   23  C32 UNL     1      -3.791  48.818 -18.203  1.00  0.00     0.019 C 
ENDROOT
BRANCH   1  24
HETATM   24  C6  UNL     1      -2.107  50.546 -19.835  1.00  0.00     0.188 C 
HETATM   25  O3  UNL     1      -2.658  51.607 -19.519  1.00  0.00    -0.292 OA
BRANCH  24  26
HETATM   26  C5  UNL     1      -0.602  50.347 -19.661  1.00  0.00     0.260 C 
BRANCH  26  27
HETATM   27  O2  UNL     1       0.129  50.678 -20.844  1.00  0.00    -0.314 OA
BRANCH  27  28
HETATM   28  C4  UNL     1       0.032  51.988 -21.200  1.00  0.00     0.262 C 
HETATM   29  O1  UNL     1      -0.715  52.415 -22.073  1.00  0.00    -0.265 OA
BRANCH  28  30
HETATM   30  C2  UNL     1       0.907  52.877 -20.336  1.00  0.00     0.077 C 
HETATM   31  C1  UNL     1       0.115  53.597 -19.246  1.00  0.00     0.020 C 
HETATM   32  C3  UNL     1       1.666  53.860 -21.217  1.00  0.00     0.020 C 
ENDBRANCH  28  30
ENDBRANCH  27  28
ENDBRANCH  26  27
ENDBRANCH  24  26
ENDBRANCH   1  24
BRANCH   3  33
HETATM   33  C9  UNL     1      -2.823  48.767 -24.019  1.00  0.00     0.041 C 
HETATM   34  C10 UNL     1      -4.321  48.436 -23.868  1.00  0.00     0.009 C 
HETATM   35  C11 UNL     1      -5.112  48.552 -25.173  1.00  0.00     0.001 C 
HETATM   36  C12 UNL     1      -4.245  48.283 -26.394  1.00  0.00     0.000 C 
HETATM   37  C13 UNL     1      -3.079  49.266 -26.492  1.00  0.00     0.001 C 
HETATM   38  C14 UNL     1      -2.601  49.795 -25.135  1.00  0.00     0.009 C 
ENDBRANCH   3  33
BRANCH  20  39
HETATM   39  O7  UNL     1      -7.773  49.795 -19.659  1.00  0.00    -0.395 OA
HETATM   40  H39 UNL     1      -7.913  50.443 -20.372  1.00  0.00     0.210 HD
ENDBRANCH  20  39
TORSDOF 7
ENDMDL
MODEL 4
REMARK minimizedAffinity -8.31013012
REMARK CNNscore 0.433183402
REMARK CNNaffinity 6.70902205
REMARK  7 active torsions:
REMARK  status: ('A' for Active; 'I' for Inactive)
REMARK    1  A    between atoms: C2_2  and  C4_4 
REMARK    2  A    between atoms: C4_4  and  O2_6 
REMARK    3  A    between atoms: O2_6  and  C5_7 
REMARK    4  A    between atoms: C5_7  and  C6_8 
REMARK    5  A    between atoms: C6_8  and  C7_10 
REMARK    6  A    between atoms: C8_12  and  C9_13 
REMARK    7  A    between atoms: C29_35  and  O7_36 
ROOT
HETATM    1  C7  UNL     1      -2.621  49.910 -20.336  1.00  0.00     0.160 C 
HETATM    2  O4  UNL     1      -3.025  50.533 -21.556  1.00  0.00    -0.339 OA
HETATM    3  C8  UNL     1      -1.962  50.316 -22.488  1.00  0.00     0.266 C 
HETATM    4  O5  UNL     1      -1.227  49.155 -22.107  1.00  0.00    -0.352 OA
HETATM    5  C15 UNL     1      -1.652  48.805 -20.792  1.00  0.00     0.168 C 
HETATM    6  C16 UNL     1      -2.458  47.491 -20.841  1.00  0.00     0.041 C 
HETATM    7  C17 UNL     1      -3.906  47.944 -20.662  1.00  0.00     0.004 C 
HETATM    8  C18 UNL     1      -4.949  46.866 -20.289  1.00  0.00    -0.001 C 
HETATM    9  C19 UNL     1      -5.300  46.117 -21.598  1.00  0.00     0.010 C 
HETATM   10  C20 UNL     1      -6.466  45.156 -21.481  1.00  0.00     0.036 C 
HETATM   11  C21 UNL     1      -7.656  45.878 -20.914  1.00  0.00    -0.064 A 
HETATM   12  C22 UNL     1      -8.812  45.943 -21.599  1.00  0.00     0.058 A 
HETATM   13  C23 UNL     1      -9.999  46.639 -21.058  1.00  0.00     0.172 A 
HETATM   14  O6  UNL     1     -11.044  46.705 -21.695  1.00  0.00    -0.289 OA
HETATM   15  C24 UNL     1      -9.875  47.245 -19.721  1.00  0.00     0.052 A 
HETATM   16  C25 UNL     1      -8.719  47.183 -19.045  1.00  0.00    -0.009 A 
HETATM   17  C26 UNL     1      -7.448  46.519 -19.545  1.00  0.00     0.004 A 
HETATM   18  C27 UNL     1      -7.176  45.389 -18.513  1.00  0.00     0.025 C 
HETATM   19  C28 UNL     1      -6.205  47.496 -19.568  1.00  0.00     0.035 C 
HETATM   20  C29 UNL     1      -6.395  48.955 -20.072  1.00  0.00     0.124 C 
HETATM   21  C30 UNL     1      -5.178  49.859 -19.723  1.00  0.00     0.045 C 
HETATM   22  C31 UNL     1      -3.813  49.134 -19.693  1.00  0.00     0.004 C 
HETATM   23  C32 UNL     1      -3.444  48.711 -18.246  1.00  0.00     0.019 C 
ENDROOT
BRANCH   1  24
HETATM   24  C6  UNL     1      -1.963  50.938 -19.403  1.00  0.00     0.188 C 
HETATM   25  O3  UNL     1      -2.579  51.919 -18.974  1.00  0.00    -0.292 OA
BRANCH  24  26
HETATM   26  C5  UNL     1      -0.478  50.736 -19.105  1.00  0.00     0.260 C 
BRANCH  26  27
HETATM   27  O2  UNL     1      -0.119  51.200 -17.801  1.00  0.00    -0.314 OA
BRANCH  27  28
HETATM   28  C4  UNL     1       0.764  52.236 -17.812  1.00  0.00     0.262 C 
HETATM   29  O1  UNL     1       0.971  52.960 -18.779  1.00  0.00    -0.265 OA
BRANCH  28  30
HETATM   30  C2  UNL     1       1.415  52.440 -16.456  1.00  0.00     0.077 C 
HETATM   31  C1  UNL     1       2.937  52.544 -16.548  1.00  0.00     0.020 C 
HETATM   32  C3  UNL     1       0.988  51.326 -15.510  1.00  0.00     0.020 C 
ENDBRANCH  28  30
ENDBRANCH  27  28
ENDBRANCH  26  27
ENDBRANCH  24  26
ENDBRANCH   1  24
BRANCH   3  33
HETATM   33  C9  UNL     1      -2.544  50.133 -23.897  1.00  0.00     0.041 C 
HETATM   34  C10 UNL     1      -1.570  50.636 -24.981  1.00  0.00     0.009 C 
HETATM   35  C11 UNL     1      -1.785  49.989 -26.351  1.00  0.00     0.001 C 
HETATM   36  C12 UNL     1      -3.230  49.562 -26.562  1.00  0.00     0.000 C 
HETATM   37  C13 UNL     1      -3.682  48.546 -25.513  1.00  0.00     0.001 C 
HETATM   38  C14 UNL     1      -2.961  48.683 -24.168  1.00  0.00     0.009 C 
ENDBRANCH   3  33
BRANCH  20  39
HETATM   39  O7  UNL     1      -7.521  49.596 -19.480  1.00  0.00    -0.395 OA
HETATM   40  H39 UNL     1      -7.735  50.376 -20.022  1.00  0.00     0.210 HD
ENDBRANCH  20  39
TORSDOF 7
ENDMDL
MODEL 5
REMARK minimizedAffinity -7.91060829
REMARK CNNscore 0.384623945
REMARK CNNaffinity 6.67408514
REMARK  7 active torsions:
REMARK  status: ('A' for Active; 'I' for Inactive)
REMARK    1  A    between atoms: C2_2  and  C4_4 
REMARK    2  A    between atoms: C4_4  and  O2_6 
REMARK    3  A    between atoms: O2_6  and  C5_7 
REMARK    4  A    between atoms: C5_7  and  C6_8 
REMARK    5  A    between atoms: C6_8  and  C7_10 
REMARK    6  A    between atoms: C8_12  and  C9_13 
REMARK    7  A    between atoms: C29_35  and  O7_36 
ROOT
HETATM    1  C7  UNL     1       0.284  51.609 -11.087  1.00  0.00     0.160 C 
HETATM    2  O4  UNL     1       1.321  51.214 -11.985  1.00  0.00    -0.339 OA
HETATM    3  C8  UNL     1       0.855  51.531 -13.300  1.00  0.00     0.266 C 
HETATM    4  O5  UNL     1      -0.110  52.577 -13.222  1.00  0.00    -0.352 OA
HETATM    5  C15 UNL     1      -0.453  52.726 -11.846  1.00  0.00     0.168 C 
HETATM    6  C16 UNL     1       0.096  54.067 -11.318  1.00  0.00     0.041 C 
HETATM    7  C17 UNL     1       1.301  53.660 -10.470  1.00  0.00     0.004 C 
HETATM    8  C18 UNL     1       1.869  54.709  -9.490  1.00  0.00    -0.001 C 
HETATM    9  C19 UNL     1       2.736  55.679 -10.331  1.00  0.00     0.010 C 
HETATM   10  C20 UNL     1       3.553  56.662  -9.516  1.00  0.00     0.036 C 
HETATM   11  C21 UNL     1       4.375  55.913  -8.505  1.00  0.00    -0.064 A 
HETATM   12  C22 UNL     1       5.716  56.017  -8.496  1.00  0.00     0.058 A 
HETATM   13  C23 UNL     1       6.545  55.298  -7.505  1.00  0.00     0.172 A 
HETATM   14  O6  UNL     1       7.767  55.387  -7.513  1.00  0.00    -0.289 OA
HETATM   15  C24 UNL     1       5.841  54.476  -6.505  1.00  0.00     0.052 A 
HETATM   16  C25 UNL     1       4.505  54.371  -6.522  1.00  0.00    -0.009 A 
HETATM   17  C26 UNL     1       3.588  55.048  -7.526  1.00  0.00     0.004 A 
HETATM   18  C27 UNL     1       2.694  55.978  -6.659  1.00  0.00     0.025 C 
HETATM   19  C28 UNL     1       2.659  54.030  -8.302  1.00  0.00     0.035 C 
HETATM   20  C29 UNL     1       3.257  52.684  -8.801  1.00  0.00     0.124 C 
HETATM   21  C30 UNL     1       2.153  51.679  -9.240  1.00  0.00     0.045 C 
HETATM   22  C31 UNL     1       0.882  52.324  -9.836  1.00  0.00     0.004 C 
HETATM   23  C32 UNL     1      -0.215  52.485  -8.750  1.00  0.00     0.019 C 
ENDROOT
BRANCH   1  24
HETATM   24  C6  UNL     1      -0.621  50.412 -10.756  1.00  0.00     0.188 C 
HETATM   25  O3  UNL     1      -0.177  49.381 -10.238  1.00  0.00    -0.292 OA
BRANCH  24  26
HETATM   26  C5  UNL     1      -2.084  50.522 -11.184  1.00  0.00     0.260 C 
BRANCH  26  27
HETATM   27  O2  UNL     1      -2.895  51.147 -10.187  1.00  0.00    -0.314 OA
BRANCH  27  28
HETATM   28  C4  UNL     1      -4.152  51.451 -10.614  1.00  0.00     0.262 C 
HETATM   29  O1  UNL     1      -5.085  50.657 -10.637  1.00  0.00    -0.265 OA
BRANCH  28  30
HETATM   30  C2  UNL     1      -4.283  52.914 -10.993  1.00  0.00     0.077 C 
HETATM   31  C1  UNL     1      -3.952  53.170 -12.463  1.00  0.00     0.020 C 
HETATM   32  C3  UNL     1      -3.419  53.762 -10.070  1.00  0.00     0.020 C 
ENDBRANCH  28  30
ENDBRANCH  27  28
ENDBRANCH  26  27
ENDBRANCH  24  26
ENDBRANCH   1  24
BRANCH   3  33
HETATM   33  C9  UNL     1       2.040  51.969 -14.173  1.00  0.00     0.041 C 
HETATM   34  C10 UNL     1       3.293  51.115 -13.897  1.00  0.00     0.009 C 
HETATM   35  C11 UNL     1       4.281  51.077 -15.065  1.00  0.00     0.001 C 
HETATM   36  C12 UNL     1       4.216  52.339 -15.912  1.00  0.00     0.000 C 
HETATM   37  C13 UNL     1       2.826  52.551 -16.512  1.00  0.00     0.001 C 
HETATM   38  C14 UNL     1       1.692  51.963 -15.667  1.00  0.00     0.009 C 
ENDBRANCH   3  33
BRANCH  20  39
HETATM   39  O7  UNL     1       4.001  52.009  -7.792  1.00  0.00    -0.395 OA
HETATM   40  H39 UNL     1       4.555  51.339  -8.232  1.00  0.00     0.210 HD
ENDBRANCH  20  39
TORSDOF 7
ENDMDL
MODEL 6
REMARK minimizedAffinity -7.27416992
REMARK CNNscore 0.358533949
REMARK CNNaffinity 5.40734911
REMARK  7 active torsions:
REMARK  status: ('A' for Active; 'I' for Inactive)
REMARK    1  A    between atoms: C2_2  and  C4_4 
REMARK    2  A    between atoms: C4_4  and  O2_6 
REMARK    3  A    between atoms: O2_6  and  C5_7 
REMARK    4  A    between atoms: C5_7  and  C6_8 
REMARK    5  A    between atoms: C6_8  and  C7_10 
REMARK    6  A    between atoms: C8_12  and  C9_13 
REMARK    7  A    between atoms: C29_35  and  O7_36 
ROOT
HETATM    1  C7  UNL     1     -13.975  46.317 -24.911  1.00  0.00     0.160 C 
HETATM    2  O4  UNL     1     -12.969  46.957 -24.125  1.00  0.00    -0.339 OA
HETATM    3  C8  UNL     1     -12.814  46.159 -22.948  1.00  0.00     0.266 C 
HETATM    4  O5  UNL     1     -13.224  44.823 -23.222  1.00  0.00    -0.352 OA
HETATM    5  C15 UNL     1     -13.894  44.842 -24.481  1.00  0.00     0.168 C 
HETATM    6  C16 UNL     1     -13.038  44.111 -25.534  1.00  0.00     0.041 C 
HETATM    7  C17 UNL     1     -12.453  45.242 -26.379  1.00  0.00     0.004 C 
HETATM    8  C18 UNL     1     -11.845  44.869 -27.749  1.00  0.00    -0.001 C 
HETATM    9  C19 UNL     1     -10.435  44.293 -27.467  1.00  0.00     0.010 C 
HETATM   10  C20 UNL     1      -9.591  44.060 -28.704  1.00  0.00     0.036 C 
HETATM   11  C21 UNL     1      -9.526  45.326 -29.512  1.00  0.00    -0.064 A 
HETATM   12  C22 UNL     1      -8.344  45.906 -29.789  1.00  0.00     0.058 A 
HETATM   13  C23 UNL     1      -8.254  47.145 -30.590  1.00  0.00     0.172 A 
HETATM   14  O6  UNL     1      -7.175  47.675 -30.825  1.00  0.00    -0.289 OA
HETATM   15  C24 UNL     1      -9.516  47.714 -31.097  1.00  0.00     0.052 A 
HETATM   16  C25 UNL     1     -10.691  47.136 -30.814  1.00  0.00    -0.009 A 
HETATM   17  C26 UNL     1     -10.869  45.885 -29.971  1.00  0.00     0.004 A 
HETATM   18  C27 UNL     1     -11.520  44.861 -30.942  1.00  0.00     0.025 C 
HETATM   19  C28 UNL     1     -11.836  46.100 -28.737  1.00  0.00     0.035 C 
HETATM   20  C29 UNL     1     -11.727  47.410 -27.907  1.00  0.00     0.124 C 
HETATM   21  C30 UNL     1     -12.945  47.606 -26.959  1.00  0.00     0.045 C 
HETATM   22  C31 UNL     1     -13.568  46.299 -26.418  1.00  0.00     0.004 C 
HETATM   23  C32 UNL     1     -14.782  45.869 -27.284  1.00  0.00     0.019 C 
ENDROOT
BRANCH   1  24
HETATM   24  C6  UNL     1     -15.349  46.947 -24.638  1.00  0.00     0.188 C 
HETATM   25  O3  UNL     1     -15.502  48.171 -24.558  1.00  0.00    -0.292 OA
BRANCH  24  26
HETATM   26  C5  UNL     1     -16.503  45.981 -24.375  1.00  0.00     0.260 C 
BRANCH  26  27
HETATM   27  O2  UNL     1     -17.474  45.999 -25.424  1.00  0.00    -0.314 OA
BRANCH  27  28
HETATM   28  C4  UNL     1     -18.681  46.502 -25.046  1.00  0.00     0.262 C 
HETATM   29  O1  UNL     1     -18.875  47.668 -24.724  1.00  0.00    -0.265 OA
BRANCH  28  30
HETATM   30  C2  UNL     1     -19.782  45.461 -25.138  1.00  0.00     0.077 C 
HETATM   31  C1  UNL     1     -20.173  44.901 -23.770  1.00  0.00     0.020 C 
HETATM   32  C3  UNL     1     -19.363  44.355 -26.096  1.00  0.00     0.020 C 
ENDBRANCH  28  30
ENDBRANCH  27  28
ENDBRANCH  26  27
ENDBRANCH  24  26
ENDBRANCH   1  24
BRANCH   3  33
HETATM   33  C9  UNL     1     -11.343  46.179 -22.504  1.00  0.00     0.041 C 
HETATM   34  C10 UNL     1     -10.424  46.723 -23.617  1.00  0.00     0.009 C 
HETATM   35  C11 UNL     1      -9.110  47.310 -23.097  1.00  0.00     0.001 C 
HETATM   36  C12 UNL     1      -8.667  46.659 -21.795  1.00  0.00     0.000 C 
HETATM   37  C13 UNL     1      -9.704  46.839 -20.687  1.00  0.00     0.001 C 
HETATM   38  C14 UNL     1     -11.142  46.960 -21.200  1.00  0.00     0.009 C 
ENDBRANCH   3  33
BRANCH  20  39
HETATM   39  O7  UNL     1     -11.697  48.576 -28.725  1.00  0.00    -0.395 OA
HETATM   40  H39 UNL     1     -11.364  49.311 -28.181  1.00  0.00     0.210 HD
ENDBRANCH  20  39
TORSDOF 7
ENDMDL
MODEL 7
REMARK minimizedAffinity -6.80320549
REMARK CNNscore 0.345719278
REMARK CNNaffinity 5.92045212
REMARK  7 active torsions:
REMARK  status: ('A' for Active; 'I' for Inactive)
REMARK    1  A    between atoms: C2_2  and  C4_4 
REMARK    2  A    between atoms: C4_4  and  O2_6 
REMARK    3  A    between atoms: O2_6  and  C5_7 
REMARK    4  A    between atoms: C5_7  and  C6_8 
REMARK    5  A    between atoms: C6_8  and  C7_10 
REMARK    6  A    between atoms: C8_12  and  C9_13 
REMARK    7  A    between atoms: C29_35  and  O7_36 
ROOT
HETATM    1  C7  UNL     1     -17.896  43.924 -24.992  1.00  0.00     0.160 C 
HETATM    2  O4  UNL     1     -18.250  42.862 -25.878  1.00  0.00    -0.339 OA
HETATM    3  C8  UNL     1     -19.452  43.273 -26.536  1.00  0.00     0.266 C 
HETATM    4  O5  UNL     1     -19.530  44.696 -26.536  1.00  0.00    -0.352 OA
HETATM    5  C15 UNL     1     -18.525  45.169 -25.642  1.00  0.00     0.168 C 
HETATM    6  C16 UNL     1     -17.410  45.872 -26.442  1.00  0.00     0.041 C 
HETATM    7  C17 UNL     1     -16.260  44.867 -26.428  1.00  0.00     0.004 C 
HETATM    8  C18 UNL     1     -14.856  45.383 -26.813  1.00  0.00    -0.001 C 
HETATM    9  C19 UNL     1     -14.822  45.464 -28.359  1.00  0.00     0.010 C 
HETATM   10  C20 UNL     1     -13.454  45.753 -28.945  1.00  0.00     0.036 C 
HETATM   11  C21 UNL     1     -12.462  44.756 -28.416  1.00  0.00    -0.064 A 
HETATM   12  C22 UNL     1     -11.772  43.961 -29.254  1.00  0.00     0.058 A 
HETATM   13  C23 UNL     1     -10.784  42.979 -28.759  1.00  0.00     0.172 A 
HETATM   14  O6  UNL     1     -10.171  42.249 -29.528  1.00  0.00    -0.289 OA
HETATM   15  C24 UNL     1     -10.564  42.919 -27.303  1.00  0.00     0.052 A 
HETATM   16  C25 UNL     1     -11.258  43.708 -26.472  1.00  0.00    -0.009 A 
HETATM   17  C26 UNL     1     -12.313  44.715 -26.899  1.00  0.00     0.004 A 
HETATM   18  C27 UNL     1     -11.748  46.083 -26.426  1.00  0.00     0.025 C 
HETATM   19  C28 UNL     1     -13.714  44.477 -26.206  1.00  0.00     0.035 C 
HETATM   20  C29 UNL     1     -14.251  43.025 -26.056  1.00  0.00     0.124 C 
HETATM   21  C30 UNL     1     -15.457  42.944 -25.077  1.00  0.00     0.045 C 
HETATM   22  C31 UNL     1     -16.360  44.198 -25.047  1.00  0.00     0.004 C 
HETATM   23  C32 UNL     1     -15.954  45.142 -23.884  1.00  0.00     0.019 C 
ENDROOT
BRANCH   1  24
HETATM   24  C6  UNL     1     -18.435  43.646 -23.581  1.00  0.00     0.188 C 
HETATM   25  O3  UNL     1     -18.125  42.629 -22.951  1.00  0.00    -0.292 OA
BRANCH  24  26
HETATM   26  C5  UNL     1     -19.452  44.645 -23.030  1.00  0.00     0.260 C 
BRANCH  26  27
HETATM   27  O2  UNL     1     -18.854  45.596 -22.147  1.00  0.00    -0.314 OA
BRANCH  27  28
HETATM   28  C4  UNL     1     -19.151  45.389 -20.834  1.00  0.00     0.262 C 
HETATM   29  O1  UNL     1     -19.930  44.535 -20.428  1.00  0.00    -0.265 OA
BRANCH  28  30
HETATM   30  C2  UNL     1     -18.345  46.295 -19.921  1.00  0.00     0.077 C 
HETATM   31  C1  UNL     1     -19.084  47.589 -19.582  1.00  0.00     0.020 C 
HETATM   32  C3  UNL     1     -16.986  46.575 -20.546  1.00  0.00     0.020 C 
ENDBRANCH  28  30
ENDBRANCH  27  28
ENDBRANCH  26  27
ENDBRANCH  24  26
ENDBRANCH   1  24
BRANCH   3  33
HETATM   33  C9  UNL     1     -19.455  42.744 -27.978  1.00  0.00     0.041 C 
HETATM   34  C10 UNL     1     -20.877  42.730 -28.572  1.00  0.00     0.009 C 
HETATM   35  C11 UNL     1     -20.906  42.788 -30.101  1.00  0.00     0.001 C 
HETATM   36  C12 UNL     1     -19.661  42.171 -30.721  1.00  0.00     0.000 C 
HETATM   37  C13 UNL     1     -18.387  42.887 -30.273  1.00  0.00     0.001 C 
HETATM   38  C14 UNL     1     -18.492  43.523 -28.882  1.00  0.00     0.009 C 
ENDBRANCH   3  33
BRANCH  20  39
HETATM   39  O7  UNL     1     -13.276  42.133 -25.526  1.00  0.00    -0.395 OA
HETATM   40  H39 UNL     1     -13.575  41.225 -25.709  1.00  0.00     0.210 HD
ENDBRANCH  20  39
TORSDOF 7
ENDMDL
MODEL 8
REMARK minimizedAffinity -8.4633503
REMARK CNNscore 0.319681048
REMARK CNNaffinity 6.84405088
REMARK  7 active torsions:
REMARK  status: ('A' for Active; 'I' for Inactive)
REMARK    1  A    between atoms: C2_2  and  C4_4 
REMARK    2  A    between atoms: C4_4  and  O2_6 
REMARK    3  A    between atoms: O2_6  and  C5_7 
REMARK    4  A    between atoms: C5_7  and  C6_8 
REMARK    5  A    between atoms: C6_8  and  C7_10 
REMARK    6  A    between atoms: C8_12  and  C9_13 
REMARK    7  A    between atoms: C29_35  and  O7_36 
ROOT
HETATM    1  C7  UNL     1      -0.780  51.652 -20.176  1.00  0.00     0.160 C 
HETATM    2  O4  UNL     1      -0.892  52.439 -21.362  1.00  0.00    -0.339 OA
HETATM    3  C8  UNL     1       0.366  52.331 -22.034  1.00  0.00     0.266 C 
HETATM    4  O5  UNL     1       1.009  51.120 -21.647  1.00  0.00    -0.352 OA
HETATM    5  C15 UNL     1       0.288  50.604 -20.530  1.00  0.00     0.168 C 
HETATM    6  C16 UNL     1      -0.459  49.320 -20.945  1.00  0.00     0.041 C 
HETATM    7  C17 UNL     1      -1.917  49.767 -21.058  1.00  0.00     0.004 C 
HETATM    8  C18 UNL     1      -2.999  48.665 -21.092  1.00  0.00    -0.001 C 
HETATM    9  C19 UNL     1      -3.015  48.103 -22.535  1.00  0.00     0.010 C 
HETATM   10  C20 UNL     1      -4.159  47.153 -22.829  1.00  0.00     0.036 C 
HETATM   11  C21 UNL     1      -5.462  47.811 -22.471  1.00  0.00    -0.064 A 
HETATM   12  C22 UNL     1      -6.422  47.984 -23.397  1.00  0.00     0.058 A 
HETATM   13  C23 UNL     1      -7.716  48.620 -23.068  1.00  0.00     0.172 A 
HETATM   14  O6  UNL     1      -8.579  48.787 -23.921  1.00  0.00    -0.289 OA
HETATM   15  C24 UNL     1      -7.925  49.039 -21.671  1.00  0.00     0.052 A 
HETATM   16  C25 UNL     1      -6.963  48.871 -20.753  1.00  0.00    -0.009 A 
HETATM   17  C26 UNL     1      -5.598  48.259 -21.020  1.00  0.00     0.004 A 
HETATM   18  C27 UNL     1      -5.561  46.998 -20.112  1.00  0.00     0.025 C 
HETATM   19  C28 UNL     1      -4.402  49.212 -20.615  1.00  0.00     0.035 C 
HETATM   20  C29 UNL     1      -4.491  50.728 -20.950  1.00  0.00     0.124 C 
HETATM   21  C30 UNL     1      -3.408  51.558 -20.203  1.00  0.00     0.045 C 
HETATM   22  C31 UNL     1      -2.078  50.815 -19.946  1.00  0.00     0.004 C 
HETATM   23  C32 UNL     1      -2.058  50.198 -18.522  1.00  0.00     0.019 C 
ENDROOT
BRANCH   1  24
HETATM   24  C6  UNL     1      -0.382  52.536 -18.984  1.00  0.00     0.188 C 
HETATM   25  O3  UNL     1      -0.284  53.763 -19.084  1.00  0.00    -0.292 OA
BRANCH  24  26
HETATM   26  C5  UNL     1      -0.020  51.811 -17.688  1.00  0.00     0.260 C 
BRANCH  26  27
HETATM   27  O2  UNL     1       1.244  52.229 -17.168  1.00  0.00    -0.314 OA
BRANCH  27  28
HETATM   28  C4  UNL     1       1.626  51.556 -16.048  1.00  0.00     0.262 C 
HETATM   29  O1  UNL     1       1.062  50.558 -15.614  1.00  0.00    -0.265 OA
BRANCH  28  30
HETATM   30  C2  UNL     1       2.883  52.144 -15.434  1.00  0.00     0.077 C 
HETATM   31  C1  UNL     1       3.959  52.442 -16.478  1.00  0.00     0.020 C 
HETATM   32  C3  UNL     1       3.404  51.217 -14.344  1.00  0.00     0.020 C 
ENDBRANCH  28  30
ENDBRANCH  27  28
ENDBRANCH  26  27
ENDBRANCH  24  26
ENDBRANCH   1  24
BRANCH   3  33
HETATM   33  C9  UNL     1       0.140  52.348 -23.553  1.00  0.00     0.041 C 
HETATM   34  C10 UNL     1      -1.280  51.871 -23.919  1.00  0.00     0.009 C 
HETATM   35  C11 UNL     1      -1.773  52.391 -25.272  1.00  0.00     0.001 C 
HETATM   36  C12 UNL     1      -0.627  52.647 -26.239  1.00  0.00     0.000 C 
HETATM   37  C13 UNL     1       0.355  53.684 -25.696  1.00  0.00     0.001 C 
HETATM   38  C14 UNL     1       0.431  53.723 -24.167  1.00  0.00     0.009 C 
ENDBRANCH   3  33
BRANCH  20  39
HETATM   39  O7  UNL     1      -5.737  51.301 -20.564  1.00  0.00    -0.395 OA
HETATM   40  H39 UNL     1      -5.829  52.150 -21.032  1.00  0.00     0.210 HD
ENDBRANCH  20  39
TORSDOF 7
ENDMDL
MODEL 9
REMARK minimizedAffinity -7.17102098
REMARK CNNscore 0.31873253
REMARK CNNaffinity 6.50250244
REMARK  7 active torsions:
REMARK  status: ('A' for Active; 'I' for Inactive)
REMARK    1  A    between atoms: C2_2  and  C4_4 
REMARK    2  A    between atoms: C4_4  and  O2_6 
REMARK    3  A    between atoms: O2_6  and  C5_7 
REMARK    4  A    between atoms: C5_7  and  C6_8 
REMARK    5  A    between atoms: C6_8  and  C7_10 
REMARK    6  A    between atoms: C8_12  and  C9_13 
REMARK    7  A    between atoms: C29_35  and  O7_36 
ROOT
HETATM    1  C7  UNL     1      -1.471  51.866 -10.096  1.00  0.00     0.160 C 
HETATM    2  O4  UNL     1      -0.826  51.131 -11.136  1.00  0.00    -0.339 OA
HETATM    3  C8  UNL     1      -1.568  51.394 -12.331  1.00  0.00     0.266 C 
HETATM    4  O5  UNL     1      -2.243  52.643 -12.205  1.00  0.00    -0.352 OA
HETATM    5  C15 UNL     1      -2.151  53.031 -10.836  1.00  0.00     0.168 C 
HETATM    6  C16 UNL     1      -1.220  54.253 -10.705  1.00  0.00     0.041 C 
HETATM    7  C17 UNL     1       0.067  53.671 -10.121  1.00  0.00     0.004 C 
HETATM    8  C18 UNL     1       1.085  54.661  -9.512  1.00  0.00    -0.001 C 
HETATM    9  C19 UNL     1       1.857  55.288 -10.698  1.00  0.00     0.010 C 
HETATM   10  C20 UNL     1       3.049  56.135 -10.297  1.00  0.00     0.036 C 
HETATM   11  C21 UNL     1       3.953  55.335  -9.402  1.00  0.00    -0.064 A 
HETATM   12  C22 UNL     1       5.236  55.114  -9.741  1.00  0.00     0.058 A 
HETATM   13  C23 UNL     1       6.148  54.338  -8.873  1.00  0.00     0.172 A 
HETATM   14  O6  UNL     1       7.311  54.129  -9.196  1.00  0.00    -0.289 OA
HETATM   15  C24 UNL     1       5.601  53.832  -7.602  1.00  0.00     0.052 A 
HETATM   16  C25 UNL     1       4.321  54.050  -7.271  1.00  0.00    -0.009 A 
HETATM   17  C26 UNL     1       3.314  54.805  -8.123  1.00  0.00     0.004 A 
HETATM   18  C27 UNL     1       2.903  56.017  -7.242  1.00  0.00     0.025 C 
HETATM   19  C28 UNL     1       2.021  53.956  -8.454  1.00  0.00     0.035 C 
HETATM   20  C29 UNL     1       2.175  52.457  -8.838  1.00  0.00     0.124 C 
HETATM   21  C30 UNL     1       0.815  51.702  -8.806  1.00  0.00     0.045 C 
HETATM   22  C31 UNL     1      -0.417  52.559  -9.177  1.00  0.00     0.004 C 
HETATM   23  C32 UNL     1      -1.112  53.105  -7.901  1.00  0.00     0.019 C 
ENDROOT
BRANCH   1  24
HETATM   24  C6  UNL     1      -2.467  50.969  -9.346  1.00  0.00     0.188 C 
HETATM   25  O3  UNL     1      -2.094  50.110  -8.539  1.00  0.00    -0.292 OA
BRANCH  24  26
HETATM   26  C5  UNL     1      -3.941  51.126  -9.717  1.00  0.00     0.260 C 
BRANCH  26  27
HETATM   27  O2  UNL     1      -4.410  50.057 -10.542  1.00  0.00    -0.314 OA
BRANCH  27  28
HETATM   28  C4  UNL     1      -5.344  49.269  -9.940  1.00  0.00     0.262 C 
HETATM   29  O1  UNL     1      -5.107  48.493  -9.022  1.00  0.00    -0.265 OA
BRANCH  28  30
HETATM   30  C2  UNL     1      -6.735  49.517 -10.493  1.00  0.00     0.077 C 
HETATM   31  C1  UNL     1      -7.744  49.867  -9.401  1.00  0.00     0.020 C 
HETATM   32  C3  UNL     1      -7.186  48.310 -11.305  1.00  0.00     0.020 C 
ENDBRANCH  28  30
ENDBRANCH  27  28
ENDBRANCH  26  27
ENDBRANCH  24  26
ENDBRANCH   1  24
BRANCH   3  33
HETATM   33  C9  UNL     1      -0.611  51.430 -13.532  1.00  0.00     0.041 C 
HETATM   34  C10 UNL     1       0.863  51.434 -13.081  1.00  0.00     0.009 C 
HETATM   35  C11 UNL     1       1.831  50.894 -14.136  1.00  0.00     0.001 C 
HETATM   36  C12 UNL     1       1.318  51.116 -15.551  1.00  0.00     0.000 C 
HETATM   37  C13 UNL     1      -0.025  50.425 -15.785  1.00  0.00     0.001 C 
HETATM   38  C14 UNL     1      -0.877  50.287 -14.519  1.00  0.00     0.009 C 
ENDBRANCH   3  33
BRANCH  20  39
HETATM   39  O7  UNL     1       3.020  51.746  -7.939  1.00  0.00    -0.395 OA
HETATM   40  H39 UNL     1       3.283  50.916  -8.375  1.00  0.00     0.210 HD
ENDBRANCH  20  39
TORSDOF 7
ENDMDL
