MODEL 1
REMARK minimizedAffinity -10.2875004
REMARK  7 active torsions:
REMARK  status: ('A' for Active; 'I' for Inactive)
REMARK    1  A    between atoms: C2_2  and  C30_33 
REMARK    2  A    between atoms: C3_3  and  C4_4 
REMARK    3  A    between atoms: C4_4  and  C5_5 
REMARK    4  A    between atoms: C5_5  and  C6_6 
REMARK    5  A    between atoms: C6_6  and  C8_8 
REMARK    6  A    between atoms: C19_20  and  O2_21 
REMARK    7  A    between atoms: C30_33  and  O5_35 
ROOT
HETATM    1  C8  UNL     1      -1.168  50.708 -25.722  1.00  0.00    -0.002 C 
HETATM    2  C9  UNL     1      -2.145  50.926 -26.909  1.00  0.00     0.007 C 
HETATM    3  C10 UNL     1      -3.566  50.637 -26.367  1.00  0.00     0.018 C 
HETATM    4  C11 UNL     1      -3.336  49.983 -24.992  1.00  0.00     0.025 C 
HETATM    5  C12 UNL     1      -3.131  48.476 -25.270  1.00  0.00     0.024 C 
HETATM    6  C13 UNL     1      -4.457  50.123 -23.959  1.00  0.00     0.147 C 
HETATM    7  O1  UNL     1      -5.582  50.473 -24.327  1.00  0.00    -0.296 OA
HETATM    8  C14 UNL     1      -4.149  49.801 -22.445  1.00  0.00     0.055 C 
HETATM    9  C15 UNL     1      -2.655  50.184 -22.095  1.00  0.00     0.021 C 
HETATM   10  C16 UNL     1      -1.596  50.122 -23.210  1.00  0.00     0.012 C 
HETATM   11  C17 UNL     1      -2.108  50.793 -24.486  1.00  0.00    -0.026 C 
HETATM   12  C18 UNL     1      -2.443  52.282 -24.174  1.00  0.00     0.016 C 
HETATM   13  C19 UNL     1      -5.040  50.743 -21.550  1.00  0.00     0.135 C 
HETATM   14  C20 UNL     1      -5.062  50.031 -20.201  1.00  0.00     0.039 C 
HETATM   15  C21 UNL     1      -5.449  48.597 -20.596  1.00  0.00     0.012 C 
HETATM   16  C22 UNL     1      -5.384  47.539 -19.457  1.00  0.00     0.018 C 
HETATM   17  C23 UNL     1      -6.012  48.102 -18.164  1.00  0.00     0.023 C 
HETATM   18  C24 UNL     1      -6.159  46.260 -19.828  1.00  0.00     0.023 C 
HETATM   19  C25 UNL     1      -3.954  47.107 -19.162  1.00  0.00     0.135 C 
HETATM   20  O3  UNL     1      -3.629  46.633 -18.071  1.00  0.00    -0.297 OA
HETATM   21  C26 UNL     1      -2.914  47.274 -20.236  1.00  0.00     0.080 C 
HETATM   22  C27 UNL     1      -3.485  47.310 -21.652  1.00  0.00     0.018 C 
HETATM   23  C28 UNL     1      -4.627  48.330 -21.920  1.00  0.00    -0.022 C 
HETATM   24  C29 UNL     1      -5.608  47.676 -22.929  1.00  0.00     0.017 C 
ENDROOT
BRANCH  13  25
HETATM   25  O2  UNL     1      -6.404  50.851 -21.955  1.00  0.00    -0.394 OA
HETATM   26  H29 UNL     1      -6.429  50.974 -22.929  1.00  0.00     0.210 HD
ENDBRANCH  13  25
BRANCH   1  27
HETATM   27  C6  UNL     1       0.147  51.544 -25.722  1.00  0.00    -0.014 C 
HETATM   28  C7  UNL     1       0.748  51.517 -27.141  1.00  0.00     0.010 C 
BRANCH  27  29
HETATM   29  C5  UNL     1       0.008  53.011 -25.254  1.00  0.00     0.008 C 
BRANCH  29  30
HETATM   30  C4  UNL     1       0.916  53.360 -24.067  1.00  0.00     0.028 C 
BRANCH  30  31
HETATM   31  C3  UNL     1       0.579  52.523 -22.861  1.00  0.00    -0.013 C 
HETATM   32  C2  UNL     1       0.817  52.797 -21.563  1.00  0.00     0.008 C 
HETATM   33  C1  UNL     1       0.432  51.826 -20.483  1.00  0.00     0.055 C 
BRANCH  32  34
HETATM   34  C30 UNL     1       1.423  54.080 -21.126  1.00  0.00     0.171 C 
HETATM   35  O4  UNL     1       1.881  54.963 -21.828  1.00  0.00    -0.646 OA
BRANCH  34  36
HETATM   36  O5  UNL     1       1.410  54.208 -19.787  1.00  0.00    -0.773 OA
HETATM   37  H46 UNL     1       1.827  55.082 -19.640  1.00  0.00     0.167 HD
ENDBRANCH  34  36
ENDBRANCH  32  34
ENDBRANCH  30  31
ENDBRANCH  29  30
ENDBRANCH  27  29
ENDBRANCH   1  27
TORSDOF 7
ENDMDL
MODEL 2
REMARK minimizedAffinity -9.81102085
REMARK  7 active torsions:
REMARK  status: ('A' for Active; 'I' for Inactive)
REMARK    1  A    between atoms: C2_2  and  C30_33 
REMARK    2  A    between atoms: C3_3  and  C4_4 
REMARK    3  A    between atoms: C4_4  and  C5_5 
REMARK    4  A    between atoms: C5_5  and  C6_6 
REMARK    5  A    between atoms: C6_6  and  C8_8 
REMARK    6  A    between atoms: C19_20  and  O2_21 
REMARK    7  A    between atoms: C30_33  and  O5_35 
ROOT
HETATM    1  C8  UNL     1      -0.591  52.435 -20.253  1.00  0.00    -0.002 C 
HETATM    2  C9  UNL     1       0.008  51.938 -18.910  1.00  0.00     0.007 C 
HETATM    3  C10 UNL     1      -0.764  50.648 -18.536  1.00  0.00     0.018 C 
HETATM    4  C11 UNL     1      -1.961  50.612 -19.505  1.00  0.00     0.025 C 
HETATM    5  C12 UNL     1      -3.065  51.468 -18.843  1.00  0.00     0.024 C 
HETATM    6  C13 UNL     1      -2.556  49.239 -19.823  1.00  0.00     0.147 C 
HETATM    7  O1  UNL     1      -2.280  48.275 -19.104  1.00  0.00    -0.296 OA
HETATM    8  C14 UNL     1      -3.526  49.092 -21.060  1.00  0.00     0.055 C 
HETATM    9  C15 UNL     1      -3.106  50.092 -22.209  1.00  0.00     0.021 C 
HETATM   10  C16 UNL     1      -2.414  51.412 -21.823  1.00  0.00     0.012 C 
HETATM   11  C17 UNL     1      -1.302  51.166 -20.801  1.00  0.00    -0.026 C 
HETATM   12  C18 UNL     1      -0.253  50.193 -21.419  1.00  0.00     0.016 C 
HETATM   13  C19 UNL     1      -3.332  47.652 -21.669  1.00  0.00     0.135 C 
HETATM   14  C20 UNL     1      -4.611  47.434 -22.473  1.00  0.00     0.039 C 
HETATM   15  C21 UNL     1      -5.701  47.799 -21.454  1.00  0.00     0.012 C 
HETATM   16  C22 UNL     1      -7.153  47.862 -22.009  1.00  0.00     0.018 C 
HETATM   17  C23 UNL     1      -7.430  46.653 -22.928  1.00  0.00     0.023 C 
HETATM   18  C24 UNL     1      -8.195  47.829 -20.874  1.00  0.00     0.023 C 
HETATM   19  C25 UNL     1      -7.409  49.144 -22.791  1.00  0.00     0.135 C 
HETATM   20  O3  UNL     1      -8.295  49.219 -23.646  1.00  0.00    -0.297 OA
HETATM   21  C26 UNL     1      -6.545  50.344 -22.511  1.00  0.00     0.080 C 
HETATM   22  C27 UNL     1      -5.915  50.343 -21.120  1.00  0.00     0.018 C 
HETATM   23  C28 UNL     1      -5.122  49.069 -20.713  1.00  0.00    -0.022 C 
HETATM   24  C29 UNL     1      -5.353  48.843 -19.194  1.00  0.00     0.017 C 
ENDROOT
BRANCH  13  25
HETATM   25  O2  UNL     1      -3.285  46.591 -20.717  1.00  0.00    -0.394 OA
HETATM   26  H29 UNL     1      -2.701  46.867 -19.975  1.00  0.00     0.210 HD
ENDBRANCH  13  25
BRANCH   1  27
HETATM   27  C6  UNL     1       0.356  53.232 -21.200  1.00  0.00    -0.014 C 
HETATM   28  C7  UNL     1       1.572  53.719 -20.386  1.00  0.00     0.010 C 
BRANCH  27  29
HETATM   29  C5  UNL     1       0.852  52.468 -22.449  1.00  0.00     0.008 C 
BRANCH  29  30
HETATM   30  C4  UNL     1       0.253  52.993 -23.761  1.00  0.00     0.028 C 
BRANCH  30  31
HETATM   31  C3  UNL     1       0.837  52.276 -24.950  1.00  0.00    -0.013 C 
HETATM   32  C2  UNL     1       0.686  52.568 -26.258  1.00  0.00     0.008 C 
HETATM   33  C1  UNL     1       1.327  51.721 -27.320  1.00  0.00     0.055 C 
BRANCH  32  34
HETATM   34  C30 UNL     1      -0.076  53.757 -26.716  1.00  0.00     0.171 C 
HETATM   35  O4  UNL     1      -0.963  53.796 -27.549  1.00  0.00    -0.646 OA
BRANCH  34  36
HETATM   36  O5  UNL     1       0.311  54.875 -26.076  1.00  0.00    -0.773 OA
HETATM   37  H46 UNL     1      -0.263  55.568 -26.464  1.00  0.00     0.167 HD
ENDBRANCH  34  36
ENDBRANCH  32  34
ENDBRANCH  30  31
ENDBRANCH  29  30
ENDBRANCH  27  29
ENDBRANCH   1  27
TORSDOF 7
ENDMDL
MODEL 3
REMARK minimizedAffinity -9.71303368
REMARK  7 active torsions:
REMARK  status: ('A' for Active; 'I' for Inactive)
REMARK    1  A    between atoms: C2_2  and  C30_33 
REMARK    2  A    between atoms: C3_3  and  C4_4 
REMARK    3  A    between atoms: C4_4  and  C5_5 
REMARK    4  A    between atoms: C5_5  and  C6_6 
REMARK    5  A    between atoms: C6_6  and  C8_8 
REMARK    6  A    between atoms: C19_20  and  O2_21 
REMARK    7  A    between atoms: C30_33  and  O5_35 
ROOT
HETATM    1  C8  UNL     1      -1.285  51.047 -22.936  1.00  0.00    -0.002 C 
HETATM    2  C9  UNL     1      -1.167  50.600 -24.418  1.00  0.00     0.007 C 
HETATM    3  C10 UNL     1      -2.475  49.842 -24.754  1.00  0.00     0.018 C 
HETATM    4  C11 UNL     1      -3.161  49.622 -23.393  1.00  0.00     0.025 C 
HETATM    5  C12 UNL     1      -2.552  48.322 -22.818  1.00  0.00     0.024 C 
HETATM    6  C13 UNL     1      -4.683  49.466 -23.399  1.00  0.00     0.147 C 
HETATM    7  O1  UNL     1      -5.266  49.227 -24.461  1.00  0.00    -0.296 OA
HETATM    8  C14 UNL     1      -5.474  49.599 -22.039  1.00  0.00     0.055 C 
HETATM    9  C15 UNL     1      -4.757  50.638 -21.088  1.00  0.00     0.021 C 
HETATM   10  C16 UNL     1      -3.234  50.822 -21.208  1.00  0.00     0.012 C 
HETATM   11  C17 UNL     1      -2.814  50.956 -22.673  1.00  0.00    -0.026 C 
HETATM   12  C18 UNL     1      -3.535  52.192 -23.293  1.00  0.00     0.016 C 
HETATM   13  C19 UNL     1      -6.886  50.223 -22.349  1.00  0.00     0.135 C 
HETATM   14  C20 UNL     1      -7.717  49.839 -21.128  1.00  0.00     0.039 C 
HETATM   15  C21 UNL     1      -7.448  48.331 -21.013  1.00  0.00     0.012 C 
HETATM   16  C22 UNL     1      -8.009  47.638 -19.738  1.00  0.00     0.018 C 
HETATM   17  C23 UNL     1      -9.450  48.115 -19.457  1.00  0.00     0.023 C 
HETATM   18  C24 UNL     1      -8.052  46.106 -19.898  1.00  0.00     0.023 C 
HETATM   19  C25 UNL     1      -7.151  47.920 -18.511  1.00  0.00     0.135 C 
HETATM   20  O3  UNL     1      -7.605  47.845 -17.367  1.00  0.00    -0.297 OA
HETATM   21  C26 UNL     1      -5.710  48.306 -18.713  1.00  0.00     0.080 C 
HETATM   22  C27 UNL     1      -5.119  47.827 -20.037  1.00  0.00     0.018 C 
HETATM   23  C28 UNL     1      -5.905  48.193 -21.327  1.00  0.00    -0.022 C 
HETATM   24  C29 UNL     1      -5.756  47.005 -22.316  1.00  0.00     0.017 C 
ENDROOT
BRANCH  13  25
HETATM   25  O2  UNL     1      -7.563  49.662 -23.473  1.00  0.00    -0.394 OA
HETATM   26  H29 UNL     1      -6.920  49.575 -24.211  1.00  0.00     0.210 HD
ENDBRANCH  13  25
BRANCH   1  27
HETATM   27  C6  UNL     1      -0.529  52.345 -22.525  1.00  0.00    -0.014 C 
HETATM   28  C7  UNL     1      -0.073  52.207 -21.058  1.00  0.00     0.010 C 
BRANCH  27  29
HETATM   29  C5  UNL     1       0.687  52.720 -23.404  1.00  0.00     0.008 C 
BRANCH  29  30
HETATM   30  C4  UNL     1       0.306  53.499 -24.670  1.00  0.00     0.028 C 
BRANCH  30  31
HETATM   31  C3  UNL     1       0.641  52.715 -25.911  1.00  0.00    -0.013 C 
HETATM   32  C2  UNL     1       0.258  52.957 -27.181  1.00  0.00     0.008 C 
HETATM   33  C1  UNL     1       0.669  52.047 -28.303  1.00  0.00     0.055 C 
BRANCH  32  34
HETATM   34  C30 UNL     1      -0.546  54.152 -27.547  1.00  0.00     0.171 C 
HETATM   35  O4  UNL     1      -0.252  55.322 -27.388  1.00  0.00    -0.646 OA
BRANCH  34  36
HETATM   36  O5  UNL     1      -1.710  53.810 -28.128  1.00  0.00    -0.773 OA
HETATM   37  H46 UNL     1      -2.130  54.674 -28.317  1.00  0.00     0.167 HD
ENDBRANCH  34  36
ENDBRANCH  32  34
ENDBRANCH  30  31
ENDBRANCH  29  30
ENDBRANCH  27  29
ENDBRANCH   1  27
TORSDOF 7
ENDMDL
MODEL 4
REMARK minimizedAffinity -9.49786949
REMARK  7 active torsions:
REMARK  status: ('A' for Active; 'I' for Inactive)
REMARK    1  A    between atoms: C2_2  and  C30_33 
REMARK    2  A    between atoms: C3_3  and  C4_4 
REMARK    3  A    between atoms: C4_4  and  C5_5 
REMARK    4  A    between atoms: C5_5  and  C6_6 
REMARK    5  A    between atoms: C6_6  and  C8_8 
REMARK    6  A    between atoms: C19_20  and  O2_21 
REMARK    7  A    between atoms: C30_33  and  O5_35 
ROOT
HETATM    1  C8  UNL     1      -2.312  50.006 -26.340  1.00  0.00    -0.002 C 
HETATM    2  C9  UNL     1      -3.635  49.381 -26.858  1.00  0.00     0.007 C 
HETATM    3  C10 UNL     1      -4.528  49.149 -25.614  1.00  0.00     0.018 C 
HETATM    4  C11 UNL     1      -3.589  49.365 -24.412  1.00  0.00     0.025 C 
HETATM    5  C12 UNL     1      -2.892  48.007 -24.170  1.00  0.00     0.024 C 
HETATM    6  C13 UNL     1      -4.235  49.804 -23.096  1.00  0.00     0.147 C 
HETATM    7  O1  UNL     1      -5.455  49.686 -22.948  1.00  0.00    -0.296 OA
HETATM    8  C14 UNL     1      -3.320  50.384 -21.948  1.00  0.00     0.055 C 
HETATM    9  C15 UNL     1      -2.097  51.172 -22.567  1.00  0.00     0.021 C 
HETATM   10  C16 UNL     1      -1.564  50.744 -23.946  1.00  0.00     0.012 C 
HETATM   11  C17 UNL     1      -2.713  50.538 -24.935  1.00  0.00    -0.026 C 
HETATM   12  C18 UNL     1      -3.501  51.876 -25.078  1.00  0.00     0.016 C 
HETATM   13  C19 UNL     1      -4.150  51.461 -21.153  1.00  0.00     0.135 C 
HETATM   14  C20 UNL     1      -3.409  51.568 -19.824  1.00  0.00     0.039 C 
HETATM   15  C21 UNL     1      -3.282  50.095 -19.404  1.00  0.00     0.012 C 
HETATM   16  C22 UNL     1      -2.398  49.821 -18.153  1.00  0.00     0.018 C 
HETATM   17  C23 UNL     1      -2.712  50.842 -17.039  1.00  0.00     0.023 C 
HETATM   18  C24 UNL     1      -2.652  48.414 -17.577  1.00  0.00     0.023 C 
HETATM   19  C25 UNL     1      -0.912  49.891 -18.479  1.00  0.00     0.135 C 
HETATM   20  O3  UNL     1      -0.066  50.127 -17.614  1.00  0.00    -0.297 OA
HETATM   21  C26 UNL     1      -0.475  49.671 -19.902  1.00  0.00     0.080 C 
HETATM   22  C27 UNL     1      -1.461  48.853 -20.734  1.00  0.00     0.018 C 
HETATM   23  C28 UNL     1      -2.936  49.342 -20.750  1.00  0.00    -0.022 C 
HETATM   24  C29 UNL     1      -3.843  48.083 -20.802  1.00  0.00     0.017 C 
ENDROOT
BRANCH  13  25
HETATM   25  O2  UNL     1      -5.485  51.078 -20.825  1.00  0.00    -0.394 OA
HETATM   26  H29 UNL     1      -5.893  50.667 -21.619  1.00  0.00     0.210 HD
ENDBRANCH  13  25
BRANCH   1  27
HETATM   27  C6  UNL     1      -1.547  50.954 -27.311  1.00  0.00    -0.014 C 
HETATM   28  C7  UNL     1      -2.139  52.373 -27.185  1.00  0.00     0.010 C 
BRANCH  27  29
HETATM   29  C5  UNL     1      -0.016  51.021 -27.115  1.00  0.00     0.008 C 
BRANCH  29  30
HETATM   30  C4  UNL     1       0.486  52.413 -26.707  1.00  0.00     0.028 C 
BRANCH  30  31
HETATM   31  C3  UNL     1       0.637  52.520 -25.212  1.00  0.00    -0.013 C 
HETATM   32  C2  UNL     1       0.712  53.635 -24.458  1.00  0.00     0.008 C 
HETATM   33  C1  UNL     1       0.889  53.554 -22.969  1.00  0.00     0.055 C 
BRANCH  32  34
HETATM   34  C30 UNL     1       0.578  54.993 -25.045  1.00  0.00     0.171 C 
HETATM   35  O4  UNL     1       0.956  56.048 -24.570  1.00  0.00    -0.646 OA
BRANCH  34  36
HETATM   36  O5  UNL     1      -0.029  54.960 -26.245  1.00  0.00    -0.773 OA
HETATM   37  H46 UNL     1      -0.048  55.901 -26.514  1.00  0.00     0.167 HD
ENDBRANCH  34  36
ENDBRANCH  32  34
ENDBRANCH  30  31
ENDBRANCH  29  30
ENDBRANCH  27  29
ENDBRANCH   1  27
TORSDOF 7
ENDMDL
MODEL 5
REMARK minimizedAffinity -9.28890038
REMARK  7 active torsions:
REMARK  status: ('A' for Active; 'I' for Inactive)
REMARK    1  A    between atoms: C2_2  and  C30_33 
REMARK    2  A    between atoms: C3_3  and  C4_4 
REMARK    3  A    between atoms: C4_4  and  C5_5 
REMARK    4  A    between atoms: C5_5  and  C6_6 
REMARK    5  A    between atoms: C6_6  and  C8_8 
REMARK    6  A    between atoms: C19_20  and  O2_21 
REMARK    7  A    between atoms: C30_33  and  O5_35 
ROOT
HETATM    1  C8  UNL     1      -3.919  50.060 -20.023  1.00  0.00    -0.002 C 
HETATM    2  C9  UNL     1      -5.457  50.024 -20.232  1.00  0.00     0.007 C 
HETATM    3  C10 UNL     1      -5.698  50.205 -21.751  1.00  0.00     0.018 C 
HETATM    4  C11 UNL     1      -4.331  50.632 -22.318  1.00  0.00     0.025 C 
HETATM    5  C12 UNL     1      -4.262  52.166 -22.142  1.00  0.00     0.024 C 
HETATM    6  C13 UNL     1      -4.058  50.313 -23.789  1.00  0.00     0.147 C 
HETATM    7  O1  UNL     1      -4.998  50.013 -24.531  1.00  0.00    -0.296 OA
HETATM    8  C14 UNL     1      -2.577  50.391 -24.329  1.00  0.00     0.055 C 
HETATM    9  C15 UNL     1      -1.557  49.975 -23.195  1.00  0.00     0.021 C 
HETATM   10  C16 UNL     1      -1.942  50.229 -21.726  1.00  0.00     0.012 C 
HETATM   11  C17 UNL     1      -3.374  49.766 -21.449  1.00  0.00    -0.026 C 
HETATM   12  C18 UNL     1      -3.479  48.241 -21.756  1.00  0.00     0.016 C 
HETATM   13  C19 UNL     1      -2.407  49.306 -25.459  1.00  0.00     0.135 C 
HETATM   14  C20 UNL     1      -1.184  49.792 -26.233  1.00  0.00     0.039 C 
HETATM   15  C21 UNL     1      -1.531  51.265 -26.497  1.00  0.00     0.012 C 
HETATM   16  C22 UNL     1      -0.396  52.127 -27.121  1.00  0.00     0.018 C 
HETATM   17  C23 UNL     1       0.297  51.355 -28.265  1.00  0.00     0.023 C 
HETATM   18  C24 UNL     1      -0.942  53.440 -27.715  1.00  0.00     0.023 C 
HETATM   19  C25 UNL     1       0.652  52.523 -26.090  1.00  0.00     0.135 C 
HETATM   20  O3  UNL     1       1.805  52.820 -26.413  1.00  0.00    -0.297 OA
HETATM   21  C26 UNL     1       0.262  52.544 -24.637  1.00  0.00     0.080 C 
HETATM   22  C27 UNL     1      -1.235  52.729 -24.400  1.00  0.00     0.018 C 
HETATM   23  C28 UNL     1      -2.187  51.752 -25.143  1.00  0.00    -0.022 C 
HETATM   24  C29 UNL     1      -3.464  52.548 -25.529  1.00  0.00     0.017 C 
ENDROOT
BRANCH  13  25
HETATM   25  O2  UNL     1      -3.470  49.248 -26.408  1.00  0.00    -0.394 OA
HETATM   26  H29 UNL     1      -4.322  49.283 -25.921  1.00  0.00     0.210 HD
ENDBRANCH  13  25
BRANCH   1  27
HETATM   27  C6  UNL     1      -3.347  49.251 -18.821  1.00  0.00    -0.014 C 
HETATM   28  C7  UNL     1      -2.331  48.222 -19.356  1.00  0.00     0.010 C 
BRANCH  27  29
HETATM   29  C5  UNL     1      -2.683  50.090 -17.705  1.00  0.00     0.008 C 
BRANCH  29  30
HETATM   30  C4  UNL     1      -1.150  50.104 -17.783  1.00  0.00     0.028 C 
BRANCH  30  31
HETATM   31  C3  UNL     1      -0.659  51.264 -18.607  1.00  0.00    -0.013 C 
HETATM   32  C2  UNL     1       0.288  52.171 -18.292  1.00  0.00     0.008 C 
HETATM   33  C1  UNL     1       0.637  53.288 -19.234  1.00  0.00     0.055 C 
BRANCH  32  34
HETATM   34  C30 UNL     1       1.065  52.091 -17.028  1.00  0.00     0.171 C 
HETATM   35  O4  UNL     1       1.467  51.091 -16.465  1.00  0.00    -0.646 OA
BRANCH  34  36
HETATM   36  O5  UNL     1       1.322  53.311 -16.524  1.00  0.00    -0.773 OA
HETATM   37  H46 UNL     1       1.832  53.117 -15.711  1.00  0.00     0.167 HD
ENDBRANCH  34  36
ENDBRANCH  32  34
ENDBRANCH  30  31
ENDBRANCH  29  30
ENDBRANCH  27  29
ENDBRANCH   1  27
TORSDOF 7
ENDMDL
MODEL 6
REMARK minimizedAffinity -9.26413441
REMARK  7 active torsions:
REMARK  status: ('A' for Active; 'I' for Inactive)
REMARK    1  A    between atoms: C2_2  and  C30_33 
REMARK    2  A    between atoms: C3_3  and  C4_4 
REMARK    3  A    between atoms: C4_4  and  C5_5 
REMARK    4  A    between atoms: C5_5  and  C6_6 
REMARK    5  A    between atoms: C6_6  and  C8_8 
REMARK    6  A    between atoms: C19_20  and  O2_21 
REMARK    7  A    between atoms: C30_33  and  O5_35 
ROOT
HETATM    1  C8  UNL     1      -4.030  50.053 -20.054  1.00  0.00    -0.002 C 
HETATM    2  C9  UNL     1      -5.567  50.053 -20.271  1.00  0.00     0.007 C 
HETATM    3  C10 UNL     1      -5.796  50.251 -21.790  1.00  0.00     0.018 C 
HETATM    4  C11 UNL     1      -4.416  50.651 -22.346  1.00  0.00     0.025 C 
HETATM    5  C12 UNL     1      -4.313  52.182 -22.158  1.00  0.00     0.024 C 
HETATM    6  C13 UNL     1      -4.142  50.337 -23.818  1.00  0.00     0.147 C 
HETATM    7  O1  UNL     1      -5.085  50.064 -24.567  1.00  0.00    -0.296 OA
HETATM    8  C14 UNL     1      -2.657  50.385 -24.349  1.00  0.00     0.055 C 
HETATM    9  C15 UNL     1      -1.653  49.938 -23.212  1.00  0.00     0.021 C 
HETATM   10  C16 UNL     1      -2.040  50.190 -21.744  1.00  0.00     0.012 C 
HETATM   11  C17 UNL     1      -3.483  49.757 -21.479  1.00  0.00    -0.026 C 
HETATM   12  C18 UNL     1      -3.622  48.238 -21.797  1.00  0.00     0.016 C 
HETATM   13  C19 UNL     1      -2.505  49.306 -25.486  1.00  0.00     0.135 C 
HETATM   14  C20 UNL     1      -1.267  49.769 -26.250  1.00  0.00     0.039 C 
HETATM   15  C21 UNL     1      -1.579  51.252 -26.504  1.00  0.00     0.012 C 
HETATM   16  C22 UNL     1      -0.421  52.092 -27.116  1.00  0.00     0.018 C 
HETATM   17  C23 UNL     1       0.261  51.313 -28.262  1.00  0.00     0.023 C 
HETATM   18  C24 UNL     1      -0.934  53.421 -27.703  1.00  0.00     0.023 C 
HETATM   19  C25 UNL     1       0.630  52.457 -26.076  1.00  0.00     0.135 C 
HETATM   20  O3  UNL     1       1.791  52.729 -26.391  1.00  0.00    -0.297 OA
HETATM   21  C26 UNL     1       0.232  52.476 -24.625  1.00  0.00     0.080 C 
HETATM   22  C27 UNL     1      -1.262  52.693 -24.395  1.00  0.00     0.018 C 
HETATM   23  C28 UNL     1      -2.232  51.743 -25.151  1.00  0.00    -0.022 C 
HETATM   24  C29 UNL     1      -3.487  52.571 -25.538  1.00  0.00     0.017 C 
ENDROOT
BRANCH  13  25
HETATM   25  O2  UNL     1      -3.564  49.278 -26.442  1.00  0.00    -0.394 OA
HETATM   26  H29 UNL     1      -4.418  49.330 -25.959  1.00  0.00     0.210 HD
ENDBRANCH  13  25
BRANCH   1  27
HETATM   27  C6  UNL     1      -3.483  49.222 -18.854  1.00  0.00    -0.014 C 
HETATM   28  C7  UNL     1      -2.849  47.927 -19.398  1.00  0.00     0.010 C 
BRANCH  27  29
HETATM   29  C5  UNL     1      -2.463  49.948 -17.947  1.00  0.00     0.008 C 
BRANCH  29  30
HETATM   30  C4  UNL     1      -1.213  50.427 -18.697  1.00  0.00     0.028 C 
BRANCH  30  31
HETATM   31  C3  UNL     1      -0.190  50.989 -17.746  1.00  0.00    -0.013 C 
HETATM   32  C2  UNL     1       0.637  52.037 -17.933  1.00  0.00     0.008 C 
HETATM   33  C1  UNL     1       1.621  52.447 -16.875  1.00  0.00     0.055 C 
BRANCH  32  34
HETATM   34  C30 UNL     1       0.591  52.866 -19.164  1.00  0.00     0.171 C 
HETATM   35  O4  UNL     1       1.001  52.574 -20.273  1.00  0.00    -0.646 OA
BRANCH  34  36
HETATM   36  O5  UNL     1       0.000  54.054 -18.944  1.00  0.00    -0.773 OA
HETATM   37  H46 UNL     1       0.033  54.489 -19.821  1.00  0.00     0.167 HD
ENDBRANCH  34  36
ENDBRANCH  32  34
ENDBRANCH  30  31
ENDBRANCH  29  30
ENDBRANCH  27  29
ENDBRANCH   1  27
TORSDOF 7
ENDMDL
MODEL 7
REMARK minimizedAffinity -9.21275711
REMARK  7 active torsions:
REMARK  status: ('A' for Active; 'I' for Inactive)
REMARK    1  A    between atoms: C2_2  and  C30_33 
REMARK    2  A    between atoms: C3_3  and  C4_4 
REMARK    3  A    between atoms: C4_4  and  C5_5 
REMARK    4  A    between atoms: C5_5  and  C6_6 
REMARK    5  A    between atoms: C6_6  and  C8_8 
REMARK    6  A    between atoms: C19_20  and  O2_21 
REMARK    7  A    between atoms: C30_33  and  O5_35 
ROOT
HETATM    1  C8  UNL     1      -3.507  50.338 -25.250  1.00  0.00    -0.002 C 
HETATM    2  C9  UNL     1      -3.690  51.876 -25.153  1.00  0.00     0.007 C 
HETATM    3  C10 UNL     1      -4.117  52.177 -23.695  1.00  0.00     0.018 C 
HETATM    4  C11 UNL     1      -4.452  50.799 -23.093  1.00  0.00     0.025 C 
HETATM    5  C12 UNL     1      -5.924  50.520 -23.470  1.00  0.00     0.024 C 
HETATM    6  C13 UNL     1      -4.318  50.654 -21.575  1.00  0.00     0.147 C 
HETATM    7  O1  UNL     1      -4.246  51.666 -20.871  1.00  0.00    -0.296 OA
HETATM    8  C14 UNL     1      -4.292  49.208 -20.942  1.00  0.00     0.055 C 
HETATM    9  C15 UNL     1      -3.595  48.189 -21.931  1.00  0.00     0.021 C 
HETATM   10  C16 UNL     1      -3.679  48.454 -23.444  1.00  0.00     0.012 C 
HETATM   11  C17 UNL     1      -3.359  49.917 -23.761  1.00  0.00    -0.026 C 
HETATM   12  C18 UNL     1      -1.919  50.239 -23.258  1.00  0.00     0.016 C 
HETATM   13  C19 UNL     1      -3.370  49.246 -19.665  1.00  0.00     0.135 C 
HETATM   14  C20 UNL     1      -3.809  48.016 -18.877  1.00  0.00     0.039 C 
HETATM   15  C21 UNL     1      -5.337  48.180 -18.843  1.00  0.00     0.012 C 
HETATM   16  C22 UNL     1      -6.134  46.978 -18.259  1.00  0.00     0.018 C 
HETATM   17  C23 UNL     1      -5.457  46.458 -16.972  1.00  0.00     0.023 C 
HETATM   18  C24 UNL     1      -7.576  47.380 -17.892  1.00  0.00     0.023 C 
HETATM   19  C25 UNL     1      -6.246  45.831 -19.254  1.00  0.00     0.135 C 
HETATM   20  O3  UNL     1      -6.443  44.670 -18.889  1.00  0.00    -0.297 OA
HETATM   21  C26 UNL     1      -6.104  46.133 -20.721  1.00  0.00     0.080 C 
HETATM   22  C27 UNL     1      -6.434  47.577 -21.092  1.00  0.00     0.018 C 
HETATM   23  C28 UNL     1      -5.699  48.690 -20.295  1.00  0.00    -0.022 C 
HETATM   24  C29 UNL     1      -6.692  49.870 -20.117  1.00  0.00     0.017 C 
ENDROOT
BRANCH  13  25
HETATM   25  O2  UNL     1      -3.580  50.360 -18.799  1.00  0.00    -0.394 OA
HETATM   26  H29 UNL     1      -3.648  51.171 -19.348  1.00  0.00     0.210 HD
ENDBRANCH  13  25
BRANCH   1  27
HETATM   27  C6  UNL     1      -2.470  49.810 -26.286  1.00  0.00    -0.014 C 
HETATM   28  C7  UNL     1      -3.045  48.551 -26.964  1.00  0.00     0.010 C 
BRANCH  27  29
HETATM   29  C5  UNL     1      -2.034  50.821 -27.371  1.00  0.00     0.008 C 
BRANCH  29  30
HETATM   30  C4  UNL     1      -0.532  51.137 -27.342  1.00  0.00     0.028 C 
BRANCH  30  31
HETATM   31  C3  UNL     1      -0.083  51.510 -25.954  1.00  0.00    -0.013 C 
HETATM   32  C2  UNL     1       0.163  52.740 -25.459  1.00  0.00     0.008 C 
HETATM   33  C1  UNL     1       0.634  52.927 -24.045  1.00  0.00     0.055 C 
BRANCH  32  34
HETATM   34  C30 UNL     1      -0.059  53.971 -26.260  1.00  0.00     0.171 C 
HETATM   35  O4  UNL     1      -0.468  54.049 -27.403  1.00  0.00    -0.646 OA
BRANCH  34  36
HETATM   36  O5  UNL     1       0.237  55.081 -25.560  1.00  0.00    -0.773 OA
HETATM   37  H46 UNL     1       0.046  55.804 -26.193  1.00  0.00     0.167 HD
ENDBRANCH  34  36
ENDBRANCH  32  34
ENDBRANCH  30  31
ENDBRANCH  29  30
ENDBRANCH  27  29
ENDBRANCH   1  27
TORSDOF 7
ENDMDL
MODEL 8
REMARK minimizedAffinity -9.16658688
REMARK  7 active torsions:
REMARK  status: ('A' for Active; 'I' for Inactive)
REMARK    1  A    between atoms: C2_2  and  C30_33 
REMARK    2  A    between atoms: C3_3  and  C4_4 
REMARK    3  A    between atoms: C4_4  and  C5_5 
REMARK    4  A    between atoms: C5_5  and  C6_6 
REMARK    5  A    between atoms: C6_6  and  C8_8 
REMARK    6  A    between atoms: C19_20  and  O2_21 
REMARK    7  A    between atoms: C30_33  and  O5_35 
ROOT
HETATM    1  C8  UNL     1      -2.245  50.112 -22.859  1.00  0.00    -0.002 C 
HETATM    2  C9  UNL     1      -2.783  48.688 -23.167  1.00  0.00     0.007 C 
HETATM    3  C10 UNL     1      -2.994  47.993 -21.800  1.00  0.00     0.018 C 
HETATM    4  C11 UNL     1      -2.299  48.914 -20.780  1.00  0.00     0.025 C 
HETATM    5  C12 UNL     1      -0.813  48.490 -20.771  1.00  0.00     0.024 C 
HETATM    6  C13 UNL     1      -2.812  48.867 -19.339  1.00  0.00     0.147 C 
HETATM    7  O1  UNL     1      -3.524  47.926 -18.977  1.00  0.00    -0.296 OA
HETATM    8  C14 UNL     1      -2.403  50.020 -18.341  1.00  0.00     0.055 C 
HETATM    9  C15 UNL     1      -2.254  51.390 -19.117  1.00  0.00     0.021 C 
HETATM   10  C16 UNL     1      -1.836  51.358 -20.598  1.00  0.00     0.012 C 
HETATM   11  C17 UNL     1      -2.643  50.312 -21.370  1.00  0.00    -0.026 C 
HETATM   12  C18 UNL     1      -4.157  50.665 -21.267  1.00  0.00     0.016 C 
HETATM   13  C19 UNL     1      -3.591  50.241 -17.330  1.00  0.00     0.135 C 
HETATM   14  C20 UNL     1      -2.927  50.956 -16.157  1.00  0.00     0.039 C 
HETATM   15  C21 UNL     1      -1.711  50.059 -15.876  1.00  0.00     0.012 C 
HETATM   16  C22 UNL     1      -0.693  50.605 -14.834  1.00  0.00     0.018 C 
HETATM   17  C23 UNL     1      -1.435  51.182 -13.609  1.00  0.00     0.023 C 
HETATM   18  C24 UNL     1       0.247  49.495 -14.324  1.00  0.00     0.023 C 
HETATM   19  C25 UNL     1       0.200  51.689 -15.423  1.00  0.00     0.135 C 
HETATM   20  O3  UNL     1       0.758  52.530 -14.714  1.00  0.00    -0.297 OA
HETATM   21  C26 UNL     1       0.396  51.729 -16.915  1.00  0.00     0.080 C 
HETATM   22  C27 UNL     1       0.166  50.388 -17.607  1.00  0.00     0.018 C 
HETATM   23  C28 UNL     1      -1.181  49.671 -17.314  1.00  0.00    -0.022 C 
HETATM   24  C29 UNL     1      -0.901  48.144 -17.288  1.00  0.00     0.017 C 
ENDROOT
BRANCH  13  25
HETATM   25  O2  UNL     1      -4.157  49.048 -16.790  1.00  0.00    -0.394 OA
HETATM   26  H29 UNL     1      -4.281  48.405 -17.522  1.00  0.00     0.210 HD
ENDBRANCH  13  25
BRANCH   1  27
HETATM   27  C6  UNL     1      -2.583  51.235 -23.884  1.00  0.00    -0.014 C 
HETATM   28  C7  UNL     1      -3.207  52.424 -23.125  1.00  0.00     0.010 C 
BRANCH  27  29
HETATM   29  C5  UNL     1      -1.399  51.741 -24.739  1.00  0.00     0.008 C 
BRANCH  29  30
HETATM   30  C4  UNL     1      -1.066  50.822 -25.923  1.00  0.00     0.028 C 
BRANCH  30  31
HETATM   31  C3  UNL     1       0.408  50.849 -26.233  1.00  0.00    -0.013 C 
HETATM   32  C2  UNL     1       1.102  51.789 -26.904  1.00  0.00     0.008 C 
HETATM   33  C1  UNL     1       2.578  51.639 -27.146  1.00  0.00     0.055 C 
BRANCH  32  34
HETATM   34  C30 UNL     1       0.466  53.037 -27.398  1.00  0.00     0.171 C 
HETATM   35  O4  UNL     1      -0.054  53.227 -28.482  1.00  0.00    -0.646 OA
BRANCH  34  36
HETATM   36  O5  UNL     1       0.497  54.012 -26.472  1.00  0.00    -0.773 OA
HETATM   37  H46 UNL     1       0.050  54.761 -26.919  1.00  0.00     0.167 HD
ENDBRANCH  34  36
ENDBRANCH  32  34
ENDBRANCH  30  31
ENDBRANCH  29  30
ENDBRANCH  27  29
ENDBRANCH   1  27
TORSDOF 7
ENDMDL
MODEL 9
REMARK minimizedAffinity -9.05038929
REMARK  7 active torsions:
REMARK  status: ('A' for Active; 'I' for Inactive)
REMARK    1  A    between atoms: C2_2  and  C30_33 
REMARK    2  A    between atoms: C3_3  and  C4_4 
REMARK    3  A    between atoms: C4_4  and  C5_5 
REMARK    4  A    between atoms: C5_5  and  C6_6 
REMARK    5  A    between atoms: C6_6  and  C8_8 
REMARK    6  A    between atoms: C19_20  and  O2_21 
REMARK    7  A    between atoms: C30_33  and  O5_35 
ROOT
HETATM    1  C8  UNL     1      -1.288  51.851 -21.165  1.00  0.00    -0.002 C 
HETATM    2  C9  UNL     1      -0.980  52.214 -19.687  1.00  0.00     0.007 C 
HETATM    3  C10 UNL     1      -1.667  51.133 -18.817  1.00  0.00     0.018 C 
HETATM    4  C11 UNL     1      -2.583  50.369 -19.792  1.00  0.00     0.025 C 
HETATM    5  C12 UNL     1      -3.903  51.170 -19.847  1.00  0.00     0.024 C 
HETATM    6  C13 UNL     1      -2.924  48.921 -19.433  1.00  0.00     0.147 C 
HETATM    7  O1  UNL     1      -2.723  48.515 -18.285  1.00  0.00    -0.296 OA
HETATM    8  C14 UNL     1      -3.544  47.982 -20.541  1.00  0.00     0.055 C 
HETATM    9  C15 UNL     1      -2.974  48.364 -21.965  1.00  0.00     0.021 C 
HETATM   10  C16 UNL     1      -2.549  49.820 -22.224  1.00  0.00     0.012 C 
HETATM   11  C17 UNL     1      -1.698  50.354 -21.070  1.00  0.00    -0.026 C 
HETATM   12  C18 UNL     1      -0.427  49.463 -20.926  1.00  0.00     0.016 C 
HETATM   13  C19 UNL     1      -3.046  46.511 -20.274  1.00  0.00     0.135 C 
HETATM   14  C20 UNL     1      -4.059  45.654 -21.028  1.00  0.00     0.039 C 
HETATM   15  C21 UNL     1      -5.398  46.216 -20.524  1.00  0.00     0.012 C 
HETATM   16  C22 UNL     1      -6.671  45.680 -21.241  1.00  0.00     0.018 C 
HETATM   17  C23 UNL     1      -6.579  44.150 -21.426  1.00  0.00     0.023 C 
HETATM   18  C24 UNL     1      -7.946  45.972 -20.426  1.00  0.00     0.023 C 
HETATM   19  C25 UNL     1      -6.872  46.328 -22.605  1.00  0.00     0.135 C 
HETATM   20  O3  UNL     1      -7.528  45.782 -23.495  1.00  0.00    -0.297 OA
HETATM   21  C26 UNL     1      -6.244  47.671 -22.864  1.00  0.00     0.080 C 
HETATM   22  C27 UNL     1      -5.972  48.483 -21.601  1.00  0.00     0.018 C 
HETATM   23  C28 UNL     1      -5.163  47.779 -20.477  1.00  0.00    -0.022 C 
HETATM   24  C29 UNL     1      -5.727  48.272 -19.117  1.00  0.00     0.017 C 
ENDROOT
BRANCH  13  25
HETATM   25  O2  UNL     1      -3.111  46.086 -18.914  1.00  0.00    -0.394 OA
HETATM   26  H29 UNL     1      -2.759  46.807 -18.347  1.00  0.00     0.210 HD
ENDBRANCH  13  25
BRANCH   1  27
HETATM   27  C6  UNL     1      -0.236  52.275 -22.233  1.00  0.00    -0.014 C 
HETATM   28  C7  UNL     1       1.175  52.077 -21.644  1.00  0.00     0.010 C 
BRANCH  27  29
HETATM   29  C5  UNL     1      -0.329  51.542 -23.591  1.00  0.00     0.008 C 
BRANCH  29  30
HETATM   30  C4  UNL     1      -0.454  52.493 -24.789  1.00  0.00     0.028 C 
BRANCH  30  31
HETATM   31  C3  UNL     1       0.374  52.014 -25.953  1.00  0.00    -0.013 C 
HETATM   32  C2  UNL     1       0.448  52.533 -27.194  1.00  0.00     0.008 C 
HETATM   33  C1  UNL     1       1.315  51.904 -28.248  1.00  0.00     0.055 C 
BRANCH  32  34
HETATM   34  C30 UNL     1      -0.279  53.771 -27.575  1.00  0.00     0.171 C 
HETATM   35  O4  UNL     1      -0.120  54.893 -27.131  1.00  0.00    -0.646 OA
BRANCH  34  36
HETATM   36  O5  UNL     1      -1.188  53.539 -28.539  1.00  0.00    -0.773 OA
HETATM   37  H46 UNL     1      -1.583  54.421 -28.694  1.00  0.00     0.167 HD
ENDBRANCH  34  36
ENDBRANCH  32  34
ENDBRANCH  30  31
ENDBRANCH  29  30
ENDBRANCH  27  29
ENDBRANCH   1  27
TORSDOF 7
ENDMDL
