MODEL 1
REMARK minimizedAffinity -9.38418198
REMARK  7 active torsions:
REMARK  status: ('A' for Active; 'I' for Inactive)
REMARK    1  A    between atoms: C2_2  and  C30_33 
REMARK    2  A    between atoms: C3_3  and  C4_4 
REMARK    3  A    between atoms: C4_4  and  C5_5 
REMARK    4  A    between atoms: C5_5  and  C6_6 
REMARK    5  A    between atoms: C6_6  and  C8_8 
REMARK    6  A    between atoms: C15_15  and  O1_16 
REMARK    7  A    between atoms: C30_33  and  O5_35 
ROOT
HETATM    1  C8  UNL     1      -2.093   6.063  13.384  1.00  0.00    -0.002 C 
HETATM    2  C9  UNL     1      -2.232   5.324  12.034  1.00  0.00     0.007 C 
HETATM    3  C10 UNL     1      -0.856   5.429  11.331  1.00  0.00     0.015 C 
HETATM    4  C11 UNL     1       0.129   5.884  12.431  1.00  0.00    -0.005 C 
HETATM    5  C12 UNL     1       0.544   4.602  13.222  1.00  0.00     0.021 C 
HETATM    6  C13 UNL     1       1.459   6.551  12.102  1.00  0.00     0.002 C 
HETATM    7  C14 UNL     1       2.027   7.461  12.947  1.00  0.00    -0.032 C 
HETATM    8  C15 UNL     1       1.308   7.906  14.225  1.00  0.00     0.149 C 
HETATM    9  C16 UNL     1      -0.089   7.302  14.505  1.00  0.00     0.047 C 
HETATM   10  C17 UNL     1      -0.797   6.904  13.203  1.00  0.00    -0.026 C 
HETATM   11  C18 UNL     1      -1.076   8.189  12.368  1.00  0.00     0.016 C 
HETATM   12  C19 UNL     1       3.399   8.114  12.608  1.00  0.00    -0.012 C 
HETATM   13  C20 UNL     1       3.073   9.304  11.664  1.00  0.00     0.021 C 
HETATM   14  C21 UNL     1       4.208   8.693  13.811  1.00  0.00     0.021 C 
HETATM   15  C22 UNL     1       5.219   7.716  14.393  1.00  0.00     0.080 C 
HETATM   16  C23 UNL     1       6.271   7.411  13.348  1.00  0.00     0.135 C 
HETATM   17  O2  UNL     1       7.460   7.339  13.663  1.00  0.00    -0.297 OA
HETATM   18  C24 UNL     1       5.793   7.185  11.901  1.00  0.00     0.018 C 
HETATM   19  C25 UNL     1       6.262   8.369  11.050  1.00  0.00     0.023 C 
HETATM   20  C26 UNL     1       6.498   5.911  11.384  1.00  0.00     0.023 C 
HETATM   21  C27 UNL     1       4.244   6.973  11.934  1.00  0.00     0.020 C 
HETATM   22  C28 UNL     1       3.600   6.560  10.611  1.00  0.00     0.090 C 
HETATM   23  C29 UNL     1       2.162   6.138  10.835  1.00  0.00     0.157 C 
HETATM   24  O3  UNL     1       1.591   5.463   9.981  1.00  0.00    -0.293 OA
ENDROOT
BRANCH   1  25
HETATM   25  C6  UNL     1      -3.375   6.664  14.025  1.00  0.00    -0.014 C 
HETATM   26  C7  UNL     1      -3.441   6.267  15.511  1.00  0.00     0.010 C 
BRANCH  25  27
HETATM   27  C5  UNL     1      -4.762   6.528  13.354  1.00  0.00     0.008 C 
BRANCH  27  28
HETATM   28  C4  UNL     1      -5.642   5.294  13.579  1.00  0.00     0.028 C 
BRANCH  28  29
HETATM   29  C3  UNL     1      -5.411   4.156  12.628  1.00  0.00    -0.013 C 
HETATM   30  C2  UNL     1      -6.278   3.174  12.312  1.00  0.00     0.008 C 
HETATM   31  C1  UNL     1      -7.648   2.996  12.894  1.00  0.00     0.055 C 
BRANCH  30  32
HETATM   32  C30 UNL     1      -5.813   2.173  11.317  1.00  0.00     0.171 C 
HETATM   33  O4  UNL     1      -5.936   0.963  11.387  1.00  0.00    -0.646 OA
BRANCH  32  34
HETATM   34  O5  UNL     1      -5.203   2.743  10.265  1.00  0.00    -0.773 OA
HETATM   35  H44 UNL     1      -4.950   1.977   9.709  1.00  0.00     0.167 HD
ENDBRANCH  32  34
ENDBRANCH  30  32
ENDBRANCH  28  29
ENDBRANCH  27  28
ENDBRANCH  25  27
ENDBRANCH   1  25
BRANCH   8  36
HETATM   36  O1  UNL     1       1.165   9.324  14.164  1.00  0.00    -0.391 OA
HETATM   37  H22 UNL     1       0.793   9.620  15.012  1.00  0.00     0.210 HD
ENDBRANCH   8  36
TORSDOF 7
ENDMDL
MODEL 2
REMARK minimizedAffinity -9.16908741
REMARK  7 active torsions:
REMARK  status: ('A' for Active; 'I' for Inactive)
REMARK    1  A    between atoms: C2_2  and  C30_33 
REMARK    2  A    between atoms: C3_3  and  C4_4 
REMARK    3  A    between atoms: C4_4  and  C5_5 
REMARK    4  A    between atoms: C5_5  and  C6_6 
REMARK    5  A    between atoms: C6_6  and  C8_8 
REMARK    6  A    between atoms: C15_15  and  O1_16 
REMARK    7  A    between atoms: C30_33  and  O5_35 
ROOT
HETATM    1  C8  UNL     1      -2.802   4.753  13.197  1.00  0.00    -0.002 C 
HETATM    2  C9  UNL     1      -1.849   5.134  12.041  1.00  0.00     0.007 C 
HETATM    3  C10 UNL     1      -1.354   6.572  12.334  1.00  0.00     0.015 C 
HETATM    4  C11 UNL     1      -1.725   6.836  13.811  1.00  0.00    -0.005 C 
HETATM    5  C12 UNL     1      -0.599   6.189  14.680  1.00  0.00     0.021 C 
HETATM    6  C13 UNL     1      -1.849   8.246  14.374  1.00  0.00     0.002 C 
HETATM    7  C14 UNL     1      -2.709   8.531  15.396  1.00  0.00    -0.032 C 
HETATM    8  C15 UNL     1      -3.640   7.454  15.966  1.00  0.00     0.149 C 
HETATM    9  C16 UNL     1      -3.582   6.048  15.322  1.00  0.00     0.047 C 
HETATM   10  C17 UNL     1      -3.131   6.122  13.858  1.00  0.00    -0.026 C 
HETATM   11  C18 UNL     1      -4.208   6.894  13.037  1.00  0.00     0.016 C 
HETATM   12  C19 UNL     1      -2.805   9.971  15.978  1.00  0.00    -0.012 C 
HETATM   13  C20 UNL     1      -3.782  10.735  15.042  1.00  0.00     0.021 C 
HETATM   14  C21 UNL     1      -3.368  10.098  17.429  1.00  0.00     0.021 C 
HETATM   15  C22 UNL     1      -2.290  10.120  18.502  1.00  0.00     0.080 C 
HETATM   16  C23 UNL     1      -1.439  11.360  18.323  1.00  0.00     0.135 C 
HETATM   17  O2  UNL     1      -1.077  12.013  19.302  1.00  0.00    -0.297 OA
HETATM   18  C24 UNL     1      -1.041  11.748  16.886  1.00  0.00     0.018 C 
HETATM   19  C25 UNL     1      -1.788  13.033  16.513  1.00  0.00     0.023 C 
HETATM   20  C26 UNL     1       0.473  12.059  16.903  1.00  0.00     0.023 C 
HETATM   21  C27 UNL     1      -1.334  10.525  15.958  1.00  0.00     0.020 C 
HETATM   22  C28 UNL     1      -0.845  10.651  14.516  1.00  0.00     0.090 C 
HETATM   23  C29 UNL     1      -0.955   9.317  13.805  1.00  0.00     0.157 C 
HETATM   24  O3  UNL     1      -0.310   9.127  12.775  1.00  0.00    -0.293 OA
ENDROOT
BRANCH   1  25
HETATM   25  C6  UNL     1      -3.903   3.692  12.918  1.00  0.00    -0.014 C 
HETATM   26  C7  UNL     1      -3.332   2.581  12.019  1.00  0.00     0.010 C 
BRANCH  25  27
HETATM   27  C5  UNL     1      -5.325   4.096  12.463  1.00  0.00     0.008 C 
BRANCH  27  28
HETATM   28  C4  UNL     1      -6.571   3.640  13.231  1.00  0.00     0.028 C 
BRANCH  28  29
HETATM   29  C3  UNL     1      -7.184   4.671  14.134  1.00  0.00    -0.013 C 
HETATM   30  C2  UNL     1      -8.084   5.614  13.794  1.00  0.00     0.008 C 
HETATM   31  C1  UNL     1      -8.623   5.852  12.416  1.00  0.00     0.055 C 
BRANCH  30  32
HETATM   32  C30 UNL     1      -8.557   6.504  14.885  1.00  0.00     0.171 C 
HETATM   33  O4  UNL     1      -8.665   7.717  14.844  1.00  0.00    -0.646 OA
BRANCH  32  34
HETATM   34  O5  UNL     1      -8.875   5.823  15.999  1.00  0.00    -0.773 OA
HETATM   35  H44 UNL     1      -9.157   6.526  16.621  1.00  0.00     0.167 HD
ENDBRANCH  32  34
ENDBRANCH  30  32
ENDBRANCH  28  29
ENDBRANCH  27  28
ENDBRANCH  25  27
ENDBRANCH   1  25
BRANCH   8  36
HETATM   36  O1  UNL     1      -4.977   7.936  15.840  1.00  0.00    -0.391 OA
HETATM   37  H22 UNL     1      -5.562   7.300  16.282  1.00  0.00     0.210 HD
ENDBRANCH   8  36
TORSDOF 7
ENDMDL
MODEL 3
REMARK minimizedAffinity -8.95895576
REMARK  7 active torsions:
REMARK  status: ('A' for Active; 'I' for Inactive)
REMARK    1  A    between atoms: C2_2  and  C30_33 
REMARK    2  A    between atoms: C3_3  and  C4_4 
REMARK    3  A    between atoms: C4_4  and  C5_5 
REMARK    4  A    between atoms: C5_5  and  C6_6 
REMARK    5  A    between atoms: C6_6  and  C8_8 
REMARK    6  A    between atoms: C15_15  and  O1_16 
REMARK    7  A    between atoms: C30_33  and  O5_35 
ROOT
HETATM    1  C8  UNL     1      -4.004   6.888  14.594  1.00  0.00    -0.002 C 
HETATM    2  C9  UNL     1      -4.413   5.608  13.830  1.00  0.00     0.007 C 
HETATM    3  C10 UNL     1      -3.283   5.325  12.809  1.00  0.00     0.015 C 
HETATM    4  C11 UNL     1      -2.098   6.208  13.260  1.00  0.00    -0.005 C 
HETATM    5  C12 UNL     1      -1.366   5.431  14.401  1.00  0.00     0.021 C 
HETATM    6  C13 UNL     1      -0.971   6.597  12.310  1.00  0.00     0.002 C 
HETATM    7  C14 UNL     1      -0.298   7.777  12.451  1.00  0.00    -0.032 C 
HETATM    8  C15 UNL     1      -0.703   8.792  13.525  1.00  0.00     0.149 C 
HETATM    9  C16 UNL     1      -1.912   8.437  14.422  1.00  0.00     0.047 C 
HETATM   10  C17 UNL     1      -2.889   7.501  13.699  1.00  0.00    -0.026 C 
HETATM   11  C18 UNL     1      -3.501   8.255  12.481  1.00  0.00     0.016 C 
HETATM   12  C19 UNL     1       0.868   8.148  11.488  1.00  0.00    -0.012 C 
HETATM   13  C20 UNL     1       0.192   8.768  10.234  1.00  0.00     0.021 C 
HETATM   14  C21 UNL     1       1.899   9.194  12.017  1.00  0.00     0.021 C 
HETATM   15  C22 UNL     1       3.118   8.569  12.678  1.00  0.00     0.080 C 
HETATM   16  C23 UNL     1       3.889   7.775  11.645  1.00  0.00     0.135 C 
HETATM   17  O2  UNL     1       5.120   7.818  11.618  1.00  0.00    -0.297 OA
HETATM   18  C24 UNL     1       3.078   6.915  10.658  1.00  0.00     0.018 C 
HETATM   19  C25 UNL     1       3.191   7.547   9.267  1.00  0.00     0.023 C 
HETATM   20  C26 UNL     1       3.749   5.523  10.611  1.00  0.00     0.023 C 
HETATM   21  C27 UNL     1       1.620   6.796  11.209  1.00  0.00     0.020 C 
HETATM   22  C28 UNL     1       0.700   5.835  10.457  1.00  0.00     0.090 C 
HETATM   23  C29 UNL     1      -0.582   5.616  11.235  1.00  0.00     0.157 C 
HETATM   24  O3  UNL     1      -1.284   4.639  10.980  1.00  0.00    -0.293 OA
ENDROOT
BRANCH   1  25
HETATM   25  C6  UNL     1      -5.130   7.762  15.213  1.00  0.00    -0.014 C 
HETATM   26  C7  UNL     1      -4.502   8.899  16.040  1.00  0.00     0.010 C 
BRANCH  25  27
HETATM   27  C5  UNL     1      -6.331   7.135  15.958  1.00  0.00     0.008 C 
BRANCH  27  28
HETATM   28  C4  UNL     1      -7.607   6.723  15.215  1.00  0.00     0.028 C 
BRANCH  28  29
HETATM   29  C3  UNL     1      -7.597   5.337  14.639  1.00  0.00    -0.013 C 
HETATM   30  C2  UNL     1      -7.990   4.969  13.403  1.00  0.00     0.008 C 
HETATM   31  C1  UNL     1      -8.566   5.880  12.362  1.00  0.00     0.055 C 
BRANCH  30  32
HETATM   32  C30 UNL     1      -7.857   3.529  13.065  1.00  0.00     0.171 C 
HETATM   33  O4  UNL     1      -8.725   2.799  12.622  1.00  0.00    -0.646 OA
BRANCH  32  34
HETATM   34  O5  UNL     1      -6.621   3.059  13.307  1.00  0.00    -0.773 OA
HETATM   35  H44 UNL     1      -6.684   2.116  13.049  1.00  0.00     0.167 HD
ENDBRANCH  32  34
ENDBRANCH  30  32
ENDBRANCH  28  29
ENDBRANCH  27  28
ENDBRANCH  25  27
ENDBRANCH   1  25
BRANCH   8  36
HETATM   36  O1  UNL     1      -0.997  10.021  12.863  1.00  0.00    -0.391 OA
HETATM   37  H22 UNL     1      -1.165  10.691  13.546  1.00  0.00     0.210 HD
ENDBRANCH   8  36
TORSDOF 7
ENDMDL
MODEL 4
REMARK minimizedAffinity -8.84679985
REMARK  7 active torsions:
REMARK  status: ('A' for Active; 'I' for Inactive)
REMARK    1  A    between atoms: C2_2  and  C30_33 
REMARK    2  A    between atoms: C3_3  and  C4_4 
REMARK    3  A    between atoms: C4_4  and  C5_5 
REMARK    4  A    between atoms: C5_5  and  C6_6 
REMARK    5  A    between atoms: C6_6  and  C8_8 
REMARK    6  A    between atoms: C15_15  and  O1_16 
REMARK    7  A    between atoms: C30_33  and  O5_35 
ROOT
HETATM    1  C8  UNL     1      -6.428   7.119  14.084  1.00  0.00    -0.002 C 
HETATM    2  C9  UNL     1      -6.454   8.340  15.030  1.00  0.00     0.007 C 
HETATM    3  C10 UNL     1      -4.982   8.782  15.221  1.00  0.00     0.015 C 
HETATM    4  C11 UNL     1      -4.193   8.059  14.106  1.00  0.00    -0.005 C 
HETATM    5  C12 UNL     1      -4.362   8.915  12.810  1.00  0.00     0.021 C 
HETATM    6  C13 UNL     1      -2.689   7.833  14.195  1.00  0.00     0.002 C 
HETATM    7  C14 UNL     1      -2.097   6.751  13.608  1.00  0.00    -0.032 C 
HETATM    8  C15 UNL     1      -2.935   5.681  12.900  1.00  0.00     0.149 C 
HETATM    9  C16 UNL     1      -4.472   5.863  12.900  1.00  0.00     0.047 C 
HETATM   10  C17 UNL     1      -4.939   6.669  14.119  1.00  0.00    -0.026 C 
HETATM   11  C18 UNL     1      -4.633   5.852  15.410  1.00  0.00     0.016 C 
HETATM   12  C19 UNL     1      -0.555   6.548  13.686  1.00  0.00    -0.012 C 
HETATM   13  C20 UNL     1      -0.294   5.856  15.052  1.00  0.00     0.021 C 
HETATM   14  C21 UNL     1       0.082   5.643  12.585  1.00  0.00     0.021 C 
HETATM   15  C22 UNL     1       0.603   6.418  11.384  1.00  0.00     0.080 C 
HETATM   16  C23 UNL     1       1.737   7.317  11.830  1.00  0.00     0.135 C 
HETATM   17  O2  UNL     1       2.746   7.438  11.134  1.00  0.00    -0.297 OA
HETATM   18  C24 UNL     1       1.565   8.072  13.161  1.00  0.00     0.018 C 
HETATM   19  C25 UNL     1       2.541   7.475  14.180  1.00  0.00     0.023 C 
HETATM   20  C26 UNL     1       1.974   9.541  12.907  1.00  0.00     0.023 C 
HETATM   21  C27 UNL     1       0.058   7.991  13.570  1.00  0.00     0.020 C 
HETATM   22  C28 UNL     1      -0.350   8.829  14.781  1.00  0.00     0.090 C 
HETATM   23  C29 UNL     1      -1.859   8.868  14.909  1.00  0.00     0.157 C 
HETATM   24  O3  UNL     1      -2.385   9.745  15.592  1.00  0.00    -0.293 OA
ENDROOT
BRANCH   1  25
HETATM   25  C6  UNL     1      -7.595   6.097  14.174  1.00  0.00    -0.014 C 
HETATM   26  C7  UNL     1      -7.409   5.213  15.421  1.00  0.00     0.010 C 
BRANCH  25  27
HETATM   27  C5  UNL     1      -8.031   5.249  12.956  1.00  0.00     0.008 C 
BRANCH  27  28
HETATM   28  C4  UNL     1      -7.578   3.794  12.790  1.00  0.00     0.028 C 
BRANCH  28  29
HETATM   29  C3  UNL     1      -6.184   3.610  12.266  1.00  0.00    -0.013 C 
HETATM   30  C2  UNL     1      -5.674   2.504  11.687  1.00  0.00     0.008 C 
HETATM   31  C1  UNL     1      -6.399   1.207  11.491  1.00  0.00     0.055 C 
BRANCH  30  32
HETATM   32  C30 UNL     1      -4.263   2.585  11.229  1.00  0.00     0.171 C 
HETATM   33  O4  UNL     1      -3.293   2.076  11.761  1.00  0.00    -0.646 OA
BRANCH  32  34
HETATM   34  O5  UNL     1      -4.130   3.315  10.110  1.00  0.00    -0.773 OA
HETATM   35  H44 UNL     1      -3.166   3.287   9.935  1.00  0.00     0.167 HD
ENDBRANCH  32  34
ENDBRANCH  30  32
ENDBRANCH  28  29
ENDBRANCH  27  28
ENDBRANCH  25  27
ENDBRANCH   1  25
BRANCH   8  36
HETATM   36  O1  UNL     1      -2.645   4.431  13.523  1.00  0.00    -0.391 OA
HETATM   37  H22 UNL     1      -3.103   3.737  13.020  1.00  0.00     0.210 HD
ENDBRANCH   8  36
TORSDOF 7
ENDMDL
MODEL 5
REMARK minimizedAffinity -8.83342457
REMARK  7 active torsions:
REMARK  status: ('A' for Active; 'I' for Inactive)
REMARK    1  A    between atoms: C2_2  and  C30_33 
REMARK    2  A    between atoms: C3_3  and  C4_4 
REMARK    3  A    between atoms: C4_4  and  C5_5 
REMARK    4  A    between atoms: C5_5  and  C6_6 
REMARK    5  A    between atoms: C6_6  and  C8_8 
REMARK    6  A    between atoms: C15_15  and  O1_16 
REMARK    7  A    between atoms: C30_33  and  O5_35 
ROOT
HETATM    1  C8  UNL     1       3.858   7.504  10.281  1.00  0.00    -0.002 C 
HETATM    2  C9  UNL     1       4.019   5.998   9.974  1.00  0.00     0.007 C 
HETATM    3  C10 UNL     1       2.765   5.294  10.550  1.00  0.00     0.015 C 
HETATM    4  C11 UNL     1       1.756   6.430  10.831  1.00  0.00    -0.005 C 
HETATM    5  C12 UNL     1       1.048   6.749   9.475  1.00  0.00     0.021 C 
HETATM    6  C13 UNL     1       0.600   6.261  11.810  1.00  0.00     0.002 C 
HETATM    7  C14 UNL     1       0.102   7.321  12.513  1.00  0.00    -0.032 C 
HETATM    8  C15 UNL     1       0.741   8.710  12.401  1.00  0.00     0.149 C 
HETATM    9  C16 UNL     1       1.978   8.855  11.484  1.00  0.00     0.047 C 
HETATM   10  C17 UNL     1       2.748   7.532  11.370  1.00  0.00    -0.026 C 
HETATM   11  C18 UNL     1       3.327   7.165  12.769  1.00  0.00     0.016 C 
HETATM   12  C19 UNL     1      -1.096   7.137  13.489  1.00  0.00    -0.012 C 
HETATM   13  C20 UNL     1      -0.475   6.638  14.823  1.00  0.00     0.021 C 
HETATM   14  C21 UNL     1      -1.925   8.418  13.820  1.00  0.00     0.021 C 
HETATM   15  C22 UNL     1      -3.142   8.605  12.927  1.00  0.00     0.080 C 
HETATM   16  C23 UNL     1      -4.109   7.464  13.163  1.00  0.00     0.135 C 
HETATM   17  O2  UNL     1      -5.320   7.679  13.229  1.00  0.00    -0.297 OA
HETATM   18  C24 UNL     1      -3.520   6.048  13.297  1.00  0.00     0.018 C 
HETATM   19  C25 UNL     1      -3.689   5.595  14.751  1.00  0.00     0.023 C 
HETATM   20  C26 UNL     1      -4.366   5.117  12.401  1.00  0.00     0.023 C 
HETATM   21  C27 UNL     1      -2.041   6.092  12.791  1.00  0.00     0.020 C 
HETATM   22  C28 UNL     1      -1.334   4.742  12.683  1.00  0.00     0.090 C 
HETATM   23  C29 UNL     1      -0.020   4.894  11.944  1.00  0.00     0.157 C 
HETATM   24  O3  UNL     1       0.521   3.901  11.462  1.00  0.00    -0.293 OA
ENDROOT
BRANCH   1  25
HETATM   25  C6  UNL     1       5.144   8.368  10.401  1.00  0.00    -0.014 C 
HETATM   26  C7  UNL     1       6.348   7.460  10.708  1.00  0.00     0.010 C 
BRANCH  25  27
HETATM   27  C5  UNL     1       5.185   9.651  11.264  1.00  0.00     0.008 C 
BRANCH  27  28
HETATM   28  C4  UNL     1       6.356   9.944  12.208  1.00  0.00     0.028 C 
BRANCH  28  29
HETATM   29  C3  UNL     1       6.215   9.395  13.598  1.00  0.00    -0.013 C 
HETATM   30  C2  UNL     1       7.129   8.681  14.285  1.00  0.00     0.008 C 
HETATM   31  C1  UNL     1       8.469   8.250  13.770  1.00  0.00     0.055 C 
BRANCH  30  32
HETATM   32  C30 UNL     1       6.754   8.273  15.664  1.00  0.00     0.171 C 
HETATM   33  O4  UNL     1       7.362   8.520  16.689  1.00  0.00    -0.646 OA
BRANCH  32  34
HETATM   34  O5  UNL     1       5.616   7.559  15.693  1.00  0.00    -0.773 OA
HETATM   35  H44 UNL     1       5.501   7.358  16.645  1.00  0.00     0.167 HD
ENDBRANCH  32  34
ENDBRANCH  30  32
ENDBRANCH  28  29
ENDBRANCH  27  28
ENDBRANCH  25  27
ENDBRANCH   1  25
BRANCH   8  36
HETATM   36  O1  UNL     1       1.124   9.110  13.716  1.00  0.00    -0.391 OA
HETATM   37  H22 UNL     1       1.444  10.026  13.664  1.00  0.00     0.210 HD
ENDBRANCH   8  36
TORSDOF 7
ENDMDL
MODEL 6
REMARK minimizedAffinity -8.82626057
REMARK  7 active torsions:
REMARK  status: ('A' for Active; 'I' for Inactive)
REMARK    1  A    between atoms: C2_2  and  C30_33 
REMARK    2  A    between atoms: C3_3  and  C4_4 
REMARK    3  A    between atoms: C4_4  and  C5_5 
REMARK    4  A    between atoms: C5_5  and  C6_6 
REMARK    5  A    between atoms: C6_6  and  C8_8 
REMARK    6  A    between atoms: C15_15  and  O1_16 
REMARK    7  A    between atoms: C30_33  and  O5_35 
ROOT
HETATM    1  C8  UNL     1      -6.179   5.905  14.233  1.00  0.00    -0.002 C 
HETATM    2  C9  UNL     1      -5.402   4.965  13.284  1.00  0.00     0.007 C 
HETATM    3  C10 UNL     1      -3.941   5.478  13.255  1.00  0.00     0.015 C 
HETATM    4  C11 UNL     1      -3.826   6.446  14.454  1.00  0.00    -0.005 C 
HETATM    5  C12 UNL     1      -3.574   5.566  15.720  1.00  0.00     0.021 C 
HETATM    6  C13 UNL     1      -2.740   7.512  14.533  1.00  0.00     0.002 C 
HETATM    7  C14 UNL     1      -2.948   8.693  15.187  1.00  0.00    -0.032 C 
HETATM    8  C15 UNL     1      -4.313   9.023  15.802  1.00  0.00     0.149 C 
HETATM    9  C16 UNL     1      -5.444   7.981  15.631  1.00  0.00     0.047 C 
HETATM   10  C17 UNL     1      -5.241   7.139  14.364  1.00  0.00    -0.026 C 
HETATM   11  C18 UNL     1      -5.361   8.067  13.119  1.00  0.00     0.016 C 
HETATM   12  C19 UNL     1      -1.819   9.760  15.281  1.00  0.00    -0.012 C 
HETATM   13  C20 UNL     1      -1.895  10.566  13.955  1.00  0.00     0.021 C 
HETATM   14  C21 UNL     1      -1.933  10.789  16.450  1.00  0.00     0.021 C 
HETATM   15  C22 UNL     1      -1.163  10.383  17.697  1.00  0.00     0.080 C 
HETATM   16  C23 UNL     1       0.316  10.345  17.377  1.00  0.00     0.135 C 
HETATM   17  O2  UNL     1       1.139  10.787  18.179  1.00  0.00    -0.297 OA
HETATM   18  C24 UNL     1       0.736   9.724  16.031  1.00  0.00     0.018 C 
HETATM   19  C25 UNL     1       1.261  10.847  15.129  1.00  0.00     0.023 C 
HETATM   20  C26 UNL     1       1.904   8.755  16.323  1.00  0.00     0.023 C 
HETATM   21  C27 UNL     1      -0.489   8.941  15.458  1.00  0.00     0.020 C 
HETATM   22  C28 UNL     1      -0.221   8.107  14.206  1.00  0.00     0.090 C 
HETATM   23  C29 UNL     1      -1.402   7.206  13.911  1.00  0.00     0.157 C 
HETATM   24  O3  UNL     1      -1.252   6.236  13.171  1.00  0.00    -0.293 OA
ENDROOT
BRANCH   1  25
HETATM   25  C6  UNL     1      -7.710   6.060  14.018  1.00  0.00    -0.014 C 
HETATM   26  C7  UNL     1      -8.056   5.763  12.548  1.00  0.00     0.010 C 
BRANCH  25  27
HETATM   27  C5  UNL     1      -8.483   7.300  14.528  1.00  0.00     0.008 C 
BRANCH  27  28
HETATM   28  C4  UNL     1      -9.957   7.212  14.937  1.00  0.00     0.028 C 
BRANCH  28  29
HETATM   29  C3  UNL     1     -10.942   7.638  13.887  1.00  0.00    -0.013 C 
HETATM   30  C2  UNL     1     -11.329   8.897  13.601  1.00  0.00     0.008 C 
HETATM   31  C1  UNL     1     -10.878  10.134  14.317  1.00  0.00     0.055 C 
BRANCH  30  32
HETATM   32  C30 UNL     1     -12.305   9.056  12.492  1.00  0.00     0.171 C 
HETATM   33  O4  UNL     1     -13.471   8.703  12.489  1.00  0.00    -0.646 OA
BRANCH  32  34
HETATM   34  O5  UNL     1     -11.765   9.656  11.418  1.00  0.00    -0.773 OA
HETATM   35  H44 UNL     1     -12.507   9.685  10.779  1.00  0.00     0.167 HD
ENDBRANCH  32  34
ENDBRANCH  30  32
ENDBRANCH  28  29
ENDBRANCH  27  28
ENDBRANCH  25  27
ENDBRANCH   1  25
BRANCH   8  36
HETATM   36  O1  UNL     1      -4.758  10.248  15.220  1.00  0.00    -0.391 OA
HETATM   37  H22 UNL     1      -5.577  10.508  15.673  1.00  0.00     0.210 HD
ENDBRANCH   8  36
TORSDOF 7
ENDMDL
MODEL 7
REMARK minimizedAffinity -8.79059124
REMARK  7 active torsions:
REMARK  status: ('A' for Active; 'I' for Inactive)
REMARK    1  A    between atoms: C2_2  and  C30_33 
REMARK    2  A    between atoms: C3_3  and  C4_4 
REMARK    3  A    between atoms: C4_4  and  C5_5 
REMARK    4  A    between atoms: C5_5  and  C6_6 
REMARK    5  A    between atoms: C6_6  and  C8_8 
REMARK    6  A    between atoms: C15_15  and  O1_16 
REMARK    7  A    between atoms: C30_33  and  O5_35 
ROOT
HETATM    1  C8  UNL     1      -4.021   6.338  13.422  1.00  0.00    -0.002 C 
HETATM    2  C9  UNL     1      -4.742   6.885  14.675  1.00  0.00     0.007 C 
HETATM    3  C10 UNL     1      -3.704   7.738  15.443  1.00  0.00     0.015 C 
HETATM    4  C11 UNL     1      -2.548   7.970  14.444  1.00  0.00    -0.005 C 
HETATM    5  C12 UNL     1      -2.974   9.167  13.534  1.00  0.00     0.021 C 
HETATM    6  C13 UNL     1      -1.145   8.347  14.902  1.00  0.00     0.002 C 
HETATM    7  C14 UNL     1      -0.040   7.977  14.188  1.00  0.00    -0.032 C 
HETATM    8  C15 UNL     1      -0.167   7.101  12.937  1.00  0.00     0.149 C 
HETATM    9  C16 UNL     1      -1.587   6.636  12.533  1.00  0.00     0.047 C 
HETATM   10  C17 UNL     1      -2.516   6.552  13.751  1.00  0.00    -0.026 C 
HETATM   11  C18 UNL     1      -1.990   5.443  14.710  1.00  0.00     0.016 C 
HETATM   12  C19 UNL     1       1.385   8.392  14.656  1.00  0.00    -0.012 C 
HETATM   13  C20 UNL     1       1.803   7.332  15.711  1.00  0.00     0.021 C 
HETATM   14  C21 UNL     1       2.497   8.411  13.560  1.00  0.00     0.021 C 
HETATM   15  C22 UNL     1       2.698   9.775  12.918  1.00  0.00     0.080 C 
HETATM   16  C23 UNL     1       3.192  10.748  13.967  1.00  0.00     0.135 C 
HETATM   17  O2  UNL     1       4.081  11.557  13.696  1.00  0.00    -0.297 OA
HETATM   18  C24 UNL     1       2.532  10.692  15.357  1.00  0.00     0.018 C 
HETATM   19  C25 UNL     1       3.560  10.146  16.354  1.00  0.00     0.023 C 
HETATM   20  C26 UNL     1       2.195  12.145  15.759  1.00  0.00     0.023 C 
HETATM   21  C27 UNL     1       1.224   9.845  15.235  1.00  0.00     0.020 C 
HETATM   22  C28 UNL     1       0.331   9.815  16.475  1.00  0.00     0.090 C 
HETATM   23  C29 UNL     1      -1.008   9.189  16.144  1.00  0.00     0.157 C 
HETATM   24  O3  UNL     1      -1.965   9.378  16.892  1.00  0.00    -0.293 OA
ENDROOT
BRANCH   1  25
HETATM   25  C6  UNL     1      -4.541   5.013  12.797  1.00  0.00    -0.014 C 
HETATM   26  C7  UNL     1      -5.928   4.681  13.376  1.00  0.00     0.010 C 
BRANCH  25  27
HETATM   27  C5  UNL     1      -3.656   3.747  12.719  1.00  0.00     0.008 C 
BRANCH  27  28
HETATM   28  C4  UNL     1      -4.122   2.489  11.978  1.00  0.00     0.028 C 
BRANCH  28  29
HETATM   29  C3  UNL     1      -3.026   1.627  11.421  1.00  0.00    -0.013 C 
HETATM   30  C2  UNL     1      -1.786   2.020  11.066  1.00  0.00     0.008 C 
HETATM   31  C1  UNL     1      -1.266   3.425  11.116  1.00  0.00     0.055 C 
BRANCH  30  32
HETATM   32  C30 UNL     1      -0.874   0.962  10.561  1.00  0.00     0.171 C 
HETATM   33  O4  UNL     1      -0.150   0.243  11.226  1.00  0.00    -0.646 OA
BRANCH  32  34
HETATM   34  O5  UNL     1      -0.907   0.854   9.223  1.00  0.00    -0.773 OA
HETATM   35  H44 UNL     1      -0.264   0.139   9.037  1.00  0.00     0.167 HD
ENDBRANCH  32  34
ENDBRANCH  30  32
ENDBRANCH  28  29
ENDBRANCH  27  28
ENDBRANCH  25  27
ENDBRANCH   1  25
BRANCH   8  36
HETATM   36  O1  UNL     1       0.628   5.936  13.149  1.00  0.00    -0.391 OA
HETATM   37  H22 UNL     1       0.625   5.422  12.324  1.00  0.00     0.210 HD
ENDBRANCH   8  36
TORSDOF 7
ENDMDL
MODEL 8
REMARK minimizedAffinity -8.73178196
REMARK  7 active torsions:
REMARK  status: ('A' for Active; 'I' for Inactive)
REMARK    1  A    between atoms: C2_2  and  C30_33 
REMARK    2  A    between atoms: C3_3  and  C4_4 
REMARK    3  A    between atoms: C4_4  and  C5_5 
REMARK    4  A    between atoms: C5_5  and  C6_6 
REMARK    5  A    between atoms: C6_6  and  C8_8 
REMARK    6  A    between atoms: C15_15  and  O1_16 
REMARK    7  A    between atoms: C30_33  and  O5_35 
ROOT
HETATM    1  C8  UNL     1      -3.826   5.816  12.907  1.00  0.00    -0.002 C 
HETATM    2  C9  UNL     1      -4.803   6.665  13.751  1.00  0.00     0.007 C 
HETATM    3  C10 UNL     1      -3.950   7.749  14.454  1.00  0.00     0.015 C 
HETATM    4  C11 UNL     1      -2.592   7.738  13.718  1.00  0.00    -0.005 C 
HETATM    5  C12 UNL     1      -2.770   8.603  12.429  1.00  0.00     0.021 C 
HETATM    6  C13 UNL     1      -1.323   8.294  14.352  1.00  0.00     0.002 C 
HETATM    7  C14 UNL     1      -0.092   7.787  14.045  1.00  0.00    -0.032 C 
HETATM    8  C15 UNL     1       0.052   6.584  13.106  1.00  0.00     0.149 C 
HETATM    9  C16 UNL     1      -1.247   5.958  12.543  1.00  0.00     0.047 C 
HETATM   10  C17 UNL     1      -2.432   6.184  13.491  1.00  0.00    -0.026 C 
HETATM   11  C18 UNL     1      -2.165   5.422  14.823  1.00  0.00     0.016 C 
HETATM   12  C19 UNL     1       1.197   8.383  14.682  1.00  0.00    -0.012 C 
HETATM   13  C20 UNL     1       1.338   7.690  16.065  1.00  0.00     0.021 C 
HETATM   14  C21 UNL     1       2.530   8.138  13.908  1.00  0.00     0.021 C 
HETATM   15  C22 UNL     1       2.904   9.269  12.961  1.00  0.00     0.080 C 
HETATM   16  C23 UNL     1       3.165  10.524  13.767  1.00  0.00     0.135 C 
HETATM   17  O2  UNL     1       4.110  11.261  13.483  1.00  0.00    -0.297 OA
HETATM   18  C24 UNL     1       2.202  10.837  14.928  1.00  0.00     0.018 C 
HETATM   19  C25 UNL     1       2.962  10.648  16.245  1.00  0.00     0.023 C 
HETATM   20  C26 UNL     1       1.814  12.328  14.806  1.00  0.00     0.023 C 
HETATM   21  C27 UNL     1       0.939   9.932  14.764  1.00  0.00     0.020 C 
HETATM   22  C28 UNL     1      -0.215  10.217  15.724  1.00  0.00     0.090 C 
HETATM   23  C29 UNL     1      -1.456   9.462  15.295  1.00  0.00     0.157 C 
HETATM   24  O3  UNL     1      -2.555   9.814  15.720  1.00  0.00    -0.293 OA
ENDROOT
BRANCH   1  25
HETATM   25  C6  UNL     1      -4.218   4.345  12.591  1.00  0.00    -0.014 C 
HETATM   26  C7  UNL     1      -3.142   3.707  11.694  1.00  0.00     0.010 C 
BRANCH  25  27
HETATM   27  C5  UNL     1      -5.637   3.967  12.107  1.00  0.00     0.008 C 
BRANCH  27  28
HETATM   28  C4  UNL     1      -6.696   3.426  13.074  1.00  0.00     0.028 C 
BRANCH  28  29
HETATM   29  C3  UNL     1      -7.374   4.457  13.928  1.00  0.00    -0.013 C 
HETATM   30  C2  UNL     1      -8.222   5.420  13.517  1.00  0.00     0.008 C 
HETATM   31  C1  UNL     1      -8.623   5.684  12.097  1.00  0.00     0.055 C 
BRANCH  30  32
HETATM   32  C30 UNL     1      -8.782   6.306  14.570  1.00  0.00     0.171 C 
HETATM   33  O4  UNL     1      -9.322   7.385  14.406  1.00  0.00    -0.646 OA
BRANCH  32  34
HETATM   34  O5  UNL     1      -8.633   5.792  15.802  1.00  0.00    -0.773 OA
HETATM   35  H44 UNL     1      -9.033   6.474  16.381  1.00  0.00     0.167 HD
ENDBRANCH  32  34
ENDBRANCH  30  32
ENDBRANCH  28  29
ENDBRANCH  27  28
ENDBRANCH  25  27
ENDBRANCH   1  25
BRANCH   8  36
HETATM   36  O1  UNL     1       0.752   5.566  13.820  1.00  0.00    -0.391 OA
HETATM   37  H22 UNL     1       0.927   4.838  13.200  1.00  0.00     0.210 HD
ENDBRANCH   8  36
TORSDOF 7
ENDMDL
MODEL 9
REMARK minimizedAffinity -8.70779514
REMARK  7 active torsions:
REMARK  status: ('A' for Active; 'I' for Inactive)
REMARK    1  A    between atoms: C2_2  and  C30_33 
REMARK    2  A    between atoms: C3_3  and  C4_4 
REMARK    3  A    between atoms: C4_4  and  C5_5 
REMARK    4  A    between atoms: C5_5  and  C6_6 
REMARK    5  A    between atoms: C6_6  and  C8_8 
REMARK    6  A    between atoms: C15_15  and  O1_16 
REMARK    7  A    between atoms: C30_33  and  O5_35 
ROOT
HETATM    1  C8  UNL     1      -2.122   6.131  13.419  1.00  0.00    -0.002 C 
HETATM    2  C9  UNL     1      -2.282   5.348  12.096  1.00  0.00     0.007 C 
HETATM    3  C10 UNL     1      -0.914   5.415  11.376  1.00  0.00     0.015 C 
HETATM    4  C11 UNL     1       0.087   5.898  12.449  1.00  0.00    -0.005 C 
HETATM    5  C12 UNL     1       0.499   4.640  13.279  1.00  0.00     0.021 C 
HETATM    6  C13 UNL     1       1.420   6.541  12.083  1.00  0.00     0.002 C 
HETATM    7  C14 UNL     1       2.005   7.474  12.891  1.00  0.00    -0.032 C 
HETATM    8  C15 UNL     1       1.304   7.968  14.161  1.00  0.00     0.149 C 
HETATM    9  C16 UNL     1      -0.095   7.387  14.475  1.00  0.00     0.047 C 
HETATM   10  C17 UNL     1      -0.820   6.952  13.195  1.00  0.00    -0.026 C 
HETATM   11  C18 UNL     1      -1.097   8.211  12.320  1.00  0.00     0.016 C 
HETATM   12  C19 UNL     1       3.379   8.101  12.515  1.00  0.00    -0.012 C 
HETATM   13  C20 UNL     1       3.055   9.261  11.534  1.00  0.00     0.021 C 
HETATM   14  C21 UNL     1       4.207   8.713  13.689  1.00  0.00     0.021 C 
HETATM   15  C22 UNL     1       5.215   7.747  14.293  1.00  0.00     0.080 C 
HETATM   16  C23 UNL     1       6.253   7.397  13.248  1.00  0.00     0.135 C 
HETATM   17  O2  UNL     1       7.444   7.324  13.553  1.00  0.00    -0.297 OA
HETATM   18  C24 UNL     1       5.757   7.126  11.815  1.00  0.00     0.018 C 
HETATM   19  C25 UNL     1       6.228   8.276  10.920  1.00  0.00     0.023 C 
HETATM   20  C26 UNL     1       6.445   5.828  11.335  1.00  0.00     0.023 C 
HETATM   21  C27 UNL     1       4.207   6.930  11.872  1.00  0.00     0.020 C 
HETATM   22  C28 UNL     1       3.545   6.479  10.571  1.00  0.00     0.090 C 
HETATM   23  C29 UNL     1       2.106   6.078  10.824  1.00  0.00     0.157 C 
HETATM   24  O3  UNL     1       1.519   5.380  10.000  1.00  0.00    -0.293 OA
ENDROOT
BRANCH   1  25
HETATM   25  C6  UNL     1      -3.391   6.766  14.053  1.00  0.00    -0.014 C 
HETATM   26  C7  UNL     1      -3.581   6.220  15.480  1.00  0.00     0.010 C 
BRANCH  25  27
HETATM   27  C5  UNL     1      -4.740   6.818  13.297  1.00  0.00     0.008 C 
BRANCH  27  28
HETATM   28  C4  UNL     1      -5.740   5.659  13.363  1.00  0.00     0.028 C 
BRANCH  28  29
HETATM   29  C3  UNL     1      -7.186   6.058  13.414  1.00  0.00    -0.013 C 
HETATM   30  C2  UNL     1      -8.004   6.009  14.484  1.00  0.00     0.008 C 
HETATM   31  C1  UNL     1      -7.636   5.493  15.842  1.00  0.00     0.055 C 
BRANCH  30  32
HETATM   32  C30 UNL     1      -9.395   6.488  14.279  1.00  0.00     0.171 C 
HETATM   33  O4  UNL     1      -9.935   6.729  13.215  1.00  0.00    -0.646 OA
BRANCH  32  34
HETATM   34  O5  UNL     1     -10.055   6.651  15.438  1.00  0.00    -0.773 OA
HETATM   35  H44 UNL     1     -10.937   6.970  15.152  1.00  0.00     0.167 HD
ENDBRANCH  32  34
ENDBRANCH  30  32
ENDBRANCH  28  29
ENDBRANCH  27  28
ENDBRANCH  25  27
ENDBRANCH   1  25
BRANCH   8  36
HETATM   36  O1  UNL     1       1.174   9.384  14.053  1.00  0.00    -0.391 OA
HETATM   37  H22 UNL     1       0.814   9.713  14.894  1.00  0.00     0.210 HD
ENDBRANCH   8  36
TORSDOF 7
ENDMDL
