MODEL 1
REMARK minimizedAffinity -11.0230417
REMARK CNNscore 0.689840913
REMARK CNNaffinity 8.06292439
REMARK  6 active torsions:
REMARK  status: ('A' for Active; 'I' for Inactive)
REMARK    1  A    between atoms: C4_4  and  C5_5 
REMARK    2  A    between atoms: C5_5  and  C6_6 
REMARK    3  A    between atoms: C6_6  and  C7_7 
REMARK    4  A    between atoms: C19_21  and  C20_22 
REMARK    5  A    between atoms: C26_28  and  C27_29 
REMARK    6  A    between atoms: C30_32  and  O2_33 
ROOT
HETATM    1  C7  UNL     1      -7.961   6.715  14.731  1.00  0.00     0.082 C 
HETATM    2  C8  UNL     1      -8.213   6.332  16.195  1.00  0.00     0.051 C 
HETATM    3  C9  UNL     1      -6.695   7.545  14.643  1.00  0.00     0.012 C 
HETATM    4  C10 UNL     1      -5.559   7.114  14.086  1.00  0.00     0.015 C 
HETATM    5  C11 UNL     1      -5.548   5.768  13.552  1.00  0.00     0.025 A 
HETATM    6  C12 UNL     1      -6.711   4.992  13.533  1.00  0.00     0.088 A 
HETATM    7  O1  UNL     1      -7.909   5.459  14.005  1.00  0.00    -0.335 OA
HETATM    8  C13 UNL     1      -6.708   3.693  13.004  1.00  0.00    -0.027 A 
HETATM    9  C14 UNL     1      -7.966   2.873  12.975  1.00  0.00     0.051 C 
HETATM   10  C15 UNL     1      -5.513   3.156  12.494  1.00  0.00     0.024 A 
HETATM   11  C16 UNL     1      -4.326   3.920  12.511  1.00  0.00     0.005 A 
HETATM   12  C17 UNL     1      -4.367   5.211  13.034  1.00  0.00     0.057 A 
HETATM   13  N1  UNL     1      -3.094   5.718  12.917  1.00  0.00    -0.354 N 
HETATM   14  C18 UNL     1      -2.224   4.805  12.359  1.00  0.00     0.053 A 
HETATM   15  C19 UNL     1      -0.835   4.914  12.086  1.00  0.00     0.011 A 
HETATM   16  C30 UNL     1      -0.267   3.787  11.454  1.00  0.00     0.074 A 
HETATM   17  C31 UNL     1      -0.996   2.632  11.170  1.00  0.00     0.038 A 
HETATM   18  C32 UNL     1      -2.352   2.559  11.488  1.00  0.00     0.017 A 
HETATM   19  C33 UNL     1      -2.982   3.667  12.084  1.00  0.00     0.004 A 
HETATM   20  H21 UNL     1      -2.828   6.644  13.215  1.00  0.00     0.166 HD
ENDROOT
BRANCH  15  21
HETATM   21  C20 UNL     1      -0.038   6.188  12.383  1.00  0.00     0.051 C 
HETATM   22  C21 UNL     1      -0.048   6.421  13.885  1.00  0.00    -0.014 C 
HETATM   23  C22 UNL     1      -0.340   7.590  14.475  1.00  0.00    -0.087 C 
HETATM   24  C23 UNL     1      -0.415   7.742  15.966  1.00  0.00     0.043 C 
HETATM   25  C24 UNL     1      -0.629   8.815  13.662  1.00  0.00     0.034 C 
HETATM   26  C25 UNL     1      -0.039   8.739  12.255  1.00  0.00     0.010 C 
HETATM   27  C26 UNL     1      -0.419   7.440  11.507  1.00  0.00     0.001 C 
BRANCH  27  28
HETATM   28  C27 UNL     1       0.238   7.417  10.080  1.00  0.00    -0.018 C 
HETATM   29  C28 UNL     1       1.774   7.432  10.141  1.00  0.00     0.010 C 
HETATM   30  C29 UNL     1      -0.204   8.583   9.189  1.00  0.00     0.010 C 
ENDBRANCH  27  28
ENDBRANCH  15  21
BRANCH  16  31
HETATM   31  O2  UNL     1       1.052   3.829  11.083  1.00  0.00    -0.360 OA
HETATM   32  H39 UNL     1       1.265   3.031  10.575  1.00  0.00     0.217 HD
ENDBRANCH  16  31
BRANCH   1  33
HETATM   33  C6  UNL     1      -9.176   7.457  14.110  1.00  0.00     0.046 C 
BRANCH  33  34
HETATM   34  C5  UNL     1     -10.181   6.663  13.264  1.00  0.00     0.030 C 
BRANCH  34  35
HETATM   35  C4  UNL     1     -11.428   7.393  12.859  1.00  0.00    -0.025 C 
HETATM   36  C2  UNL     1     -12.675   7.192  13.326  1.00  0.00    -0.091 C 
HETATM   37  C1  UNL     1     -13.826   8.034  12.843  1.00  0.00     0.042 C 
HETATM   38  C3  UNL     1     -13.054   6.142  14.335  1.00  0.00     0.042 C 
ENDBRANCH  34  35
ENDBRANCH  33  34
ENDBRANCH   1  33
TORSDOF 6
ENDMDL
MODEL 2
REMARK minimizedAffinity -7.59880161
REMARK CNNscore 0.62038672
REMARK CNNaffinity 6.92458105
REMARK  6 active torsions:
REMARK  status: ('A' for Active; 'I' for Inactive)
REMARK    1  A    between atoms: C4_4  and  C5_5 
REMARK    2  A    between atoms: C5_5  and  C6_6 
REMARK    3  A    between atoms: C6_6  and  C7_7 
REMARK    4  A    between atoms: C19_21  and  C20_22 
REMARK    5  A    between atoms: C26_28  and  C27_29 
REMARK    6  A    between atoms: C30_32  and  O2_33 
ROOT
HETATM    1  C7  UNL     1     -14.685   5.698  22.632  1.00  0.00     0.082 C 
HETATM    2  C8  UNL     1     -16.075   6.083  23.156  1.00  0.00     0.051 C 
HETATM    3  C9  UNL     1     -14.639   5.917  21.133  1.00  0.00     0.012 C 
HETATM    4  C10 UNL     1     -13.922   6.878  20.541  1.00  0.00     0.015 C 
HETATM    5  C11 UNL     1     -13.161   7.763  21.398  1.00  0.00     0.025 A 
HETATM    6  C12 UNL     1     -13.104   7.555  22.779  1.00  0.00     0.088 A 
HETATM    7  O1  UNL     1     -13.749   6.511  23.388  1.00  0.00    -0.335 OA
HETATM    8  C13 UNL     1     -12.358   8.402  23.610  1.00  0.00    -0.027 A 
HETATM    9  C14 UNL     1     -12.290   8.161  25.091  1.00  0.00     0.051 C 
HETATM   10  C15 UNL     1     -11.663   9.488  23.048  1.00  0.00     0.024 A 
HETATM   11  C16 UNL     1     -11.715   9.722  21.657  1.00  0.00     0.005 A 
HETATM   12  C17 UNL     1     -12.458   8.854  20.859  1.00  0.00     0.057 A 
HETATM   13  N1  UNL     1     -12.326   9.305  19.567  1.00  0.00    -0.354 N 
HETATM   14  C18 UNL     1     -11.545  10.440  19.493  1.00  0.00     0.053 A 
HETATM   15  C19 UNL     1     -11.181  11.228  18.370  1.00  0.00     0.011 A 
HETATM   16  C30 UNL     1     -10.316  12.305  18.661  1.00  0.00     0.074 A 
HETATM   17  C31 UNL     1      -9.896  12.610  19.956  1.00  0.00     0.038 A 
HETATM   18  C32 UNL     1     -10.308  11.826  21.033  1.00  0.00     0.017 A 
HETATM   19  C33 UNL     1     -11.140  10.715  20.800  1.00  0.00     0.004 A 
HETATM   20  H21 UNL     1     -12.758   8.864  18.769  1.00  0.00     0.166 HD
ENDROOT
BRANCH  15  21
HETATM   21  C20 UNL     1     -11.629  10.885  16.947  1.00  0.00     0.051 C 
HETATM   22  C21 UNL     1     -13.044  11.402  16.752  1.00  0.00    -0.014 C 
HETATM   23  C22 UNL     1     -14.056  10.686  16.237  1.00  0.00    -0.087 C 
HETATM   24  C23 UNL     1     -15.455  11.221  16.143  1.00  0.00     0.043 C 
HETATM   25  C24 UNL     1     -13.839   9.288  15.741  1.00  0.00     0.034 C 
HETATM   26  C25 UNL     1     -12.380   9.014  15.379  1.00  0.00     0.010 C 
HETATM   27  C26 UNL     1     -11.394   9.391  16.509  1.00  0.00     0.001 C 
BRANCH  27  28
HETATM   28  C27 UNL     1      -9.915   9.104  16.063  1.00  0.00    -0.018 C 
HETATM   29  C28 UNL     1      -9.281  10.299  15.331  1.00  0.00     0.010 C 
HETATM   30  C29 UNL     1      -9.780   7.878  15.155  1.00  0.00     0.010 C 
ENDBRANCH  27  28
ENDBRANCH  15  21
BRANCH  16  31
HETATM   31  O2  UNL     1      -9.850  13.078  17.629  1.00  0.00    -0.360 OA
HETATM   32  H39 UNL     1      -9.194  13.705  17.973  1.00  0.00     0.217 HD
ENDBRANCH  16  31
BRANCH   1  33
HETATM   33  C6  UNL     1     -14.307   4.241  23.011  1.00  0.00     0.046 C 
BRANCH  33  34
HETATM   34  C5  UNL     1     -13.362   4.000  24.196  1.00  0.00     0.030 C 
BRANCH  34  35
HETATM   35  C4  UNL     1     -12.465   2.800  24.094  1.00  0.00    -0.025 C 
HETATM   36  C2  UNL     1     -12.107   1.967  25.090  1.00  0.00    -0.091 C 
HETATM   37  C1  UNL     1     -11.221   0.780  24.822  1.00  0.00     0.042 C 
HETATM   38  C3  UNL     1     -12.523   2.120  26.527  1.00  0.00     0.042 C 
ENDBRANCH  34  35
ENDBRANCH  33  34
ENDBRANCH   1  33
TORSDOF 6
ENDMDL
MODEL 3
REMARK minimizedAffinity -7.71109486
REMARK CNNscore 0.528041959
REMARK CNNaffinity 6.97243643
REMARK  6 active torsions:
REMARK  status: ('A' for Active; 'I' for Inactive)
REMARK    1  A    between atoms: C4_4  and  C5_5 
REMARK    2  A    between atoms: C5_5  and  C6_6 
REMARK    3  A    between atoms: C6_6  and  C7_7 
REMARK    4  A    between atoms: C19_21  and  C20_22 
REMARK    5  A    between atoms: C26_28  and  C27_29 
REMARK    6  A    between atoms: C30_32  and  O2_33 
ROOT
HETATM    1  C7  UNL     1     -15.124   5.122  22.967  1.00  0.00     0.082 C 
HETATM    2  C8  UNL     1     -16.605   5.435  23.221  1.00  0.00     0.051 C 
HETATM    3  C9  UNL     1     -14.852   5.171  21.477  1.00  0.00     0.012 C 
HETATM    4  C10 UNL     1     -14.122   6.119  20.882  1.00  0.00     0.015 C 
HETATM    5  C11 UNL     1     -13.575   7.163  21.724  1.00  0.00     0.025 A 
HETATM    6  C12 UNL     1     -13.726   7.120  23.114  1.00  0.00     0.088 A 
HETATM    7  O1  UNL     1     -14.383   6.098  23.746  1.00  0.00    -0.335 OA
HETATM    8  C13 UNL     1     -13.187   8.122  23.933  1.00  0.00    -0.027 A 
HETATM    9  C14 UNL     1     -13.342   8.058  25.426  1.00  0.00     0.051 C 
HETATM   10  C15 UNL     1     -12.491   9.195  23.348  1.00  0.00     0.024 A 
HETATM   11  C16 UNL     1     -12.335   9.262  21.947  1.00  0.00     0.005 A 
HETATM   12  C17 UNL     1     -12.875   8.245  21.163  1.00  0.00     0.057 A 
HETATM   13  N1  UNL     1     -12.570   8.555  19.859  1.00  0.00    -0.354 N 
HETATM   14  C18 UNL     1     -11.872   9.741  19.761  1.00  0.00     0.053 A 
HETATM   15  C19 UNL     1     -11.390  10.426  18.615  1.00  0.00     0.011 A 
HETATM   16  C30 UNL     1     -10.663  11.604  18.893  1.00  0.00     0.074 A 
HETATM   17  C31 UNL     1     -10.481  12.092  20.187  1.00  0.00     0.038 A 
HETATM   18  C32 UNL     1     -11.003  11.401  21.281  1.00  0.00     0.017 A 
HETATM   19  C33 UNL     1     -11.703  10.199  21.068  1.00  0.00     0.004 A 
HETATM   20  H21 UNL     1     -12.834   7.988  19.068  1.00  0.00     0.166 HD
ENDROOT
BRANCH  15  21
HETATM   21  C20 UNL     1     -11.576   9.883  17.195  1.00  0.00     0.051 C 
HETATM   22  C21 UNL     1     -10.264   9.265  16.742  1.00  0.00    -0.014 C 
HETATM   23  C22 UNL     1      -9.671   9.507  15.563  1.00  0.00    -0.087 C 
HETATM   24  C23 UNL     1      -8.333   8.933  15.202  1.00  0.00     0.043 C 
HETATM   25  C24 UNL     1     -10.316  10.394  14.542  1.00  0.00     0.034 C 
HETATM   26  C25 UNL     1     -11.829  10.502  14.730  1.00  0.00     0.010 C 
HETATM   27  C26 UNL     1     -12.235  10.882  16.173  1.00  0.00     0.001 C 
BRANCH  27  28
HETATM   28  C27 UNL     1     -13.800  10.954  16.300  1.00  0.00    -0.018 C 
HETATM   29  C28 UNL     1     -14.422   9.590  16.639  1.00  0.00     0.010 C 
HETATM   30  C29 UNL     1     -14.489  11.480  15.037  1.00  0.00     0.010 C 
ENDBRANCH  27  28
ENDBRANCH  15  21
BRANCH  16  31
HETATM   31  O2  UNL     1     -10.094  12.294  17.854  1.00  0.00    -0.360 OA
HETATM   32  H39 UNL     1      -9.550  13.013  18.210  1.00  0.00     0.217 HD
ENDBRANCH  16  31
BRANCH   1  33
HETATM   33  C6  UNL     1     -14.707   3.758  23.580  1.00  0.00     0.046 C 
BRANCH  33  34
HETATM   34  C5  UNL     1     -13.452   3.690  24.462  1.00  0.00     0.030 C 
BRANCH  34  35
HETATM   35  C4  UNL     1     -12.521   2.541  24.202  1.00  0.00    -0.025 C 
HETATM   36  C2  UNL     1     -12.029   1.673  25.106  1.00  0.00    -0.091 C 
HETATM   37  C1  UNL     1     -11.127   0.545  24.682  1.00  0.00     0.042 C 
HETATM   38  C3  UNL     1     -12.303   1.728  26.584  1.00  0.00     0.042 C 
ENDBRANCH  34  35
ENDBRANCH  33  34
ENDBRANCH   1  33
TORSDOF 6
ENDMDL
MODEL 4
REMARK minimizedAffinity -10.6583452
REMARK CNNscore 0.515915692
REMARK CNNaffinity 7.69243097
REMARK  6 active torsions:
REMARK  status: ('A' for Active; 'I' for Inactive)
REMARK    1  A    between atoms: C4_4  and  C5_5 
REMARK    2  A    between atoms: C5_5  and  C6_6 
REMARK    3  A    between atoms: C6_6  and  C7_7 
REMARK    4  A    between atoms: C19_21  and  C20_22 
REMARK    5  A    between atoms: C26_28  and  C27_29 
REMARK    6  A    between atoms: C30_32  and  O2_33 
ROOT
HETATM    1  C7  UNL     1      -7.853   7.239  14.986  1.00  0.00     0.082 C 
HETATM    2  C8  UNL     1      -7.955   7.005  16.499  1.00  0.00     0.051 C 
HETATM    3  C9  UNL     1      -6.651   8.116  14.696  1.00  0.00     0.012 C 
HETATM    4  C10 UNL     1      -5.543   7.685  14.086  1.00  0.00     0.015 C 
HETATM    5  C11 UNL     1      -5.498   6.292  13.695  1.00  0.00     0.025 A 
HETATM    6  C12 UNL     1      -6.610   5.461  13.863  1.00  0.00     0.088 A 
HETATM    7  O1  UNL     1      -7.788   5.915  14.392  1.00  0.00    -0.335 OA
HETATM    8  C13 UNL     1      -6.574   4.114  13.474  1.00  0.00    -0.027 A 
HETATM    9  C14 UNL     1      -7.779   3.234  13.646  1.00  0.00     0.051 C 
HETATM   10  C15 UNL     1      -5.398   3.586  12.915  1.00  0.00     0.024 A 
HETATM   11  C16 UNL     1      -4.261   4.405  12.744  1.00  0.00     0.005 A 
HETATM   12  C17 UNL     1      -4.334   5.741  13.132  1.00  0.00     0.057 A 
HETATM   13  N1  UNL     1      -3.109   6.296  12.847  1.00  0.00    -0.354 N 
HETATM   14  C18 UNL     1      -2.237   5.373  12.308  1.00  0.00     0.053 A 
HETATM   15  C19 UNL     1      -0.886   5.522  11.900  1.00  0.00     0.011 A 
HETATM   16  C30 UNL     1      -0.308   4.362  11.338  1.00  0.00     0.074 A 
HETATM   17  C31 UNL     1      -0.988   3.148  11.244  1.00  0.00     0.038 A 
HETATM   18  C32 UNL     1      -2.305   3.042  11.690  1.00  0.00     0.017 A 
HETATM   19  C33 UNL     1      -2.946   4.175  12.224  1.00  0.00     0.004 A 
HETATM   20  H21 UNL     1      -2.874   7.261  13.021  1.00  0.00     0.166 HD
ENDROOT
BRANCH  15  21
HETATM   21  C20 UNL     1      -0.144   6.858  11.988  1.00  0.00     0.051 C 
HETATM   22  C21 UNL     1      -0.061   7.454  10.593  1.00  0.00    -0.014 C 
HETATM   23  C22 UNL     1       1.058   7.941  10.034  1.00  0.00    -0.087 C 
HETATM   24  C23 UNL     1       1.099   8.443   8.620  1.00  0.00     0.043 C 
HETATM   25  C24 UNL     1       2.345   7.990  10.799  1.00  0.00     0.034 C 
HETATM   26  C25 UNL     1       2.130   7.977  12.312  1.00  0.00     0.010 C 
HETATM   27  C26 UNL     1       1.214   6.823  12.784  1.00  0.00     0.001 C 
BRANCH  27  28
HETATM   28  C27 UNL     1       1.018   6.882  14.342  1.00  0.00    -0.018 C 
HETATM   29  C28 UNL     1      -0.172   7.765  14.750  1.00  0.00     0.010 C 
HETATM   30  C29 UNL     1       2.254   7.391  15.091  1.00  0.00     0.010 C 
ENDBRANCH  27  28
ENDBRANCH  15  21
BRANCH  16  31
HETATM   31  O2  UNL     1       0.970   4.430  10.846  1.00  0.00    -0.360 OA
HETATM   32  H39 UNL     1       1.186   3.593  10.406  1.00  0.00     0.217 HD
ENDBRANCH  16  31
BRANCH   1  33
HETATM   33  C6  UNL     1      -9.159   7.847  14.405  1.00  0.00     0.046 C 
BRANCH  33  34
HETATM   34  C5  UNL     1     -10.176   6.918  13.728  1.00  0.00     0.030 C 
BRANCH  34  35
HETATM   35  C4  UNL     1     -11.415   7.574  13.190  1.00  0.00    -0.025 C 
HETATM   36  C2  UNL     1     -12.692   7.231  13.447  1.00  0.00    -0.091 C 
HETATM   37  C1  UNL     1     -13.835   8.012  12.855  1.00  0.00     0.042 C 
HETATM   38  C3  UNL     1     -13.113   6.075  14.312  1.00  0.00     0.042 C 
ENDBRANCH  34  35
ENDBRANCH  33  34
ENDBRANCH   1  33
TORSDOF 6
ENDMDL
MODEL 5
REMARK minimizedAffinity -9.91600609
REMARK CNNscore 0.512601733
REMARK CNNaffinity 7.85609388
REMARK  6 active torsions:
REMARK  status: ('A' for Active; 'I' for Inactive)
REMARK    1  A    between atoms: C4_4  and  C5_5 
REMARK    2  A    between atoms: C5_5  and  C6_6 
REMARK    3  A    between atoms: C6_6  and  C7_7 
REMARK    4  A    between atoms: C19_21  and  C20_22 
REMARK    5  A    between atoms: C26_28  and  C27_29 
REMARK    6  A    between atoms: C30_32  and  O2_33 
ROOT
HETATM    1  C7  UNL     1       0.719   5.986  11.330  1.00  0.00     0.082 C 
HETATM    2  C8  UNL     1       1.033   6.298   9.861  1.00  0.00     0.051 C 
HETATM    3  C9  UNL     1      -0.362   6.929  11.821  1.00  0.00     0.012 C 
HETATM    4  C10 UNL     1      -1.610   6.548  12.110  1.00  0.00     0.015 C 
HETATM    5  C11 UNL     1      -1.937   5.149  11.925  1.00  0.00     0.025 A 
HETATM    6  C12 UNL     1      -0.957   4.223  11.555  1.00  0.00     0.088 A 
HETATM    7  O1  UNL     1       0.349   4.582  11.357  1.00  0.00    -0.335 OA
HETATM    8  C13 UNL     1      -1.268   2.866  11.388  1.00  0.00    -0.027 A 
HETATM    9  C14 UNL     1      -0.205   1.877  11.005  1.00  0.00     0.051 C 
HETATM   10  C15 UNL     1      -2.590   2.429  11.586  1.00  0.00     0.024 A 
HETATM   11  C16 UNL     1      -3.596   3.348  11.952  1.00  0.00     0.005 A 
HETATM   12  C17 UNL     1      -3.250   4.688  12.119  1.00  0.00     0.057 A 
HETATM   13  N1  UNL     1      -4.404   5.345  12.479  1.00  0.00    -0.354 N 
HETATM   14  C18 UNL     1      -5.487   4.493  12.534  1.00  0.00     0.053 A 
HETATM   15  C19 UNL     1      -6.847   4.762  12.838  1.00  0.00     0.011 A 
HETATM   16  C30 UNL     1      -7.685   3.626  12.851  1.00  0.00     0.074 A 
HETATM   17  C31 UNL     1      -7.229   2.346  12.533  1.00  0.00     0.038 A 
HETATM   18  C32 UNL     1      -5.890   2.136  12.207  1.00  0.00     0.017 A 
HETATM   19  C33 UNL     1      -4.998   3.226  12.215  1.00  0.00     0.004 A 
HETATM   20  H21 UNL     1      -4.452   6.334  12.670  1.00  0.00     0.166 HD
ENDROOT
BRANCH  15  21
HETATM   21  C20 UNL     1      -7.345   6.163  13.203  1.00  0.00     0.051 C 
HETATM   22  C21 UNL     1      -6.262   6.862  14.008  1.00  0.00    -0.014 C 
HETATM   23  C22 UNL     1      -6.467   7.509  15.166  1.00  0.00    -0.087 C 
HETATM   24  C23 UNL     1      -5.346   8.111  15.960  1.00  0.00     0.043 C 
HETATM   25  C24 UNL     1      -7.844   7.647  15.740  1.00  0.00     0.034 C 
HETATM   26  C25 UNL     1      -8.938   7.502  14.684  1.00  0.00     0.010 C 
HETATM   27  C26 UNL     1      -8.789   6.223  13.828  1.00  0.00     0.001 C 
BRANCH  27  28
HETATM   28  C27 UNL     1      -9.931   6.149  12.750  1.00  0.00    -0.018 C 
HETATM   29  C28 UNL     1      -9.439   6.543  11.348  1.00  0.00     0.010 C 
HETATM   30  C29 UNL     1     -11.140   7.029  13.084  1.00  0.00     0.010 C 
ENDBRANCH  27  28
ENDBRANCH  15  21
BRANCH  16  31
HETATM   31  O2  UNL     1      -9.000   3.775  13.208  1.00  0.00    -0.360 OA
HETATM   32  H39 UNL     1      -9.415   2.901  13.267  1.00  0.00     0.217 HD
ENDBRANCH  16  31
BRANCH   1  33
HETATM   33  C6  UNL     1       1.988   6.057  12.221  1.00  0.00     0.046 C 
BRANCH  33  34
HETATM   34  C5  UNL     1       2.651   7.420  12.467  1.00  0.00     0.030 C 
BRANCH  34  35
HETATM   35  C4  UNL     1       4.153   7.439  12.439  1.00  0.00    -0.025 C 
HETATM   36  C2  UNL     1       4.957   6.800  11.568  1.00  0.00    -0.091 C 
HETATM   37  C1  UNL     1       6.454   6.946  11.650  1.00  0.00     0.042 C 
HETATM   38  C3  UNL     1       4.480   5.897  10.465  1.00  0.00     0.042 C 
ENDBRANCH  34  35
ENDBRANCH  33  34
ENDBRANCH   1  33
TORSDOF 6
ENDMDL
MODEL 6
REMARK minimizedAffinity -6.77415037
REMARK CNNscore 0.48175633
REMARK CNNaffinity 5.20956039
REMARK  6 active torsions:
REMARK  status: ('A' for Active; 'I' for Inactive)
REMARK    1  A    between atoms: C4_4  and  C5_5 
REMARK    2  A    between atoms: C5_5  and  C6_6 
REMARK    3  A    between atoms: C6_6  and  C7_7 
REMARK    4  A    between atoms: C19_21  and  C20_22 
REMARK    5  A    between atoms: C26_28  and  C27_29 
REMARK    6  A    between atoms: C30_32  and  O2_33 
ROOT
HETATM    1  C7  UNL     1      -8.191  -9.619   0.331  1.00  0.00     0.082 C 
HETATM    2  C8  UNL     1      -8.823 -10.904  -0.219  1.00  0.00     0.051 C 
HETATM    3  C9  UNL     1      -8.935  -9.192   1.582  1.00  0.00     0.012 C 
HETATM    4  C10 UNL     1      -8.417  -9.246   2.812  1.00  0.00     0.015 C 
HETATM    5  C11 UNL     1      -7.068  -9.757   2.945  1.00  0.00     0.025 A 
HETATM    6  C12 UNL     1      -6.309 -10.085   1.817  1.00  0.00     0.088 A 
HETATM    7  O1  UNL     1      -6.790  -9.936   0.544  1.00  0.00    -0.335 OA
HETATM    8  C13 UNL     1      -4.998 -10.567   1.941  1.00  0.00    -0.027 A 
HETATM    9  C14 UNL     1      -4.186 -10.903   0.722  1.00  0.00     0.051 C 
HETATM   10  C15 UNL     1      -4.439 -10.735   3.220  1.00  0.00     0.024 A 
HETATM   11  C16 UNL     1      -5.191 -10.417   4.371  1.00  0.00     0.005 A 
HETATM   12  C17 UNL     1      -6.487  -9.930   4.212  1.00  0.00     0.057 A 
HETATM   13  N1  UNL     1      -6.973  -9.699   5.478  1.00  0.00    -0.354 N 
HETATM   14  C18 UNL     1      -6.056 -10.033   6.452  1.00  0.00     0.053 A 
HETATM   15  C19 UNL     1      -6.161  -9.972   7.866  1.00  0.00     0.011 A 
HETATM   16  C30 UNL     1      -4.993 -10.349   8.562  1.00  0.00     0.074 A 
HETATM   17  C31 UNL     1      -3.842 -10.803   7.917  1.00  0.00     0.038 A 
HETATM   18  C32 UNL     1      -3.797 -10.879   6.526  1.00  0.00     0.017 A 
HETATM   19  C33 UNL     1      -4.920 -10.478   5.776  1.00  0.00     0.004 A 
HETATM   20  H21 UNL     1      -7.895  -9.338   5.669  1.00  0.00     0.166 HD
ENDROOT
BRANCH  15  21
HETATM   21  C20 UNL     1      -7.418  -9.458   8.574  1.00  0.00     0.051 C 
HETATM   22  C21 UNL     1      -6.996  -8.447   9.627  1.00  0.00    -0.014 C 
HETATM   23  C22 UNL     1      -7.418  -8.448  10.901  1.00  0.00    -0.087 C 
HETATM   24  C23 UNL     1      -6.904  -7.473  11.920  1.00  0.00     0.043 C 
HETATM   25  C24 UNL     1      -8.423  -9.451  11.381  1.00  0.00     0.034 C 
HETATM   26  C25 UNL     1      -9.265 -10.028  10.245  1.00  0.00     0.010 C 
HETATM   27  C26 UNL     1      -8.412 -10.572   9.075  1.00  0.00     0.001 C 
BRANCH  27  28
HETATM   28  C27 UNL     1      -9.339 -11.129   7.934  1.00  0.00    -0.018 C 
HETATM   29  C28 UNL     1     -10.107 -10.014   7.206  1.00  0.00     0.010 C 
HETATM   30  C29 UNL     1     -10.364 -12.154   8.430  1.00  0.00     0.010 C 
ENDBRANCH  27  28
ENDBRANCH  15  21
BRANCH  16  31
HETATM   31  O2  UNL     1      -4.974 -10.250   9.930  1.00  0.00    -0.360 OA
HETATM   32  H39 UNL     1      -4.080 -10.446  10.250  1.00  0.00     0.217 HD
ENDBRANCH  16  31
BRANCH   1  33
HETATM   33  C6  UNL     1      -8.162  -8.487  -0.731  1.00  0.00     0.046 C 
BRANCH  33  34
HETATM   34  C5  UNL     1      -9.441  -7.679  -0.995  1.00  0.00     0.030 C 
BRANCH  34  35
HETATM   35  C4  UNL     1      -9.329  -6.574  -2.005  1.00  0.00    -0.025 C 
HETATM   36  C2  UNL     1      -9.431  -6.685  -3.344  1.00  0.00    -0.091 C 
HETATM   37  C1  UNL     1      -9.329  -5.471  -4.229  1.00  0.00     0.042 C 
HETATM   38  C3  UNL     1      -9.642  -7.977  -4.084  1.00  0.00     0.042 C 
ENDBRANCH  34  35
ENDBRANCH  33  34
ENDBRANCH   1  33
TORSDOF 6
ENDMDL
MODEL 7
REMARK minimizedAffinity -6.92832279
REMARK CNNscore 0.447271496
REMARK CNNaffinity 6.51933336
REMARK  6 active torsions:
REMARK  status: ('A' for Active; 'I' for Inactive)
REMARK    1  A    between atoms: C4_4  and  C5_5 
REMARK    2  A    between atoms: C5_5  and  C6_6 
REMARK    3  A    between atoms: C6_6  and  C7_7 
REMARK    4  A    between atoms: C19_21  and  C20_22 
REMARK    5  A    between atoms: C26_28  and  C27_29 
REMARK    6  A    between atoms: C30_32  and  O2_33 
ROOT
HETATM    1  C7  UNL     1     -14.143  10.078  23.825  1.00  0.00     0.082 C 
HETATM    2  C8  UNL     1     -15.492  10.641  23.358  1.00  0.00     0.051 C 
HETATM    3  C9  UNL     1     -14.264   9.623  25.265  1.00  0.00     0.012 C 
HETATM    4  C10 UNL     1     -14.236   8.343  25.648  1.00  0.00     0.015 C 
HETATM    5  C11 UNL     1     -14.096   7.342  24.611  1.00  0.00     0.025 A 
HETATM    6  C12 UNL     1     -13.898   7.710  23.277  1.00  0.00     0.088 A 
HETATM    7  O1  UNL     1     -13.819   9.019  22.885  1.00  0.00    -0.335 OA
HETATM    8  C13 UNL     1     -13.749   6.743  22.273  1.00  0.00    -0.027 A 
HETATM    9  C14 UNL     1     -13.522   7.149  20.844  1.00  0.00     0.051 C 
HETATM   10  C15 UNL     1     -13.809   5.379  22.609  1.00  0.00     0.024 A 
HETATM   11  C16 UNL     1     -14.017   4.986  23.949  1.00  0.00     0.005 A 
HETATM   12  C17 UNL     1     -14.151   5.972  24.924  1.00  0.00     0.057 A 
HETATM   13  N1  UNL     1     -14.330   5.316  26.119  1.00  0.00    -0.354 N 
HETATM   14  C18 UNL     1     -14.336   3.946  25.959  1.00  0.00     0.053 A 
HETATM   15  C19 UNL     1     -14.512   2.915  26.918  1.00  0.00     0.011 A 
HETATM   16  C30 UNL     1     -14.408   1.605  26.403  1.00  0.00     0.074 A 
HETATM   17  C31 UNL     1     -14.207   1.339  25.048  1.00  0.00     0.038 A 
HETATM   18  C32 UNL     1     -14.074   2.386  24.137  1.00  0.00     0.017 A 
HETATM   19  C33 UNL     1     -14.130   3.715  24.599  1.00  0.00     0.004 A 
HETATM   20  H21 UNL     1     -14.452   5.783  27.004  1.00  0.00     0.166 HD
ENDROOT
BRANCH  15  21
HETATM   21  C20 UNL     1     -14.717   3.205  28.407  1.00  0.00     0.051 C 
HETATM   22  C21 UNL     1     -16.172   3.589  28.626  1.00  0.00    -0.014 C 
HETATM   23  C22 UNL     1     -16.585   4.660  29.321  1.00  0.00    -0.087 C 
HETATM   24  C23 UNL     1     -18.033   5.036  29.435  1.00  0.00     0.043 C 
HETATM   25  C24 UNL     1     -15.603   5.558  30.012  1.00  0.00     0.034 C 
HETATM   26  C25 UNL     1     -14.274   4.862  30.301  1.00  0.00     0.010 C 
HETATM   27  C26 UNL     1     -13.663   4.179  29.055  1.00  0.00     0.001 C 
BRANCH  27  28
HETATM   28  C27 UNL     1     -12.313   3.466  29.428  1.00  0.00    -0.018 C 
HETATM   29  C28 UNL     1     -11.936   2.364  28.425  1.00  0.00     0.010 C 
HETATM   30  C29 UNL     1     -12.322   2.840  30.826  1.00  0.00     0.010 C 
ENDBRANCH  27  28
ENDBRANCH  15  21
BRANCH  16  31
HETATM   31  O2  UNL     1     -14.489   0.543  27.267  1.00  0.00    -0.360 OA
HETATM   32  H39 UNL     1     -14.300  -0.275  26.783  1.00  0.00     0.217 HD
ENDBRANCH  16  31
BRANCH   1  33
HETATM   33  C6  UNL     1     -12.994  11.106  23.643  1.00  0.00     0.046 C 
BRANCH  33  34
HETATM   34  C5  UNL     1     -11.609  10.605  23.207  1.00  0.00     0.030 C 
BRANCH  34  35
HETATM   35  C4  UNL     1     -10.436  11.424  23.664  1.00  0.00    -0.025 C 
HETATM   36  C2  UNL     1      -9.617  12.168  22.897  1.00  0.00    -0.091 C 
HETATM   37  C1  UNL     1      -8.496  12.965  23.511  1.00  0.00     0.042 C 
HETATM   38  C3  UNL     1      -9.713  12.282  21.400  1.00  0.00     0.042 C 
ENDBRANCH  34  35
ENDBRANCH  33  34
ENDBRANCH   1  33
TORSDOF 6
ENDMDL
MODEL 8
REMARK minimizedAffinity -6.72262859
REMARK CNNscore 0.411134392
REMARK CNNaffinity 5.33257341
REMARK  6 active torsions:
REMARK  status: ('A' for Active; 'I' for Inactive)
REMARK    1  A    between atoms: C4_4  and  C5_5 
REMARK    2  A    between atoms: C5_5  and  C6_6 
REMARK    3  A    between atoms: C6_6  and  C7_7 
REMARK    4  A    between atoms: C19_21  and  C20_22 
REMARK    5  A    between atoms: C26_28  and  C27_29 
REMARK    6  A    between atoms: C30_32  and  O2_33 
ROOT
HETATM    1  C7  UNL     1      -8.487  -9.917   9.014  1.00  0.00     0.082 C 
HETATM    2  C8  UNL     1      -8.648  -8.489   9.551  1.00  0.00     0.051 C 
HETATM    3  C9  UNL     1      -9.207 -10.035   7.685  1.00  0.00     0.012 C 
HETATM    4  C10 UNL     1      -8.586 -10.180   6.511  1.00  0.00     0.015 C 
HETATM    5  C11 UNL     1      -7.138 -10.210   6.523  1.00  0.00     0.025 A 
HETATM    6  C12 UNL     1      -6.428 -10.188   7.728  1.00  0.00     0.088 A 
HETATM    7  O1  UNL     1      -7.055 -10.146   8.945  1.00  0.00    -0.335 OA
HETATM    8  C13 UNL     1      -5.027 -10.231   7.745  1.00  0.00    -0.027 A 
HETATM    9  C14 UNL     1      -4.274 -10.222   9.045  1.00  0.00     0.051 C 
HETATM   10  C15 UNL     1      -4.321 -10.285   6.530  1.00  0.00     0.024 A 
HETATM   11  C16 UNL     1      -5.017 -10.299   5.303  1.00  0.00     0.005 A 
HETATM   12  C17 UNL     1      -6.410 -10.266   5.322  1.00  0.00     0.057 A 
HETATM   13  N1  UNL     1      -6.819 -10.300   4.010  1.00  0.00    -0.354 N 
HETATM   14  C18 UNL     1      -5.750 -10.333   3.138  1.00  0.00     0.053 A 
HETATM   15  C19 UNL     1      -5.729 -10.351   1.718  1.00  0.00     0.011 A 
HETATM   16  C30 UNL     1      -4.441 -10.438   1.149  1.00  0.00     0.074 A 
HETATM   17  C31 UNL     1      -3.274 -10.447   1.914  1.00  0.00     0.038 A 
HETATM   18  C32 UNL     1      -3.344 -10.393   3.306  1.00  0.00     0.017 A 
HETATM   19  C33 UNL     1      -4.604 -10.344   3.932  1.00  0.00     0.004 A 
HETATM   20  H21 UNL     1      -7.785 -10.290   3.720  1.00  0.00     0.166 HD
ENDROOT
BRANCH  15  21
HETATM   21  C20 UNL     1      -7.009 -10.358   0.878  1.00  0.00     0.051 C 
HETATM   22  C21 UNL     1      -6.620 -10.295  -0.590  1.00  0.00    -0.014 C 
HETATM   23  C22 UNL     1      -7.154  -9.452  -1.487  1.00  0.00    -0.087 C 
HETATM   24  C23 UNL     1      -6.673  -9.377  -2.906  1.00  0.00     0.043 C 
HETATM   25  C24 UNL     1      -8.260  -8.516  -1.104  1.00  0.00     0.034 C 
HETATM   26  C25 UNL     1      -9.031  -8.990   0.127  1.00  0.00     0.010 C 
HETATM   27  C26 UNL     1      -8.113  -9.328   1.324  1.00  0.00     0.001 C 
BRANCH  27  28
HETATM   28  C27 UNL     1      -8.967  -9.829   2.545  1.00  0.00    -0.018 C 
HETATM   29  C28 UNL     1      -9.803 -11.073   2.204  1.00  0.00     0.010 C 
HETATM   30  C29 UNL     1      -9.921  -8.764   3.097  1.00  0.00     0.010 C 
ENDBRANCH  27  28
ENDBRANCH  15  21
BRANCH  16  31
HETATM   31  O2  UNL     1      -4.323 -10.537  -0.214  1.00  0.00    -0.360 OA
HETATM   32  H39 UNL     1      -3.393 -10.690  -0.442  1.00  0.00     0.217 HD
ENDBRANCH  16  31
BRANCH   1  33
HETATM   33  C6  UNL     1      -8.987 -10.977  10.032  1.00  0.00     0.046 C 
BRANCH  33  34
HETATM   34  C5  UNL     1      -8.321 -11.057  11.413  1.00  0.00     0.030 C 
BRANCH  34  35
HETATM   35  C4  UNL     1      -8.666 -12.258  12.245  1.00  0.00    -0.025 C 
HETATM   36  C2  UNL     1      -7.807 -13.109  12.839  1.00  0.00    -0.091 C 
HETATM   37  C1  UNL     1      -8.309 -14.255  13.675  1.00  0.00     0.042 C 
HETATM   38  C3  UNL     1      -6.309 -13.025  12.736  1.00  0.00     0.042 C 
ENDBRANCH  34  35
ENDBRANCH  33  34
ENDBRANCH   1  33
TORSDOF 6
ENDMDL
MODEL 9
REMARK minimizedAffinity -7.09354687
REMARK CNNscore 0.384224385
REMARK CNNaffinity 5.45199966
REMARK  6 active torsions:
REMARK  status: ('A' for Active; 'I' for Inactive)
REMARK    1  A    between atoms: C4_4  and  C5_5 
REMARK    2  A    between atoms: C5_5  and  C6_6 
REMARK    3  A    between atoms: C6_6  and  C7_7 
REMARK    4  A    between atoms: C19_21  and  C20_22 
REMARK    5  A    between atoms: C26_28  and  C27_29 
REMARK    6  A    between atoms: C30_32  and  O2_33 
ROOT
HETATM    1  C7  UNL     1      -4.844 -10.958   5.855  1.00  0.00     0.082 C 
HETATM    2  C8  UNL     1      -4.538 -12.461   5.835  1.00  0.00     0.051 C 
HETATM    3  C9  UNL     1      -4.460 -10.352   4.520  1.00  0.00     0.012 C 
HETATM    4  C10 UNL     1      -5.343  -9.897   3.625  1.00  0.00     0.015 C 
HETATM    5  C11 UNL     1      -6.748 -10.010   3.960  1.00  0.00     0.025 A 
HETATM    6  C12 UNL     1      -7.153 -10.484   5.212  1.00  0.00     0.088 A 
HETATM    7  O1  UNL     1      -6.257 -10.855   6.178  1.00  0.00    -0.335 OA
HETATM    8  C13 UNL     1      -8.512 -10.582   5.545  1.00  0.00    -0.027 A 
HETATM    9  C14 UNL     1      -8.936 -11.078   6.897  1.00  0.00     0.051 C 
HETATM   10  C15 UNL     1      -9.485 -10.207   4.601  1.00  0.00     0.024 A 
HETATM   11  C16 UNL     1      -9.097  -9.734   3.329  1.00  0.00     0.005 A 
HETATM   12  C17 UNL     1      -7.739  -9.640   3.035  1.00  0.00     0.057 A 
HETATM   13  N1  UNL     1      -7.652  -9.148   1.754  1.00  0.00    -0.354 N 
HETATM   14  C18 UNL     1      -8.896  -8.937   1.196  1.00  0.00     0.053 A 
HETATM   15  C19 UNL     1      -9.251  -8.467  -0.095  1.00  0.00     0.011 A 
HETATM   16  C30 UNL     1     -10.639  -8.324  -0.309  1.00  0.00     0.074 A 
HETATM   17  C31 UNL     1     -11.592  -8.671   0.648  1.00  0.00     0.038 A 
HETATM   18  C32 UNL     1     -11.195  -9.163   1.891  1.00  0.00     0.017 A 
HETATM   19  C33 UNL     1      -9.823  -9.290   2.177  1.00  0.00     0.004 A 
HETATM   20  H21 UNL     1      -6.781  -8.973   1.276  1.00  0.00     0.166 HD
ENDROOT
BRANCH  15  21
HETATM   21  C20 UNL     1      -8.205  -8.069  -1.140  1.00  0.00     0.051 C 
HETATM   22  C21 UNL     1      -8.729  -6.868  -1.910  1.00  0.00    -0.014 C 
HETATM   23  C22 UNL     1      -8.738  -6.761  -3.247  1.00  0.00    -0.087 C 
HETATM   24  C23 UNL     1      -9.343  -5.585  -3.957  1.00  0.00     0.043 C 
HETATM   25  C24 UNL     1      -8.153  -7.836  -4.112  1.00  0.00     0.034 C 
HETATM   26  C25 UNL     1      -7.129  -8.693  -3.371  1.00  0.00     0.010 C 
HETATM   27  C26 UNL     1      -7.660  -9.249  -2.029  1.00  0.00     0.001 C 
BRANCH  27  28
HETATM   28  C27 UNL     1      -6.550 -10.100  -1.311  1.00  0.00    -0.018 C 
HETATM   29  C28 UNL     1      -5.258 -10.194  -2.138  1.00  0.00     0.010 C 
HETATM   30  C29 UNL     1      -6.998 -11.527  -0.982  1.00  0.00     0.010 C 
ENDBRANCH  27  28
ENDBRANCH  15  21
BRANCH  16  31
HETATM   31  O2  UNL     1     -11.076  -7.804  -1.501  1.00  0.00    -0.360 OA
HETATM   32  H39 UNL     1     -12.036  -7.674  -1.458  1.00  0.00     0.217 HD
ENDBRANCH  16  31
BRANCH   1  33
HETATM   33  C6  UNL     1      -4.137 -10.238   7.035  1.00  0.00     0.046 C 
BRANCH  33  34
HETATM   34  C5  UNL     1      -4.578 -10.553   8.471  1.00  0.00     0.030 C 
BRANCH  34  35
HETATM   35  C4  UNL     1      -5.524  -9.573   9.103  1.00  0.00    -0.025 C 
HETATM   36  C2  UNL     1      -5.977  -9.583  10.371  1.00  0.00    -0.091 C 
HETATM   37  C1  UNL     1      -6.902  -8.504  10.869  1.00  0.00     0.042 C 
HETATM   38  C3  UNL     1      -5.637 -10.631  11.394  1.00  0.00     0.042 C 
ENDBRANCH  34  35
ENDBRANCH  33  34
ENDBRANCH   1  33
TORSDOF 6
ENDMDL
