MODEL 1
REMARK minimizedAffinity -9.55161095
REMARK  5 active torsions:
REMARK  status: ('A' for Active; 'I' for Inactive)
REMARK    1  A    between atoms: C2_2  and  C4_4 
REMARK    2  A    between atoms: C4_4  and  C6_6 
REMARK    3  A    between atoms: C7_7  and  C8_8 
REMARK    4  A    between atoms: C8_8  and  C10_10 
REMARK    5  A    between atoms: C19_20  and  O2_21 
ROOT
HETATM    1  C10 UNL     1      -3.514  50.695 -21.262  1.00  0.00     0.001 C 
HETATM    2  C11 UNL     1      -4.429  49.550 -21.798  1.00  0.00     0.006 C 
HETATM    3  C12 UNL     1      -4.362  49.613 -23.320  1.00  0.00     0.006 C 
HETATM    4  C13 UNL     1      -2.907  49.999 -23.522  1.00  0.00     0.001 C 
HETATM    5  C14 UNL     1      -2.380  50.191 -24.944  1.00  0.00     0.033 C 
HETATM    6  C15 UNL     1      -3.356  50.662 -26.027  1.00  0.00     0.089 C 
HETATM    7  C16 UNL     1      -2.531  50.896 -27.294  1.00  0.00     0.162 C 
HETATM    8  O1  UNL     1      -3.004  50.647 -28.407  1.00  0.00    -0.295 OA
HETATM    9  C17 UNL     1      -1.077  51.502 -26.949  1.00  0.00     0.131 C 
HETATM   10  C18 UNL     1      -0.259  51.980 -28.142  1.00  0.00     0.078 C 
HETATM   11  C19 UNL     1      -0.449  53.486 -28.284  1.00  0.00     0.121 C 
HETATM   12  C20 UNL     1       0.050  54.262 -27.052  1.00  0.00     0.036 C 
HETATM   13  C21 UNL     1       0.080  53.439 -25.742  1.00  0.00    -0.006 C 
HETATM   14  C22 UNL     1       0.055  54.375 -24.538  1.00  0.00     0.010 C 
HETATM   15  C23 UNL     1      -1.109  52.475 -25.720  1.00  0.00     0.067 C 
HETATM   16  C24 UNL     1      -1.090  51.077 -24.947  1.00  0.00     0.074 C 
HETATM   17  C25 UNL     1      -0.310  50.948 -23.643  1.00  0.00     0.040 C 
HETATM   18  C26 UNL     1      -1.135  51.348 -22.395  1.00  0.00     0.013 C 
HETATM   19  C27 UNL     1      -2.669  51.156 -22.528  1.00  0.00    -0.036 C 
HETATM   20  C28 UNL     1      -3.293  52.506 -22.974  1.00  0.00     0.016 C 
HETATM   21  O3  UNL     1      -0.276  50.576 -26.093  1.00  0.00    -0.360 OA
ENDROOT
BRANCH   1  22
HETATM   22  C8  UNL     1      -2.760  50.272 -19.969  1.00  0.00     0.008 C 
HETATM   23  C9  UNL     1      -3.726  49.806 -18.867  1.00  0.00     0.014 C 
BRANCH  22  24
HETATM   24  C7  UNL     1      -1.854  51.318 -19.345  1.00  0.00    -0.026 C 
HETATM   25  C6  UNL     1      -0.668  51.121 -18.742  1.00  0.00    -0.026 C 
BRANCH  25  26
HETATM   26  C4  UNL     1       0.211  52.186 -18.108  1.00  0.00     0.007 C 
HETATM   27  C5  UNL     1       0.976  53.008 -19.160  1.00  0.00     0.014 C 
BRANCH  26  28
HETATM   28  C2  UNL     1       1.157  51.572 -17.035  1.00  0.00    -0.015 C 
HETATM   29  C1  UNL     1       0.387  51.007 -15.832  1.00  0.00     0.010 C 
HETATM   30  C3  UNL     1       2.191  52.583 -16.519  1.00  0.00     0.010 C 
ENDBRANCH  26  28
ENDBRANCH  25  26
ENDBRANCH  22  24
ENDBRANCH   1  22
BRANCH  11  31
HETATM   31  O2  UNL     1      -1.840  53.757 -28.437  1.00  0.00    -0.395 OA
HETATM   32  H30 UNL     1      -2.017  53.930 -29.384  1.00  0.00     0.210 HD
ENDBRANCH  11  31
TORSDOF 5
ENDMDL
MODEL 2
REMARK minimizedAffinity -9.5008688
REMARK  5 active torsions:
REMARK  status: ('A' for Active; 'I' for Inactive)
REMARK    1  A    between atoms: C2_2  and  C4_4 
REMARK    2  A    between atoms: C4_4  and  C6_6 
REMARK    3  A    between atoms: C7_7  and  C8_8 
REMARK    4  A    between atoms: C8_8  and  C10_10 
REMARK    5  A    between atoms: C19_20  and  O2_21 
ROOT
HETATM    1  C10 UNL     1      -3.719  48.821 -25.011  1.00  0.00     0.001 C 
HETATM    2  C11 UNL     1      -5.142  48.230 -24.758  1.00  0.00     0.006 C 
HETATM    3  C12 UNL     1      -5.314  48.138 -23.246  1.00  0.00     0.006 C 
HETATM    4  C13 UNL     1      -4.586  49.396 -22.802  1.00  0.00     0.001 C 
HETATM    5  C14 UNL     1      -4.495  49.714 -21.310  1.00  0.00     0.033 C 
HETATM    6  C15 UNL     1      -4.492  48.550 -20.314  1.00  0.00     0.089 C 
HETATM    7  C16 UNL     1      -4.254  49.153 -18.929  1.00  0.00     0.162 C 
HETATM    8  O1  UNL     1      -4.802  48.674 -17.932  1.00  0.00    -0.295 OA
HETATM    9  C17 UNL     1      -3.228  50.396 -18.994  1.00  0.00     0.131 C 
HETATM   10  C18 UNL     1      -2.749  50.929 -17.650  1.00  0.00     0.078 C 
HETATM   11  C19 UNL     1      -1.396  50.301 -17.337  1.00  0.00     0.121 C 
HETATM   12  C20 UNL     1      -0.321  50.663 -18.377  1.00  0.00     0.036 C 
HETATM   13  C21 UNL     1      -0.878  51.049 -19.768  1.00  0.00    -0.006 C 
HETATM   14  C22 UNL     1       0.200  50.863 -20.831  1.00  0.00     0.010 C 
HETATM   15  C23 UNL     1      -2.112  50.195 -20.076  1.00  0.00     0.067 C 
HETATM   16  C24 UNL     1      -3.305  50.688 -21.018  1.00  0.00     0.074 C 
HETATM   17  C25 UNL     1      -3.001  51.586 -22.212  1.00  0.00     0.040 C 
HETATM   18  C26 UNL     1      -2.640  50.797 -23.495  1.00  0.00     0.013 C 
HETATM   19  C27 UNL     1      -3.260  49.378 -23.595  1.00  0.00    -0.036 C 
HETATM   20  C28 UNL     1      -2.224  48.353 -23.061  1.00  0.00     0.016 C 
HETATM   21  O3  UNL     1      -3.748  51.504 -19.850  1.00  0.00    -0.360 OA
ENDROOT
BRANCH   1  22
HETATM   22  C8  UNL     1      -3.703  49.779 -26.236  1.00  0.00     0.008 C 
HETATM   23  C9  UNL     1      -3.702  49.008 -27.568  1.00  0.00     0.014 C 
BRANCH  22  24
HETATM   24  C7  UNL     1      -2.554  50.768 -26.302  1.00  0.00    -0.026 C 
HETATM   25  C6  UNL     1      -1.371  50.611 -26.922  1.00  0.00    -0.026 C 
BRANCH  25  26
HETATM   26  C4  UNL     1      -0.229  51.612 -26.957  1.00  0.00     0.007 C 
HETATM   27  C5  UNL     1       0.433  51.690 -28.344  1.00  0.00     0.014 C 
BRANCH  26  28
HETATM   28  C2  UNL     1       0.803  51.331 -25.825  1.00  0.00    -0.015 C 
HETATM   29  C1  UNL     1       0.646  52.296 -24.640  1.00  0.00     0.010 C 
HETATM   30  C3  UNL     1       2.253  51.406 -26.324  1.00  0.00     0.010 C 
ENDBRANCH  26  28
ENDBRANCH  25  26
ENDBRANCH  22  24
ENDBRANCH   1  22
BRANCH  11  31
HETATM   31  O2  UNL     1      -1.542  48.882 -17.336  1.00  0.00    -0.395 OA
HETATM   32  H30 UNL     1      -1.582  48.578 -16.406  1.00  0.00     0.210 HD
ENDBRANCH  11  31
TORSDOF 5
ENDMDL
MODEL 3
REMARK minimizedAffinity -9.40858269
REMARK  5 active torsions:
REMARK  status: ('A' for Active; 'I' for Inactive)
REMARK    1  A    between atoms: C2_2  and  C4_4 
REMARK    2  A    between atoms: C4_4  and  C6_6 
REMARK    3  A    between atoms: C7_7  and  C8_8 
REMARK    4  A    between atoms: C8_8  and  C10_10 
REMARK    5  A    between atoms: C19_20  and  O2_21 
ROOT
HETATM    1  C10 UNL     1      -1.184  52.084 -21.052  1.00  0.00     0.001 C 
HETATM    2  C11 UNL     1      -1.589  52.166 -19.547  1.00  0.00     0.006 C 
HETATM    3  C12 UNL     1      -2.944  51.477 -19.420  1.00  0.00     0.006 C 
HETATM    4  C13 UNL     1      -2.779  50.347 -20.421  1.00  0.00     0.001 C 
HETATM    5  C14 UNL     1      -3.938  49.374 -20.640  1.00  0.00     0.033 C 
HETATM    6  C15 UNL     1      -5.367  49.882 -20.431  1.00  0.00     0.089 C 
HETATM    7  C16 UNL     1      -6.306  48.749 -20.850  1.00  0.00     0.162 C 
HETATM    8  O1  UNL     1      -7.369  48.560 -20.253  1.00  0.00    -0.295 OA
HETATM    9  C17 UNL     1      -5.724  47.939 -22.118  1.00  0.00     0.131 C 
HETATM   10  C18 UNL     1      -6.677  46.936 -22.756  1.00  0.00     0.078 C 
HETATM   11  C19 UNL     1      -7.347  47.602 -23.952  1.00  0.00     0.121 C 
HETATM   12  C20 UNL     1      -6.338  48.022 -25.036  1.00  0.00     0.036 C 
HETATM   13  C21 UNL     1      -4.898  48.250 -24.520  1.00  0.00    -0.006 C 
HETATM   14  C22 UNL     1      -4.134  49.148 -25.488  1.00  0.00     0.010 C 
HETATM   15  C23 UNL     1      -4.952  48.867 -23.119  1.00  0.00     0.067 C 
HETATM   16  C24 UNL     1      -3.808  48.654 -22.023  1.00  0.00     0.074 C 
HETATM   17  C25 UNL     1      -2.355  48.531 -22.466  1.00  0.00     0.040 C 
HETATM   18  C26 UNL     1      -1.637  49.897 -22.595  1.00  0.00     0.013 C 
HETATM   19  C27 UNL     1      -2.187  51.022 -21.678  1.00  0.00    -0.036 C 
HETATM   20  C28 UNL     1      -3.218  51.852 -22.489  1.00  0.00     0.016 C 
HETATM   21  O3  UNL     1      -4.407  47.303 -21.816  1.00  0.00    -0.360 OA
ENDROOT
BRANCH   1  22
HETATM   22  C8  UNL     1       0.346  51.866 -21.225  1.00  0.00     0.008 C 
HETATM   23  C9  UNL     1       1.161  52.671 -20.198  1.00  0.00     0.014 C 
BRANCH  22  24
HETATM   24  C7  UNL     1       0.922  52.189 -22.592  1.00  0.00    -0.026 C 
HETATM   25  C6  UNL     1       0.246  52.481 -23.717  1.00  0.00    -0.026 C 
BRANCH  25  26
HETATM   26  C4  UNL     1       0.848  52.784 -25.080  1.00  0.00     0.007 C 
HETATM   27  C5  UNL     1      -0.001  53.788 -25.879  1.00  0.00     0.014 C 
BRANCH  26  28
HETATM   28  C2  UNL     1       1.123  51.475 -25.878  1.00  0.00    -0.015 C 
HETATM   29  C1  UNL     1       2.485  51.501 -26.588  1.00  0.00     0.010 C 
HETATM   30  C3  UNL     1       0.036  51.188 -26.923  1.00  0.00     0.010 C 
ENDBRANCH  26  28
ENDBRANCH  25  26
ENDBRANCH  22  24
ENDBRANCH   1  22
BRANCH  11  31
HETATM   31  O2  UNL     1      -8.018  48.777 -23.502  1.00  0.00    -0.395 OA
HETATM   32  H30 UNL     1      -8.974  48.578 -23.435  1.00  0.00     0.210 HD
ENDBRANCH  11  31
TORSDOF 5
ENDMDL
MODEL 4
REMARK minimizedAffinity -9.35821915
REMARK  5 active torsions:
REMARK  status: ('A' for Active; 'I' for Inactive)
REMARK    1  A    between atoms: C2_2  and  C4_4 
REMARK    2  A    between atoms: C4_4  and  C6_6 
REMARK    3  A    between atoms: C7_7  and  C8_8 
REMARK    4  A    between atoms: C8_8  and  C10_10 
REMARK    5  A    between atoms: C19_20  and  O2_21 
ROOT
HETATM    1  C10 UNL     1      -1.315  51.602 -24.579  1.00  0.00     0.001 C 
HETATM    2  C11 UNL     1      -0.025  52.468 -24.431  1.00  0.00     0.006 C 
HETATM    3  C12 UNL     1       0.220  52.635 -22.935  1.00  0.00     0.006 C 
HETATM    4  C13 UNL     1      -0.215  51.272 -22.425  1.00  0.00     0.001 C 
HETATM    5  C14 UNL     1      -0.148  50.984 -20.925  1.00  0.00     0.033 C 
HETATM    6  C15 UNL     1      -0.320  52.152 -19.949  1.00  0.00     0.089 C 
HETATM    7  C16 UNL     1      -0.346  51.552 -18.542  1.00  0.00     0.162 C 
HETATM    8  O1  UNL     1       0.157  52.158 -17.591  1.00  0.00    -0.295 OA
HETATM    9  C17 UNL     1      -1.107  50.130 -18.520  1.00  0.00     0.131 C 
HETATM   10  C18 UNL     1      -1.385  49.551 -17.139  1.00  0.00     0.078 C 
HETATM   11  C19 UNL     1      -2.814  49.908 -16.746  1.00  0.00     0.121 C 
HETATM   12  C20 UNL     1      -3.858  49.312 -17.707  1.00  0.00     0.036 C 
HETATM   13  C21 UNL     1      -3.323  49.005 -19.126  1.00  0.00    -0.006 C 
HETATM   14  C22 UNL     1      -4.481  48.944 -20.117  1.00  0.00     0.010 C 
HETATM   15  C23 UNL     1      -2.306  50.076 -19.528  1.00  0.00     0.067 C 
HETATM   16  C24 UNL     1      -1.099  49.803 -20.540  1.00  0.00     0.074 C 
HETATM   17  C25 UNL     1      -1.293  48.829 -21.697  1.00  0.00     0.040 C 
HETATM   18  C26 UNL     1      -1.883  49.495 -22.965  1.00  0.00     0.013 C 
HETATM   19  C27 UNL     1      -1.564  51.005 -23.127  1.00  0.00    -0.036 C 
HETATM   20  C28 UNL     1      -2.749  51.819 -22.541  1.00  0.00     0.016 C 
HETATM   21  O3  UNL     1      -0.431  49.123 -19.392  1.00  0.00    -0.360 OA
ENDROOT
BRANCH   1  22
HETATM   22  C8  UNL     1      -1.216  50.625 -25.786  1.00  0.00     0.008 C 
HETATM   23  C9  UNL     1      -0.574  51.293 -27.015  1.00  0.00     0.014 C 
BRANCH  22  24
HETATM   24  C7  UNL     1      -2.519  50.003 -26.257  1.00  0.00    -0.026 C 
HETATM   25  C6  UNL     1      -2.892  48.715 -26.162  1.00  0.00    -0.026 C 
BRANCH  25  26
HETATM   26  C4  UNL     1      -4.197  48.114 -26.659  1.00  0.00     0.007 C 
HETATM   27  C5  UNL     1      -4.475  48.466 -28.131  1.00  0.00     0.014 C 
BRANCH  26  28
HETATM   28  C2  UNL     1      -5.385  48.493 -25.726  1.00  0.00    -0.015 C 
HETATM   29  C1  UNL     1      -5.077  48.213 -24.247  1.00  0.00     0.010 C 
HETATM   30  C3  UNL     1      -6.680  47.760 -26.100  1.00  0.00     0.010 C 
ENDBRANCH  26  28
ENDBRANCH  25  26
ENDBRANCH  22  24
ENDBRANCH   1  22
BRANCH  11  31
HETATM   31  O2  UNL     1      -2.953  51.327 -16.776  1.00  0.00    -0.395 OA
HETATM   32  H30 UNL     1      -2.917  51.659 -15.856  1.00  0.00     0.210 HD
ENDBRANCH  11  31
TORSDOF 5
ENDMDL
MODEL 5
REMARK minimizedAffinity -9.34705353
REMARK  5 active torsions:
REMARK  status: ('A' for Active; 'I' for Inactive)
REMARK    1  A    between atoms: C2_2  and  C4_4 
REMARK    2  A    between atoms: C4_4  and  C6_6 
REMARK    3  A    between atoms: C7_7  and  C8_8 
REMARK    4  A    between atoms: C8_8  and  C10_10 
REMARK    5  A    between atoms: C19_20  and  O2_21 
ROOT
HETATM    1  C10 UNL     1      -4.285  50.391 -24.842  1.00  0.00     0.001 C 
HETATM    2  C11 UNL     1      -4.129  51.932 -24.650  1.00  0.00     0.006 C 
HETATM    3  C12 UNL     1      -3.936  52.170 -23.157  1.00  0.00     0.006 C 
HETATM    4  C13 UNL     1      -3.099  50.958 -22.785  1.00  0.00     0.001 C 
HETATM    5  C14 UNL     1      -2.667  50.772 -21.330  1.00  0.00     0.033 C 
HETATM    6  C15 UNL     1      -3.566  51.332 -20.224  1.00  0.00     0.089 C 
HETATM    7  C16 UNL     1      -2.962  50.882 -18.892  1.00  0.00     0.162 C 
HETATM    8  O1  UNL     1      -3.008  51.617 -17.901  1.00  0.00    -0.295 OA
HETATM    9  C17 UNL     1      -2.339  49.398 -18.998  1.00  0.00     0.131 C 
HETATM   10  C18 UNL     1      -1.912  48.765 -17.680  1.00  0.00     0.078 C 
HETATM   11  C19 UNL     1      -3.038  47.862 -17.191  1.00  0.00     0.121 C 
HETATM   12  C20 UNL     1      -3.341  46.713 -18.170  1.00  0.00     0.036 C 
HETATM   13  C21 UNL     1      -2.928  46.991 -19.635  1.00  0.00    -0.006 C 
HETATM   14  C22 UNL     1      -3.719  46.090 -20.578  1.00  0.00     0.010 C 
HETATM   15  C23 UNL     1      -3.162  48.470 -19.956  1.00  0.00     0.067 C 
HETATM   16  C24 UNL     1      -2.309  49.276 -21.041  1.00  0.00     0.074 C 
HETATM   17  C25 UNL     1      -1.809  48.560 -22.290  1.00  0.00     0.040 C 
HETATM   18  C26 UNL     1      -2.835  48.566 -23.451  1.00  0.00     0.013 C 
HETATM   19  C27 UNL     1      -3.818  49.767 -23.457  1.00  0.00    -0.036 C 
HETATM   20  C28 UNL     1      -5.123  49.333 -22.736  1.00  0.00     0.016 C 
HETATM   21  O3  UNL     1      -1.238  49.326 -20.004  1.00  0.00    -0.360 OA
ENDROOT
BRANCH   1  22
HETATM   22  C8  UNL     1      -3.606  49.902 -26.153  1.00  0.00     0.008 C 
HETATM   23  C9  UNL     1      -3.401  48.377 -26.160  1.00  0.00     0.014 C 
BRANCH  22  24
HETATM   24  C7  UNL     1      -2.264  50.526 -26.490  1.00  0.00    -0.026 C 
HETATM   25  C6  UNL     1      -1.156  50.547 -25.728  1.00  0.00    -0.026 C 
BRANCH  25  26
HETATM   26  C4  UNL     1       0.172  51.197 -26.082  1.00  0.00     0.007 C 
HETATM   27  C5  UNL     1       0.706  52.082 -24.943  1.00  0.00     0.014 C 
BRANCH  26  28
HETATM   28  C2  UNL     1       0.082  51.964 -27.434  1.00  0.00    -0.015 C 
HETATM   29  C1  UNL     1       1.348  51.794 -28.287  1.00  0.00     0.010 C 
HETATM   30  C3  UNL     1      -0.174  53.465 -27.239  1.00  0.00     0.010 C 
ENDBRANCH  26  28
ENDBRANCH  25  26
ENDBRANCH  22  24
ENDBRANCH   1  22
BRANCH  11  31
HETATM   31  O2  UNL     1      -4.223  48.644 -17.058  1.00  0.00    -0.395 OA
HETATM   32  H30 UNL     1      -4.353  48.845 -16.109  1.00  0.00     0.210 HD
ENDBRANCH  11  31
TORSDOF 5
ENDMDL
MODEL 6
REMARK minimizedAffinity -9.26767445
REMARK  5 active torsions:
REMARK  status: ('A' for Active; 'I' for Inactive)
REMARK    1  A    between atoms: C2_2  and  C4_4 
REMARK    2  A    between atoms: C4_4  and  C6_6 
REMARK    3  A    between atoms: C7_7  and  C8_8 
REMARK    4  A    between atoms: C8_8  and  C10_10 
REMARK    5  A    between atoms: C19_20  and  O2_21 
ROOT
HETATM    1  C10 UNL     1      -0.083  51.617 -20.341  1.00  0.00     0.001 C 
HETATM    2  C11 UNL     1       1.080  52.443 -20.974  1.00  0.00     0.006 C 
HETATM    3  C12 UNL     1       0.988  52.244 -22.483  1.00  0.00     0.006 C 
HETATM    4  C13 UNL     1      -0.520  52.206 -22.669  1.00  0.00     0.001 C 
HETATM    5  C14 UNL     1      -1.089  52.005 -24.074  1.00  0.00     0.033 C 
HETATM    6  C15 UNL     1      -0.267  51.203 -25.087  1.00  0.00     0.089 C 
HETATM    7  C16 UNL     1      -1.135  51.049 -26.338  1.00  0.00     0.162 C 
HETATM    8  O1  UNL     1      -0.624  51.060 -27.462  1.00  0.00    -0.295 OA
HETATM    9  C17 UNL     1      -2.690  50.856 -25.958  1.00  0.00     0.131 C 
HETATM   10  C18 UNL     1      -3.610  50.473 -27.110  1.00  0.00     0.078 C 
HETATM   11  C19 UNL     1      -3.796  48.960 -27.097  1.00  0.00     0.121 C 
HETATM   12  C20 UNL     1      -4.459  48.458 -25.802  1.00  0.00     0.036 C 
HETATM   13  C21 UNL     1      -4.276  49.393 -24.582  1.00  0.00    -0.006 C 
HETATM   14  C22 UNL     1      -4.470  48.607 -23.290  1.00  0.00     0.010 C 
HETATM   15  C23 UNL     1      -2.887  50.034 -24.637  1.00  0.00     0.067 C 
HETATM   16  C24 UNL     1      -2.557  51.466 -24.009  1.00  0.00     0.074 C 
HETATM   17  C25 UNL     1      -3.271  51.914 -22.738  1.00  0.00     0.040 C 
HETATM   18  C26 UNL     1      -2.559  51.453 -21.442  1.00  0.00     0.013 C 
HETATM   19  C27 UNL     1      -1.025  51.250 -21.567  1.00  0.00    -0.036 C 
HETATM   20  C28 UNL     1      -0.754  49.751 -21.865  1.00  0.00     0.016 C 
HETATM   21  O3  UNL     1      -3.232  52.031 -25.213  1.00  0.00    -0.360 OA
ENDROOT
BRANCH   1  22
HETATM   22  C8  UNL     1      -0.700  52.341 -19.110  1.00  0.00     0.008 C 
HETATM   23  C9  UNL     1      -0.366  53.843 -19.101  1.00  0.00     0.014 C 
BRANCH  22  24
HETATM   24  C7  UNL     1      -0.313  51.798 -17.746  1.00  0.00    -0.026 C 
HETATM   25  C6  UNL     1       0.924  51.679 -17.232  1.00  0.00    -0.026 C 
BRANCH  25  26
HETATM   26  C4  UNL     1       1.285  51.114 -15.868  1.00  0.00     0.007 C 
HETATM   27  C5  UNL     1       0.248  51.486 -14.794  1.00  0.00     0.014 C 
BRANCH  26  28
HETATM   28  C2  UNL     1       2.732  51.514 -15.456  1.00  0.00    -0.015 C 
HETATM   29  C1  UNL     1       2.839  51.863 -13.964  1.00  0.00     0.010 C 
HETATM   30  C3  UNL     1       3.266  52.699 -16.272  1.00  0.00     0.010 C 
ENDBRANCH  26  28
ENDBRANCH  25  26
ENDBRANCH  22  24
ENDBRANCH   1  22
BRANCH  11  31
HETATM   31  O2  UNL     1      -2.514  48.343 -27.198  1.00  0.00    -0.395 OA
HETATM   32  H30 UNL     1      -2.393  48.037 -28.120  1.00  0.00     0.210 HD
ENDBRANCH  11  31
TORSDOF 5
ENDMDL
MODEL 7
REMARK minimizedAffinity -9.23994064
REMARK  5 active torsions:
REMARK  status: ('A' for Active; 'I' for Inactive)
REMARK    1  A    between atoms: C2_2  and  C4_4 
REMARK    2  A    between atoms: C4_4  and  C6_6 
REMARK    3  A    between atoms: C7_7  and  C8_8 
REMARK    4  A    between atoms: C8_8  and  C10_10 
REMARK    5  A    between atoms: C19_20  and  O2_21 
ROOT
HETATM    1  C10 UNL     1      -0.576  52.183 -22.984  1.00  0.00     0.001 C 
HETATM    2  C11 UNL     1       0.555  52.715 -22.049  1.00  0.00     0.006 C 
HETATM    3  C12 UNL     1       0.250  52.189 -20.651  1.00  0.00     0.006 C 
HETATM    4  C13 UNL     1      -0.302  50.814 -20.982  1.00  0.00     0.001 C 
HETATM    5  C14 UNL     1      -0.764  49.905 -19.842  1.00  0.00     0.033 C 
HETATM    6  C15 UNL     1      -1.299  50.553 -18.562  1.00  0.00     0.089 C 
HETATM    7  C16 UNL     1      -1.807  49.419 -17.670  1.00  0.00     0.162 C 
HETATM    8  O1  UNL     1      -1.689  49.483 -16.443  1.00  0.00    -0.295 OA
HETATM    9  C17 UNL     1      -2.490  48.245 -18.539  1.00  0.00     0.131 C 
HETATM   10  C18 UNL     1      -3.225  47.174 -17.743  1.00  0.00     0.078 C 
HETATM   11  C19 UNL     1      -4.709  47.522 -17.722  1.00  0.00     0.121 C 
HETATM   12  C20 UNL     1      -5.329  47.546 -19.131  1.00  0.00     0.036 C 
HETATM   13  C21 UNL     1      -4.319  47.806 -20.274  1.00  0.00    -0.006 C 
HETATM   14  C22 UNL     1      -5.050  48.336 -21.503  1.00  0.00     0.010 C 
HETATM   15  C23 UNL     1      -3.253  48.794 -19.794  1.00  0.00     0.067 C 
HETATM   16  C24 UNL     1      -1.760  48.817 -20.364  1.00  0.00     0.074 C 
HETATM   17  C25 UNL     1      -1.506  48.469 -21.827  1.00  0.00     0.040 C 
HETATM   18  C26 UNL     1      -1.626  49.689 -22.775  1.00  0.00     0.013 C 
HETATM   19  C27 UNL     1      -1.309  51.063 -22.126  1.00  0.00    -0.036 C 
HETATM   20  C28 UNL     1      -2.644  51.703 -21.661  1.00  0.00     0.016 C 
HETATM   21  O3  UNL     1      -1.524  47.626 -19.496  1.00  0.00    -0.360 OA
ENDROOT
BRANCH   1  22
HETATM   22  C8  UNL     1      -0.033  51.815 -24.394  1.00  0.00     0.008 C 
HETATM   23  C9  UNL     1       0.848  52.933 -24.980  1.00  0.00     0.014 C 
BRANCH  22  24
HETATM   24  C7  UNL     1      -1.071  51.477 -25.448  1.00  0.00    -0.026 C 
HETATM   25  C6  UNL     1      -1.255  50.297 -26.068  1.00  0.00    -0.026 C 
BRANCH  25  26
HETATM   26  C4  UNL     1      -2.293  49.990 -27.136  1.00  0.00     0.007 C 
HETATM   27  C5  UNL     1      -3.248  51.173 -27.373  1.00  0.00     0.014 C 
BRANCH  26  28
HETATM   28  C2  UNL     1      -3.054  48.669 -26.819  1.00  0.00    -0.015 C 
HETATM   29  C1  UNL     1      -4.170  48.382 -27.835  1.00  0.00     0.010 C 
HETATM   30  C3  UNL     1      -3.666  48.670 -25.412  1.00  0.00     0.010 C 
ENDBRANCH  26  28
ENDBRANCH  25  26
ENDBRANCH  22  24
ENDBRANCH   1  22
BRANCH  11  31
HETATM   31  O2  UNL     1      -4.864  48.821 -17.156  1.00  0.00    -0.395 OA
HETATM   32  H30 UNL     1      -5.164  48.719 -16.230  1.00  0.00     0.210 HD
ENDBRANCH  11  31
TORSDOF 5
ENDMDL
MODEL 8
REMARK minimizedAffinity -9.10146141
REMARK  5 active torsions:
REMARK  status: ('A' for Active; 'I' for Inactive)
REMARK    1  A    between atoms: C2_2  and  C4_4 
REMARK    2  A    between atoms: C4_4  and  C6_6 
REMARK    3  A    between atoms: C7_7  and  C8_8 
REMARK    4  A    between atoms: C8_8  and  C10_10 
REMARK    5  A    between atoms: C19_20  and  O2_21 
ROOT
HETATM    1  C10 UNL     1      -0.953  50.883 -24.796  1.00  0.00     0.001 C 
HETATM    2  C11 UNL     1      -1.246  50.289 -26.209  1.00  0.00     0.006 C 
HETATM    3  C12 UNL     1      -2.507  49.443 -26.075  1.00  0.00     0.006 C 
HETATM    4  C13 UNL     1      -3.300  50.274 -25.081  1.00  0.00     0.001 C 
HETATM    5  C14 UNL     1      -4.676  49.782 -24.631  1.00  0.00     0.033 C 
HETATM    6  C15 UNL     1      -4.939  48.274 -24.604  1.00  0.00     0.089 C 
HETATM    7  C16 UNL     1      -6.326  48.077 -23.991  1.00  0.00     0.162 C 
HETATM    8  O1  UNL     1      -7.066  47.172 -24.387  1.00  0.00    -0.295 OA
HETATM    9  C17 UNL     1      -6.610  49.147 -22.818  1.00  0.00     0.131 C 
HETATM   10  C18 UNL     1      -7.866  48.905 -21.991  1.00  0.00     0.078 C 
HETATM   11  C19 UNL     1      -7.470  48.164 -20.719  1.00  0.00     0.121 C 
HETATM   12  C20 UNL     1      -6.499  48.975 -19.842  1.00  0.00     0.036 C 
HETATM   13  C21 UNL     1      -5.672  50.034 -20.609  1.00  0.00    -0.006 C 
HETATM   14  C22 UNL     1      -4.415  50.385 -19.819  1.00  0.00     0.010 C 
HETATM   15  C23 UNL     1      -5.320  49.494 -21.998  1.00  0.00     0.067 C 
HETATM   16  C24 UNL     1      -5.084  50.435 -23.269  1.00  0.00     0.074 C 
HETATM   17  C25 UNL     1      -4.447  51.807 -23.083  1.00  0.00     0.040 C 
HETATM   18  C26 UNL     1      -2.899  51.774 -23.126  1.00  0.00     0.013 C 
HETATM   19  C27 UNL     1      -2.286  50.624 -23.970  1.00  0.00    -0.036 C 
HETATM   20  C28 UNL     1      -1.963  49.440 -23.019  1.00  0.00     0.016 C 
HETATM   21  O3  UNL     1      -6.570  50.552 -23.324  1.00  0.00    -0.360 OA
ENDROOT
BRANCH   1  22
HETATM   22  C8  UNL     1      -0.393  52.331 -24.885  1.00  0.00     0.008 C 
HETATM   23  C9  UNL     1       0.956  52.382 -25.623  1.00  0.00     0.014 C 
BRANCH  22  24
HETATM   24  C7  UNL     1      -0.199  53.060 -23.568  1.00  0.00    -0.026 C 
HETATM   25  C6  UNL     1       0.318  52.569 -22.428  1.00  0.00    -0.026 C 
BRANCH  25  26
HETATM   26  C4  UNL     1       0.484  53.317 -21.115  1.00  0.00     0.007 C 
HETATM   27  C5  UNL     1       1.947  53.719 -20.858  1.00  0.00     0.014 C 
BRANCH  26  28
HETATM   28  C2  UNL     1      -0.126  52.516 -19.927  1.00  0.00    -0.015 C 
HETATM   29  C1  UNL     1       0.687  52.680 -18.634  1.00  0.00     0.010 C 
HETATM   30  C3  UNL     1      -0.251  51.017 -20.236  1.00  0.00     0.010 C 
ENDBRANCH  26  28
ENDBRANCH  25  26
ENDBRANCH  22  24
ENDBRANCH   1  22
BRANCH  11  31
HETATM   31  O2  UNL     1      -6.818  46.950 -21.083  1.00  0.00    -0.395 OA
HETATM   32  H30 UNL     1      -7.455  46.215 -20.976  1.00  0.00     0.210 HD
ENDBRANCH  11  31
TORSDOF 5
ENDMDL
MODEL 9
REMARK minimizedAffinity -8.97238255
REMARK  5 active torsions:
REMARK  status: ('A' for Active; 'I' for Inactive)
REMARK    1  A    between atoms: C2_2  and  C4_4 
REMARK    2  A    between atoms: C4_4  and  C6_6 
REMARK    3  A    between atoms: C7_7  and  C8_8 
REMARK    4  A    between atoms: C8_8  and  C10_10 
REMARK    5  A    between atoms: C19_20  and  O2_21 
ROOT
HETATM    1  C10 UNL     1      -0.497  52.232 -20.821  1.00  0.00     0.001 C 
HETATM    2  C11 UNL     1       0.115  52.390 -19.394  1.00  0.00     0.006 C 
HETATM    3  C12 UNL     1      -0.616  51.401 -18.492  1.00  0.00     0.006 C 
HETATM    4  C13 UNL     1      -0.807  50.237 -19.449  1.00  0.00     0.001 C 
HETATM    5  C14 UNL     1      -1.532  48.983 -18.958  1.00  0.00     0.033 C 
HETATM    6  C15 UNL     1      -2.593  49.135 -17.863  1.00  0.00     0.089 C 
HETATM    7  C16 UNL     1      -3.235  47.759 -17.676  1.00  0.00     0.162 C 
HETATM    8  O1  UNL     1      -3.596  47.381 -16.558  1.00  0.00    -0.295 OA
HETATM    9  C17 UNL     1      -3.373  46.976 -19.080  1.00  0.00     0.131 C 
HETATM   10  C18 UNL     1      -4.197  45.695 -19.044  1.00  0.00     0.078 C 
HETATM   11  C19 UNL     1      -5.613  46.021 -19.505  1.00  0.00     0.121 C 
HETATM   12  C20 UNL     1      -5.657  46.549 -20.951  1.00  0.00     0.036 C 
HETATM   13  C21 UNL     1      -4.339  47.194 -21.439  1.00  0.00    -0.006 C 
HETATM   14  C22 UNL     1      -4.620  48.133 -22.608  1.00  0.00     0.010 C 
HETATM   15  C23 UNL     1      -3.678  47.941 -20.277  1.00  0.00     0.067 C 
HETATM   16  C24 UNL     1      -2.099  48.158 -20.160  1.00  0.00     0.074 C 
HETATM   17  C25 UNL     1      -1.270  48.355 -21.425  1.00  0.00     0.040 C 
HETATM   18  C26 UNL     1      -1.193  49.833 -21.882  1.00  0.00     0.013 C 
HETATM   19  C27 UNL     1      -1.335  50.883 -20.749  1.00  0.00    -0.036 C 
HETATM   20  C28 UNL     1      -2.822  51.321 -20.673  1.00  0.00     0.016 C 
HETATM   21  O3  UNL     1      -2.043  46.735 -19.716  1.00  0.00    -0.360 OA
ENDROOT
BRANCH   1  22
HETATM   22  C8  UNL     1       0.581  52.389 -21.931  1.00  0.00     0.008 C 
HETATM   23  C9  UNL     1       1.366  53.705 -21.788  1.00  0.00     0.014 C 
BRANCH  22  24
HETATM   24  C7  UNL     1       0.085  52.328 -23.364  1.00  0.00    -0.026 C 
HETATM   25  C6  UNL     1       0.748  52.691 -24.477  1.00  0.00    -0.026 C 
BRANCH  25  26
HETATM   26  C4  UNL     1       0.220  52.636 -25.901  1.00  0.00     0.007 C 
HETATM   27  C5  UNL     1      -1.312  52.498 -25.947  1.00  0.00     0.014 C 
BRANCH  26  28
HETATM   28  C2  UNL     1       0.938  51.529 -26.728  1.00  0.00    -0.015 C 
HETATM   29  C1  UNL     1       2.441  51.452 -26.417  1.00  0.00     0.010 C 
HETATM   30  C3  UNL     1       0.764  51.723 -28.241  1.00  0.00     0.010 C 
ENDBRANCH  26  28
ENDBRANCH  25  26
ENDBRANCH  22  24
ENDBRANCH   1  22
BRANCH  11  31
HETATM   31  O2  UNL     1      -6.147  47.033 -18.655  1.00  0.00    -0.395 OA
HETATM   32  H30 UNL     1      -6.755  46.608 -18.016  1.00  0.00     0.210 HD
ENDBRANCH  11  31
TORSDOF 5
ENDMDL
