MODEL 1
REMARK minimizedAffinity -9.90775394
REMARK  6 active torsions:
REMARK  status: ('A' for Active; 'I' for Inactive)
REMARK    1  A    between atoms: C4_4  and  C5_5 
REMARK    2  A    between atoms: C5_5  and  O1_6 
REMARK    3  A    between atoms: C5_5  and  C6_7 
REMARK    4  A    between atoms: C6_7  and  C7_8 
REMARK    5  A    between atoms: C7_8  and  C9_10 
REMARK    6  A    between atoms: C30_32  and  O3_33 
ROOT
HETATM    1  C9  UNL     1       1.237   6.631  12.210  1.00  0.00    -0.002 C 
HETATM    2  C10 UNL     1       1.229   5.433  11.217  1.00  0.00     0.007 C 
HETATM    3  C11 UNL     1      -0.160   4.783  11.287  1.00  0.00     0.015 C 
HETATM    4  C12 UNL     1      -0.791   5.313  12.587  1.00  0.00    -0.010 C 
HETATM    5  C13 UNL     1      -0.202   4.453  13.750  1.00  0.00     0.021 C 
HETATM    6  C14 UNL     1      -2.312   5.257  12.806  1.00  0.00    -0.039 C 
HETATM    7  C15 UNL     1      -2.905   6.159  13.636  1.00  0.00    -0.066 C 
HETATM    8  C16 UNL     1      -2.093   7.315  14.247  1.00  0.00     0.036 C 
HETATM    9  C17 UNL     1      -0.598   7.430  13.901  1.00  0.00     0.015 C 
HETATM   10  C18 UNL     1      -0.279   6.808  12.542  1.00  0.00    -0.029 C 
HETATM   11  C19 UNL     1      -0.965   7.651  11.425  1.00  0.00     0.016 C 
HETATM   12  C20 UNL     1      -4.422   6.099  14.025  1.00  0.00    -0.015 C 
HETATM   13  C21 UNL     1      -4.518   6.329  15.555  1.00  0.00     0.020 C 
HETATM   14  C22 UNL     1      -5.140   7.246  13.265  1.00  0.00     0.021 C 
HETATM   15  C23 UNL     1      -6.647   7.264  13.451  1.00  0.00     0.080 C 
HETATM   16  C24 UNL     1      -7.253   5.943  13.047  1.00  0.00     0.135 C 
HETATM   17  O2  UNL     1      -8.212   5.912  12.274  1.00  0.00    -0.297 OA
HETATM   18  C25 UNL     1      -6.691   4.677  13.706  1.00  0.00     0.018 C 
HETATM   19  C26 UNL     1      -7.255   4.594  15.141  1.00  0.00     0.023 C 
HETATM   20  C27 UNL     1      -7.265   3.438  12.970  1.00  0.00     0.023 C 
HETATM   21  C28 UNL     1      -5.100   4.712  13.659  1.00  0.00     0.016 C 
HETATM   22  C29 UNL     1      -4.590   4.255  12.279  1.00  0.00     0.043 C 
HETATM   23  C30 UNL     1      -3.075   4.111  12.199  1.00  0.00     0.148 C 
ENDROOT
BRANCH   1  24
HETATM   24  C7  UNL     1       2.081   7.829  11.667  1.00  0.00    -0.011 C 
HETATM   25  C8  UNL     1       1.908   9.092  12.515  1.00  0.00     0.010 C 
BRANCH  24  26
HETATM   26  C6  UNL     1       3.583   7.413  11.570  1.00  0.00     0.040 C 
BRANCH  26  27
HETATM   27  C5  UNL     1       4.165   7.352  10.146  1.00  0.00     0.141 C 
BRANCH  27  28
HETATM   28  C4  UNL     1       3.159   7.800   9.114  1.00  0.00     0.006 C 
HETATM   29  C2  UNL     1       2.605   7.037   8.147  1.00  0.00    -0.089 C 
HETATM   30  C1  UNL     1       2.891   5.572   7.951  1.00  0.00     0.042 C 
HETATM   31  C3  UNL     1       1.616   7.619   7.171  1.00  0.00     0.042 C 
ENDBRANCH  27  28
BRANCH  27  32
HETATM   32  O1  UNL     1       4.529   6.008   9.846  1.00  0.00    -0.392 OA
HETATM   33  H9  UNL     1       3.785   5.598   9.373  1.00  0.00     0.210 HD
ENDBRANCH  27  32
ENDBRANCH  26  27
ENDBRANCH  24  26
ENDBRANCH   1  24
BRANCH  23  34
HETATM   34  O3  UNL     1      -2.768   3.978  10.816  1.00  0.00    -0.391 OA
HETATM   35  H48 UNL     1      -3.276   3.226  10.473  1.00  0.00     0.210 HD
ENDBRANCH  23  34
TORSDOF 6
ENDMDL
MODEL 2
REMARK minimizedAffinity -9.71836662
REMARK  6 active torsions:
REMARK  status: ('A' for Active; 'I' for Inactive)
REMARK    1  A    between atoms: C4_4  and  C5_5 
REMARK    2  A    between atoms: C5_5  and  O1_6 
REMARK    3  A    between atoms: C5_5  and  C6_7 
REMARK    4  A    between atoms: C6_7  and  C7_8 
REMARK    5  A    between atoms: C7_8  and  C9_10 
REMARK    6  A    between atoms: C30_32  and  O3_33 
ROOT
HETATM    1  C9  UNL     1      -3.294   7.779  14.951  1.00  0.00    -0.002 C 
HETATM    2  C10 UNL     1      -2.676   9.042  15.617  1.00  0.00     0.007 C 
HETATM    3  C11 UNL     1      -1.282   9.251  15.007  1.00  0.00     0.015 C 
HETATM    4  C12 UNL     1      -0.930   7.913  14.332  1.00  0.00    -0.010 C 
HETATM    5  C13 UNL     1      -0.420   6.965  15.463  1.00  0.00     0.021 C 
HETATM    6  C14 UNL     1       0.162   7.838  13.251  1.00  0.00    -0.039 C 
HETATM    7  C15 UNL     1       0.110   6.857  12.310  1.00  0.00    -0.066 C 
HETATM    8  C16 UNL     1      -1.100   5.908  12.232  1.00  0.00     0.036 C 
HETATM    9  C17 UNL     1      -2.248   6.092  13.240  1.00  0.00     0.015 C 
HETATM   10  C18 UNL     1      -2.344   7.535  13.735  1.00  0.00    -0.029 C 
HETATM   11  C19 UNL     1      -2.767   8.451  12.548  1.00  0.00     0.016 C 
HETATM   12  C20 UNL     1       1.244   6.618  11.255  1.00  0.00    -0.015 C 
HETATM   13  C21 UNL     1       1.515   5.093  11.201  1.00  0.00     0.020 C 
HETATM   14  C22 UNL     1       0.712   7.116   9.884  1.00  0.00     0.021 C 
HETATM   15  C23 UNL     1       1.734   7.053   8.763  1.00  0.00     0.080 C 
HETATM   16  C24 UNL     1       2.977   7.827   9.126  1.00  0.00     0.135 C 
HETATM   17  O2  UNL     1       3.441   8.657   8.342  1.00  0.00    -0.297 OA
HETATM   18  C25 UNL     1       3.671   7.469  10.446  1.00  0.00     0.018 C 
HETATM   19  C26 UNL     1       4.450   6.153  10.235  1.00  0.00     0.023 C 
HETATM   20  C27 UNL     1       4.754   8.540  10.743  1.00  0.00     0.023 C 
HETATM   21  C28 UNL     1       2.591   7.379  11.611  1.00  0.00     0.016 C 
HETATM   22  C29 UNL     1       2.246   8.784  12.139  1.00  0.00     0.043 C 
HETATM   23  C30 UNL     1       1.334   8.777  13.360  1.00  0.00     0.148 C 
ENDROOT
BRANCH   1  24
HETATM   24  C7  UNL     1      -4.836   7.929  14.742  1.00  0.00    -0.011 C 
HETATM   25  C8  UNL     1      -5.214   8.028  13.262  1.00  0.00     0.010 C 
BRANCH  24  26
HETATM   26  C6  UNL     1      -5.579   6.746  15.439  1.00  0.00     0.040 C 
BRANCH  26  27
HETATM   27  C5  UNL     1      -6.555   5.956  14.548  1.00  0.00     0.141 C 
BRANCH  27  28
HETATM   28  C4  UNL     1      -5.833   5.236  13.435  1.00  0.00     0.006 C 
HETATM   29  C2  UNL     1      -6.160   4.035  12.911  1.00  0.00    -0.089 C 
HETATM   30  C1  UNL     1      -7.339   3.208  13.349  1.00  0.00     0.042 C 
HETATM   31  C3  UNL     1      -5.343   3.424  11.803  1.00  0.00     0.042 C 
ENDBRANCH  27  28
BRANCH  27  32
HETATM   32  O1  UNL     1      -7.483   6.858  13.955  1.00  0.00    -0.392 OA
HETATM   33  H9  UNL     1      -7.144   7.096  13.076  1.00  0.00     0.210 HD
ENDBRANCH  27  32
ENDBRANCH  26  27
ENDBRANCH  24  26
ENDBRANCH   1  24
BRANCH  23  34
HETATM   34  O3  UNL     1       0.891  10.119  13.525  1.00  0.00    -0.391 OA
HETATM   35  H48 UNL     1       1.678  10.682  13.597  1.00  0.00     0.210 HD
ENDBRANCH  23  34
TORSDOF 6
ENDMDL
MODEL 3
REMARK minimizedAffinity -9.57897377
REMARK  6 active torsions:
REMARK  status: ('A' for Active; 'I' for Inactive)
REMARK    1  A    between atoms: C4_4  and  C5_5 
REMARK    2  A    between atoms: C5_5  and  O1_6 
REMARK    3  A    between atoms: C5_5  and  C6_7 
REMARK    4  A    between atoms: C6_7  and  C7_8 
REMARK    5  A    between atoms: C7_8  and  C9_10 
REMARK    6  A    between atoms: C30_32  and  O3_33 
ROOT
HETATM    1  C9  UNL     1      -4.934   4.914  13.743  1.00  0.00    -0.002 C 
HETATM    2  C10 UNL     1      -5.639   4.275  12.513  1.00  0.00     0.007 C 
HETATM    3  C11 UNL     1      -7.077   4.810  12.473  1.00  0.00     0.015 C 
HETATM    4  C12 UNL     1      -7.329   5.400  13.873  1.00  0.00    -0.010 C 
HETATM    5  C13 UNL     1      -7.680   4.197  14.806  1.00  0.00     0.021 C 
HETATM    6  C14 UNL     1      -8.465   6.410  14.111  1.00  0.00    -0.039 C 
HETATM    7  C15 UNL     1      -8.365   7.305  15.132  1.00  0.00    -0.066 C 
HETATM    8  C16 UNL     1      -7.072   7.408  15.961  1.00  0.00     0.036 C 
HETATM    9  C17 UNL     1      -5.896   6.480  15.612  1.00  0.00     0.015 C 
HETATM   10  C18 UNL     1      -5.919   6.060  14.143  1.00  0.00    -0.029 C 
HETATM   11  C19 UNL     1      -5.653   7.312  13.254  1.00  0.00     0.016 C 
HETATM   12  C20 UNL     1      -9.523   8.280  15.536  1.00  0.00    -0.015 C 
HETATM   13  C21 UNL     1      -9.643   8.245  17.081  1.00  0.00     0.020 C 
HETATM   14  C22 UNL     1      -9.119   9.701  15.062  1.00  0.00     0.021 C 
HETATM   15  C23 UNL     1     -10.187  10.756  15.283  1.00  0.00     0.080 C 
HETATM   16  C24 UNL     1     -11.480  10.358  14.616  1.00  0.00     0.135 C 
HETATM   17  O2  UNL     1     -12.067  11.152  13.878  1.00  0.00    -0.297 OA
HETATM   18  C25 UNL     1     -12.064   8.984  14.969  1.00  0.00     0.018 C 
HETATM   19  C26 UNL     1     -12.717   9.087  16.365  1.00  0.00     0.023 C 
HETATM   20  C27 UNL     1     -13.231   8.676  13.995  1.00  0.00     0.023 C 
HETATM   21  C28 UNL     1     -10.919   7.882  14.892  1.00  0.00     0.016 C 
HETATM   22  C29 UNL     1     -10.689   7.442  13.434  1.00  0.00     0.043 C 
HETATM   23  C30 UNL     1      -9.717   6.277  13.287  1.00  0.00     0.148 C 
ENDROOT
BRANCH   1  24
HETATM   24  C7  UNL     1      -3.428   5.220  13.454  1.00  0.00    -0.011 C 
HETATM   25  C8  UNL     1      -2.567   5.136  14.717  1.00  0.00     0.010 C 
BRANCH  24  26
HETATM   26  C6  UNL     1      -2.900   4.260  12.342  1.00  0.00     0.040 C 
BRANCH  26  27
HETATM   27  C5  UNL     1      -1.432   4.465  11.928  1.00  0.00     0.141 C 
BRANCH  27  28
HETATM   28  C4  UNL     1      -0.824   3.195  11.385  1.00  0.00     0.006 C 
HETATM   29  C2  UNL     1      -1.455   2.014  11.207  1.00  0.00    -0.089 C 
HETATM   30  C1  UNL     1      -2.910   1.773  11.509  1.00  0.00     0.042 C 
HETATM   31  C3  UNL     1      -0.722   0.818  10.662  1.00  0.00     0.042 C 
ENDBRANCH  27  28
BRANCH  27  32
HETATM   32  O1  UNL     1      -0.674   4.859  13.068  1.00  0.00    -0.392 OA
HETATM   33  H9  UNL     1      -0.274   4.059  13.449  1.00  0.00     0.210 HD
ENDBRANCH  27  32
ENDBRANCH  26  27
ENDBRANCH  24  26
ENDBRANCH   1  24
BRANCH  23  34
HETATM   34  O3  UNL     1      -9.403   6.203  11.902  1.00  0.00    -0.391 OA
HETATM   35  H48 UNL     1     -10.237   6.111  11.415  1.00  0.00     0.210 HD
ENDBRANCH  23  34
TORSDOF 6
ENDMDL
MODEL 4
REMARK minimizedAffinity -9.51103401
REMARK  6 active torsions:
REMARK  status: ('A' for Active; 'I' for Inactive)
REMARK    1  A    between atoms: C4_4  and  C5_5 
REMARK    2  A    between atoms: C5_5  and  O1_6 
REMARK    3  A    between atoms: C5_5  and  C6_7 
REMARK    4  A    between atoms: C6_7  and  C7_8 
REMARK    5  A    between atoms: C7_8  and  C9_10 
REMARK    6  A    between atoms: C30_32  and  O3_33 
ROOT
HETATM    1  C9  UNL     1      -3.437   7.553  14.704  1.00  0.00    -0.002 C 
HETATM    2  C10 UNL     1      -3.111   6.167  15.330  1.00  0.00     0.007 C 
HETATM    3  C11 UNL     1      -1.966   5.548  14.516  1.00  0.00     0.015 C 
HETATM    4  C12 UNL     1      -1.922   6.351  13.203  1.00  0.00    -0.010 C 
HETATM    5  C13 UNL     1      -3.044   5.767  12.287  1.00  0.00     0.021 C 
HETATM    6  C14 UNL     1      -0.666   6.345  12.316  1.00  0.00    -0.039 C 
HETATM    7  C15 UNL     1      -0.412   7.407  11.503  1.00  0.00    -0.066 C 
HETATM    8  C16 UNL     1      -1.292   8.669  11.563  1.00  0.00     0.036 C 
HETATM    9  C17 UNL     1      -2.463   8.705  12.560  1.00  0.00     0.015 C 
HETATM   10  C18 UNL     1      -2.211   7.799  13.766  1.00  0.00    -0.029 C 
HETATM   11  C19 UNL     1      -1.025   8.378  14.595  1.00  0.00     0.016 C 
HETATM   12  C20 UNL     1       0.765   7.435  10.468  1.00  0.00    -0.015 C 
HETATM   13  C21 UNL     1       0.201   7.994   9.137  1.00  0.00     0.020 C 
HETATM   14  C22 UNL     1       1.853   8.386  11.031  1.00  0.00     0.021 C 
HETATM   15  C23 UNL     1       3.119   8.445  10.195  1.00  0.00     0.080 C 
HETATM   16  C24 UNL     1       3.707   7.068  10.014  1.00  0.00     0.135 C 
HETATM   17  O2  UNL     1       4.900   6.868  10.249  1.00  0.00    -0.297 OA
HETATM   18  C25 UNL     1       2.790   5.978   9.445  1.00  0.00     0.018 C 
HETATM   19  C26 UNL     1       2.655   6.212   7.925  1.00  0.00     0.023 C 
HETATM   20  C27 UNL     1       3.504   4.607   9.584  1.00  0.00     0.023 C 
HETATM   21  C28 UNL     1       1.395   6.001  10.210  1.00  0.00     0.016 C 
HETATM   22  C29 UNL     1       1.501   5.252  11.552  1.00  0.00     0.043 C 
HETATM   23  C30 UNL     1       0.170   5.094  12.276  1.00  0.00     0.148 C 
ENDROOT
BRANCH   1  24
HETATM   24  C7  UNL     1      -3.833   8.604  15.792  1.00  0.00    -0.011 C 
HETATM   25  C8  UNL     1      -2.699   9.588  16.088  1.00  0.00     0.010 C 
BRANCH  24  26
HETATM   26  C6  UNL     1      -5.132   9.350  15.353  1.00  0.00     0.040 C 
BRANCH  26  27
HETATM   27  C5  UNL     1      -6.419   8.506  15.362  1.00  0.00     0.141 C 
BRANCH  27  28
HETATM   28  C4  UNL     1      -6.414   7.470  14.263  1.00  0.00     0.006 C 
HETATM   29  C2  UNL     1      -6.770   6.173  14.380  1.00  0.00    -0.089 C 
HETATM   30  C1  UNL     1      -7.267   5.538  15.652  1.00  0.00     0.042 C 
HETATM   31  C3  UNL     1      -6.708   5.242  13.198  1.00  0.00     0.042 C 
ENDBRANCH  27  28
BRANCH  27  32
HETATM   32  O1  UNL     1      -7.541   9.358  15.153  1.00  0.00    -0.392 OA
HETATM   33  H9  UNL     1      -7.748   9.348  14.204  1.00  0.00     0.210 HD
ENDBRANCH  27  32
ENDBRANCH  26  27
ENDBRANCH  24  26
ENDBRANCH   1  24
BRANCH  23  34
HETATM   34  O3  UNL     1       0.490   4.660  13.593  1.00  0.00    -0.391 OA
HETATM   35  H48 UNL     1       1.020   3.851  13.515  1.00  0.00     0.210 HD
ENDBRANCH  23  34
TORSDOF 6
ENDMDL
MODEL 5
REMARK minimizedAffinity -9.5089016
REMARK  6 active torsions:
REMARK  status: ('A' for Active; 'I' for Inactive)
REMARK    1  A    between atoms: C4_4  and  C5_5 
REMARK    2  A    between atoms: C5_5  and  O1_6 
REMARK    3  A    between atoms: C5_5  and  C6_7 
REMARK    4  A    between atoms: C6_7  and  C7_8 
REMARK    5  A    between atoms: C7_8  and  C9_10 
REMARK    6  A    between atoms: C30_32  and  O3_33 
ROOT
HETATM    1  C9  UNL     1      -4.648   4.671  13.762  1.00  0.00    -0.002 C 
HETATM    2  C10 UNL     1      -5.295   4.040  12.496  1.00  0.00     0.007 C 
HETATM    3  C11 UNL     1      -6.733   4.570  12.398  1.00  0.00     0.015 C 
HETATM    4  C12 UNL     1      -7.049   5.145  13.790  1.00  0.00    -0.010 C 
HETATM    5  C13 UNL     1      -7.435   3.932  14.695  1.00  0.00     0.021 C 
HETATM    6  C14 UNL     1      -8.199   6.147  13.987  1.00  0.00    -0.039 C 
HETATM    7  C15 UNL     1      -8.149   7.033  15.019  1.00  0.00    -0.066 C 
HETATM    8  C16 UNL     1      -6.895   7.134  15.906  1.00  0.00     0.036 C 
HETATM    9  C17 UNL     1      -5.700   6.214  15.602  1.00  0.00     0.015 C 
HETATM   10  C18 UNL     1      -5.656   5.808  14.128  1.00  0.00    -0.029 C 
HETATM   11  C19 UNL     1      -5.357   7.070  13.264  1.00  0.00     0.016 C 
HETATM   12  C20 UNL     1      -9.330   7.998  15.381  1.00  0.00    -0.015 C 
HETATM   13  C21 UNL     1      -9.517   7.948  16.918  1.00  0.00     0.020 C 
HETATM   14  C22 UNL     1      -8.911   9.426  14.938  1.00  0.00     0.021 C 
HETATM   15  C23 UNL     1      -9.994  10.474  15.122  1.00  0.00     0.080 C 
HETATM   16  C24 UNL     1     -11.254  10.077  14.394  1.00  0.00     0.135 C 
HETATM   17  O2  UNL     1     -11.811  10.875  13.639  1.00  0.00    -0.297 OA
HETATM   18  C25 UNL     1     -11.846   8.697  14.708  1.00  0.00     0.018 C 
HETATM   19  C26 UNL     1     -12.561   8.783  16.075  1.00  0.00     0.023 C 
HETATM   20  C27 UNL     1     -12.967   8.392  13.681  1.00  0.00     0.023 C 
HETATM   21  C28 UNL     1     -10.693   7.600  14.672  1.00  0.00     0.016 C 
HETATM   22  C29 UNL     1     -10.397   7.175  13.222  1.00  0.00     0.043 C 
HETATM   23  C30 UNL     1      -9.414   6.017  13.107  1.00  0.00     0.148 C 
ENDROOT
BRANCH   1  24
HETATM   24  C7  UNL     1      -3.133   4.987  13.544  1.00  0.00    -0.011 C 
HETATM   25  C8  UNL     1      -2.696   4.758  12.095  1.00  0.00     0.010 C 
BRANCH  24  26
HETATM   26  C6  UNL     1      -2.829   6.448  14.003  1.00  0.00     0.040 C 
BRANCH  26  27
HETATM   27  C5  UNL     1      -1.423   6.682  14.586  1.00  0.00     0.141 C 
BRANCH  27  28
HETATM   28  C4  UNL     1      -0.449   7.134  13.526  1.00  0.00     0.006 C 
HETATM   29  C2  UNL     1      -0.651   8.107  12.611  1.00  0.00    -0.089 C 
HETATM   30  C1  UNL     1      -1.905   8.935  12.513  1.00  0.00     0.042 C 
HETATM   31  C3  UNL     1       0.408   8.452  11.598  1.00  0.00     0.042 C 
ENDBRANCH  27  28
BRANCH  27  32
HETATM   32  O1  UNL     1      -0.935   5.463  15.137  1.00  0.00    -0.392 OA
HETATM   33  H9  UNL     1      -0.392   5.028  14.458  1.00  0.00     0.210 HD
ENDBRANCH  27  32
ENDBRANCH  26  27
ENDBRANCH  24  26
ENDBRANCH   1  24
BRANCH  23  34
HETATM   34  O3  UNL     1      -9.037   5.957  11.736  1.00  0.00    -0.391 OA
HETATM   35  H48 UNL     1      -9.849   5.866  11.212  1.00  0.00     0.210 HD
ENDBRANCH  23  34
TORSDOF 6
ENDMDL
MODEL 6
REMARK minimizedAffinity -9.43809891
REMARK  6 active torsions:
REMARK  status: ('A' for Active; 'I' for Inactive)
REMARK    1  A    between atoms: C4_4  and  C5_5 
REMARK    2  A    between atoms: C5_5  and  O1_6 
REMARK    3  A    between atoms: C5_5  and  C6_7 
REMARK    4  A    between atoms: C6_7  and  C7_8 
REMARK    5  A    between atoms: C7_8  and  C9_10 
REMARK    6  A    between atoms: C30_32  and  O3_33 
ROOT
HETATM    1  C9  UNL     1      -4.698   4.991  13.724  1.00  0.00    -0.002 C 
HETATM    2  C10 UNL     1      -5.353   4.317  12.485  1.00  0.00     0.007 C 
HETATM    3  C11 UNL     1      -6.813   4.787  12.419  1.00  0.00     0.015 C 
HETATM    4  C12 UNL     1      -7.114   5.369  13.813  1.00  0.00    -0.010 C 
HETATM    5  C13 UNL     1      -7.426   4.154  14.744  1.00  0.00     0.021 C 
HETATM    6  C14 UNL     1      -8.298   6.327  14.029  1.00  0.00    -0.039 C 
HETATM    7  C15 UNL     1      -8.255   7.229  15.048  1.00  0.00    -0.066 C 
HETATM    8  C16 UNL     1      -6.982   7.392  15.897  1.00  0.00     0.036 C 
HETATM    9  C17 UNL     1      -5.760   6.517  15.571  1.00  0.00     0.015 C 
HETATM   10  C18 UNL     1      -5.740   6.092  14.103  1.00  0.00    -0.029 C 
HETATM   11  C19 UNL     1      -5.516   7.353  13.214  1.00  0.00     0.016 C 
HETATM   12  C20 UNL     1      -9.463   8.151  15.429  1.00  0.00    -0.015 C 
HETATM   13  C21 UNL     1      -9.606   8.116  16.972  1.00  0.00     0.020 C 
HETATM   14  C22 UNL     1      -9.115   9.588  14.957  1.00  0.00     0.021 C 
HETATM   15  C23 UNL     1     -10.233  10.595  15.157  1.00  0.00     0.080 C 
HETATM   16  C24 UNL     1     -11.496  10.137  14.470  1.00  0.00     0.135 C 
HETATM   17  O2  UNL     1     -12.105  10.902  13.720  1.00  0.00    -0.297 OA
HETATM   18  C25 UNL     1     -12.023   8.739  14.819  1.00  0.00     0.018 C 
HETATM   19  C26 UNL     1     -12.702   8.816  16.203  1.00  0.00     0.023 C 
HETATM   20  C27 UNL     1     -13.159   8.376  13.827  1.00  0.00     0.023 C 
HETATM   21  C28 UNL     1     -10.828   7.690  14.764  1.00  0.00     0.016 C 
HETATM   22  C29 UNL     1     -10.555   7.256  13.312  1.00  0.00     0.043 C 
HETATM   23  C30 UNL     1      -9.530   6.136  13.185  1.00  0.00     0.148 C 
ENDROOT
BRANCH   1  24
HETATM   24  C7  UNL     1      -3.203   5.364  13.458  1.00  0.00    -0.011 C 
HETATM   25  C8  UNL     1      -2.402   5.507  14.755  1.00  0.00     0.010 C 
BRANCH  24  26
HETATM   26  C6  UNL     1      -2.558   4.306  12.507  1.00  0.00     0.040 C 
BRANCH  26  27
HETATM   27  C5  UNL     1      -1.052   4.482  12.241  1.00  0.00     0.141 C 
BRANCH  27  28
HETATM   28  C4  UNL     1      -0.789   5.570  11.229  1.00  0.00     0.006 C 
HETATM   29  C2  UNL     1       0.403   6.144  10.959  1.00  0.00    -0.089 C 
HETATM   30  C1  UNL     1       1.700   5.766  11.623  1.00  0.00     0.042 C 
HETATM   31  C3  UNL     1       0.523   7.233   9.925  1.00  0.00     0.042 C 
ENDBRANCH  27  28
BRANCH  27  32
HETATM   32  O1  UNL     1      -0.523   3.266  11.723  1.00  0.00    -0.392 OA
HETATM   33  H9  UNL     1      -0.525   3.332  10.753  1.00  0.00     0.210 HD
ENDBRANCH  27  32
ENDBRANCH  26  27
ENDBRANCH  24  26
ENDBRANCH   1  24
BRANCH  23  34
HETATM   34  O3  UNL     1      -9.189   6.072  11.805  1.00  0.00    -0.391 OA
HETATM   35  H48 UNL     1     -10.011   5.942  11.305  1.00  0.00     0.210 HD
ENDBRANCH  23  34
TORSDOF 6
ENDMDL
MODEL 7
REMARK minimizedAffinity -9.40886784
REMARK  6 active torsions:
REMARK  status: ('A' for Active; 'I' for Inactive)
REMARK    1  A    between atoms: C4_4  and  C5_5 
REMARK    2  A    between atoms: C5_5  and  O1_6 
REMARK    3  A    between atoms: C5_5  and  C6_7 
REMARK    4  A    between atoms: C6_7  and  C7_8 
REMARK    5  A    between atoms: C7_8  and  C9_10 
REMARK    6  A    between atoms: C30_32  and  O3_33 
ROOT
HETATM    1  C9  UNL     1      -3.493   7.577  14.402  1.00  0.00    -0.002 C 
HETATM    2  C10 UNL     1      -4.140   8.535  13.361  1.00  0.00     0.007 C 
HETATM    3  C11 UNL     1      -3.092   8.813  12.274  1.00  0.00     0.015 C 
HETATM    4  C12 UNL     1      -1.747   8.381  12.887  1.00  0.00    -0.010 C 
HETATM    5  C13 UNL     1      -1.278   9.557  13.802  1.00  0.00     0.021 C 
HETATM    6  C14 UNL     1      -0.531   8.086  11.994  1.00  0.00    -0.039 C 
HETATM    7  C15 UNL     1       0.431   7.228  12.429  1.00  0.00    -0.066 C 
HETATM    8  C16 UNL     1       0.247   6.445  13.742  1.00  0.00     0.036 C 
HETATM    9  C17 UNL     1      -1.045   6.653  14.551  1.00  0.00     0.015 C 
HETATM   10  C18 UNL     1      -2.211   7.083  13.660  1.00  0.00    -0.029 C 
HETATM   11  C19 UNL     1      -2.579   5.907  12.705  1.00  0.00     0.016 C 
HETATM   12  C20 UNL     1       1.767   6.968  11.652  1.00  0.00    -0.015 C 
HETATM   13  C21 UNL     1       2.920   6.999  12.688  1.00  0.00     0.020 C 
HETATM   14  C22 UNL     1       1.662   5.560  11.009  1.00  0.00     0.021 C 
HETATM   15  C23 UNL     1       2.841   5.193  10.126  1.00  0.00     0.080 C 
HETATM   16  C24 UNL     1       3.039   6.221   9.041  1.00  0.00     0.135 C 
HETATM   17  O2  UNL     1       3.152   5.869   7.865  1.00  0.00    -0.297 OA
HETATM   18  C25 UNL     1       3.186   7.686   9.474  1.00  0.00     0.018 C 
HETATM   19  C26 UNL     1       4.612   7.878  10.035  1.00  0.00     0.023 C 
HETATM   20  C27 UNL     1       3.120   8.586   8.213  1.00  0.00     0.023 C 
HETATM   21  C28 UNL     1       2.046   8.049  10.524  1.00  0.00     0.016 C 
HETATM   22  C29 UNL     1       0.724   8.366   9.798  1.00  0.00     0.043 C 
HETATM   23  C30 UNL     1      -0.378   8.873  10.719  1.00  0.00     0.148 C 
ENDROOT
BRANCH   1  24
HETATM   24  C7  UNL     1      -4.530   6.555  14.973  1.00  0.00    -0.011 C 
HETATM   25  C8  UNL     1      -5.802   7.240  15.478  1.00  0.00     0.010 C 
BRANCH  24  26
HETATM   26  C6  UNL     1      -4.857   5.479  13.890  1.00  0.00     0.040 C 
BRANCH  26  27
HETATM   27  C5  UNL     1      -6.355   5.233  13.628  1.00  0.00     0.141 C 
BRANCH  27  28
HETATM   28  C4  UNL     1      -6.571   4.108  12.646  1.00  0.00     0.006 C 
HETATM   29  C2  UNL     1      -5.651   3.205  12.243  1.00  0.00    -0.089 C 
HETATM   30  C1  UNL     1      -4.229   3.160  12.738  1.00  0.00     0.042 C 
HETATM   31  C3  UNL     1      -6.000   2.134  11.245  1.00  0.00     0.042 C 
ENDBRANCH  27  28
BRANCH  27  32
HETATM   32  O1  UNL     1      -6.933   6.411  13.077  1.00  0.00    -0.392 OA
HETATM   33  H9  UNL     1      -6.927   6.320  12.109  1.00  0.00     0.210 HD
ENDBRANCH  27  32
ENDBRANCH  26  27
ENDBRANCH  24  26
ENDBRANCH   1  24
BRANCH  23  34
HETATM   34  O3  UNL     1      -1.577   8.830   9.955  1.00  0.00    -0.391 OA
HETATM   35  H48 UNL     1      -1.433   9.355   9.151  1.00  0.00     0.210 HD
ENDBRANCH  23  34
TORSDOF 6
ENDMDL
MODEL 8
REMARK minimizedAffinity -9.21669102
REMARK  6 active torsions:
REMARK  status: ('A' for Active; 'I' for Inactive)
REMARK    1  A    between atoms: C4_4  and  C5_5 
REMARK    2  A    between atoms: C5_5  and  O1_6 
REMARK    3  A    between atoms: C5_5  and  C6_7 
REMARK    4  A    between atoms: C6_7  and  C7_8 
REMARK    5  A    between atoms: C7_8  and  C9_10 
REMARK    6  A    between atoms: C30_32  and  O3_33 
ROOT
HETATM    1  C9  UNL     1      -2.246   5.857  12.520  1.00  0.00    -0.002 C 
HETATM    2  C10 UNL     1      -1.891   4.750  11.487  1.00  0.00     0.007 C 
HETATM    3  C11 UNL     1      -0.419   4.936  11.095  1.00  0.00     0.015 C 
HETATM    4  C12 UNL     1      -0.055   6.360  11.553  1.00  0.00    -0.010 C 
HETATM    5  C13 UNL     1      -0.591   7.331  10.453  1.00  0.00     0.021 C 
HETATM    6  C14 UNL     1       1.413   6.777  11.744  1.00  0.00    -0.039 C 
HETATM    7  C15 UNL     1       1.721   7.773  12.619  1.00  0.00    -0.066 C 
HETATM    8  C16 UNL     1       0.634   8.391  13.518  1.00  0.00     0.036 C 
HETATM    9  C17 UNL     1      -0.806   7.860  13.406  1.00  0.00     0.015 C 
HETATM   10  C18 UNL     1      -0.841   6.410  12.923  1.00  0.00    -0.029 C 
HETATM   11  C19 UNL     1      -0.213   5.496  14.018  1.00  0.00     0.016 C 
HETATM   12  C20 UNL     1       3.166   8.356  12.783  1.00  0.00    -0.015 C 
HETATM   13  C21 UNL     1       3.043   9.901  12.821  1.00  0.00     0.020 C 
HETATM   14  C22 UNL     1       3.727   7.831  14.132  1.00  0.00     0.021 C 
HETATM   15  C23 UNL     1       5.170   8.220  14.397  1.00  0.00     0.080 C 
HETATM   16  C24 UNL     1       6.065   7.760  13.274  1.00  0.00     0.135 C 
HETATM   17  O2  UNL     1       7.092   7.126  13.519  1.00  0.00    -0.297 OA
HETATM   18  C25 UNL     1       5.691   8.194  11.850  1.00  0.00     0.018 C 
HETATM   19  C26 UNL     1       6.095   9.675  11.680  1.00  0.00     0.023 C 
HETATM   20  C27 UNL     1       6.576   7.413  10.845  1.00  0.00     0.023 C 
HETATM   21  C28 UNL     1       4.140   7.936  11.603  1.00  0.00     0.016 C 
HETATM   22  C29 UNL     1       3.889   6.458  11.249  1.00  0.00     0.043 C 
HETATM   23  C30 UNL     1       2.450   6.157  10.846  1.00  0.00     0.148 C 
ENDROOT
BRANCH   1  24
HETATM   24  C7  UNL     1      -3.242   5.339  13.608  1.00  0.00    -0.011 C 
HETATM   25  C8  UNL     1      -2.743   5.613  15.029  1.00  0.00     0.010 C 
BRANCH  24  26
HETATM   26  C6  UNL     1      -4.652   5.967  13.372  1.00  0.00     0.040 C 
BRANCH  26  27
HETATM   27  C5  UNL     1      -5.820   4.967  13.290  1.00  0.00     0.141 C 
BRANCH  27  28
HETATM   28  C4  UNL     1      -5.538   3.863  12.300  1.00  0.00     0.006 C 
HETATM   29  C2  UNL     1      -6.269   2.742  12.118  1.00  0.00    -0.089 C 
HETATM   30  C1  UNL     1      -7.528   2.415  12.875  1.00  0.00     0.042 C 
HETATM   31  C3  UNL     1      -5.867   1.712  11.096  1.00  0.00     0.042 C 
ENDBRANCH  27  28
BRANCH  27  32
HETATM   32  O1  UNL     1      -6.993   5.650  12.860  1.00  0.00    -0.392 OA
HETATM   33  H9  UNL     1      -7.061   5.544  11.896  1.00  0.00     0.210 HD
ENDBRANCH  27  32
ENDBRANCH  26  27
ENDBRANCH  24  26
ENDBRANCH   1  24
BRANCH  23  34
HETATM   34  O3  UNL     1       2.333   4.739  10.845  1.00  0.00    -0.391 OA
HETATM   35  H48 UNL     1       3.014   4.388  10.249  1.00  0.00     0.210 HD
ENDBRANCH  23  34
TORSDOF 6
ENDMDL
MODEL 9
REMARK minimizedAffinity -9.13972569
REMARK  6 active torsions:
REMARK  status: ('A' for Active; 'I' for Inactive)
REMARK    1  A    between atoms: C4_4  and  C5_5 
REMARK    2  A    between atoms: C5_5  and  O1_6 
REMARK    3  A    between atoms: C5_5  and  C6_7 
REMARK    4  A    between atoms: C6_7  and  C7_8 
REMARK    5  A    between atoms: C7_8  and  C9_10 
REMARK    6  A    between atoms: C30_32  and  O3_33 
ROOT
HETATM    1  C9  UNL     1      -3.798   5.325  12.463  1.00  0.00    -0.002 C 
HETATM    2  C10 UNL     1      -2.550   4.442  12.750  1.00  0.00     0.007 C 
HETATM    3  C11 UNL     1      -1.589   5.266  13.620  1.00  0.00     0.015 C 
HETATM    4  C12 UNL     1      -2.065   6.723  13.480  1.00  0.00    -0.010 C 
HETATM    5  C13 UNL     1      -1.484   7.254  12.131  1.00  0.00     0.021 C 
HETATM    6  C14 UNL     1      -1.661   7.788  14.514  1.00  0.00    -0.039 C 
HETATM    7  C15 UNL     1      -2.461   8.870  14.713  1.00  0.00    -0.066 C 
HETATM    8  C16 UNL     1      -3.831   8.971  14.017  1.00  0.00     0.036 C 
HETATM    9  C17 UNL     1      -4.275   7.824  13.093  1.00  0.00     0.015 C 
HETATM   10  C18 UNL     1      -3.629   6.495  13.485  1.00  0.00    -0.029 C 
HETATM   11  C19 UNL     1      -4.176   6.057  14.877  1.00  0.00     0.016 C 
HETATM   12  C20 UNL     1      -2.069  10.070  15.642  1.00  0.00    -0.015 C 
HETATM   13  C21 UNL     1      -2.406  11.377  14.881  1.00  0.00     0.020 C 
HETATM   14  C22 UNL     1      -2.932   9.961  16.927  1.00  0.00     0.021 C 
HETATM   15  C23 UNL     1      -2.599  10.995  17.987  1.00  0.00     0.080 C 
HETATM   16  C24 UNL     1      -1.140  10.929  18.361  1.00  0.00     0.135 C 
HETATM   17  O2  UNL     1      -0.806  10.865  19.546  1.00  0.00    -0.297 OA
HETATM   18  C25 UNL     1      -0.114  11.039  17.226  1.00  0.00     0.018 C 
HETATM   19  C26 UNL     1      -0.026  12.522  16.803  1.00  0.00     0.023 C 
HETATM   20  C27 UNL     1       1.289  10.693  17.790  1.00  0.00     0.023 C 
HETATM   21  C28 UNL     1      -0.531  10.072  16.034  1.00  0.00     0.016 C 
HETATM   22  C29 UNL     1      -0.089   8.626  16.331  1.00  0.00     0.043 C 
HETATM   23  C30 UNL     1      -0.312   7.663  15.172  1.00  0.00     0.148 C 
ENDROOT
BRANCH   1  24
HETATM   24  C7  UNL     1      -5.112   4.479  12.427  1.00  0.00    -0.011 C 
HETATM   25  C8  UNL     1      -4.855   3.025  12.027  1.00  0.00     0.010 C 
BRANCH  24  26
HETATM   26  C6  UNL     1      -5.832   4.568  13.810  1.00  0.00     0.040 C 
BRANCH  26  27
HETATM   27  C5  UNL     1      -7.354   4.340  13.783  1.00  0.00     0.141 C 
BRANCH  27  28
HETATM   28  C4  UNL     1      -7.972   4.861  12.508  1.00  0.00     0.006 C 
HETATM   29  C2  UNL     1      -8.929   5.808  12.408  1.00  0.00    -0.089 C 
HETATM   30  C1  UNL     1      -9.534   6.534  13.581  1.00  0.00     0.042 C 
HETATM   31  C3  UNL     1      -9.467   6.229  11.066  1.00  0.00     0.042 C 
ENDBRANCH  27  28
BRANCH  27  32
HETATM   32  O1  UNL     1      -7.951   5.034  14.873  1.00  0.00    -0.392 OA
HETATM   33  H9  UNL     1      -8.250   5.899  14.546  1.00  0.00     0.210 HD
ENDBRANCH  27  32
ENDBRANCH  26  27
ENDBRANCH  24  26
ENDBRANCH   1  24
BRANCH  23  34
HETATM   34  O3  UNL     1      -0.134   6.357  15.708  1.00  0.00    -0.391 OA
HETATM   35  H48 UNL     1       0.748   6.323  16.113  1.00  0.00     0.210 HD
ENDBRANCH  23  34
TORSDOF 6
ENDMDL
