MODEL 1
REMARK minimizedAffinity -10.6769562
REMARK  7 active torsions:
REMARK  status: ('A' for Active; 'I' for Inactive)
REMARK    1  A    between atoms: C3_3  and  C4_4 
REMARK    2  A    between atoms: C4_4  and  O1_5 
REMARK    3  A    between atoms: C6_9  and  C7_10 
REMARK    4  A    between atoms: C7_10  and  C9_12 
REMARK    5  A    between atoms: C9_12  and  O4_13 
REMARK    6  A    between atoms: C10_14  and  O5_15 
REMARK    7  A    between atoms: C17_22  and  O6_23 
ROOT
HETATM    1  C9  UNL     1      -0.300   5.797  11.803  1.00  0.00     0.097 C 
HETATM    2  C10 UNL     1      -0.499   4.296  11.338  1.00  0.00     0.154 C 
HETATM    3  C11 UNL     1      -1.919   3.870  11.750  1.00  0.00     0.040 C 
HETATM    4  C12 UNL     1      -2.564   5.140  12.285  1.00  0.00     0.004 C 
HETATM    5  C13 UNL     1      -3.806   4.982  13.177  1.00  0.00    -0.001 C 
HETATM    6  C14 UNL     1      -4.891   4.181  12.449  1.00  0.00     0.033 C 
HETATM    7  C15 UNL     1      -6.216   4.235  13.135  1.00  0.00    -0.019 C 
HETATM    8  C16 UNL     1      -6.556   5.136  14.078  1.00  0.00    -0.035 C 
HETATM    9  C17 UNL     1      -7.941   5.086  14.685  1.00  0.00     0.171 C 
HETATM   10  C18 UNL     1      -8.531   6.433  14.920  1.00  0.00     0.013 C 
HETATM   11  C19 UNL     1      -7.873   7.589  14.776  1.00  0.00     0.050 C 
HETATM   12  C20 UNL     1      -6.429   7.600  14.426  1.00  0.00     0.162 C 
HETATM   13  O7  UNL     1      -5.933   8.689  14.141  1.00  0.00    -0.292 OA
HETATM   14  C21 UNL     1      -5.619   6.277  14.521  1.00  0.00     0.051 C 
HETATM   15  C22 UNL     1      -5.215   6.083  15.997  1.00  0.00     0.029 C 
HETATM   16  C23 UNL     1      -4.348   6.384  13.580  1.00  0.00     0.011 C 
HETATM   17  C24 UNL     1      -3.207   7.275  14.142  1.00  0.00     0.007 C 
HETATM   18  C25 UNL     1      -1.955   7.323  13.245  1.00  0.00     0.013 C 
HETATM   19  C26 UNL     1      -1.390   5.914  12.948  1.00  0.00    -0.006 C 
HETATM   20  C27 UNL     1      -0.902   5.242  14.259  1.00  0.00     0.019 C 
ENDROOT
BRANCH   1  21
HETATM   21  C7  UNL     1       1.196   6.180  12.136  1.00  0.00     0.049 C 
HETATM   22  C8  UNL     1       1.359   6.688  13.579  1.00  0.00     0.016 C 
BRANCH  21  23
HETATM   23  C6  UNL     1       1.777   7.279  11.170  1.00  0.00     0.143 C 
HETATM   24  O3  UNL     1       2.340   6.704   9.975  1.00  0.00    -0.311 OA
HETATM   25  C5  UNL     1       3.610   6.217   9.977  1.00  0.00     0.292 C 
HETATM   26  C3  UNL     1       4.499   6.564  11.126  1.00  0.00     0.042 C 
HETATM   27  O2  UNL     1       3.985   5.479   9.070  1.00  0.00    -0.260 OA
HETATM   28  C2  UNL     1       4.118   7.540  11.983  1.00  0.00    -0.067 C 
HETATM   29  C1  UNL     1       4.909   7.995  13.176  1.00  0.00     0.044 C 
HETATM   30  C28 UNL     1       2.810   8.244  11.760  1.00  0.00     0.067 C 
BRANCH  26  31
HETATM   31  C4  UNL     1       5.783   5.774  11.112  1.00  0.00     0.209 C 
BRANCH  31  32
HETATM   32  O1  UNL     1       5.809   4.775  10.100  1.00  0.00    -0.396 OA
HETATM   33  H6  UNL     1       6.623   4.261  10.235  1.00  0.00     0.209 HD
ENDBRANCH  31  32
ENDBRANCH  26  31
ENDBRANCH  21  23
ENDBRANCH   1  21
BRANCH   1  34
HETATM   34  O4  UNL     1      -0.728   6.656  10.724  1.00  0.00    -0.386 OA
HETATM   35  H12 UNL     1      -0.331   6.326   9.898  1.00  0.00     0.210 HD
ENDBRANCH   1  34
BRANCH   2  36
HETATM   36  O5  UNL     1       0.414   3.398  11.961  1.00  0.00    -0.392 OA
HETATM   37  H14 UNL     1       0.545   2.657  11.335  1.00  0.00     0.210 HD
ENDBRANCH   2  36
BRANCH   9  38
HETATM   38  O6  UNL     1      -7.893   4.419  15.934  1.00  0.00    -0.387 OA
HETATM   39  H23 UNL     1      -7.346   3.625  15.805  1.00  0.00     0.210 HD
ENDBRANCH   9  38
TORSDOF 7
ENDMDL
MODEL 2
REMARK minimizedAffinity -10.3024302
REMARK  7 active torsions:
REMARK  status: ('A' for Active; 'I' for Inactive)
REMARK    1  A    between atoms: C3_3  and  C4_4 
REMARK    2  A    between atoms: C4_4  and  O1_5 
REMARK    3  A    between atoms: C6_9  and  C7_10 
REMARK    4  A    between atoms: C7_10  and  C9_12 
REMARK    5  A    between atoms: C9_12  and  O4_13 
REMARK    6  A    between atoms: C10_14  and  O5_15 
REMARK    7  A    between atoms: C17_22  and  O6_23 
ROOT
HETATM    1  C9  UNL     1      -0.058   5.887  11.471  1.00  0.00     0.097 C 
HETATM    2  C10 UNL     1      -0.280   4.393  10.995  1.00  0.00     0.154 C 
HETATM    3  C11 UNL     1      -1.688   3.968  11.446  1.00  0.00     0.040 C 
HETATM    4  C12 UNL     1      -2.309   5.234  12.017  1.00  0.00     0.004 C 
HETATM    5  C13 UNL     1      -3.523   5.070  12.946  1.00  0.00    -0.001 C 
HETATM    6  C14 UNL     1      -4.634   4.283  12.243  1.00  0.00     0.033 C 
HETATM    7  C15 UNL     1      -5.937   4.334  12.971  1.00  0.00    -0.019 C 
HETATM    8  C16 UNL     1      -6.242   5.224  13.936  1.00  0.00    -0.035 C 
HETATM    9  C17 UNL     1      -7.607   5.172  14.586  1.00  0.00     0.171 C 
HETATM   10  C18 UNL     1      -8.183   6.518  14.858  1.00  0.00     0.013 C 
HETATM   11  C19 UNL     1      -7.525   7.673  14.707  1.00  0.00     0.050 C 
HETATM   12  C20 UNL     1      -6.092   7.683  14.311  1.00  0.00     0.162 C 
HETATM   13  O7  UNL     1      -5.600   8.774  14.024  1.00  0.00    -0.292 OA
HETATM   14  C21 UNL     1      -5.286   6.356  14.364  1.00  0.00     0.051 C 
HETATM   15  C22 UNL     1      -4.836   6.141  15.824  1.00  0.00     0.029 C 
HETATM   16  C23 UNL     1      -4.045   6.469  13.384  1.00  0.00     0.011 C 
HETATM   17  C24 UNL     1      -2.882   7.347  13.921  1.00  0.00     0.007 C 
HETATM   18  C25 UNL     1      -1.659   7.402  12.985  1.00  0.00     0.013 C 
HETATM   19  C26 UNL     1      -1.111   5.995  12.652  1.00  0.00    -0.006 C 
HETATM   20  C27 UNL     1      -0.585   5.304  13.938  1.00  0.00     0.019 C 
ENDROOT
BRANCH   1  21
HETATM   21  C7  UNL     1       1.449   6.259  11.761  1.00  0.00     0.049 C 
HETATM   22  C8  UNL     1       1.712   7.769  11.626  1.00  0.00     0.016 C 
BRANCH  21  23
HETATM   23  C6  UNL     1       2.460   5.508  10.815  1.00  0.00     0.143 C 
HETATM   24  O3  UNL     1       3.822   5.917  11.048  1.00  0.00    -0.311 OA
HETATM   25  C5  UNL     1       4.312   7.044  10.466  1.00  0.00     0.292 C 
HETATM   26  C3  UNL     1       3.527   7.666   9.358  1.00  0.00     0.042 C 
HETATM   27  O2  UNL     1       5.353   7.545  10.880  1.00  0.00    -0.260 OA
HETATM   28  C2  UNL     1       2.510   6.971   8.799  1.00  0.00    -0.067 C 
HETATM   29  C1  UNL     1       1.640   7.468   7.679  1.00  0.00     0.044 C 
HETATM   30  C28 UNL     1       2.193   5.594   9.310  1.00  0.00     0.067 C 
BRANCH  26  31
HETATM   31  C4  UNL     1       4.064   9.021   8.971  1.00  0.00     0.209 C 
BRANCH  31  32
HETATM   32  O1  UNL     1       3.566   9.479   7.719  1.00  0.00    -0.396 OA
HETATM   33  H6  UNL     1       4.042  10.302   7.513  1.00  0.00     0.209 HD
ENDBRANCH  31  32
ENDBRANCH  26  31
ENDBRANCH  21  23
ENDBRANCH   1  21
BRANCH   1  34
HETATM   34  O4  UNL     1      -0.517   6.762  10.417  1.00  0.00    -0.386 OA
HETATM   35  H12 UNL     1      -0.148   6.440   9.575  1.00  0.00     0.210 HD
ENDBRANCH   1  34
BRANCH   2  36
HETATM   36  O5  UNL     1       0.649   3.484  11.576  1.00  0.00    -0.392 OA
HETATM   37  H14 UNL     1       0.756   2.750  10.937  1.00  0.00     0.210 HD
ENDBRANCH   2  36
BRANCH   9  38
HETATM   38  O6  UNL     1      -7.522   4.489  15.824  1.00  0.00    -0.387 OA
HETATM   39  H23 UNL     1      -6.984   3.694  15.668  1.00  0.00     0.210 HD
ENDBRANCH   9  38
TORSDOF 7
ENDMDL
MODEL 3
REMARK minimizedAffinity -10.2331133
REMARK  7 active torsions:
REMARK  status: ('A' for Active; 'I' for Inactive)
REMARK    1  A    between atoms: C3_3  and  C4_4 
REMARK    2  A    between atoms: C4_4  and  O1_5 
REMARK    3  A    between atoms: C6_9  and  C7_10 
REMARK    4  A    between atoms: C7_10  and  C9_12 
REMARK    5  A    between atoms: C9_12  and  O4_13 
REMARK    6  A    between atoms: C10_14  and  O5_15 
REMARK    7  A    between atoms: C17_22  and  O6_23 
ROOT
HETATM    1  C9  UNL     1      -2.967   8.246  14.435  1.00  0.00     0.097 C 
HETATM    2  C10 UNL     1      -2.308   8.207  15.874  1.00  0.00     0.154 C 
HETATM    3  C11 UNL     1      -0.789   8.056  15.682  1.00  0.00     0.040 C 
HETATM    4  C12 UNL     1      -0.576   8.171  14.180  1.00  0.00     0.004 C 
HETATM    5  C13 UNL     1       0.746   7.630  13.609  1.00  0.00    -0.001 C 
HETATM    6  C14 UNL     1       1.941   8.295  14.301  1.00  0.00     0.033 C 
HETATM    7  C15 UNL     1       3.237   8.035  13.607  1.00  0.00    -0.019 C 
HETATM    8  C16 UNL     1       3.352   7.577  12.345  1.00  0.00    -0.035 C 
HETATM    9  C17 UNL     1       4.730   7.367  11.756  1.00  0.00     0.171 C 
HETATM   10  C18 UNL     1       4.827   7.765  10.324  1.00  0.00     0.013 C 
HETATM   11  C19 UNL     1       3.788   8.119   9.560  1.00  0.00     0.050 C 
HETATM   12  C20 UNL     1       2.402   8.068  10.094  1.00  0.00     0.162 C 
HETATM   13  O7  UNL     1       1.518   8.569   9.400  1.00  0.00    -0.292 OA
HETATM   14  C21 UNL     1       2.136   7.323  11.431  1.00  0.00     0.051 C 
HETATM   15  C22 UNL     1       2.023   5.817  11.112  1.00  0.00     0.029 C 
HETATM   16  C23 UNL     1       0.800   7.882  12.075  1.00  0.00     0.011 C 
HETATM   17  C24 UNL     1      -0.501   7.383  11.388  1.00  0.00     0.007 C 
HETATM   18  C25 UNL     1      -1.793   7.888  12.059  1.00  0.00     0.013 C 
HETATM   19  C26 UNL     1      -1.852   7.532  13.563  1.00  0.00    -0.006 C 
HETATM   20  C27 UNL     1      -1.894   5.992  13.750  1.00  0.00     0.019 C 
ENDROOT
BRANCH   1  21
HETATM   21  C7  UNL     1      -4.445   7.690  14.381  1.00  0.00     0.049 C 
HETATM   22  C8  UNL     1      -5.454   8.657  15.024  1.00  0.00     0.016 C 
BRANCH  21  23
HETATM   23  C6  UNL     1      -4.600   6.292  15.090  1.00  0.00     0.143 C 
HETATM   24  O3  UNL     1      -4.533   5.201  14.150  1.00  0.00    -0.311 OA
HETATM   25  C5  UNL     1      -5.636   4.826  13.450  1.00  0.00     0.292 C 
HETATM   26  C3  UNL     1      -6.965   5.348  13.892  1.00  0.00     0.042 C 
HETATM   27  O2  UNL     1      -5.521   4.109  12.460  1.00  0.00    -0.260 OA
HETATM   28  C2  UNL     1      -7.068   5.953  15.097  1.00  0.00    -0.067 C 
HETATM   29  C1  UNL     1      -8.335   6.521  15.670  1.00  0.00     0.044 C 
HETATM   30  C28 UNL     1      -5.844   6.089  15.958  1.00  0.00     0.067 C 
BRANCH  26  31
HETATM   31  C4  UNL     1      -8.056   5.042  12.897  1.00  0.00     0.209 C 
BRANCH  31  32
HETATM   32  O1  UNL     1      -8.655   3.769  13.103  1.00  0.00    -0.396 OA
HETATM   33  H6  UNL     1      -9.268   3.624  12.361  1.00  0.00     0.209 HD
ENDBRANCH  31  32
ENDBRANCH  26  31
ENDBRANCH  21  23
ENDBRANCH   1  21
BRANCH   1  34
HETATM   34  O4  UNL     1      -3.017   9.625  14.006  1.00  0.00    -0.386 OA
HETATM   35  H12 UNL     1      -3.374  10.157  14.740  1.00  0.00     0.210 HD
ENDBRANCH   1  34
BRANCH   2  36
HETATM   36  O5  UNL     1      -2.753   7.103  16.656  1.00  0.00    -0.392 OA
HETATM   37  H14 UNL     1      -2.691   7.384  17.592  1.00  0.00     0.210 HD
ENDBRANCH   2  36
BRANCH   9  38
HETATM   38  O6  UNL     1       5.085   5.999  11.843  1.00  0.00    -0.387 OA
HETATM   39  H23 UNL     1       4.846   5.704  12.738  1.00  0.00     0.210 HD
ENDBRANCH   9  38
TORSDOF 7
ENDMDL
MODEL 4
REMARK minimizedAffinity -10.0868301
REMARK  7 active torsions:
REMARK  status: ('A' for Active; 'I' for Inactive)
REMARK    1  A    between atoms: C3_3  and  C4_4 
REMARK    2  A    between atoms: C4_4  and  O1_5 
REMARK    3  A    between atoms: C6_9  and  C7_10 
REMARK    4  A    between atoms: C7_10  and  C9_12 
REMARK    5  A    between atoms: C9_12  and  O4_13 
REMARK    6  A    between atoms: C10_14  and  O5_15 
REMARK    7  A    between atoms: C17_22  and  O6_23 
ROOT
HETATM    1  C9  UNL     1       1.121   6.824  13.349  1.00  0.00     0.097 C 
HETATM    2  C10 UNL     1       0.226   8.003  13.912  1.00  0.00     0.154 C 
HETATM    3  C11 UNL     1      -1.246   7.586  13.745  1.00  0.00     0.040 C 
HETATM    4  C12 UNL     1      -1.187   6.147  13.255  1.00  0.00     0.004 C 
HETATM    5  C13 UNL     1      -2.442   5.579  12.573  1.00  0.00    -0.001 C 
HETATM    6  C14 UNL     1      -3.658   5.706  13.498  1.00  0.00     0.033 C 
HETATM    7  C15 UNL     1      -4.838   4.924  13.023  1.00  0.00    -0.019 C 
HETATM    8  C16 UNL     1      -4.786   3.943  12.101  1.00  0.00    -0.035 C 
HETATM    9  C17 UNL     1      -6.059   3.219  11.717  1.00  0.00     0.171 C 
HETATM   10  C18 UNL     1      -5.867   1.757  11.510  1.00  0.00     0.013 C 
HETATM   11  C19 UNL     1      -4.681   1.139  11.494  1.00  0.00     0.050 C 
HETATM   12  C20 UNL     1      -3.419   1.916  11.617  1.00  0.00     0.162 C 
HETATM   13  O7  UNL     1      -2.381   1.273  11.769  1.00  0.00    -0.292 OA
HETATM   14  C21 UNL     1      -3.467   3.461  11.463  1.00  0.00     0.051 C 
HETATM   15  C22 UNL     1      -3.466   3.780   9.953  1.00  0.00     0.029 C 
HETATM   16  C23 UNL     1      -2.207   4.090  12.190  1.00  0.00     0.011 C 
HETATM   17  C24 UNL     1      -0.871   3.925  11.416  1.00  0.00     0.007 C 
HETATM   18  C25 UNL     1       0.335   4.590  12.106  1.00  0.00     0.013 C 
HETATM   19  C26 UNL     1       0.099   6.094  12.382  1.00  0.00    -0.006 C 
HETATM   20  C27 UNL     1      -0.060   6.867  11.046  1.00  0.00     0.019 C 
ENDROOT
BRANCH   1  21
HETATM   21  C7  UNL     1       2.516   7.286  12.771  1.00  0.00     0.049 C 
HETATM   22  C8  UNL     1       3.013   8.589  13.422  1.00  0.00     0.016 C 
BRANCH  21  23
HETATM   23  C6  UNL     1       2.492   7.505  11.212  1.00  0.00     0.143 C 
HETATM   24  O3  UNL     1       2.967   6.347  10.497  1.00  0.00    -0.311 OA
HETATM   25  C5  UNL     1       4.300   6.146  10.321  1.00  0.00     0.292 C 
HETATM   26  C3  UNL     1       5.230   7.280  10.601  1.00  0.00     0.042 C 
HETATM   27  O2  UNL     1       4.713   5.042   9.977  1.00  0.00    -0.260 OA
HETATM   28  C2  UNL     1       4.722   8.523  10.768  1.00  0.00    -0.067 C 
HETATM   29  C1  UNL     1       5.535   9.754  11.052  1.00  0.00     0.044 C 
HETATM   30  C28 UNL     1       3.237   8.729  10.673  1.00  0.00     0.067 C 
BRANCH  26  31
HETATM   31  C4  UNL     1       6.675   6.849  10.588  1.00  0.00     0.209 C 
BRANCH  31  32
HETATM   32  O1  UNL     1       6.840   5.455  10.819  1.00  0.00    -0.396 OA
HETATM   33  H6  UNL     1       7.797   5.295  10.891  1.00  0.00     0.209 HD
ENDBRANCH  31  32
ENDBRANCH  26  31
ENDBRANCH  21  23
ENDBRANCH   1  21
BRANCH   1  34
HETATM   34  O4  UNL     1       1.392   5.914  14.438  1.00  0.00    -0.386 OA
HETATM   35  H12 UNL     1       1.675   6.439  15.208  1.00  0.00     0.210 HD
ENDBRANCH   1  34
BRANCH   2  36
HETATM   36  O5  UNL     1       0.409   9.223  13.201  1.00  0.00    -0.392 OA
HETATM   37  H14 UNL     1       0.220   9.944  13.835  1.00  0.00     0.210 HD
ENDBRANCH   2  36
BRANCH   9  38
HETATM   38  O6  UNL     1      -6.570   3.756  10.510  1.00  0.00    -0.387 OA
HETATM   39  H23 UNL     1      -6.519   4.724  10.592  1.00  0.00     0.210 HD
ENDBRANCH   9  38
TORSDOF 7
ENDMDL
MODEL 5
REMARK minimizedAffinity -9.95315456
REMARK  7 active torsions:
REMARK  status: ('A' for Active; 'I' for Inactive)
REMARK    1  A    between atoms: C3_3  and  C4_4 
REMARK    2  A    between atoms: C4_4  and  O1_5 
REMARK    3  A    between atoms: C6_9  and  C7_10 
REMARK    4  A    between atoms: C7_10  and  C9_12 
REMARK    5  A    between atoms: C9_12  and  O4_13 
REMARK    6  A    between atoms: C10_14  and  O5_15 
REMARK    7  A    between atoms: C17_22  and  O6_23 
ROOT
HETATM    1  C9  UNL     1      -2.811   8.502  15.057  1.00  0.00     0.097 C 
HETATM    2  C10 UNL     1      -1.990   8.706  16.395  1.00  0.00     0.154 C 
HETATM    3  C11 UNL     1      -0.496   8.598  16.042  1.00  0.00     0.040 C 
HETATM    4  C12 UNL     1      -0.464   8.500  14.524  1.00  0.00     0.004 C 
HETATM    5  C13 UNL     1       0.814   7.942  13.878  1.00  0.00    -0.001 C 
HETATM    6  C14 UNL     1       2.036   8.757  14.317  1.00  0.00     0.033 C 
HETATM    7  C15 UNL     1       3.258   8.456  13.513  1.00  0.00    -0.019 C 
HETATM    8  C16 UNL     1       3.257   7.823  12.324  1.00  0.00    -0.035 C 
HETATM    9  C17 UNL     1       4.569   7.592  11.606  1.00  0.00     0.171 C 
HETATM   10  C18 UNL     1       4.476   7.779  10.131  1.00  0.00     0.013 C 
HETATM   11  C19 UNL     1       3.336   7.968   9.458  1.00  0.00     0.050 C 
HETATM   12  C20 UNL     1       2.026   7.932  10.160  1.00  0.00     0.162 C 
HETATM   13  O7  UNL     1       1.038   8.285   9.516  1.00  0.00    -0.292 OA
HETATM   14  C21 UNL     1       1.963   7.381  11.611  1.00  0.00     0.051 C 
HETATM   15  C22 UNL     1       1.908   5.842  11.523  1.00  0.00     0.029 C 
HETATM   16  C23 UNL     1       0.676   7.968  12.328  1.00  0.00     0.011 C 
HETATM   17  C24 UNL     1      -0.660   7.313  11.883  1.00  0.00     0.007 C 
HETATM   18  C25 UNL     1      -1.896   7.852  12.630  1.00  0.00     0.013 C 
HETATM   19  C26 UNL     1      -1.760   7.720  14.165  1.00  0.00    -0.006 C 
HETATM   20  C27 UNL     1      -1.683   6.224  14.570  1.00  0.00     0.019 C 
ENDROOT
BRANCH   1  21
HETATM   21  C7  UNL     1      -4.247   7.877  15.264  1.00  0.00     0.049 C 
HETATM   22  C8  UNL     1      -4.208   6.340  15.327  1.00  0.00     0.016 C 
BRANCH  21  23
HETATM   23  C6  UNL     1      -5.263   8.287  14.133  1.00  0.00     0.143 C 
HETATM   24  O3  UNL     1      -6.454   8.892  14.672  1.00  0.00    -0.311 OA
HETATM   25  C5  UNL     1      -7.473   8.118  15.131  1.00  0.00     0.292 C 
HETATM   26  C3  UNL     1      -7.468   6.665  14.787  1.00  0.00     0.042 C 
HETATM   27  O2  UNL     1      -8.345   8.610  15.842  1.00  0.00    -0.260 OA
HETATM   28  C2  UNL     1      -6.616   6.216  13.837  1.00  0.00    -0.067 C 
HETATM   29  C1  UNL     1      -6.503   4.787  13.388  1.00  0.00     0.044 C 
HETATM   30  C28 UNL     1      -5.694   7.189  13.157  1.00  0.00     0.067 C 
BRANCH  26  31
HETATM   31  C4  UNL     1      -8.518   5.895  15.548  1.00  0.00     0.209 C 
BRANCH  31  32
HETATM   32  O1  UNL     1      -8.023   4.683  16.104  1.00  0.00    -0.396 OA
HETATM   33  H6  UNL     1      -8.789   4.217  16.483  1.00  0.00     0.209 HD
ENDBRANCH  31  32
ENDBRANCH  26  31
ENDBRANCH  21  23
ENDBRANCH   1  21
BRANCH   1  34
HETATM   34  O4  UNL     1      -2.996   9.800  14.448  1.00  0.00    -0.386 OA
HETATM   35  H12 UNL     1      -3.299  10.417  15.138  1.00  0.00     0.210 HD
ENDBRANCH   1  34
BRANCH   2  36
HETATM   36  O5  UNL     1      -2.272   7.710  17.374  1.00  0.00    -0.392 OA
HETATM   37  H14 UNL     1      -2.121   8.128  18.246  1.00  0.00     0.210 HD
ENDBRANCH   2  36
BRANCH   9  38
HETATM   38  O6  UNL     1       5.017   6.269  11.840  1.00  0.00    -0.387 OA
HETATM   39  H23 UNL     1       4.901   6.099  12.790  1.00  0.00     0.210 HD
ENDBRANCH   9  38
TORSDOF 7
ENDMDL
MODEL 6
REMARK minimizedAffinity -9.77336597
REMARK  7 active torsions:
REMARK  status: ('A' for Active; 'I' for Inactive)
REMARK    1  A    between atoms: C3_3  and  C4_4 
REMARK    2  A    between atoms: C4_4  and  O1_5 
REMARK    3  A    between atoms: C6_9  and  C7_10 
REMARK    4  A    between atoms: C7_10  and  C9_12 
REMARK    5  A    between atoms: C9_12  and  O4_13 
REMARK    6  A    between atoms: C10_14  and  O5_15 
REMARK    7  A    between atoms: C17_22  and  O6_23 
ROOT
HETATM    1  C9  UNL     1       1.499   7.108  12.924  1.00  0.00     0.097 C 
HETATM    2  C10 UNL     1       0.618   8.246  13.585  1.00  0.00     0.154 C 
HETATM    3  C11 UNL     1      -0.846   7.771  13.558  1.00  0.00     0.040 C 
HETATM    4  C12 UNL     1      -0.778   6.339  13.048  1.00  0.00     0.004 C 
HETATM    5  C13 UNL     1      -2.071   5.726  12.486  1.00  0.00    -0.001 C 
HETATM    6  C14 UNL     1      -3.194   5.796  13.527  1.00  0.00     0.033 C 
HETATM    7  C15 UNL     1      -4.382   4.970  13.160  1.00  0.00    -0.019 C 
HETATM    8  C16 UNL     1      -4.383   3.999  12.226  1.00  0.00    -0.035 C 
HETATM    9  C17 UNL     1      -5.657   3.227  11.960  1.00  0.00     0.171 C 
HETATM   10  C18 UNL     1      -5.428   1.775  11.719  1.00  0.00     0.013 C 
HETATM   11  C19 UNL     1      -4.226   1.206  11.580  1.00  0.00     0.050 C 
HETATM   12  C20 UNL     1      -2.990   2.033  11.588  1.00  0.00     0.162 C 
HETATM   13  O7  UNL     1      -1.917   1.432  11.630  1.00  0.00    -0.292 OA
HETATM   14  C21 UNL     1      -3.115   3.576  11.457  1.00  0.00     0.051 C 
HETATM   15  C22 UNL     1      -3.274   3.906   9.958  1.00  0.00     0.029 C 
HETATM   16  C23 UNL     1      -1.815   4.250  12.065  1.00  0.00     0.011 C 
HETATM   17  C24 UNL     1      -0.556   4.145  11.162  1.00  0.00     0.007 C 
HETATM   18  C25 UNL     1       0.685   4.854  11.738  1.00  0.00     0.013 C 
HETATM   19  C26 UNL     1       0.417   6.345  12.053  1.00  0.00    -0.006 C 
HETATM   20  C27 UNL     1       0.098   7.121  10.748  1.00  0.00     0.019 C 
ENDROOT
BRANCH   1  21
HETATM   21  C7  UNL     1       2.812   7.631  12.218  1.00  0.00     0.049 C 
HETATM   22  C8  UNL     1       3.463   6.556  11.332  1.00  0.00     0.016 C 
BRANCH  21  23
HETATM   23  C6  UNL     1       3.898   8.136  13.240  1.00  0.00     0.143 C 
HETATM   24  O3  UNL     1       4.112   9.557  13.142  1.00  0.00    -0.311 OA
HETATM   25  C5  UNL     1       4.948  10.064  12.197  1.00  0.00     0.292 C 
HETATM   26  C3  UNL     1       5.862   9.124  11.483  1.00  0.00     0.042 C 
HETATM   27  O2  UNL     1       4.911  11.261  11.924  1.00  0.00    -0.260 OA
HETATM   28  C2  UNL     1       6.019   7.867  11.960  1.00  0.00    -0.067 C 
HETATM   29  C1  UNL     1       6.904   6.818  11.349  1.00  0.00     0.044 C 
HETATM   30  C28 UNL     1       5.266   7.450  13.192  1.00  0.00     0.067 C 
BRANCH  26  31
HETATM   31  C4  UNL     1       6.556   9.779  10.316  1.00  0.00     0.209 C 
BRANCH  31  32
HETATM   32  O1  UNL     1       7.732  10.484  10.693  1.00  0.00    -0.396 OA
HETATM   33  H6  UNL     1       8.047  10.949   9.898  1.00  0.00     0.209 HD
ENDBRANCH  31  32
ENDBRANCH  26  31
ENDBRANCH  21  23
ENDBRANCH   1  21
BRANCH   1  34
HETATM   34  O4  UNL     1       1.912   6.202  13.971  1.00  0.00    -0.386 OA
HETATM   35  H12 UNL     1       2.247   6.733  14.716  1.00  0.00     0.210 HD
ENDBRANCH   1  34
BRANCH   2  36
HETATM   36  O5  UNL     1       0.681   9.478  12.874  1.00  0.00    -0.392 OA
HETATM   37  H14 UNL     1       0.527  10.186  13.531  1.00  0.00     0.210 HD
ENDBRANCH   2  36
BRANCH   9  38
HETATM   38  O6  UNL     1      -6.305   3.752  10.815  1.00  0.00    -0.387 OA
HETATM   39  H23 UNL     1      -6.285   4.720  10.903  1.00  0.00     0.210 HD
ENDBRANCH   9  38
TORSDOF 7
ENDMDL
MODEL 7
REMARK minimizedAffinity -9.64332676
REMARK  7 active torsions:
REMARK  status: ('A' for Active; 'I' for Inactive)
REMARK    1  A    between atoms: C3_3  and  C4_4 
REMARK    2  A    between atoms: C4_4  and  O1_5 
REMARK    3  A    between atoms: C6_9  and  C7_10 
REMARK    4  A    between atoms: C7_10  and  C9_12 
REMARK    5  A    between atoms: C9_12  and  O4_13 
REMARK    6  A    between atoms: C10_14  and  O5_15 
REMARK    7  A    between atoms: C17_22  and  O6_23 
ROOT
HETATM    1  C9  UNL     1      -3.874   6.335  14.531  1.00  0.00     0.097 C 
HETATM    2  C10 UNL     1      -4.198   5.091  13.605  1.00  0.00     0.154 C 
HETATM    3  C11 UNL     1      -2.947   4.808  12.756  1.00  0.00     0.040 C 
HETATM    4  C12 UNL     1      -1.889   5.758  13.299  1.00  0.00     0.004 C 
HETATM    5  C13 UNL     1      -0.674   6.050  12.403  1.00  0.00    -0.001 C 
HETATM    6  C14 UNL     1       0.029   4.746  12.010  1.00  0.00     0.033 C 
HETATM    7  C15 UNL     1       1.367   4.969  11.388  1.00  0.00    -0.019 C 
HETATM    8  C16 UNL     1       2.063   6.120  11.457  1.00  0.00    -0.035 C 
HETATM    9  C17 UNL     1       3.419   6.208  10.789  1.00  0.00     0.171 C 
HETATM   10  C18 UNL     1       4.419   6.976  11.582  1.00  0.00     0.013 C 
HETATM   11  C19 UNL     1       4.141   7.669  12.692  1.00  0.00     0.050 C 
HETATM   12  C20 UNL     1       2.744   7.780  13.187  1.00  0.00     0.162 C 
HETATM   13  O7  UNL     1       2.585   8.282  14.299  1.00  0.00    -0.292 OA
HETATM   14  C21 UNL     1       1.578   7.346  12.257  1.00  0.00     0.051 C 
HETATM   15  C22 UNL     1       1.285   8.518  11.298  1.00  0.00     0.029 C 
HETATM   16  C23 UNL     1       0.314   6.994  13.147  1.00  0.00     0.011 C 
HETATM   17  C24 UNL     1      -0.431   8.231  13.720  1.00  0.00     0.007 C 
HETATM   18  C25 UNL     1      -1.690   7.877  14.535  1.00  0.00     0.013 C 
HETATM   19  C26 UNL     1      -2.692   7.019  13.727  1.00  0.00    -0.006 C 
HETATM   20  C27 UNL     1      -3.228   7.820  12.511  1.00  0.00     0.019 C 
ENDROOT
BRANCH   1  21
HETATM   21  C7  UNL     1      -5.135   7.205  14.914  1.00  0.00     0.049 C 
HETATM   22  C8  UNL     1      -4.742   8.557  15.534  1.00  0.00     0.016 C 
BRANCH  21  23
HETATM   23  C6  UNL     1      -6.100   6.476  15.923  1.00  0.00     0.143 C 
HETATM   24  O3  UNL     1      -6.552   5.206  15.414  1.00  0.00    -0.311 OA
HETATM   25  C5  UNL     1      -7.606   5.143  14.558  1.00  0.00     0.292 C 
HETATM   26  C3  UNL     1      -8.465   6.354  14.403  1.00  0.00     0.042 C 
HETATM   27  O2  UNL     1      -7.808   4.121  13.907  1.00  0.00    -0.260 OA
HETATM   28  C2  UNL     1      -8.336   7.372  15.285  1.00  0.00    -0.067 C 
HETATM   29  C1  UNL     1      -9.132   8.645  15.254  1.00  0.00     0.044 C 
HETATM   30  C28 UNL     1      -7.329   7.258  16.395  1.00  0.00     0.067 C 
BRANCH  26  31
HETATM   31  C4  UNL     1      -9.442   6.218  13.262  1.00  0.00     0.209 C 
BRANCH  31  32
HETATM   32  O1  UNL     1      -8.820   5.839  12.041  1.00  0.00    -0.396 OA
HETATM   33  H6  UNL     1      -9.507   5.876  11.353  1.00  0.00     0.209 HD
ENDBRANCH  31  32
ENDBRANCH  26  31
ENDBRANCH  21  23
ENDBRANCH   1  21
BRANCH   1  34
HETATM   34  O4  UNL     1      -3.311   5.835  15.764  1.00  0.00    -0.386 OA
HETATM   35  H12 UNL     1      -3.873   5.104  16.079  1.00  0.00     0.210 HD
ENDBRANCH   1  34
BRANCH   2  36
HETATM   36  O5  UNL     1      -5.278   5.335  12.709  1.00  0.00    -0.392 OA
HETATM   37  H14 UNL     1      -5.695   4.467  12.534  1.00  0.00     0.210 HD
ENDBRANCH   2  36
BRANCH   9  38
HETATM   38  O6  UNL     1       3.292   6.846   9.531  1.00  0.00    -0.387 OA
HETATM   39  H23 UNL     1       2.516   6.454   9.096  1.00  0.00     0.210 HD
ENDBRANCH   9  38
TORSDOF 7
ENDMDL
MODEL 8
REMARK minimizedAffinity -9.3590107
REMARK  7 active torsions:
REMARK  status: ('A' for Active; 'I' for Inactive)
REMARK    1  A    between atoms: C3_3  and  C4_4 
REMARK    2  A    between atoms: C4_4  and  O1_5 
REMARK    3  A    between atoms: C6_9  and  C7_10 
REMARK    4  A    between atoms: C7_10  and  C9_12 
REMARK    5  A    between atoms: C9_12  and  O4_13 
REMARK    6  A    between atoms: C10_14  and  O5_15 
REMARK    7  A    between atoms: C17_22  and  O6_23 
ROOT
HETATM    1  C9  UNL     1       1.272   7.211  11.298  1.00  0.00     0.097 C 
HETATM    2  C10 UNL     1       1.003   5.731  10.803  1.00  0.00     0.154 C 
HETATM    3  C11 UNL     1      -0.359   5.294  11.370  1.00  0.00     0.040 C 
HETATM    4  C12 UNL     1      -0.922   6.545  12.030  1.00  0.00     0.004 C 
HETATM    5  C13 UNL     1      -2.045   6.356  13.062  1.00  0.00    -0.001 C 
HETATM    6  C14 UNL     1      -3.219   5.588  12.443  1.00  0.00     0.033 C 
HETATM    7  C15 UNL     1      -4.448   5.620  13.289  1.00  0.00    -0.019 C 
HETATM    8  C16 UNL     1      -4.661   6.483  14.301  1.00  0.00    -0.035 C 
HETATM    9  C17 UNL     1      -5.961   6.414  15.073  1.00  0.00     0.171 C 
HETATM   10  C18 UNL     1      -6.506   7.753  15.432  1.00  0.00     0.013 C 
HETATM   11  C19 UNL     1      -5.861   8.911  15.254  1.00  0.00     0.050 C 
HETATM   12  C20 UNL     1      -4.471   8.931  14.728  1.00  0.00     0.162 C 
HETATM   13  O7  UNL     1      -4.004  10.029  14.427  1.00  0.00    -0.292 OA
HETATM   14  C21 UNL     1      -3.667   7.603  14.670  1.00  0.00     0.051 C 
HETATM   15  C22 UNL     1      -3.085   7.348  16.076  1.00  0.00     0.029 C 
HETATM   16  C23 UNL     1      -2.521   7.742  13.584  1.00  0.00     0.011 C 
HETATM   17  C24 UNL     1      -1.311   8.605  14.035  1.00  0.00     0.007 C 
HETATM   18  C25 UNL     1      -0.179   8.685  12.993  1.00  0.00     0.013 C 
HETATM   19  C26 UNL     1       0.333   7.287  12.572  1.00  0.00    -0.006 C 
HETATM   20  C27 UNL     1       0.972   6.561  13.785  1.00  0.00     0.019 C 
ENDROOT
BRANCH   1  21
HETATM   21  C7  UNL     1       2.801   7.575  11.458  1.00  0.00     0.049 C 
HETATM   22  C8  UNL     1       3.005   8.971  12.073  1.00  0.00     0.016 C 
BRANCH  21  23
HETATM   23  C6  UNL     1       3.588   7.530  10.095  1.00  0.00     0.143 C 
HETATM   24  O3  UNL     1       4.336   6.307   9.945  1.00  0.00    -0.311 OA
HETATM   25  C5  UNL     1       5.565   6.178  10.513  1.00  0.00     0.292 C 
HETATM   26  C3  UNL     1       6.244   7.408  11.019  1.00  0.00     0.042 C 
HETATM   27  O2  UNL     1       6.070   5.065  10.634  1.00  0.00    -0.260 OA
HETATM   28  C2  UNL     1       5.751   8.621  10.677  1.00  0.00    -0.067 C 
HETATM   29  C1  UNL     1       6.330   9.938  11.108  1.00  0.00     0.044 C 
HETATM   30  C28 UNL     1       4.533   8.698   9.801  1.00  0.00     0.067 C 
BRANCH  26  31
HETATM   31  C4  UNL     1       7.478   7.088  11.823  1.00  0.00     0.209 C 
BRANCH  31  32
HETATM   32  O1  UNL     1       7.311   7.324  13.215  1.00  0.00    -0.396 OA
HETATM   33  H6  UNL     1       8.181   7.186  13.629  1.00  0.00     0.209 HD
ENDBRANCH  31  32
ENDBRANCH  26  31
ENDBRANCH  21  23
ENDBRANCH   1  21
BRANCH   1  34
HETATM   34  O4  UNL     1       0.721   8.115  10.314  1.00  0.00    -0.386 OA
HETATM   35  H12 UNL     1       1.010   7.817   9.433  1.00  0.00     0.210 HD
ENDBRANCH   1  34
BRANCH   2  36
HETATM   36  O5  UNL     1       1.979   4.806  11.271  1.00  0.00    -0.392 OA
HETATM   37  H14 UNL     1       2.025   4.090  10.605  1.00  0.00     0.210 HD
ENDBRANCH   2  36
BRANCH   9  38
HETATM   38  O6  UNL     1      -5.765   5.697  16.279  1.00  0.00    -0.387 OA
HETATM   39  H23 UNL     1      -5.245   4.907  16.052  1.00  0.00     0.210 HD
ENDBRANCH   9  38
TORSDOF 7
ENDMDL
MODEL 9
REMARK minimizedAffinity -9.23345089
REMARK  7 active torsions:
REMARK  status: ('A' for Active; 'I' for Inactive)
REMARK    1  A    between atoms: C3_3  and  C4_4 
REMARK    2  A    between atoms: C4_4  and  O1_5 
REMARK    3  A    between atoms: C6_9  and  C7_10 
REMARK    4  A    between atoms: C7_10  and  C9_12 
REMARK    5  A    between atoms: C9_12  and  O4_13 
REMARK    6  A    between atoms: C10_14  and  O5_15 
REMARK    7  A    between atoms: C17_22  and  O6_23 
ROOT
HETATM    1  C9  UNL     1      -0.004   7.791  12.926  1.00  0.00     0.097 C 
HETATM    2  C10 UNL     1       0.352   6.416  12.226  1.00  0.00     0.154 C 
HETATM    3  C11 UNL     1      -0.919   5.550  12.236  1.00  0.00     0.040 C 
HETATM    4  C12 UNL     1      -2.007   6.466  12.776  1.00  0.00     0.004 C 
HETATM    5  C13 UNL     1      -3.281   5.805  13.326  1.00  0.00    -0.001 C 
HETATM    6  C14 UNL     1      -3.918   4.902  12.264  1.00  0.00     0.033 C 
HETATM    7  C15 UNL     1      -5.298   4.459  12.625  1.00  0.00    -0.019 C 
HETATM    8  C16 UNL     1      -6.061   5.029  13.578  1.00  0.00    -0.035 C 
HETATM    9  C17 UNL     1      -7.451   4.487  13.836  1.00  0.00     0.171 C 
HETATM   10  C18 UNL     1      -8.457   5.550  14.111  1.00  0.00     0.013 C 
HETATM   11  C19 UNL     1      -8.170   6.845  14.283  1.00  0.00     0.050 C 
HETATM   12  C20 UNL     1      -6.759   7.315  14.282  1.00  0.00     0.162 C 
HETATM   13  O7  UNL     1      -6.577   8.532  14.271  1.00  0.00    -0.292 OA
HETATM   14  C21 UNL     1      -5.615   6.269  14.379  1.00  0.00     0.051 C 
HETATM   15  C22 UNL     1      -5.445   5.901  15.868  1.00  0.00     0.029 C 
HETATM   16  C23 UNL     1      -4.289   6.899  13.782  1.00  0.00     0.011 C 
HETATM   17  C24 UNL     1      -3.596   7.934  14.710  1.00  0.00     0.007 C 
HETATM   18  C25 UNL     1      -2.279   8.496  14.142  1.00  0.00     0.013 C 
HETATM   19  C26 UNL     1      -1.266   7.381  13.792  1.00  0.00    -0.006 C 
HETATM   20  C27 UNL     1      -0.842   6.618  15.076  1.00  0.00     0.019 C 
ENDROOT
BRANCH   1  21
HETATM   21  C7  UNL     1       1.217   8.490  13.646  1.00  0.00     0.049 C 
HETATM   22  C8  UNL     1       0.763   9.537  14.678  1.00  0.00     0.016 C 
BRANCH  21  23
HETATM   23  C6  UNL     1       2.197   9.200  12.639  1.00  0.00     0.143 C 
HETATM   24  O3  UNL     1       3.026   8.254  11.935  1.00  0.00    -0.311 OA
HETATM   25  C5  UNL     1       4.162   7.775  12.506  1.00  0.00     0.292 C 
HETATM   26  C3  UNL     1       4.691   8.467  13.719  1.00  0.00     0.042 C 
HETATM   27  O2  UNL     1       4.705   6.774  12.046  1.00  0.00    -0.260 OA
HETATM   28  C2  UNL     1       4.188   9.676  14.059  1.00  0.00    -0.067 C 
HETATM   29  C1  UNL     1       4.624  10.487  15.247  1.00  0.00     0.044 C 
HETATM   30  C28 UNL     1       3.109  10.289  13.212  1.00  0.00     0.067 C 
BRANCH  26  31
HETATM   31  C4  UNL     1       5.810   7.696  14.373  1.00  0.00     0.209 C 
BRANCH  31  32
HETATM   32  O1  UNL     1       5.391   6.989  15.534  1.00  0.00    -0.396 OA
HETATM   33  H6  UNL     1       6.193   6.611  15.935  1.00  0.00     0.209 HD
ENDBRANCH  31  32
ENDBRANCH  26  31
ENDBRANCH  21  23
ENDBRANCH   1  21
BRANCH   1  34
HETATM   34  O4  UNL     1      -0.472   8.701  11.905  1.00  0.00    -0.386 OA
HETATM   35  H12 UNL     1       0.150   8.661  11.156  1.00  0.00     0.210 HD
ENDBRANCH   1  34
BRANCH   2  36
HETATM   36  O5  UNL     1       1.368   5.693  12.914  1.00  0.00    -0.392 OA
HETATM   37  H14 UNL     1       1.830   5.155  12.239  1.00  0.00     0.210 HD
ENDBRANCH   2  36
BRANCH   9  38
HETATM   38  O6  UNL     1      -7.427   3.623  14.958  1.00  0.00    -0.387 OA
HETATM   39  H23 UNL     1      -6.650   3.048  14.851  1.00  0.00     0.210 HD
ENDBRANCH   9  38
TORSDOF 7
ENDMDL
