MODEL 1
REMARK minimizedAffinity -6.41327333
REMARK CNNscore 0.679447591
REMARK CNNaffinity 6.95410299
REMARK  6 active torsions:
REMARK  status: ('A' for Active; 'I' for Inactive)
REMARK    1  A    between atoms: C2_2  and  O2_4 
REMARK    2  A    between atoms: O2_4  and  C3_5 
REMARK    3  A    between atoms: C13_15  and  C14_16 
REMARK    4  A    between atoms: C14_16  and  C16_18 
REMARK    5  A    between atoms: C16_18  and  C17_19 
REMARK    6  A    between atoms: C17_19  and  C18_20 
ROOT
HETATM    1  C3  UNL     1       4.043  56.400  -7.890  1.00  0.00     0.136 C 
HETATM    2  C4  UNL     1       3.582  56.685  -9.326  1.00  0.00     0.034 C 
HETATM    3  C5  UNL     1       3.056  55.451 -10.057  1.00  0.00     0.013 C 
HETATM    4  C6  UNL     1       2.051  54.638  -9.233  1.00  0.00    -0.027 A 
HETATM    5  C7  UNL     1       2.213  53.143  -9.400  1.00  0.00     0.021 A 
HETATM    6  C8  UNL     1       0.932  53.783  -9.892  1.00  0.00    -0.027 A 
HETATM    7  C9  UNL     1       0.752  53.920 -11.405  1.00  0.00     0.011 C 
HETATM    8  C10 UNL     1      -0.277  53.002 -12.094  1.00  0.00     0.011 C 
HETATM    9  C11 UNL     1      -1.203  52.234 -11.142  1.00  0.00    -0.032 C 
HETATM   10  C12 UNL     1      -0.462  50.928 -10.711  1.00  0.00     0.016 C 
HETATM   11  C13 UNL     1      -2.619  51.856 -11.700  1.00  0.00    -0.002 C 
HETATM   12  C22 UNL     1      -3.459  51.692 -10.397  1.00  0.00     0.006 C 
HETATM   13  C23 UNL     1      -2.695  52.378  -9.256  1.00  0.00     0.011 C 
HETATM   14  C24 UNL     1      -1.575  53.181  -9.943  1.00  0.00    -0.032 C 
HETATM   15  C25 UNL     1      -2.200  54.547 -10.364  1.00  0.00     0.016 C 
HETATM   16  C26 UNL     1      -0.319  53.403  -9.057  1.00  0.00     0.004 C 
HETATM   17  C27 UNL     1      -0.541  54.355  -7.875  1.00  0.00     0.006 C 
HETATM   18  C28 UNL     1       0.732  54.481  -7.040  1.00  0.00     0.006 C 
HETATM   19  C29 UNL     1       1.801  55.232  -7.840  1.00  0.00     0.001 C 
HETATM   20  C30 UNL     1       3.173  55.356  -7.143  1.00  0.00     0.016 C 
HETATM   21  C31 UNL     1       3.091  55.717  -5.659  1.00  0.00     0.013 C 
ENDROOT
BRANCH  11  22
HETATM   22  C14 UNL     1      -2.770  50.632 -12.655  1.00  0.00    -0.014 C 
HETATM   23  C15 UNL     1      -2.596  49.306 -11.904  1.00  0.00     0.010 C 
BRANCH  22  24
HETATM   24  C16 UNL     1      -1.747  50.689 -13.825  1.00  0.00     0.008 C 
BRANCH  24  25
HETATM   25  C17 UNL     1      -2.118  49.787 -15.013  1.00  0.00     0.028 C 
BRANCH  25  26
HETATM   26  C18 UNL     1      -2.465  50.539 -16.267  1.00  0.00    -0.025 C 
HETATM   27  C19 UNL     1      -1.692  50.756 -17.350  1.00  0.00    -0.091 C 
HETATM   28  C20 UNL     1      -0.269  50.302 -17.510  1.00  0.00     0.042 C 
HETATM   29  C21 UNL     1      -2.231  51.520 -18.533  1.00  0.00     0.042 C 
ENDBRANCH  25  26
ENDBRANCH  24  25
ENDBRANCH  22  24
ENDBRANCH  11  22
BRANCH   1  30
HETATM   30  O2  UNL     1       5.401  55.900  -7.904  1.00  0.00    -0.316 OA
BRANCH  30  31
HETATM   31  C2  UNL     1       5.554  54.581  -8.205  1.00  0.00     0.255 C 
HETATM   32  C1  UNL     1       6.316  54.435  -9.485  1.00  0.00     0.126 C 
HETATM   33  O1  UNL     1       5.149  53.641  -7.535  1.00  0.00    -0.266 OA
ENDBRANCH  30  31
ENDBRANCH   1  30
TORSDOF 6
ENDMDL
MODEL 2
REMARK minimizedAffinity -7.42624998
REMARK CNNscore 0.647290409
REMARK CNNaffinity 7.15902948
REMARK  6 active torsions:
REMARK  status: ('A' for Active; 'I' for Inactive)
REMARK    1  A    between atoms: C2_2  and  O2_4 
REMARK    2  A    between atoms: O2_4  and  C3_5 
REMARK    3  A    between atoms: C13_15  and  C14_16 
REMARK    4  A    between atoms: C14_16  and  C16_18 
REMARK    5  A    between atoms: C16_18  and  C17_19 
REMARK    6  A    between atoms: C17_19  and  C18_20 
ROOT
HETATM    1  C3  UNL     1      -2.852  51.785 -10.589  1.00  0.00     0.136 C 
HETATM    2  C4  UNL     1      -1.833  51.034  -9.720  1.00  0.00     0.034 C 
HETATM    3  C5  UNL     1      -0.384  51.441  -9.985  1.00  0.00     0.013 C 
HETATM    4  C6  UNL     1      -0.175  52.959 -10.014  1.00  0.00    -0.027 A 
HETATM    5  C7  UNL     1       0.805  53.405 -11.077  1.00  0.00     0.021 A 
HETATM    6  C8  UNL     1       1.178  53.620  -9.625  1.00  0.00    -0.027 A 
HETATM    7  C9  UNL     1       2.254  52.707  -9.034  1.00  0.00     0.011 C 
HETATM    8  C10 UNL     1       3.638  53.319  -8.744  1.00  0.00     0.011 C 
HETATM    9  C11 UNL     1       3.703  54.850  -8.831  1.00  0.00    -0.032 C 
HETATM   10  C12 UNL     1       3.949  55.230 -10.325  1.00  0.00     0.016 C 
HETATM   11  C13 UNL     1       4.786  55.554  -7.941  1.00  0.00    -0.002 C 
HETATM   12  C22 UNL     1       4.200  56.989  -7.774  1.00  0.00     0.006 C 
HETATM   13  C23 UNL     1       2.711  56.934  -8.141  1.00  0.00     0.011 C 
HETATM   14  C24 UNL     1       2.371  55.435  -8.235  1.00  0.00    -0.032 C 
HETATM   15  C25 UNL     1       2.044  54.962  -6.785  1.00  0.00     0.016 C 
HETATM   16  C26 UNL     1       1.194  55.110  -9.195  1.00  0.00     0.004 C 
HETATM   17  C27 UNL     1      -0.176  55.588  -8.698  1.00  0.00     0.006 C 
HETATM   18  C28 UNL     1      -1.262  55.262  -9.722  1.00  0.00     0.006 C 
HETATM   19  C29 UNL     1      -1.472  53.747  -9.786  1.00  0.00     0.001 C 
HETATM   20  C30 UNL     1      -2.488  53.271 -10.847  1.00  0.00     0.016 C 
HETATM   21  C31 UNL     1      -3.764  54.112 -10.914  1.00  0.00     0.013 C 
ENDROOT
BRANCH  11  22
HETATM   22  C14 UNL     1       6.273  55.576  -8.409  1.00  0.00    -0.014 C 
HETATM   23  C15 UNL     1       6.551  54.488  -9.454  1.00  0.00     0.010 C 
BRANCH  22  24
HETATM   24  C16 UNL     1       7.252  55.393  -7.215  1.00  0.00     0.008 C 
BRANCH  24  25
HETATM   25  C17 UNL     1       7.037  56.407  -6.079  1.00  0.00     0.028 C 
BRANCH  25  26
HETATM   26  C18 UNL     1       8.309  56.981  -5.523  1.00  0.00    -0.025 C 
HETATM   27  C19 UNL     1       8.500  58.187  -4.952  1.00  0.00    -0.091 C 
HETATM   28  C20 UNL     1       7.449  59.248  -4.783  1.00  0.00     0.042 C 
HETATM   29  C21 UNL     1       9.859  58.578  -4.425  1.00  0.00     0.042 C 
ENDBRANCH  25  26
ENDBRANCH  24  25
ENDBRANCH  22  24
ENDBRANCH  11  22
BRANCH   1  30
HETATM   30  O2  UNL     1      -2.966  51.137 -11.877  1.00  0.00    -0.316 OA
BRANCH  30  31
HETATM   31  C2  UNL     1      -2.695  51.910 -12.966  1.00  0.00     0.255 C 
HETATM   32  C1  UNL     1      -1.278  51.700 -13.401  1.00  0.00     0.126 C 
HETATM   33  O1  UNL     1      -3.483  52.660 -13.527  1.00  0.00    -0.266 OA
ENDBRANCH  30  31
ENDBRANCH   1  30
TORSDOF 6
ENDMDL
MODEL 3
REMARK minimizedAffinity -6.51358795
REMARK CNNscore 0.447825879
REMARK CNNaffinity 5.957829
REMARK  6 active torsions:
REMARK  status: ('A' for Active; 'I' for Inactive)
REMARK    1  A    between atoms: C2_2  and  O2_4 
REMARK    2  A    between atoms: O2_4  and  C3_5 
REMARK    3  A    between atoms: C13_15  and  C14_16 
REMARK    4  A    between atoms: C14_16  and  C16_18 
REMARK    5  A    between atoms: C16_18  and  C17_19 
REMARK    6  A    between atoms: C17_19  and  C18_20 
ROOT
HETATM    1  C3  UNL     1      -4.949  48.552 -24.918  1.00  0.00     0.136 C 
HETATM    2  C4  UNL     1      -5.937  47.899 -23.940  1.00  0.00     0.034 C 
HETATM    3  C5  UNL     1      -7.403  48.134 -24.302  1.00  0.00     0.013 C 
HETATM    4  C6  UNL     1      -7.716  47.860 -25.777  1.00  0.00    -0.027 A 
HETATM    5  C7  UNL     1      -8.695  48.848 -26.373  1.00  0.00     0.021 A 
HETATM    6  C8  UNL     1      -9.122  47.400 -26.258  1.00  0.00    -0.027 A 
HETATM    7  C9  UNL     1     -10.148  47.054 -25.177  1.00  0.00     0.011 C 
HETATM    8  C10 UNL     1     -11.579  46.702 -25.628  1.00  0.00     0.011 C 
HETATM    9  C11 UNL     1     -11.747  46.475 -27.136  1.00  0.00    -0.032 C 
HETATM   10  C12 UNL     1     -11.978  47.869 -27.802  1.00  0.00     0.016 C 
HETATM   11  C13 UNL     1     -12.900  45.505 -27.572  1.00  0.00    -0.002 C 
HETATM   12  C22 UNL     1     -12.421  45.024 -28.975  1.00  0.00     0.006 C 
HETATM   13  C23 UNL     1     -10.921  45.332 -29.090  1.00  0.00     0.011 C 
HETATM   14  C24 UNL     1     -10.476  45.718 -27.667  1.00  0.00    -0.032 C 
HETATM   15  C25 UNL     1     -10.157  44.383 -26.924  1.00  0.00     0.016 C 
HETATM   16  C26 UNL     1      -9.254  46.674 -27.622  1.00  0.00     0.004 C 
HETATM   17  C27 UNL     1      -7.934  46.033 -28.071  1.00  0.00     0.006 C 
HETATM   18  C28 UNL     1      -6.800  47.057 -28.033  1.00  0.00     0.006 C 
HETATM   19  C29 UNL     1      -6.483  47.422 -26.580  1.00  0.00     0.001 C 
HETATM   20  C30 UNL     1      -5.408  48.515 -26.399  1.00  0.00     0.016 C 
HETATM   21  C31 UNL     1      -4.193  48.355 -27.313  1.00  0.00     0.013 C 
ENDROOT
BRANCH  11  22
HETATM   22  C14 UNL     1     -14.372  46.020 -27.598  1.00  0.00    -0.014 C 
HETATM   23  C15 UNL     1     -14.961  46.116 -26.184  1.00  0.00     0.010 C 
BRANCH  22  24
HETATM   24  C16 UNL     1     -15.284  45.106 -28.465  1.00  0.00     0.008 C 
BRANCH  24  25
HETATM   25  C17 UNL     1     -16.594  44.702 -27.769  1.00  0.00     0.028 C 
BRANCH  25  26
HETATM   26  C18 UNL     1     -16.906  43.235 -27.860  1.00  0.00    -0.025 C 
HETATM   27  C19 UNL     1     -17.595  42.588 -28.821  1.00  0.00    -0.091 C 
HETATM   28  C20 UNL     1     -18.239  43.232 -30.017  1.00  0.00     0.042 C 
HETATM   29  C21 UNL     1     -17.784  41.093 -28.752  1.00  0.00     0.042 C 
ENDBRANCH  25  26
ENDBRANCH  24  25
ENDBRANCH  22  24
ENDBRANCH  11  22
BRANCH   1  30
HETATM   30  O2  UNL     1      -4.755  49.941 -24.560  1.00  0.00    -0.316 OA
BRANCH  30  31
HETATM   31  C2  UNL     1      -3.484  50.418 -24.666  1.00  0.00     0.255 C 
HETATM   32  C1  UNL     1      -3.508  51.823 -25.183  1.00  0.00     0.126 C 
HETATM   33  O1  UNL     1      -2.463  49.810 -24.375  1.00  0.00    -0.266 OA
ENDBRANCH  30  31
ENDBRANCH   1  30
TORSDOF 6
ENDMDL
MODEL 4
REMARK minimizedAffinity -6.47998667
REMARK CNNscore 0.398868114
REMARK CNNaffinity 6.03689337
REMARK  6 active torsions:
REMARK  status: ('A' for Active; 'I' for Inactive)
REMARK    1  A    between atoms: C2_2  and  O2_4 
REMARK    2  A    between atoms: O2_4  and  C3_5 
REMARK    3  A    between atoms: C13_15  and  C14_16 
REMARK    4  A    between atoms: C14_16  and  C16_18 
REMARK    5  A    between atoms: C16_18  and  C17_19 
REMARK    6  A    between atoms: C17_19  and  C18_20 
ROOT
HETATM    1  C3  UNL     1       7.862  57.162  -4.871  1.00  0.00     0.136 C 
HETATM    2  C4  UNL     1       8.418  56.292  -6.008  1.00  0.00     0.034 C 
HETATM    3  C5  UNL     1       7.477  55.165  -6.434  1.00  0.00     0.013 C 
HETATM    4  C6  UNL     1       6.034  55.631  -6.658  1.00  0.00    -0.027 A 
HETATM    5  C7  UNL     1       5.004  54.635  -6.171  1.00  0.00     0.021 A 
HETATM    6  C8  UNL     1       5.076  54.920  -7.656  1.00  0.00    -0.027 A 
HETATM    7  C9  UNL     1       5.682  53.837  -8.551  1.00  0.00     0.011 C 
HETATM    8  C10 UNL     1       4.731  53.046  -9.469  1.00  0.00     0.011 C 
HETATM    9  C11 UNL     1       3.310  53.617  -9.580  1.00  0.00    -0.032 C 
HETATM   10  C12 UNL     1       2.478  53.054  -8.385  1.00  0.00     0.016 C 
HETATM   11  C13 UNL     1       2.543  53.325 -10.917  1.00  0.00    -0.002 C 
HETATM   12  C22 UNL     1       1.504  54.486 -10.967  1.00  0.00     0.006 C 
HETATM   13  C23 UNL     1       1.971  55.577  -9.994  1.00  0.00     0.011 C 
HETATM   14  C24 UNL     1       3.409  55.186  -9.606  1.00  0.00    -0.032 C 
HETATM   15  C25 UNL     1       4.342  55.761 -10.717  1.00  0.00     0.016 C 
HETATM   16  C26 UNL     1       3.850  55.694  -8.207  1.00  0.00     0.004 C 
HETATM   17  C27 UNL     1       4.032  57.215  -8.116  1.00  0.00     0.006 C 
HETATM   18  C28 UNL     1       4.424  57.625  -6.698  1.00  0.00     0.006 C 
HETATM   19  C29 UNL     1       5.840  57.130  -6.390  1.00  0.00     0.001 C 
HETATM   20  C30 UNL     1       6.332  57.404  -4.953  1.00  0.00     0.016 C 
HETATM   21  C31 UNL     1       6.002  58.805  -4.435  1.00  0.00     0.013 C 
ENDROOT
BRANCH  11  22
HETATM   22  C14 UNL     1       1.880  51.931 -11.137  1.00  0.00    -0.014 C 
HETATM   23  C15 UNL     1       2.059  51.442 -12.580  1.00  0.00     0.010 C 
BRANCH  22  24
HETATM   24  C16 UNL     1       0.363  51.958 -10.795  1.00  0.00     0.008 C 
BRANCH  24  25
HETATM   25  C17 UNL     1      -0.534  52.302 -11.996  1.00  0.00     0.028 C 
BRANCH  25  26
HETATM   26  C18 UNL     1      -2.002  52.330 -11.674  1.00  0.00    -0.025 C 
HETATM   27  C19 UNL     1      -2.689  53.274 -11.001  1.00  0.00    -0.091 C 
HETATM   28  C20 UNL     1      -2.098  54.512 -10.388  1.00  0.00     0.042 C 
HETATM   29  C21 UNL     1      -4.178  53.137 -10.798  1.00  0.00     0.042 C 
ENDBRANCH  25  26
ENDBRANCH  24  25
ENDBRANCH  22  24
ENDBRANCH  11  22
BRANCH   1  30
HETATM   30  O2  UNL     1       8.133  56.531  -3.598  1.00  0.00    -0.316 OA
BRANCH  30  31
HETATM   31  C2  UNL     1       9.434  56.523  -3.195  1.00  0.00     0.255 C 
HETATM   32  C1  UNL     1       9.838  55.135  -2.806  1.00  0.00     0.126 C 
HETATM   33  O1  UNL     1      10.180  57.491  -3.162  1.00  0.00    -0.266 OA
ENDBRANCH  30  31
ENDBRANCH   1  30
TORSDOF 6
ENDMDL
MODEL 5
REMARK minimizedAffinity -6.4735074
REMARK CNNscore 0.377584845
REMARK CNNaffinity 6.35415983
REMARK  6 active torsions:
REMARK  status: ('A' for Active; 'I' for Inactive)
REMARK    1  A    between atoms: C2_2  and  O2_4 
REMARK    2  A    between atoms: O2_4  and  C3_5 
REMARK    3  A    between atoms: C13_15  and  C14_16 
REMARK    4  A    between atoms: C14_16  and  C16_18 
REMARK    5  A    between atoms: C16_18  and  C17_19 
REMARK    6  A    between atoms: C17_19  and  C18_20 
ROOT
HETATM    1  C3  UNL     1      -1.752  53.255 -10.969  1.00  0.00     0.136 C 
HETATM    2  C4  UNL     1      -1.495  54.731 -10.630  1.00  0.00     0.034 C 
HETATM    3  C5  UNL     1      -0.542  54.932  -9.452  1.00  0.00     0.013 C 
HETATM    4  C6  UNL     1       0.733  54.086  -9.550  1.00  0.00    -0.027 A 
HETATM    5  C7  UNL     1       1.180  53.526  -8.217  1.00  0.00     0.021 A 
HETATM    6  C8  UNL     1       2.077  54.531  -8.908  1.00  0.00    -0.027 A 
HETATM    7  C9  UNL     1       2.134  55.942  -8.319  1.00  0.00     0.011 C 
HETATM    8  C10 UNL     1       3.420  56.364  -7.582  1.00  0.00     0.011 C 
HETATM    9  C11 UNL     1       4.610  55.410  -7.753  1.00  0.00    -0.032 C 
HETATM   10  C12 UNL     1       4.472  54.284  -6.679  1.00  0.00     0.016 C 
HETATM   11  C13 UNL     1       6.038  56.049  -7.642  1.00  0.00    -0.002 C 
HETATM   12  C22 UNL     1       6.918  55.042  -8.443  1.00  0.00     0.006 C 
HETATM   13  C23 UNL     1       5.983  54.187  -9.309  1.00  0.00     0.011 C 
HETATM   14  C24 UNL     1       4.611  54.882  -9.234  1.00  0.00    -0.032 C 
HETATM   15  C25 UNL     1       4.618  56.000 -10.322  1.00  0.00     0.016 C 
HETATM   16  C26 UNL     1       3.404  53.928  -9.439  1.00  0.00     0.004 C 
HETATM   17  C27 UNL     1       3.266  53.382 -10.866  1.00  0.00     0.006 C 
HETATM   18  C28 UNL     1       2.079  52.424 -10.962  1.00  0.00     0.006 C 
HETATM   19  C29 UNL     1       0.771  53.205 -10.806  1.00  0.00     0.001 C 
HETATM   20  C30 UNL     1      -0.509  52.343 -10.798  1.00  0.00     0.016 C 
HETATM   21  C31 UNL     1      -0.528  51.240 -11.858  1.00  0.00     0.013 C 
ENDROOT
BRANCH  11  22
HETATM   22  C14 UNL     1       6.635  56.362  -6.235  1.00  0.00    -0.014 C 
HETATM   23  C15 UNL     1       6.603  57.866  -5.932  1.00  0.00     0.010 C 
BRANCH  22  24
HETATM   24  C16 UNL     1       8.097  55.850  -6.106  1.00  0.00     0.008 C 
BRANCH  24  25
HETATM   25  C17 UNL     1       8.277  54.760  -5.036  1.00  0.00     0.028 C 
BRANCH  25  26
HETATM   26  C18 UNL     1       8.167  55.267  -3.625  1.00  0.00    -0.025 C 
HETATM   27  C19 UNL     1       8.977  55.004  -2.580  1.00  0.00    -0.091 C 
HETATM   28  C20 UNL     1      10.172  54.094  -2.610  1.00  0.00     0.042 C 
HETATM   29  C21 UNL     1       8.717  55.632  -1.234  1.00  0.00     0.042 C 
ENDBRANCH  25  26
ENDBRANCH  24  25
ENDBRANCH  22  24
ENDBRANCH  11  22
BRANCH   1  30
HETATM   30  O2  UNL     1      -2.793  52.733 -10.112  1.00  0.00    -0.316 OA
BRANCH  30  31
HETATM   31  C2  UNL     1      -3.939  52.334 -10.731  1.00  0.00     0.255 C 
HETATM   32  C1  UNL     1      -4.376  51.008 -10.190  1.00  0.00     0.126 C 
HETATM   33  O1  UNL     1      -4.543  52.958 -11.592  1.00  0.00    -0.266 OA
ENDBRANCH  30  31
ENDBRANCH   1  30
TORSDOF 6
ENDMDL
MODEL 6
REMARK minimizedAffinity -6.67013359
REMARK CNNscore 0.37604481
REMARK CNNaffinity 6.35304213
REMARK  6 active torsions:
REMARK  status: ('A' for Active; 'I' for Inactive)
REMARK    1  A    between atoms: C2_2  and  O2_4 
REMARK    2  A    between atoms: O2_4  and  C3_5 
REMARK    3  A    between atoms: C13_15  and  C14_16 
REMARK    4  A    between atoms: C14_16  and  C16_18 
REMARK    5  A    between atoms: C16_18  and  C17_19 
REMARK    6  A    between atoms: C17_19  and  C18_20 
ROOT
HETATM    1  C3  UNL     1       7.619  57.038  -5.139  1.00  0.00     0.136 C 
HETATM    2  C4  UNL     1       8.169  56.233  -6.326  1.00  0.00     0.034 C 
HETATM    3  C5  UNL     1       7.252  55.094  -6.771  1.00  0.00     0.013 C 
HETATM    4  C6  UNL     1       5.788  55.520  -6.935  1.00  0.00    -0.027 A 
HETATM    5  C7  UNL     1       4.805  54.473  -6.459  1.00  0.00     0.021 A 
HETATM    6  C8  UNL     1       4.824  54.819  -7.933  1.00  0.00    -0.027 A 
HETATM    7  C9  UNL     1       5.437  53.793  -8.888  1.00  0.00     0.011 C 
HETATM    8  C10 UNL     1       4.484  53.008  -9.810  1.00  0.00     0.011 C 
HETATM    9  C11 UNL     1       3.044  53.537  -9.858  1.00  0.00    -0.032 C 
HETATM   10  C12 UNL     1       2.266  52.900  -8.663  1.00  0.00     0.016 C 
HETATM   11  C13 UNL     1       2.248  53.273 -11.184  1.00  0.00    -0.002 C 
HETATM   12  C22 UNL     1       1.171  54.400 -11.157  1.00  0.00     0.006 C 
HETATM   13  C23 UNL     1       1.633  55.467 -10.154  1.00  0.00     0.011 C 
HETATM   14  C24 UNL     1       3.093  55.108  -9.823  1.00  0.00    -0.032 C 
HETATM   15  C25 UNL     1       3.974  55.756 -10.936  1.00  0.00     0.016 C 
HETATM   16  C26 UNL     1       3.558  55.574  -8.417  1.00  0.00     0.004 C 
HETATM   17  C27 UNL     1       3.695  57.095  -8.270  1.00  0.00     0.006 C 
HETATM   18  C28 UNL     1       4.116  57.461  -6.847  1.00  0.00     0.006 C 
HETATM   19  C29 UNL     1       5.555  57.000  -6.600  1.00  0.00     0.001 C 
HETATM   20  C30 UNL     1       6.080  57.233  -5.167  1.00  0.00     0.016 C 
HETATM   21  C31 UNL     1       5.722  58.601  -4.584  1.00  0.00     0.013 C 
ENDROOT
BRANCH  11  22
HETATM   22  C14 UNL     1       1.622  51.868 -11.441  1.00  0.00    -0.014 C 
HETATM   23  C15 UNL     1       0.715  51.434 -10.282  1.00  0.00     0.010 C 
BRANCH  22  24
HETATM   24  C16 UNL     1       2.717  50.785 -11.660  1.00  0.00     0.008 C 
BRANCH  24  25
HETATM   25  C17 UNL     1       2.754  50.226 -13.092  1.00  0.00     0.028 C 
BRANCH  25  26
HETATM   26  C18 UNL     1       3.568  51.051 -14.048  1.00  0.00    -0.025 C 
HETATM   27  C19 UNL     1       3.147  51.716 -15.143  1.00  0.00    -0.091 C 
HETATM   28  C20 UNL     1       1.736  51.737 -15.661  1.00  0.00     0.042 C 
HETATM   29  C21 UNL     1       4.118  52.519 -15.971  1.00  0.00     0.042 C 
ENDBRANCH  25  26
ENDBRANCH  24  25
ENDBRANCH  22  24
ENDBRANCH  11  22
BRANCH   1  30
HETATM   30  O2  UNL     1       7.947  56.366  -3.901  1.00  0.00    -0.316 OA
BRANCH  30  31
HETATM   31  C2  UNL     1       9.116  56.736  -3.307  1.00  0.00     0.255 C 
HETATM   32  C1  UNL     1       9.293  58.219  -3.409  1.00  0.00     0.126 C 
HETATM   33  O1  UNL     1       9.908  55.986  -2.754  1.00  0.00    -0.266 OA
ENDBRANCH  30  31
ENDBRANCH   1  30
TORSDOF 6
ENDMDL
MODEL 7
REMARK minimizedAffinity -6.79131174
REMARK CNNscore 0.357569456
REMARK CNNaffinity 5.88219643
REMARK  6 active torsions:
REMARK  status: ('A' for Active; 'I' for Inactive)
REMARK    1  A    between atoms: C2_2  and  O2_4 
REMARK    2  A    between atoms: O2_4  and  C3_5 
REMARK    3  A    between atoms: C13_15  and  C14_16 
REMARK    4  A    between atoms: C14_16  and  C16_18 
REMARK    5  A    between atoms: C16_18  and  C17_19 
REMARK    6  A    between atoms: C17_19  and  C18_20 
ROOT
HETATM    1  C3  UNL     1       1.935  68.633 -15.371  1.00  0.00     0.136 C 
HETATM    2  C4  UNL     1       2.444  67.565 -16.349  1.00  0.00     0.034 C 
HETATM    3  C5  UNL     1       3.964  67.561 -16.514  1.00  0.00     0.013 C 
HETATM    4  C6  UNL     1       4.720  67.593 -15.181  1.00  0.00    -0.027 A 
HETATM    5  C7  UNL     1       5.958  68.462 -15.219  1.00  0.00     0.021 A 
HETATM    6  C8  UNL     1       6.136  66.973 -15.013  1.00  0.00    -0.027 A 
HETATM    7  C9  UNL     1       6.685  66.162 -16.189  1.00  0.00     0.011 C 
HETATM    8  C10 UNL     1       8.128  65.631 -16.087  1.00  0.00     0.011 C 
HETATM    9  C11 UNL     1       8.766  65.748 -14.696  1.00  0.00    -0.032 C 
HETATM   10  C12 UNL     1       9.381  67.178 -14.575  1.00  0.00     0.016 C 
HETATM   11  C13 UNL     1       9.868  64.688 -14.342  1.00  0.00    -0.002 C 
HETATM   12  C22 UNL     1       9.834  64.677 -12.784  1.00  0.00     0.006 C 
HETATM   13  C23 UNL     1       8.513  65.320 -12.338  1.00  0.00     0.011 C 
HETATM   14  C24 UNL     1       7.665  65.434 -13.619  1.00  0.00    -0.032 C 
HETATM   15  C25 UNL     1       6.949  64.059 -13.802  1.00  0.00     0.016 C 
HETATM   16  C26 UNL     1       6.629  66.590 -13.593  1.00  0.00     0.004 C 
HETATM   17  C27 UNL     1       5.470  66.377 -12.611  1.00  0.00     0.006 C 
HETATM   18  C28 UNL     1       4.527  67.579 -12.625  1.00  0.00     0.006 C 
HETATM   19  C29 UNL     1       3.786  67.639 -13.964  1.00  0.00     0.001 C 
HETATM   20  C30 UNL     1       2.859  68.860 -14.146  1.00  0.00     0.016 C 
HETATM   21  C31 UNL     1       2.014  69.193 -12.915  1.00  0.00     0.013 C 
ENDROOT
BRANCH  11  22
HETATM   22  C14 UNL     1      11.314  64.865 -14.898  1.00  0.00    -0.014 C 
HETATM   23  C15 UNL     1      11.517  64.079 -16.200  1.00  0.00     0.010 C 
BRANCH  22  24
HETATM   24  C16 UNL     1      12.384  64.416 -13.864  1.00  0.00     0.008 C 
BRANCH  24  25
HETATM   25  C17 UNL     1      13.286  65.562 -13.372  1.00  0.00     0.028 C 
BRANCH  25  26
HETATM   26  C18 UNL     1      14.345  65.970 -14.356  1.00  0.00    -0.025 C 
HETATM   27  C19 UNL     1      15.633  65.575 -14.406  1.00  0.00    -0.091 C 
HETATM   28  C20 UNL     1      16.297  64.642 -13.433  1.00  0.00     0.042 C 
HETATM   29  C21 UNL     1      16.546  66.079 -15.496  1.00  0.00     0.042 C 
ENDBRANCH  25  26
ENDBRANCH  24  25
ENDBRANCH  22  24
ENDBRANCH  11  22
BRANCH   1  30
HETATM   30  O2  UNL     1       1.807  69.901 -16.056  1.00  0.00    -0.316 OA
BRANCH  30  31
HETATM   31  C2  UNL     1       0.713  70.046 -16.855  1.00  0.00     0.255 C 
HETATM   32  C1  UNL     1      -0.512  70.229 -16.014  1.00  0.00     0.126 C 
HETATM   33  O1  UNL     1       0.713  70.044 -18.078  1.00  0.00    -0.266 OA
ENDBRANCH  30  31
ENDBRANCH   1  30
TORSDOF 6
ENDMDL
MODEL 8
REMARK minimizedAffinity -7.44373035
REMARK CNNscore 0.32987994
REMARK CNNaffinity 6.27393103
REMARK  6 active torsions:
REMARK  status: ('A' for Active; 'I' for Inactive)
REMARK    1  A    between atoms: C2_2  and  O2_4 
REMARK    2  A    between atoms: O2_4  and  C3_5 
REMARK    3  A    between atoms: C13_15  and  C14_16 
REMARK    4  A    between atoms: C14_16  and  C16_18 
REMARK    5  A    between atoms: C16_18  and  C17_19 
REMARK    6  A    between atoms: C17_19  and  C18_20 
ROOT
HETATM    1  C3  UNL     1      -1.681  53.364 -10.864  1.00  0.00     0.136 C 
HETATM    2  C4  UNL     1      -1.335  54.838 -10.606  1.00  0.00     0.034 C 
HETATM    3  C5  UNL     1      -0.344  55.043  -9.461  1.00  0.00     0.013 C 
HETATM    4  C6  UNL     1       0.879  54.123  -9.543  1.00  0.00    -0.027 A 
HETATM    5  C7  UNL     1       1.327  53.605  -8.194  1.00  0.00     0.021 A 
HETATM    6  C8  UNL     1       2.262  54.522  -8.954  1.00  0.00    -0.027 A 
HETATM    7  C9  UNL     1       2.411  55.955  -8.439  1.00  0.00     0.011 C 
HETATM    8  C10 UNL     1       3.736  56.340  -7.753  1.00  0.00     0.011 C 
HETATM    9  C11 UNL     1       4.867  55.312  -7.901  1.00  0.00    -0.032 C 
HETATM   10  C12 UNL     1       4.694  54.250  -6.769  1.00  0.00     0.016 C 
HETATM   11  C13 UNL     1       6.331  55.874  -7.853  1.00  0.00    -0.002 C 
HETATM   12  C22 UNL     1       7.134  54.781  -8.621  1.00  0.00     0.006 C 
HETATM   13  C23 UNL     1       6.132  53.938  -9.423  1.00  0.00     0.011 C 
HETATM   14  C24 UNL     1       4.802  54.713  -9.353  1.00  0.00    -0.032 C 
HETATM   15  C25 UNL     1       4.845  55.773 -10.497  1.00  0.00     0.016 C 
HETATM   16  C26 UNL     1       3.540  53.819  -9.483  1.00  0.00     0.004 C 
HETATM   17  C27 UNL     1       3.336  53.212 -10.877  1.00  0.00     0.006 C 
HETATM   18  C28 UNL     1       2.097  52.319 -10.898  1.00  0.00     0.006 C 
HETATM   19  C29 UNL     1       0.838  53.179 -10.753  1.00  0.00     0.001 C 
HETATM   20  C30 UNL     1      -0.487  52.392 -10.674  1.00  0.00     0.016 C 
HETATM   21  C31 UNL     1      -0.593  51.242 -11.676  1.00  0.00     0.013 C 
ENDROOT
BRANCH  11  22
HETATM   22  C14 UNL     1       6.978  56.222  -6.478  1.00  0.00    -0.014 C 
HETATM   23  C15 UNL     1       7.036  54.998  -5.555  1.00  0.00     0.010 C 
BRANCH  22  24
HETATM   24  C16 UNL     1       6.209  57.365  -5.756  1.00  0.00     0.008 C 
BRANCH  24  25
HETATM   25  C17 UNL     1       7.121  58.488  -5.232  1.00  0.00     0.028 C 
BRANCH  25  26
HETATM   26  C18 UNL     1       8.524  58.043  -4.930  1.00  0.00    -0.025 C 
HETATM   27  C19 UNL     1       9.654  58.779  -4.952  1.00  0.00    -0.091 C 
HETATM   28  C20 UNL     1       9.742  60.231  -5.329  1.00  0.00     0.042 C 
HETATM   29  C21 UNL     1      10.979  58.155  -4.590  1.00  0.00     0.042 C 
ENDBRANCH  25  26
ENDBRANCH  24  25
ENDBRANCH  22  24
ENDBRANCH  11  22
BRANCH   1  30
HETATM   30  O2  UNL     1      -2.729  52.944  -9.959  1.00  0.00    -0.316 OA
BRANCH  30  31
HETATM   31  C2  UNL     1      -3.854  52.436 -10.534  1.00  0.00     0.255 C 
HETATM   32  C1  UNL     1      -4.118  51.060 -10.007  1.00  0.00     0.126 C 
HETATM   33  O1  UNL     1      -4.563  53.007 -11.351  1.00  0.00    -0.266 OA
ENDBRANCH  30  31
ENDBRANCH   1  30
TORSDOF 6
ENDMDL
MODEL 9
REMARK minimizedAffinity -7.02177095
REMARK CNNscore 0.32363224
REMARK CNNaffinity 6.1695075
REMARK  6 active torsions:
REMARK  status: ('A' for Active; 'I' for Inactive)
REMARK    1  A    between atoms: C2_2  and  O2_4 
REMARK    2  A    between atoms: O2_4  and  C3_5 
REMARK    3  A    between atoms: C13_15  and  C14_16 
REMARK    4  A    between atoms: C14_16  and  C16_18 
REMARK    5  A    between atoms: C16_18  and  C17_19 
REMARK    6  A    between atoms: C17_19  and  C18_20 
ROOT
HETATM    1  C3  UNL     1      -1.592  53.876 -10.789  1.00  0.00     0.136 C 
HETATM    2  C4  UNL     1      -1.675  55.334 -10.313  1.00  0.00     0.034 C 
HETATM    3  C5  UNL     1      -0.983  55.581  -8.973  1.00  0.00     0.013 C 
HETATM    4  C6  UNL     1       0.426  54.982  -8.896  1.00  0.00    -0.027 A 
HETATM    5  C7  UNL     1       0.745  54.381  -7.545  1.00  0.00     0.021 A 
HETATM    6  C8  UNL     1       1.540  55.588  -7.996  1.00  0.00    -0.027 A 
HETATM    7  C9  UNL     1       1.235  56.924  -7.315  1.00  0.00     0.011 C 
HETATM    8  C10 UNL     1       2.280  57.488  -6.334  1.00  0.00     0.011 C 
HETATM    9  C11 UNL     1       3.639  56.774  -6.351  1.00  0.00    -0.032 C 
HETATM   10  C12 UNL     1       3.540  55.543  -5.396  1.00  0.00     0.016 C 
HETATM   11  C13 UNL     1       4.885  57.635  -5.945  1.00  0.00    -0.002 C 
HETATM   12  C22 UNL     1       6.057  56.878  -6.639  1.00  0.00     0.006 C 
HETATM   13  C23 UNL     1       5.453  55.963  -7.714  1.00  0.00     0.011 C 
HETATM   14  C24 UNL     1       3.982  56.400  -7.839  1.00  0.00    -0.032 C 
HETATM   15  C25 UNL     1       3.959  57.603  -8.834  1.00  0.00     0.016 C 
HETATM   16  C26 UNL     1       3.025  55.276  -8.319  1.00  0.00     0.004 C 
HETATM   17  C27 UNL     1       3.227  54.856  -9.781  1.00  0.00     0.006 C 
HETATM   18  C28 UNL     1       2.273  53.721 -10.150  1.00  0.00     0.006 C 
HETATM   19  C29 UNL     1       0.834  54.246 -10.180  1.00  0.00     0.001 C 
HETATM   20  C30 UNL     1      -0.246  53.179 -10.458  1.00  0.00     0.016 C 
HETATM   21  C31 UNL     1       0.115  52.198 -11.575  1.00  0.00     0.013 C 
ENDROOT
BRANCH  11  22
HETATM   22  C14 UNL     1       5.174  57.910  -4.437  1.00  0.00    -0.014 C 
HETATM   23  C15 UNL     1       4.710  59.312  -4.020  1.00  0.00     0.010 C 
BRANCH  22  24
HETATM   24  C16 UNL     1       6.685  57.756  -4.105  1.00  0.00     0.008 C 
BRANCH  24  25
HETATM   25  C17 UNL     1       7.480  59.067  -4.229  1.00  0.00     0.028 C 
BRANCH  25  26
HETATM   26  C18 UNL     1       8.971  58.881  -4.204  1.00  0.00    -0.025 C 
HETATM   27  C19 UNL     1       9.915  59.639  -4.798  1.00  0.00    -0.091 C 
HETATM   28  C20 UNL     1       9.653  60.841  -5.661  1.00  0.00     0.042 C 
HETATM   29  C21 UNL     1      11.377  59.305  -4.636  1.00  0.00     0.042 C 
ENDBRANCH  25  26
ENDBRANCH  24  25
ENDBRANCH  22  24
ENDBRANCH  11  22
BRANCH   1  30
HETATM   30  O2  UNL     1      -2.645  53.101 -10.168  1.00  0.00    -0.316 OA
BRANCH  30  31
HETATM   31  C2  UNL     1      -3.706  52.784 -10.960  1.00  0.00     0.255 C 
HETATM   32  C1  UNL     1      -4.232  51.432 -10.591  1.00  0.00     0.126 C 
HETATM   33  O1  UNL     1      -4.182  53.490 -11.838  1.00  0.00    -0.266 OA
ENDBRANCH  30  31
ENDBRANCH   1  30
TORSDOF 6
ENDMDL
