MODEL 1
REMARK minimizedAffinity -9.21161175
REMARK  6 active torsions:
REMARK  status: ('A' for Active; 'I' for Inactive)
REMARK    1  A    between atoms: C2_2  and  C4_4 
REMARK    2  A    between atoms: C4_4  and  O1_5 
REMARK    3  A    between atoms: C4_4  and  C5_6 
REMARK    4  A    between atoms: C5_6  and  C6_7 
REMARK    5  A    between atoms: C6_7  and  C7_8 
REMARK    6  A    between atoms: C7_8  and  C9_10 
ROOT
HETATM    1  C9  UNL     1       1.084   7.469  11.974  1.00  0.00    -0.001 C 
HETATM    2  C10 UNL     1       0.551   6.753  10.701  1.00  0.00     0.007 C 
HETATM    3  C11 UNL     1      -0.865   6.238  11.022  1.00  0.00     0.024 C 
HETATM    4  C12 UNL     1      -1.172   6.795  12.392  1.00  0.00     0.092 C 
HETATM    5  C13 UNL     1      -1.816   8.207  12.304  1.00  0.00     0.272 C 
HETATM    6  O2  UNL     1      -1.701   9.028  11.411  1.00  0.00    -0.264 OA
HETATM    7  O3  UNL     1      -2.574   8.413  13.442  1.00  0.00    -0.305 OA
HETATM    8  C14 UNL     1      -2.499   7.231  14.275  1.00  0.00     0.113 C 
HETATM    9  C15 UNL     1      -1.241   7.408  15.184  1.00  0.00     0.043 C 
HETATM   10  C16 UNL     1       0.048   7.758  14.390  1.00  0.00     0.014 C 
HETATM   11  C17 UNL     1       0.212   6.876  13.124  1.00  0.00    -0.020 C 
HETATM   12  C18 UNL     1       0.740   5.495  13.571  1.00  0.00     0.017 C 
HETATM   13  C19 UNL     1      -2.205   6.176  13.249  1.00  0.00     0.137 A 
HETATM   14  O4  UNL     1      -2.192   4.802  13.586  1.00  0.00    -0.364 OA
HETATM   15  C20 UNL     1      -3.270   5.236  12.730  1.00  0.00     0.162 A 
HETATM   16  C21 UNL     1      -4.627   5.227  13.363  1.00  0.00     0.042 C 
HETATM   17  C22 UNL     1      -4.954   6.617  13.954  1.00  0.00     0.014 C 
HETATM   18  C23 UNL     1      -6.454   6.826  14.346  1.00  0.00     0.018 C 
HETATM   19  C24 UNL     1      -7.335   6.812  13.077  1.00  0.00     0.023 C 
HETATM   20  C25 UNL     1      -7.012   5.788  15.329  1.00  0.00     0.023 C 
HETATM   21  C26 UNL     1      -6.632   8.218  14.972  1.00  0.00     0.135 C 
HETATM   22  O5  UNL     1      -7.720   8.602  15.409  1.00  0.00    -0.297 OA
HETATM   23  C27 UNL     1      -5.421   9.114  15.016  1.00  0.00     0.080 C 
HETATM   24  C28 UNL     1      -4.303   8.371  15.732  1.00  0.00     0.020 C 
HETATM   25  C29 UNL     1      -3.871   7.040  15.032  1.00  0.00    -0.004 C 
HETATM   26  C30 UNL     1      -3.691   5.982  16.154  1.00  0.00     0.019 C 
ENDROOT
BRANCH   1  27
HETATM   27  C7  UNL     1       2.639   7.564  12.039  1.00  0.00    -0.014 C 
HETATM   28  C8  UNL     1       3.267   8.914  11.673  1.00  0.00     0.010 C 
BRANCH  27  29
HETATM   29  C6  UNL     1       3.304   6.415  11.251  1.00  0.00     0.007 C 
BRANCH  29  30
HETATM   30  C5  UNL     1       3.774   6.723   9.816  1.00  0.00     0.036 C 
BRANCH  30  31
HETATM   31  C4  UNL     1       2.810   6.253   8.712  1.00  0.00     0.146 C 
BRANCH  31  32
HETATM   32  C2  UNL     1       2.486   7.267   7.628  1.00  0.00    -0.065 C 
HETATM   33  C1  UNL     1       1.828   7.001   6.486  1.00  0.00     0.016 C 
HETATM   34  C3  UNL     1       2.971   8.667   7.914  1.00  0.00     0.045 C 
ENDBRANCH  31  32
BRANCH  31  35
HETATM   35  O1  UNL     1       3.358   5.118   8.049  1.00  0.00    -0.391 OA
HETATM   36  H7  UNL     1       4.121   5.438   7.535  1.00  0.00     0.210 HD
ENDBRANCH  31  35
ENDBRANCH  30  31
ENDBRANCH  29  30
ENDBRANCH  27  29
ENDBRANCH   1  27
TORSDOF 6
ENDMDL
MODEL 2
REMARK minimizedAffinity -9.06032848
REMARK  6 active torsions:
REMARK  status: ('A' for Active; 'I' for Inactive)
REMARK    1  A    between atoms: C2_2  and  C4_4 
REMARK    2  A    between atoms: C4_4  and  O1_5 
REMARK    3  A    between atoms: C4_4  and  C5_6 
REMARK    4  A    between atoms: C5_6  and  C6_7 
REMARK    5  A    between atoms: C6_7  and  C7_8 
REMARK    6  A    between atoms: C7_8  and  C9_10 
ROOT
HETATM    1  C9  UNL     1      -4.236   7.349  14.207  1.00  0.00    -0.001 C 
HETATM    2  C10 UNL     1      -3.652   8.193  15.374  1.00  0.00     0.007 C 
HETATM    3  C11 UNL     1      -2.117   8.178  15.229  1.00  0.00     0.024 C 
HETATM    4  C12 UNL     1      -1.865   7.471  13.918  1.00  0.00     0.092 C 
HETATM    5  C13 UNL     1      -1.867   8.465  12.723  1.00  0.00     0.272 C 
HETATM    6  O2  UNL     1      -2.431   9.542  12.645  1.00  0.00    -0.264 OA
HETATM    7  O3  UNL     1      -1.099   7.927  11.707  1.00  0.00    -0.305 OA
HETATM    8  C14 UNL     1      -0.568   6.653  12.145  1.00  0.00     0.113 C 
HETATM    9  C15 UNL     1      -1.644   5.578  11.786  1.00  0.00     0.043 C 
HETATM   10  C16 UNL     1      -3.066   5.933  12.305  1.00  0.00     0.014 C 
HETATM   11  C17 UNL     1      -3.041   6.445  13.769  1.00  0.00    -0.020 C 
HETATM   12  C18 UNL     1      -2.896   5.221  14.701  1.00  0.00     0.017 C 
HETATM   13  C19 UNL     1      -0.557   6.844  13.633  1.00  0.00     0.137 A 
HETATM   14  O4  UNL     1       0.034   5.891  14.495  1.00  0.00    -0.364 OA
HETATM   15  C20 UNL     1       0.708   7.163  14.397  1.00  0.00     0.162 A 
HETATM   16  C21 UNL     1       2.029   7.130  13.693  1.00  0.00     0.042 C 
HETATM   17  C22 UNL     1       1.849   7.463  12.195  1.00  0.00     0.014 C 
HETATM   18  C23 UNL     1       3.178   7.778  11.430  1.00  0.00     0.018 C 
HETATM   19  C24 UNL     1       3.795   9.088  11.969  1.00  0.00     0.023 C 
HETATM   20  C25 UNL     1       4.243   6.677  11.511  1.00  0.00     0.023 C 
HETATM   21  C26 UNL     1       2.869   8.032   9.946  1.00  0.00     0.135 C 
HETATM   22  O5  UNL     1       3.760   8.255   9.123  1.00  0.00    -0.297 OA
HETATM   23  C27 UNL     1       1.419   8.017   9.533  1.00  0.00     0.080 C 
HETATM   24  C28 UNL     1       0.814   6.689   9.962  1.00  0.00     0.020 C 
HETATM   25  C29 UNL     1       0.858   6.436  11.505  1.00  0.00    -0.004 C 
HETATM   26  C30 UNL     1       1.286   4.957  11.703  1.00  0.00     0.019 C 
ENDROOT
BRANCH   1  27
HETATM   27  C7  UNL     1      -5.670   6.801  14.483  1.00  0.00    -0.014 C 
HETATM   28  C8  UNL     1      -5.902   6.120  15.837  1.00  0.00     0.010 C 
BRANCH  27  29
HETATM   29  C6  UNL     1      -6.160   5.905  13.325  1.00  0.00     0.007 C 
BRANCH  29  30
HETATM   30  C5  UNL     1      -6.365   4.409  13.628  1.00  0.00     0.036 C 
BRANCH  30  31
HETATM   31  C4  UNL     1      -6.855   3.574  12.430  1.00  0.00     0.146 C 
BRANCH  31  32
HETATM   32  C2  UNL     1      -5.817   2.690  11.761  1.00  0.00    -0.065 C 
HETATM   33  C1  UNL     1      -4.557   3.057  11.463  1.00  0.00     0.016 C 
HETATM   34  C3  UNL     1      -6.300   1.300  11.423  1.00  0.00     0.045 C 
ENDBRANCH  31  32
BRANCH  31  35
HETATM   35  O1  UNL     1      -7.909   2.713  12.845  1.00  0.00    -0.391 OA
HETATM   36  H7  UNL     1      -7.506   2.036  13.418  1.00  0.00     0.210 HD
ENDBRANCH  31  35
ENDBRANCH  30  31
ENDBRANCH  29  30
ENDBRANCH  27  29
ENDBRANCH   1  27
TORSDOF 6
ENDMDL
MODEL 3
REMARK minimizedAffinity -8.89096928
REMARK  6 active torsions:
REMARK  status: ('A' for Active; 'I' for Inactive)
REMARK    1  A    between atoms: C2_2  and  C4_4 
REMARK    2  A    between atoms: C4_4  and  O1_5 
REMARK    3  A    between atoms: C4_4  and  C5_6 
REMARK    4  A    between atoms: C5_6  and  C6_7 
REMARK    5  A    between atoms: C6_7  and  C7_8 
REMARK    6  A    between atoms: C7_8  and  C9_10 
ROOT
HETATM    1  C9  UNL     1      -5.627   6.485  14.787  1.00  0.00    -0.001 C 
HETATM    2  C10 UNL     1      -6.191   7.352  13.627  1.00  0.00     0.007 C 
HETATM    3  C11 UNL     1      -4.988   7.908  12.840  1.00  0.00     0.024 C 
HETATM    4  C12 UNL     1      -3.785   7.234  13.457  1.00  0.00     0.092 C 
HETATM    5  C13 UNL     1      -3.477   5.875  12.771  1.00  0.00     0.272 C 
HETATM    6  O2  UNL     1      -4.250   5.142  12.178  1.00  0.00    -0.264 OA
HETATM    7  O3  UNL     1      -2.132   5.597  12.936  1.00  0.00    -0.305 OA
HETATM    8  C14 UNL     1      -1.516   6.685  13.667  1.00  0.00     0.113 C 
HETATM    9  C15 UNL     1      -1.685   6.350  15.184  1.00  0.00     0.043 C 
HETATM   10  C16 UNL     1      -3.149   6.012  15.581  1.00  0.00     0.014 C 
HETATM   11  C17 UNL     1      -4.166   7.007  14.961  1.00  0.00    -0.020 C 
HETATM   12  C18 UNL     1      -4.131   8.306  15.796  1.00  0.00     0.017 C 
HETATM   13  C19 UNL     1      -2.435   7.820  13.321  1.00  0.00     0.137 A 
HETATM   14  O4  UNL     1      -2.139   9.149  13.699  1.00  0.00    -0.364 OA
HETATM   15  C20 UNL     1      -2.075   8.862  12.286  1.00  0.00     0.162 A 
HETATM   16  C21 UNL     1      -0.699   8.880  11.696  1.00  0.00     0.042 C 
HETATM   17  C22 UNL     1      -0.096   7.457  11.695  1.00  0.00     0.014 C 
HETATM   18  C23 UNL     1       1.189   7.291  10.816  1.00  0.00     0.018 C 
HETATM   19  C24 UNL     1       0.831   7.479   9.325  1.00  0.00     0.023 C 
HETATM   20  C25 UNL     1       2.332   8.254  11.161  1.00  0.00     0.023 C 
HETATM   21  C26 UNL     1       1.719   5.855  10.949  1.00  0.00     0.135 C 
HETATM   22  O5  UNL     1       2.755   5.488  10.388  1.00  0.00    -0.297 OA
HETATM   23  C27 UNL     1       0.909   4.895  11.783  1.00  0.00     0.080 C 
HETATM   24  C28 UNL     1       0.727   5.503  13.166  1.00  0.00     0.020 C 
HETATM   25  C29 UNL     1      -0.030   6.872  13.167  1.00  0.00    -0.004 C 
HETATM   26  C30 UNL     1       0.726   7.801  14.154  1.00  0.00     0.019 C 
ENDROOT
BRANCH   1  27
HETATM   27  C7  UNL     1      -6.618   6.302  15.977  1.00  0.00    -0.014 C 
HETATM   28  C8  UNL     1      -7.492   5.041  15.961  1.00  0.00     0.010 C 
BRANCH  27  29
HETATM   29  C6  UNL     1      -7.478   7.566  16.190  1.00  0.00     0.007 C 
BRANCH  29  30
HETATM   30  C5  UNL     1      -8.440   7.965  15.054  1.00  0.00     0.036 C 
BRANCH  30  31
HETATM   31  C4  UNL     1      -9.928   7.972  15.449  1.00  0.00     0.146 C 
BRANCH  31  32
HETATM   32  C2  UNL     1     -10.830   8.897  14.650  1.00  0.00    -0.065 C 
HETATM   33  C1  UNL     1     -11.885   8.508  13.913  1.00  0.00     0.016 C 
HETATM   34  C3  UNL     1     -10.455  10.357  14.725  1.00  0.00     0.045 C 
ENDBRANCH  31  32
BRANCH  31  35
HETATM   35  O1  UNL     1     -10.467   6.662  15.305  1.00  0.00    -0.391 OA
HETATM   36  H7  UNL     1     -10.508   6.482  14.349  1.00  0.00     0.210 HD
ENDBRANCH  31  35
ENDBRANCH  30  31
ENDBRANCH  29  30
ENDBRANCH  27  29
ENDBRANCH   1  27
TORSDOF 6
ENDMDL
MODEL 4
REMARK minimizedAffinity -8.70871735
REMARK  6 active torsions:
REMARK  status: ('A' for Active; 'I' for Inactive)
REMARK    1  A    between atoms: C2_2  and  C4_4 
REMARK    2  A    between atoms: C4_4  and  O1_5 
REMARK    3  A    between atoms: C4_4  and  C5_6 
REMARK    4  A    between atoms: C5_6  and  C6_7 
REMARK    5  A    between atoms: C6_7  and  C7_8 
REMARK    6  A    between atoms: C7_8  and  C9_10 
ROOT
HETATM    1  C9  UNL     1      -2.188   6.637  13.294  1.00  0.00    -0.001 C 
HETATM    2  C10 UNL     1      -1.964   5.780  12.016  1.00  0.00     0.007 C 
HETATM    3  C11 UNL     1      -0.553   6.106  11.486  1.00  0.00     0.024 C 
HETATM    4  C12 UNL     1       0.051   7.006  12.538  1.00  0.00     0.092 C 
HETATM    5  C13 UNL     1       0.767   6.188  13.648  1.00  0.00     0.272 C 
HETATM    6  O2  UNL     1       0.544   5.041  13.996  1.00  0.00    -0.264 OA
HETATM    7  O3  UNL     1       1.743   6.985  14.218  1.00  0.00    -0.305 OA
HETATM    8  C14 UNL     1       1.742   8.272  13.553  1.00  0.00     0.113 C 
HETATM    9  C15 UNL     1       0.698   9.158  14.306  1.00  0.00     0.043 C 
HETATM   10  C16 UNL     1      -0.690   8.477  14.461  1.00  0.00     0.014 C 
HETATM   11  C17 UNL     1      -1.158   7.800  13.146  1.00  0.00    -0.020 C 
HETATM   12  C18 UNL     1      -1.690   8.902  12.204  1.00  0.00     0.017 C 
HETATM   13  C19 UNL     1       1.181   7.902  12.212  1.00  0.00     0.137 A 
HETATM   14  O4  UNL     1       1.132   8.834  11.150  1.00  0.00    -0.364 OA
HETATM   15  C20 UNL     1       2.054   7.736  10.989  1.00  0.00     0.162 A 
HETATM   16  C21 UNL     1       3.503   8.109  11.054  1.00  0.00     0.042 C 
HETATM   17  C22 UNL     1       4.038   7.938  12.494  1.00  0.00     0.014 C 
HETATM   18  C23 UNL     1       5.597   7.980  12.623  1.00  0.00     0.018 C 
HETATM   19  C24 UNL     1       6.215   6.754  11.913  1.00  0.00     0.023 C 
HETATM   20  C25 UNL     1       6.255   9.245  12.056  1.00  0.00     0.023 C 
HETATM   21  C26 UNL     1       5.994   7.860  14.102  1.00  0.00     0.135 C 
HETATM   22  O5  UNL     1       7.170   7.916  14.469  1.00  0.00    -0.297 OA
HETATM   23  C27 UNL     1       4.882   7.649  15.099  1.00  0.00     0.080 C 
HETATM   24  C28 UNL     1       3.871   8.773  14.930  1.00  0.00     0.020 C 
HETATM   25  C29 UNL     1       3.216   8.836  13.510  1.00  0.00    -0.004 C 
HETATM   26  C30 UNL     1       3.178  10.332  13.100  1.00  0.00     0.019 C 
ENDROOT
BRANCH   1  27
HETATM   27  C7  UNL     1      -3.691   6.863  13.644  1.00  0.00    -0.014 C 
HETATM   28  C8  UNL     1      -4.012   7.266  15.089  1.00  0.00     0.010 C 
BRANCH  27  29
HETATM   29  C6  UNL     1      -4.556   5.664  13.201  1.00  0.00     0.007 C 
BRANCH  29  30
HETATM   30  C5  UNL     1      -5.951   5.526  13.841  1.00  0.00     0.036 C 
BRANCH  30  31
HETATM   31  C4  UNL     1      -6.999   4.836  12.948  1.00  0.00     0.146 C 
BRANCH  31  32
HETATM   32  C2  UNL     1      -6.623   3.465  12.410  1.00  0.00    -0.065 C 
HETATM   33  C1  UNL     1      -5.599   3.211  11.576  1.00  0.00     0.016 C 
HETATM   34  C3  UNL     1      -7.512   2.341  12.883  1.00  0.00     0.045 C 
ENDBRANCH  31  32
BRANCH  31  35
HETATM   35  O1  UNL     1      -8.210   4.663  13.677  1.00  0.00    -0.391 OA
HETATM   36  H7  UNL     1      -8.034   3.984  14.352  1.00  0.00     0.210 HD
ENDBRANCH  31  35
ENDBRANCH  30  31
ENDBRANCH  29  30
ENDBRANCH  27  29
ENDBRANCH   1  27
TORSDOF 6
ENDMDL
MODEL 5
REMARK minimizedAffinity -8.62876129
REMARK  6 active torsions:
REMARK  status: ('A' for Active; 'I' for Inactive)
REMARK    1  A    between atoms: C2_2  and  C4_4 
REMARK    2  A    between atoms: C4_4  and  O1_5 
REMARK    3  A    between atoms: C4_4  and  C5_6 
REMARK    4  A    between atoms: C5_6  and  C6_7 
REMARK    5  A    between atoms: C6_7  and  C7_8 
REMARK    6  A    between atoms: C7_8  and  C9_10 
ROOT
HETATM    1  C9  UNL     1      -2.758   5.677  13.586  1.00  0.00    -0.001 C 
HETATM    2  C10 UNL     1      -1.580   6.027  12.635  1.00  0.00     0.007 C 
HETATM    3  C11 UNL     1      -1.158   7.478  12.940  1.00  0.00     0.024 C 
HETATM    4  C12 UNL     1      -1.981   7.869  14.144  1.00  0.00     0.092 C 
HETATM    5  C13 UNL     1      -1.269   7.490  15.472  1.00  0.00     0.272 C 
HETATM    6  O2  UNL     1      -0.445   6.610  15.655  1.00  0.00    -0.264 OA
HETATM    7  O3  UNL     1      -1.725   8.332  16.469  1.00  0.00    -0.305 OA
HETATM    8  C14 UNL     1      -2.677   9.261  15.897  1.00  0.00     0.113 C 
HETATM    9  C15 UNL     1      -4.073   8.562  15.966  1.00  0.00     0.043 C 
HETATM   10  C16 UNL     1      -4.076   7.131  15.358  1.00  0.00     0.014 C 
HETATM   11  C17 UNL     1      -3.323   7.071  14.003  1.00  0.00    -0.020 C 
HETATM   12  C18 UNL     1      -4.256   7.645  12.914  1.00  0.00     0.017 C 
HETATM   13  C19 UNL     1      -2.225   9.291  14.467  1.00  0.00     0.137 A 
HETATM   14  O4  UNL     1      -2.782  10.199  13.536  1.00  0.00    -0.364 OA
HETATM   15  C20 UNL     1      -1.406  10.430  13.904  1.00  0.00     0.162 A 
HETATM   16  C21 UNL     1      -1.167  11.654  14.731  1.00  0.00     0.042 C 
HETATM   17  C22 UNL     1      -1.181  11.298  16.235  1.00  0.00     0.014 C 
HETATM   18  C23 UNL     1      -0.624  12.416  17.179  1.00  0.00     0.018 C 
HETATM   19  C24 UNL     1       0.886  12.615  16.920  1.00  0.00     0.023 C 
HETATM   20  C25 UNL     1      -1.318  13.777  17.042  1.00  0.00     0.023 C 
HETATM   21  C26 UNL     1      -0.750  11.962  18.641  1.00  0.00     0.135 C 
HETATM   22  O5  UNL     1      -0.422  12.692  19.580  1.00  0.00    -0.297 OA
HETATM   23  C27 UNL     1      -1.276  10.571  18.889  1.00  0.00     0.080 C 
HETATM   24  C28 UNL     1      -2.624  10.441  18.196  1.00  0.00     0.020 C 
HETATM   25  C29 UNL     1      -2.567  10.646  16.646  1.00  0.00    -0.004 C 
HETATM   26  C30 UNL     1      -3.786  11.529  16.267  1.00  0.00     0.019 C 
ENDROOT
BRANCH   1  27
HETATM   27  C7  UNL     1      -3.654   4.507  13.075  1.00  0.00    -0.014 C 
HETATM   28  C8  UNL     1      -3.276   3.885  11.725  1.00  0.00     0.010 C 
BRANCH  27  29
HETATM   29  C6  UNL     1      -5.149   4.892  13.105  1.00  0.00     0.007 C 
BRANCH  29  30
HETATM   30  C5  UNL     1      -6.173   3.758  12.911  1.00  0.00     0.036 C 
BRANCH  30  31
HETATM   31  C4  UNL     1      -7.377   3.812  13.870  1.00  0.00     0.146 C 
BRANCH  31  32
HETATM   32  C2  UNL     1      -7.747   5.184  14.405  1.00  0.00    -0.065 C 
HETATM   33  C1  UNL     1      -8.320   6.169  13.691  1.00  0.00     0.016 C 
HETATM   34  C3  UNL     1      -7.414   5.401  15.861  1.00  0.00     0.045 C 
ENDBRANCH  31  32
BRANCH  31  35
HETATM   35  O1  UNL     1      -8.537   3.311  13.211  1.00  0.00    -0.391 OA
HETATM   36  H7  UNL     1      -8.779   3.971  12.537  1.00  0.00     0.210 HD
ENDBRANCH  31  35
ENDBRANCH  30  31
ENDBRANCH  29  30
ENDBRANCH  27  29
ENDBRANCH   1  27
TORSDOF 6
ENDMDL
MODEL 6
REMARK minimizedAffinity -8.49828529
REMARK  6 active torsions:
REMARK  status: ('A' for Active; 'I' for Inactive)
REMARK    1  A    between atoms: C2_2  and  C4_4 
REMARK    2  A    between atoms: C4_4  and  O1_5 
REMARK    3  A    between atoms: C4_4  and  C5_6 
REMARK    4  A    between atoms: C5_6  and  C6_7 
REMARK    5  A    between atoms: C6_7  and  C7_8 
REMARK    6  A    between atoms: C7_8  and  C9_10 
ROOT
HETATM    1  C9  UNL     1      -1.244   6.360  12.147  1.00  0.00    -0.001 C 
HETATM    2  C10 UNL     1      -2.432   5.696  12.897  1.00  0.00     0.007 C 
HETATM    3  C11 UNL     1      -2.711   6.541  14.156  1.00  0.00     0.024 C 
HETATM    4  C12 UNL     1      -1.798   7.737  14.021  1.00  0.00     0.092 C 
HETATM    5  C13 UNL     1      -2.475   8.886  13.225  1.00  0.00     0.272 C 
HETATM    6  O2  UNL     1      -3.363   8.799  12.394  1.00  0.00    -0.264 OA
HETATM    7  O3  UNL     1      -1.899  10.083  13.608  1.00  0.00    -0.305 OA
HETATM    8  C14 UNL     1      -0.898   9.817  14.620  1.00  0.00     0.113 C 
HETATM    9  C15 UNL     1       0.433   9.518  13.858  1.00  0.00     0.043 C 
HETATM   10  C16 UNL     1       0.281   8.432  12.756  1.00  0.00     0.014 C 
HETATM   11  C17 UNL     1      -0.539   7.211  13.249  1.00  0.00    -0.020 C 
HETATM   12  C18 UNL     1       0.386   6.337  14.124  1.00  0.00     0.017 C 
HETATM   13  C19 UNL     1      -1.415   8.536  15.205  1.00  0.00     0.137 A 
HETATM   14  O4  UNL     1      -0.827   7.960  16.355  1.00  0.00    -0.364 OA
HETATM   15  C20 UNL     1      -2.158   8.492  16.521  1.00  0.00     0.162 A 
HETATM   16  C21 UNL     1      -2.248   9.725  17.365  1.00  0.00     0.042 C 
HETATM   17  C22 UNL     1      -2.191  10.989  16.479  1.00  0.00     0.014 C 
HETATM   18  C23 UNL     1      -2.602  12.316  17.201  1.00  0.00     0.018 C 
HETATM   19  C24 UNL     1      -4.100  12.266  17.577  1.00  0.00     0.023 C 
HETATM   20  C25 UNL     1      -1.799  12.631  18.470  1.00  0.00     0.023 C 
HETATM   21  C26 UNL     1      -2.445  13.498  16.233  1.00  0.00     0.135 C 
HETATM   22  O5  UNL     1      -2.662  14.661  16.583  1.00  0.00    -0.297 OA
HETATM   23  C27 UNL     1      -2.031  13.180  14.818  1.00  0.00     0.080 C 
HETATM   24  C28 UNL     1      -0.736  12.384  14.868  1.00  0.00     0.020 C 
HETATM   25  C29 UNL     1      -0.850  11.025  15.635  1.00  0.00    -0.004 C 
HETATM   26  C30 UNL     1       0.422  10.901  16.516  1.00  0.00     0.019 C 
ENDROOT
BRANCH   1  27
HETATM   27  C7  UNL     1      -0.480   5.389  11.194  1.00  0.00    -0.014 C 
HETATM   28  C8  UNL     1      -0.149   3.997  11.745  1.00  0.00     0.010 C 
BRANCH  27  29
HETATM   29  C6  UNL     1       0.777   6.061  10.601  1.00  0.00     0.007 C 
BRANCH  29  30
HETATM   30  C5  UNL     1       2.125   5.345  10.810  1.00  0.00     0.036 C 
BRANCH  30  31
HETATM   31  C4  UNL     1       3.101   5.460   9.624  1.00  0.00     0.146 C 
BRANCH  31  32
HETATM   32  C2  UNL     1       3.021   6.741   8.812  1.00  0.00    -0.065 C 
HETATM   33  C1  UNL     1       3.512   7.935   9.192  1.00  0.00     0.016 C 
HETATM   34  C3  UNL     1       2.318   6.600   7.484  1.00  0.00     0.045 C 
ENDBRANCH  31  32
BRANCH  31  35
HETATM   35  O1  UNL     1       4.441   5.367  10.097  1.00  0.00    -0.391 OA
HETATM   36  H7  UNL     1       4.619   6.187  10.592  1.00  0.00     0.210 HD
ENDBRANCH  31  35
ENDBRANCH  30  31
ENDBRANCH  29  30
ENDBRANCH  27  29
ENDBRANCH   1  27
TORSDOF 6
ENDMDL
MODEL 7
REMARK minimizedAffinity -8.48931503
REMARK  6 active torsions:
REMARK  status: ('A' for Active; 'I' for Inactive)
REMARK    1  A    between atoms: C2_2  and  C4_4 
REMARK    2  A    between atoms: C4_4  and  O1_5 
REMARK    3  A    between atoms: C4_4  and  C5_6 
REMARK    4  A    between atoms: C5_6  and  C6_7 
REMARK    5  A    between atoms: C6_7  and  C7_8 
REMARK    6  A    between atoms: C7_8  and  C9_10 
ROOT
HETATM    1  C9  UNL     1      -2.462   7.280  12.842  1.00  0.00    -0.001 C 
HETATM    2  C10 UNL     1      -2.949   8.747  13.004  1.00  0.00     0.007 C 
HETATM    3  C11 UNL     1      -1.723   9.600  13.384  1.00  0.00     0.024 C 
HETATM    4  C12 UNL     1      -0.552   8.652  13.279  1.00  0.00     0.092 C 
HETATM    5  C13 UNL     1       0.038   8.627  11.842  1.00  0.00     0.272 C 
HETATM    6  O2  UNL     1      -0.530   8.887  10.795  1.00  0.00    -0.264 OA
HETATM    7  O3  UNL     1       1.365   8.247  11.921  1.00  0.00    -0.305 OA
HETATM    8  C14 UNL     1       1.709   8.036  13.311  1.00  0.00     0.113 C 
HETATM    9  C15 UNL     1       1.353   6.549  13.635  1.00  0.00     0.043 C 
HETATM   10  C16 UNL     1      -0.098   6.162  13.231  1.00  0.00     0.014 C 
HETATM   11  C17 UNL     1      -1.128   7.242  13.652  1.00  0.00    -0.020 C 
HETATM   12  C18 UNL     1      -1.397   7.081  15.165  1.00  0.00     0.017 C 
HETATM   13  C19 UNL     1       0.714   8.928  13.992  1.00  0.00     0.137 A 
HETATM   14  O4  UNL     1       0.768   9.165  15.385  1.00  0.00    -0.364 OA
HETATM   15  C20 UNL     1       1.089  10.287  14.537  1.00  0.00     0.162 A 
HETATM   16  C21 UNL     1       2.525  10.710  14.558  1.00  0.00     0.042 C 
HETATM   17  C22 UNL     1       3.304  10.022  13.414  1.00  0.00     0.014 C 
HETATM   18  C23 UNL     1       4.721  10.626  13.132  1.00  0.00     0.018 C 
HETATM   19  C24 UNL     1       4.578  12.067  12.591  1.00  0.00     0.023 C 
HETATM   20  C25 UNL     1       5.658  10.660  14.346  1.00  0.00     0.023 C 
HETATM   21  C26 UNL     1       5.410   9.820  12.020  1.00  0.00     0.135 C 
HETATM   22  O5  UNL     1       6.559  10.071  11.650  1.00  0.00    -0.297 OA
HETATM   23  C27 UNL     1       4.615   8.712  11.378  1.00  0.00     0.080 C 
HETATM   24  C28 UNL     1       4.140   7.769  12.474  1.00  0.00     0.020 C 
HETATM   25  C29 UNL     1       3.217   8.445  13.541  1.00  0.00    -0.004 C 
HETATM   26  C30 UNL     1       3.680   7.923  14.928  1.00  0.00     0.019 C 
ENDROOT
BRANCH   1  27
HETATM   27  C7  UNL     1      -3.593   6.219  13.004  1.00  0.00    -0.014 C 
HETATM   28  C8  UNL     1      -4.537   6.390  14.201  1.00  0.00     0.010 C 
BRANCH  27  29
HETATM   29  C6  UNL     1      -3.028   4.784  12.948  1.00  0.00     0.007 C 
BRANCH  29  30
HETATM   30  C5  UNL     1      -3.367   3.940  11.705  1.00  0.00     0.036 C 
BRANCH  30  31
HETATM   31  C4  UNL     1      -3.977   2.560  12.015  1.00  0.00     0.146 C 
BRANCH  31  32
HETATM   32  C2  UNL     1      -5.457   2.399  11.711  1.00  0.00    -0.065 C 
HETATM   33  C1  UNL     1      -6.008   1.361  11.057  1.00  0.00     0.016 C 
HETATM   34  C3  UNL     1      -6.326   3.529  12.206  1.00  0.00     0.045 C 
ENDBRANCH  31  32
BRANCH  31  35
HETATM   35  O1  UNL     1      -3.301   1.558  11.263  1.00  0.00    -0.391 OA
HETATM   36  H7  UNL     1      -3.553   1.691  10.332  1.00  0.00     0.210 HD
ENDBRANCH  31  35
ENDBRANCH  30  31
ENDBRANCH  29  30
ENDBRANCH  27  29
ENDBRANCH   1  27
TORSDOF 6
ENDMDL
MODEL 8
REMARK minimizedAffinity -8.48911858
REMARK  6 active torsions:
REMARK  status: ('A' for Active; 'I' for Inactive)
REMARK    1  A    between atoms: C2_2  and  C4_4 
REMARK    2  A    between atoms: C4_4  and  O1_5 
REMARK    3  A    between atoms: C4_4  and  C5_6 
REMARK    4  A    between atoms: C5_6  and  C6_7 
REMARK    5  A    between atoms: C6_7  and  C7_8 
REMARK    6  A    between atoms: C7_8  and  C9_10 
ROOT
HETATM    1  C9  UNL     1      -4.058   7.270  13.311  1.00  0.00    -0.001 C 
HETATM    2  C10 UNL     1      -4.509   8.693  13.742  1.00  0.00     0.007 C 
HETATM    3  C11 UNL     1      -3.266   9.426  14.284  1.00  0.00     0.024 C 
HETATM    4  C12 UNL     1      -2.119   8.481  14.011  1.00  0.00     0.092 C 
HETATM    5  C13 UNL     1      -1.512   8.710  12.600  1.00  0.00     0.272 C 
HETATM    6  O2  UNL     1      -2.060   9.177  11.616  1.00  0.00    -0.264 OA
HETATM    7  O3  UNL     1      -0.196   8.285  12.615  1.00  0.00    -0.305 OA
HETATM    8  C14 UNL     1       0.125   7.808  13.943  1.00  0.00     0.113 C 
HETATM    9  C15 UNL     1      -0.273   6.297  13.979  1.00  0.00     0.043 C 
HETATM   10  C16 UNL     1      -1.728   6.033  13.500  1.00  0.00     0.014 C 
HETATM   11  C17 UNL     1      -2.736   7.043  14.109  1.00  0.00    -0.020 C 
HETATM   12  C18 UNL     1      -3.027   6.608  15.562  1.00  0.00     0.017 C 
HETATM   13  C19 UNL     1      -0.855   8.583  14.773  1.00  0.00     0.137 A 
HETATM   14  O4  UNL     1      -0.812   8.553  16.186  1.00  0.00    -0.364 OA
HETATM   15  C20 UNL     1      -0.452   9.806  15.566  1.00  0.00     0.162 A 
HETATM   16  C21 UNL     1       0.994  10.176  15.676  1.00  0.00     0.042 C 
HETATM   17  C22 UNL     1       1.770   9.695  14.430  1.00  0.00     0.014 C 
HETATM   18  C23 UNL     1       3.205  10.301  14.276  1.00  0.00     0.018 C 
HETATM   19  C24 UNL     1       3.106  11.821  14.014  1.00  0.00     0.023 C 
HETATM   20  C25 UNL     1       4.128  10.081  15.481  1.00  0.00     0.023 C 
HETATM   21  C26 UNL     1       3.887   9.699  13.038  1.00  0.00     0.135 C 
HETATM   22  O5  UNL     1       5.047   9.983  12.729  1.00  0.00    -0.297 OA
HETATM   23  C27 UNL     1       3.071   8.753  12.193  1.00  0.00     0.080 C 
HETATM   24  C28 UNL     1       2.558   7.636  13.089  1.00  0.00     0.020 C 
HETATM   25  C29 UNL     1       1.640   8.124  14.257  1.00  0.00    -0.004 C 
HETATM   26  C30 UNL     1       2.073   7.339  15.525  1.00  0.00     0.019 C 
ENDROOT
BRANCH   1  27
HETATM   27  C7  UNL     1      -5.219   6.229  13.262  1.00  0.00    -0.014 C 
HETATM   28  C8  UNL     1      -6.253   6.293  14.393  1.00  0.00     0.010 C 
BRANCH  27  29
HETATM   29  C6  UNL     1      -4.677   4.793  13.091  1.00  0.00     0.007 C 
BRANCH  29  30
HETATM   30  C5  UNL     1      -5.548   3.801  12.297  1.00  0.00     0.036 C 
BRANCH  30  31
HETATM   31  C4  UNL     1      -4.906   3.285  10.996  1.00  0.00     0.146 C 
BRANCH  31  32
HETATM   32  C2  UNL     1      -3.427   2.948  11.066  1.00  0.00    -0.065 C 
HETATM   33  C1  UNL     1      -2.431   3.716  10.589  1.00  0.00     0.016 C 
HETATM   34  C3  UNL     1      -3.114   1.631  11.732  1.00  0.00     0.045 C 
ENDBRANCH  31  32
BRANCH  31  35
HETATM   35  O1  UNL     1      -5.569   2.098  10.573  1.00  0.00    -0.391 OA
HETATM   36  H7  UNL     1      -5.329   1.403  11.211  1.00  0.00     0.210 HD
ENDBRANCH  31  35
ENDBRANCH  30  31
ENDBRANCH  29  30
ENDBRANCH  27  29
ENDBRANCH   1  27
TORSDOF 6
ENDMDL
MODEL 9
REMARK minimizedAffinity -8.47691441
REMARK  6 active torsions:
REMARK  status: ('A' for Active; 'I' for Inactive)
REMARK    1  A    between atoms: C2_2  and  C4_4 
REMARK    2  A    between atoms: C4_4  and  O1_5 
REMARK    3  A    between atoms: C4_4  and  C5_6 
REMARK    4  A    between atoms: C5_6  and  C6_7 
REMARK    5  A    between atoms: C6_7  and  C7_8 
REMARK    6  A    between atoms: C7_8  and  C9_10 
ROOT
HETATM    1  C9  UNL     1      -2.945   5.942  12.797  1.00  0.00    -0.001 C 
HETATM    2  C10 UNL     1      -3.804   7.146  13.276  1.00  0.00     0.007 C 
HETATM    3  C11 UNL     1      -2.857   8.130  13.993  1.00  0.00     0.024 C 
HETATM    4  C12 UNL     1      -1.477   7.556  13.776  1.00  0.00     0.092 C 
HETATM    5  C13 UNL     1      -0.845   8.071  12.453  1.00  0.00     0.272 C 
HETATM    6  O2  UNL     1      -1.419   8.465  11.452  1.00  0.00    -0.264 OA
HETATM    7  O3  UNL     1       0.531   8.014  12.575  1.00  0.00    -0.305 OA
HETATM    8  C14 UNL     1       0.864   7.516  13.893  1.00  0.00     0.113 C 
HETATM    9  C15 UNL     1       0.894   5.958  13.784  1.00  0.00     0.043 C 
HETATM   10  C16 UNL     1      -0.388   5.361  13.140  1.00  0.00     0.014 C 
HETATM   11  C17 UNL     1      -1.680   6.003  13.710  1.00  0.00    -0.020 C 
HETATM   12  C18 UNL     1      -1.957   5.371  15.092  1.00  0.00     0.017 C 
HETATM   13  C19 UNL     1      -0.356   7.920  14.668  1.00  0.00     0.137 A 
HETATM   14  O4  UNL     1      -0.420   7.770  16.073  1.00  0.00    -0.364 OA
HETATM   15  C20 UNL     1      -0.369   9.125  15.581  1.00  0.00     0.162 A 
HETATM   16  C21 UNL     1       0.905   9.857  15.866  1.00  0.00     0.042 C 
HETATM   17  C22 UNL     1       1.881   9.720  14.675  1.00  0.00     0.014 C 
HETATM   18  C23 UNL     1       3.102  10.699  14.712  1.00  0.00     0.018 C 
HETATM   19  C24 UNL     1       2.610  12.155  14.547  1.00  0.00     0.023 C 
HETATM   20  C25 UNL     1       3.950  10.621  15.988  1.00  0.00     0.023 C 
HETATM   21  C26 UNL     1       4.020  10.421  13.513  1.00  0.00     0.135 C 
HETATM   22  O5  UNL     1       5.078  11.033  13.346  1.00  0.00    -0.297 OA
HETATM   23  C27 UNL     1       3.567   9.376  12.525  1.00  0.00     0.080 C 
HETATM   24  C28 UNL     1       3.311   8.083  13.285  1.00  0.00     0.020 C 
HETATM   25  C29 UNL     1       2.203   8.195  14.383  1.00  0.00    -0.004 C 
HETATM   26  C30 UNL     1       2.731   7.439  15.631  1.00  0.00     0.019 C 
ENDROOT
BRANCH   1  27
HETATM   27  C7  UNL     1      -3.767   4.638  12.558  1.00  0.00    -0.014 C 
HETATM   28  C8  UNL     1      -3.616   3.967  11.187  1.00  0.00     0.010 C 
BRANCH  27  29
HETATM   29  C6  UNL     1      -5.256   4.842  12.912  1.00  0.00     0.007 C 
BRANCH  29  30
HETATM   30  C5  UNL     1      -6.178   3.611  12.816  1.00  0.00     0.036 C 
BRANCH  30  31
HETATM   31  C4  UNL     1      -7.398   3.651  13.755  1.00  0.00     0.146 C 
BRANCH  31  32
HETATM   32  C2  UNL     1      -7.818   5.025  14.250  1.00  0.00    -0.065 C 
HETATM   33  C1  UNL     1      -8.466   5.950  13.519  1.00  0.00     0.016 C 
HETATM   34  C3  UNL     1      -7.446   5.317  15.683  1.00  0.00     0.045 C 
ENDBRANCH  31  32
BRANCH  31  35
HETATM   35  O1  UNL     1      -8.531   3.099  13.092  1.00  0.00    -0.391 OA
HETATM   36  H7  UNL     1      -8.784   3.733  12.398  1.00  0.00     0.210 HD
ENDBRANCH  31  35
ENDBRANCH  30  31
ENDBRANCH  29  30
ENDBRANCH  27  29
ENDBRANCH   1  27
TORSDOF 6
ENDMDL
