MODEL 1
REMARK minimizedAffinity -8.13306522
REMARK CNNscore 0.855535746
REMARK CNNaffinity 7.64157248
REMARK  13 active torsions:
REMARK  status: ('A' for Active; 'I' for Inactive)
REMARK    1  A    between atoms: C4_4  and  C5_5 
REMARK    2  A    between atoms: C5_5  and  C6_6 
REMARK    3  A    between atoms: C6_6  and  C7_7 
REMARK    4  A    between atoms: C7_7  and  O1_9 
REMARK    5  A    between atoms: C7_7  and  C9_10 
REMARK    6  A    between atoms: C9_10  and  O2_11 
REMARK    7  A    between atoms: C9_10  and  C10_12 
REMARK    8  A    between atoms: C10_12  and  C11_13 
REMARK    9  A    between atoms: C11_13  and  C12_14 
REMARK   10  A    between atoms: C14_16  and  C15_17 
REMARK   11  A    between atoms: C15_17  and  C16_18 
REMARK   12  A    between atoms: C16_18  and  C17_19 
REMARK   13  A    between atoms: C23_25  and  O3_26 
ROOT
HETATM    1  C12 UNL     1      -2.812  48.395 -21.687  1.00  0.00    -0.087 C 
HETATM    2  C13 UNL     1      -4.115  49.045 -21.296  1.00  0.00     0.043 C 
HETATM    3  C14 UNL     1      -1.854  48.022 -20.811  1.00  0.00    -0.024 C 
ENDROOT
BRANCH   1   4
HETATM    4  C11 UNL     1      -2.641  48.229 -23.193  1.00  0.00     0.036 C 
BRANCH   4   5
HETATM    5  C10 UNL     1      -3.818  48.575 -24.109  1.00  0.00     0.039 C 
BRANCH   5   6
HETATM    6  C9  UNL     1      -3.611  49.699 -25.138  1.00  0.00     0.152 C 
BRANCH   6   7
HETATM    7  C7  UNL     1      -3.428  49.321 -26.645  1.00  0.00     0.080 C 
HETATM    8  C8  UNL     1      -4.589  48.483 -27.187  1.00  0.00     0.048 C 
BRANCH   7   9
HETATM    9  C6  UNL     1      -3.144  50.564 -27.525  1.00  0.00     0.044 C 
BRANCH   9  10
HETATM   10  C5  UNL     1      -2.156  51.602 -26.969  1.00  0.00     0.030 C 
BRANCH  10  11
HETATM   11  C4  UNL     1      -0.819  51.608 -27.656  1.00  0.00    -0.025 C 
HETATM   12  C2  UNL     1       0.401  51.671 -27.087  1.00  0.00    -0.091 C 
HETATM   13  C1  UNL     1       0.666  51.699 -25.607  1.00  0.00     0.042 C 
HETATM   14  C3  UNL     1       1.641  51.701 -27.940  1.00  0.00     0.042 C 
ENDBRANCH  10  11
ENDBRANCH   9  10
ENDBRANCH   7   9
BRANCH   7  15
HETATM   15  O1  UNL     1      -2.276  48.453 -26.686  1.00  0.00    -0.388 OA
HETATM   16  H15 UNL     1      -1.614  48.902 -26.119  1.00  0.00     0.210 HD
ENDBRANCH   7  15
ENDBRANCH   6   7
BRANCH   6  17
HETATM   17  O2  UNL     1      -4.788  50.544 -25.069  1.00  0.00    -0.393 OA
HETATM   18  H17 UNL     1      -4.822  50.911 -24.168  1.00  0.00     0.210 HD
ENDBRANCH   6  17
ENDBRANCH   5   6
ENDBRANCH   4   5
ENDBRANCH   1   4
BRANCH   3  19
HETATM   19  C15 UNL     1      -1.738  48.069 -19.302  1.00  0.00     0.030 C 
BRANCH  19  20
HETATM   20  C16 UNL     1      -0.880  49.145 -18.638  1.00  0.00     0.042 C 
BRANCH  20  21
HETATM   21  C17 UNL     1      -1.449  50.592 -18.613  1.00  0.00     0.065 C 
HETATM   22  C18 UNL     1      -2.936  50.463 -18.200  1.00  0.00     0.046 C 
HETATM   23  C19 UNL     1      -0.787  51.538 -17.596  1.00  0.00     0.043 C 
HETATM   24  C20 UNL     1       0.519  52.142 -18.072  1.00  0.00     0.044 C 
HETATM   25  C21 UNL     1       0.428  52.543 -19.510  1.00  0.00    -0.021 A 
HETATM   26  C22 UNL     1       1.365  53.447 -20.029  1.00  0.00     0.046 A 
HETATM   27  C27 UNL     1      -0.553  52.014 -20.354  1.00  0.00     0.082 A 
HETATM   28  C23 UNL     1       1.301  53.831 -21.363  1.00  0.00     0.066 A 
HETATM   29  C24 UNL     1       0.321  53.321 -22.206  1.00  0.00     0.046 A 
HETATM   30  C25 UNL     1      -0.616  52.404 -21.706  1.00  0.00    -0.025 A 
HETATM   31  C26 UNL     1      -1.671  51.840 -22.616  1.00  0.00     0.051 C 
HETATM   32  O4  UNL     1      -1.495  51.113 -19.949  1.00  0.00    -0.340 OA
BRANCH  28  33
HETATM   33  O3  UNL     1       2.228  54.727 -21.811  1.00  0.00    -0.361 OA
HETATM   34  H38 UNL     1       2.049  54.913 -22.747  1.00  0.00     0.217 HD
ENDBRANCH  28  33
ENDBRANCH  20  21
ENDBRANCH  19  20
ENDBRANCH   3  19
TORSDOF 13
ENDMDL
MODEL 2
REMARK minimizedAffinity -8.37285137
REMARK CNNscore 0.814601183
REMARK CNNaffinity 7.75398064
REMARK  13 active torsions:
REMARK  status: ('A' for Active; 'I' for Inactive)
REMARK    1  A    between atoms: C4_4  and  C5_5 
REMARK    2  A    between atoms: C5_5  and  C6_6 
REMARK    3  A    between atoms: C6_6  and  C7_7 
REMARK    4  A    between atoms: C7_7  and  O1_9 
REMARK    5  A    between atoms: C7_7  and  C9_10 
REMARK    6  A    between atoms: C9_10  and  O2_11 
REMARK    7  A    between atoms: C9_10  and  C10_12 
REMARK    8  A    between atoms: C10_12  and  C11_13 
REMARK    9  A    between atoms: C11_13  and  C12_14 
REMARK   10  A    between atoms: C14_16  and  C15_17 
REMARK   11  A    between atoms: C15_17  and  C16_18 
REMARK   12  A    between atoms: C16_18  and  C17_19 
REMARK   13  A    between atoms: C23_25  and  O3_26 
ROOT
HETATM    1  C12 UNL     1      -4.663  50.890 -23.067  1.00  0.00    -0.087 C 
HETATM    2  C13 UNL     1      -4.095  52.124 -23.721  1.00  0.00     0.043 C 
HETATM    3  C14 UNL     1      -4.435  50.533 -21.784  1.00  0.00    -0.024 C 
ENDROOT
BRANCH   1   4
HETATM    4  C11 UNL     1      -5.503  50.033 -24.008  1.00  0.00     0.036 C 
BRANCH   4   5
HETATM    5  C10 UNL     1      -4.802  48.965 -24.852  1.00  0.00     0.039 C 
BRANCH   5   6
HETATM    6  C9  UNL     1      -4.733  49.192 -26.372  1.00  0.00     0.152 C 
BRANCH   6   7
HETATM    7  C7  UNL     1      -3.331  49.282 -27.060  1.00  0.00     0.080 C 
HETATM    8  C8  UNL     1      -3.239  50.436 -28.060  1.00  0.00     0.048 C 
BRANCH   7   9
HETATM    9  C6  UNL     1      -2.178  49.311 -26.026  1.00  0.00     0.044 C 
BRANCH   9  10
HETATM   10  C5  UNL     1      -1.465  50.656 -25.812  1.00  0.00     0.030 C 
BRANCH  10  11
HETATM   11  C4  UNL     1       0.000  50.634 -26.149  1.00  0.00    -0.025 C 
HETATM   12  C2  UNL     1       0.870  51.663 -26.113  1.00  0.00    -0.091 C 
HETATM   13  C1  UNL     1       0.540  53.061 -25.668  1.00  0.00     0.042 C 
HETATM   14  C3  UNL     1       2.306  51.464 -26.521  1.00  0.00     0.042 C 
ENDBRANCH  10  11
ENDBRANCH   9  10
ENDBRANCH   7   9
BRANCH   7  15
HETATM   15  O1  UNL     1      -3.214  48.080 -27.849  1.00  0.00    -0.388 OA
HETATM   16  H15 UNL     1      -3.518  47.366 -27.250  1.00  0.00     0.210 HD
ENDBRANCH   7  15
ENDBRANCH   6   7
BRANCH   6  17
HETATM   17  O2  UNL     1      -5.419  48.072 -26.987  1.00  0.00    -0.393 OA
HETATM   18  H17 UNL     1      -6.343  48.101 -26.682  1.00  0.00     0.210 HD
ENDBRANCH   6  17
ENDBRANCH   5   6
ENDBRANCH   4   5
ENDBRANCH   1   4
BRANCH   3  19
HETATM   19  C15 UNL     1      -3.657  51.158 -20.646  1.00  0.00     0.030 C 
BRANCH  19  20
HETATM   20  C16 UNL     1      -2.922  50.268 -19.646  1.00  0.00     0.042 C 
BRANCH  20  21
HETATM   21  C17 UNL     1      -1.447  49.898 -19.974  1.00  0.00     0.065 C 
HETATM   22  C18 UNL     1      -1.177  48.544 -19.274  1.00  0.00     0.046 C 
HETATM   23  C19 UNL     1      -1.141  49.694 -21.468  1.00  0.00     0.043 C 
HETATM   24  C20 UNL     1      -0.907  50.982 -22.233  1.00  0.00     0.044 C 
HETATM   25  C21 UNL     1      -0.085  51.938 -21.430  1.00  0.00    -0.021 A 
HETATM   26  C22 UNL     1       0.555  53.003 -22.078  1.00  0.00     0.046 A 
HETATM   27  C27 UNL     1       0.037  51.809 -20.044  1.00  0.00     0.082 A 
HETATM   28  C23 UNL     1       1.322  53.905 -21.351  1.00  0.00     0.066 A 
HETATM   29  C24 UNL     1       1.460  53.776 -19.975  1.00  0.00     0.046 A 
HETATM   30  C25 UNL     1       0.814  52.725 -19.308  1.00  0.00    -0.025 A 
HETATM   31  C26 UNL     1       0.950  52.587 -17.817  1.00  0.00     0.051 C 
HETATM   32  O4  UNL     1      -0.564  50.819 -19.319  1.00  0.00    -0.340 OA
BRANCH  28  33
HETATM   33  O3  UNL     1       1.936  54.914 -22.037  1.00  0.00    -0.361 OA
HETATM   34  H38 UNL     1       2.446  55.447 -21.406  1.00  0.00     0.217 HD
ENDBRANCH  28  33
ENDBRANCH  20  21
ENDBRANCH  19  20
ENDBRANCH   3  19
TORSDOF 13
ENDMDL
MODEL 3
REMARK minimizedAffinity -8.80001259
REMARK CNNscore 0.772100866
REMARK CNNaffinity 7.40496778
REMARK  13 active torsions:
REMARK  status: ('A' for Active; 'I' for Inactive)
REMARK    1  A    between atoms: C4_4  and  C5_5 
REMARK    2  A    between atoms: C5_5  and  C6_6 
REMARK    3  A    between atoms: C6_6  and  C7_7 
REMARK    4  A    between atoms: C7_7  and  O1_9 
REMARK    5  A    between atoms: C7_7  and  C9_10 
REMARK    6  A    between atoms: C9_10  and  O2_11 
REMARK    7  A    between atoms: C9_10  and  C10_12 
REMARK    8  A    between atoms: C10_12  and  C11_13 
REMARK    9  A    between atoms: C11_13  and  C12_14 
REMARK   10  A    between atoms: C14_16  and  C15_17 
REMARK   11  A    between atoms: C15_17  and  C16_18 
REMARK   12  A    between atoms: C16_18  and  C17_19 
REMARK   13  A    between atoms: C23_25  and  O3_26 
ROOT
HETATM    1  C12 UNL     1      -5.010  48.421 -24.644  1.00  0.00    -0.087 C 
HETATM    2  C13 UNL     1      -6.515  48.346 -24.696  1.00  0.00     0.043 C 
HETATM    3  C14 UNL     1      -4.297  48.674 -23.525  1.00  0.00    -0.024 C 
ENDROOT
BRANCH   1   4
HETATM    4  C11 UNL     1      -4.343  48.226 -26.001  1.00  0.00     0.036 C 
BRANCH   4   5
HETATM    5  C10 UNL     1      -3.134  49.095 -26.358  1.00  0.00     0.039 C 
BRANCH   5   6
HETATM    6  C9  UNL     1      -3.410  50.504 -26.911  1.00  0.00     0.152 C 
BRANCH   6   7
HETATM    7  C7  UNL     1      -2.895  51.745 -26.111  1.00  0.00     0.080 C 
HETATM    8  C8  UNL     1      -3.911  52.245 -25.082  1.00  0.00     0.048 C 
BRANCH   7   9
HETATM    9  C6  UNL     1      -1.501  51.493 -25.482  1.00  0.00     0.044 C 
BRANCH   9  10
HETATM   10  C5  UNL     1      -0.624  50.415 -26.139  1.00  0.00     0.030 C 
BRANCH  10  11
HETATM   11  C4  UNL     1       0.808  50.827 -26.339  1.00  0.00    -0.025 C 
HETATM   12  C2  UNL     1       1.323  51.560 -27.347  1.00  0.00    -0.091 C 
HETATM   13  C1  UNL     1       0.529  52.164 -28.472  1.00  0.00     0.042 C 
HETATM   14  C3  UNL     1       2.800  51.849 -27.403  1.00  0.00     0.042 C 
ENDBRANCH  10  11
ENDBRANCH   9  10
ENDBRANCH   7   9
BRANCH   7  15
HETATM   15  O1  UNL     1      -2.778  52.806 -27.082  1.00  0.00    -0.388 OA
HETATM   16  H15 UNL     1      -2.331  52.387 -27.847  1.00  0.00     0.210 HD
ENDBRANCH   7  15
ENDBRANCH   6   7
BRANCH   6  17
HETATM   17  O2  UNL     1      -2.775  50.566 -28.214  1.00  0.00    -0.393 OA
HETATM   18  H17 UNL     1      -3.204  49.893 -28.772  1.00  0.00     0.210 HD
ENDBRANCH   6  17
ENDBRANCH   5   6
ENDBRANCH   4   5
ENDBRANCH   1   4
BRANCH   3  19
HETATM   19  C15 UNL     1      -4.671  48.914 -22.078  1.00  0.00     0.030 C 
BRANCH  19  20
HETATM   20  C16 UNL     1      -3.761  49.756 -21.185  1.00  0.00     0.042 C 
BRANCH  20  21
HETATM   21  C17 UNL     1      -2.267  49.331 -21.092  1.00  0.00     0.065 C 
HETATM   22  C18 UNL     1      -2.268  47.797 -20.888  1.00  0.00     0.046 C 
HETATM   23  C19 UNL     1      -1.428  49.610 -22.351  1.00  0.00     0.043 C 
HETATM   24  C20 UNL     1      -0.935  51.039 -22.463  1.00  0.00     0.044 C 
HETATM   25  C21 UNL     1      -0.473  51.548 -21.134  1.00  0.00    -0.021 A 
HETATM   26  C22 UNL     1       0.355  52.678 -21.085  1.00  0.00     0.046 A 
HETATM   27  C27 UNL     1      -0.873  50.941 -19.941  1.00  0.00     0.082 A 
HETATM   28  C23 UNL     1       0.794  53.170 -19.862  1.00  0.00     0.066 A 
HETATM   29  C24 UNL     1       0.413  52.563 -18.671  1.00  0.00     0.046 A 
HETATM   30  C25 UNL     1      -0.429  51.441 -18.702  1.00  0.00    -0.025 A 
HETATM   31  C26 UNL     1      -0.854  50.788 -17.416  1.00  0.00     0.051 C 
HETATM   32  O4  UNL     1      -1.695  49.851 -19.884  1.00  0.00    -0.340 OA
BRANCH  28  33
HETATM   33  O3  UNL     1       1.613  54.262 -19.873  1.00  0.00    -0.361 OA
HETATM   34  H38 UNL     1       1.850  54.478 -18.957  1.00  0.00     0.217 HD
ENDBRANCH  28  33
ENDBRANCH  20  21
ENDBRANCH  19  20
ENDBRANCH   3  19
TORSDOF 13
ENDMDL
MODEL 4
REMARK minimizedAffinity -7.67647791
REMARK CNNscore 0.643924475
REMARK CNNaffinity 7.4875679
REMARK  13 active torsions:
REMARK  status: ('A' for Active; 'I' for Inactive)
REMARK    1  A    between atoms: C4_4  and  C5_5 
REMARK    2  A    between atoms: C5_5  and  C6_6 
REMARK    3  A    between atoms: C6_6  and  C7_7 
REMARK    4  A    between atoms: C7_7  and  O1_9 
REMARK    5  A    between atoms: C7_7  and  C9_10 
REMARK    6  A    between atoms: C9_10  and  O2_11 
REMARK    7  A    between atoms: C9_10  and  C10_12 
REMARK    8  A    between atoms: C10_12  and  C11_13 
REMARK    9  A    between atoms: C11_13  and  C12_14 
REMARK   10  A    between atoms: C14_16  and  C15_17 
REMARK   11  A    between atoms: C15_17  and  C16_18 
REMARK   12  A    between atoms: C16_18  and  C17_19 
REMARK   13  A    between atoms: C23_25  and  O3_26 
ROOT
HETATM    1  C12 UNL     1      -4.886  49.195 -22.904  1.00  0.00    -0.087 C 
HETATM    2  C13 UNL     1      -6.078  50.006 -23.344  1.00  0.00     0.043 C 
HETATM    3  C14 UNL     1      -4.058  48.537 -23.745  1.00  0.00    -0.024 C 
ENDROOT
BRANCH   1   4
HETATM    4  C11 UNL     1      -4.711  49.140 -21.390  1.00  0.00     0.036 C 
BRANCH   4   5
HETATM    5  C10 UNL     1      -3.305  48.934 -20.819  1.00  0.00     0.039 C 
BRANCH   5   6
HETATM    6  C9  UNL     1      -3.127  49.086 -19.299  1.00  0.00     0.152 C 
BRANCH   6   7
HETATM    7  C7  UNL     1      -2.429  50.371 -18.744  1.00  0.00     0.080 C 
HETATM    8  C8  UNL     1      -2.885  50.723 -17.326  1.00  0.00     0.048 C 
BRANCH   7   9
HETATM    9  C6  UNL     1      -0.886  50.288 -18.858  1.00  0.00     0.044 C 
BRANCH   9  10
HETATM   10  C5  UNL     1      -0.285  50.358 -20.271  1.00  0.00     0.030 C 
BRANCH  10  11
HETATM   11  C4  UNL     1       0.138  51.739 -20.691  1.00  0.00    -0.025 C 
HETATM   12  C2  UNL     1       0.595  52.735 -19.906  1.00  0.00    -0.091 C 
HETATM   13  C1  UNL     1       0.820  52.636 -18.423  1.00  0.00     0.042 C 
HETATM   14  C3  UNL     1       0.943  54.075 -20.499  1.00  0.00     0.042 C 
ENDBRANCH  10  11
ENDBRANCH   9  10
ENDBRANCH   7   9
BRANCH   7  15
HETATM   15  O1  UNL     1      -2.896  51.451 -19.578  1.00  0.00    -0.388 OA
HETATM   16  H15 UNL     1      -2.822  51.103 -20.491  1.00  0.00     0.210 HD
ENDBRANCH   7  15
ENDBRANCH   6   7
BRANCH   6  17
HETATM   17  O2  UNL     1      -4.459  49.064 -18.724  1.00  0.00    -0.393 OA
HETATM   18  H17 UNL     1      -4.845  48.196 -18.934  1.00  0.00     0.210 HD
ENDBRANCH   6  17
ENDBRANCH   5   6
ENDBRANCH   4   5
ENDBRANCH   1   4
BRANCH   3  19
HETATM   19  C15 UNL     1      -3.989  48.400 -25.251  1.00  0.00     0.030 C 
BRANCH  19  20
HETATM   20  C16 UNL     1      -2.745  48.873 -26.002  1.00  0.00     0.042 C 
BRANCH  20  21
HETATM   21  C17 UNL     1      -2.791  50.297 -26.628  1.00  0.00     0.065 C 
HETATM   22  C18 UNL     1      -3.498  50.142 -27.996  1.00  0.00     0.046 C 
HETATM   23  C19 UNL     1      -3.596  51.336 -25.828  1.00  0.00     0.043 C 
HETATM   24  C20 UNL     1      -2.834  51.953 -24.672  1.00  0.00     0.044 C 
HETATM   25  C21 UNL     1      -1.420  52.247 -25.063  1.00  0.00    -0.021 A 
HETATM   26  C22 UNL     1      -0.670  53.146 -24.291  1.00  0.00     0.046 A 
HETATM   27  C27 UNL     1      -0.822  51.624 -26.161  1.00  0.00     0.082 A 
HETATM   28  C23 UNL     1       0.646  53.432 -24.634  1.00  0.00     0.066 A 
HETATM   29  C24 UNL     1       1.244  52.827 -25.733  1.00  0.00     0.046 A 
HETATM   30  C25 UNL     1       0.512  51.914 -26.506  1.00  0.00    -0.025 A 
HETATM   31  C26 UNL     1       1.158  51.248 -27.689  1.00  0.00     0.051 C 
HETATM   32  O4  UNL     1      -1.461  50.719 -26.960  1.00  0.00    -0.340 OA
BRANCH  28  33
HETATM   33  O3  UNL     1       1.324  54.327 -23.858  1.00  0.00    -0.361 OA
HETATM   34  H38 UNL     1       2.215  54.439 -24.226  1.00  0.00     0.217 HD
ENDBRANCH  28  33
ENDBRANCH  20  21
ENDBRANCH  19  20
ENDBRANCH   3  19
TORSDOF 13
ENDMDL
MODEL 5
REMARK minimizedAffinity -8.20436001
REMARK CNNscore 0.63916862
REMARK CNNaffinity 7.34534597
REMARK  13 active torsions:
REMARK  status: ('A' for Active; 'I' for Inactive)
REMARK    1  A    between atoms: C4_4  and  C5_5 
REMARK    2  A    between atoms: C5_5  and  C6_6 
REMARK    3  A    between atoms: C6_6  and  C7_7 
REMARK    4  A    between atoms: C7_7  and  O1_9 
REMARK    5  A    between atoms: C7_7  and  C9_10 
REMARK    6  A    between atoms: C9_10  and  O2_11 
REMARK    7  A    between atoms: C9_10  and  C10_12 
REMARK    8  A    between atoms: C10_12  and  C11_13 
REMARK    9  A    between atoms: C11_13  and  C12_14 
REMARK   10  A    between atoms: C14_16  and  C15_17 
REMARK   11  A    between atoms: C15_17  and  C16_18 
REMARK   12  A    between atoms: C16_18  and  C17_19 
REMARK   13  A    between atoms: C23_25  and  O3_26 
ROOT
HETATM    1  C12 UNL     1      -1.265  49.191 -21.480  1.00  0.00    -0.087 C 
HETATM    2  C13 UNL     1      -1.348  47.771 -20.981  1.00  0.00     0.043 C 
HETATM    3  C14 UNL     1      -2.044  49.703 -22.458  1.00  0.00    -0.024 C 
ENDROOT
BRANCH   1   4
HETATM    4  C11 UNL     1      -0.171  50.011 -20.805  1.00  0.00     0.036 C 
BRANCH   4   5
HETATM    5  C10 UNL     1      -0.575  51.056 -19.760  1.00  0.00     0.039 C 
BRANCH   5   6
HETATM    6  C9  UNL     1      -1.743  50.707 -18.822  1.00  0.00     0.152 C 
BRANCH   6   7
HETATM    7  C7  UNL     1      -1.429  50.082 -17.423  1.00  0.00     0.080 C 
HETATM    8  C8  UNL     1      -1.934  48.643 -17.294  1.00  0.00     0.048 C 
BRANCH   7   9
HETATM    9  C6  UNL     1       0.070  50.211 -17.053  1.00  0.00     0.044 C 
BRANCH   9  10
HETATM   10  C5  UNL     1       0.456  51.343 -16.088  1.00  0.00     0.030 C 
BRANCH  10  11
HETATM   11  C4  UNL     1       1.778  51.989 -16.396  1.00  0.00    -0.025 C 
HETATM   12  C2  UNL     1       2.885  52.012 -15.627  1.00  0.00    -0.091 C 
HETATM   13  C1  UNL     1       3.026  51.333 -14.293  1.00  0.00     0.042 C 
HETATM   14  C3  UNL     1       4.119  52.743 -16.086  1.00  0.00     0.042 C 
ENDBRANCH  10  11
ENDBRANCH   9  10
ENDBRANCH   7   9
BRANCH   7  15
HETATM   15  O1  UNL     1      -2.205  50.848 -16.478  1.00  0.00    -0.388 OA
HETATM   16  H15 UNL     1      -2.055  51.780 -16.740  1.00  0.00     0.210 HD
ENDBRANCH   7  15
ENDBRANCH   6   7
BRANCH   6  17
HETATM   17  O2  UNL     1      -2.449  51.948 -18.565  1.00  0.00    -0.393 OA
HETATM   18  H17 UNL     1      -2.786  52.266 -19.421  1.00  0.00     0.210 HD
ENDBRANCH   6  17
ENDBRANCH   5   6
ENDBRANCH   4   5
ENDBRANCH   1   4
BRANCH   3  19
HETATM   19  C15 UNL     1      -3.173  49.143 -23.297  1.00  0.00     0.030 C 
BRANCH  19  20
HETATM   20  C16 UNL     1      -2.918  48.747 -24.751  1.00  0.00     0.042 C 
BRANCH  20  21
HETATM   21  C17 UNL     1      -2.884  49.892 -25.803  1.00  0.00     0.065 C 
HETATM   22  C18 UNL     1      -3.462  49.293 -27.109  1.00  0.00     0.046 C 
HETATM   23  C19 UNL     1      -3.743  51.121 -25.461  1.00  0.00     0.043 C 
HETATM   24  C20 UNL     1      -3.082  52.090 -24.500  1.00  0.00     0.044 C 
HETATM   25  C21 UNL     1      -1.634  52.263 -24.830  1.00  0.00    -0.021 A 
HETATM   26  C22 UNL     1      -0.945  53.374 -24.324  1.00  0.00     0.046 A 
HETATM   27  C27 UNL     1      -0.946  51.329 -25.608  1.00  0.00     0.082 A 
HETATM   28  C23 UNL     1       0.401  53.555 -24.616  1.00  0.00     0.066 A 
HETATM   29  C24 UNL     1       1.090  52.637 -25.400  1.00  0.00     0.046 A 
HETATM   30  C25 UNL     1       0.419  51.512 -25.902  1.00  0.00    -0.025 A 
HETATM   31  C26 UNL     1       1.162  50.510 -26.741  1.00  0.00     0.051 C 
HETATM   32  O4  UNL     1      -1.522  50.205 -26.128  1.00  0.00    -0.340 OA
BRANCH  28  33
HETATM   33  O3  UNL     1       1.018  54.663 -24.110  1.00  0.00    -0.361 OA
HETATM   34  H38 UNL     1       1.941  54.664 -24.410  1.00  0.00     0.217 HD
ENDBRANCH  28  33
ENDBRANCH  20  21
ENDBRANCH  19  20
ENDBRANCH   3  19
TORSDOF 13
ENDMDL
MODEL 6
REMARK minimizedAffinity -8.94336605
REMARK CNNscore 0.44622606
REMARK CNNaffinity 7.24975824
REMARK  13 active torsions:
REMARK  status: ('A' for Active; 'I' for Inactive)
REMARK    1  A    between atoms: C4_4  and  C5_5 
REMARK    2  A    between atoms: C5_5  and  C6_6 
REMARK    3  A    between atoms: C6_6  and  C7_7 
REMARK    4  A    between atoms: C7_7  and  O1_9 
REMARK    5  A    between atoms: C7_7  and  C9_10 
REMARK    6  A    between atoms: C9_10  and  O2_11 
REMARK    7  A    between atoms: C9_10  and  C10_12 
REMARK    8  A    between atoms: C10_12  and  C11_13 
REMARK    9  A    between atoms: C11_13  and  C12_14 
REMARK   10  A    between atoms: C14_16  and  C15_17 
REMARK   11  A    between atoms: C15_17  and  C16_18 
REMARK   12  A    between atoms: C16_18  and  C17_19 
REMARK   13  A    between atoms: C23_25  and  O3_26 
ROOT
HETATM    1  C12 UNL     1      -4.163  48.487 -24.350  1.00  0.00    -0.087 C 
HETATM    2  C13 UNL     1      -5.453  48.545 -23.573  1.00  0.00     0.043 C 
HETATM    3  C14 UNL     1      -2.934  48.506 -23.790  1.00  0.00    -0.024 C 
ENDROOT
BRANCH   1   4
HETATM    4  C11 UNL     1      -4.363  48.450 -25.861  1.00  0.00     0.036 C 
BRANCH   4   5
HETATM    5  C10 UNL     1      -3.291  49.074 -26.760  1.00  0.00     0.039 C 
BRANCH   5   6
HETATM    6  C9  UNL     1      -3.442  50.562 -27.116  1.00  0.00     0.152 C 
BRANCH   6   7
HETATM    7  C7  UNL     1      -2.858  51.636 -26.139  1.00  0.00     0.080 C 
HETATM    8  C8  UNL     1      -3.860  52.058 -25.062  1.00  0.00     0.048 C 
BRANCH   7   9
HETATM    9  C6  UNL     1      -1.501  51.195 -25.536  1.00  0.00     0.044 C 
BRANCH   9  10
HETATM   10  C5  UNL     1      -0.486  52.304 -25.216  1.00  0.00     0.030 C 
BRANCH  10  11
HETATM   11  C4  UNL     1       0.915  52.005 -25.673  1.00  0.00    -0.025 C 
HETATM   12  C2  UNL     1       1.380  51.973 -26.938  1.00  0.00    -0.091 C 
HETATM   13  C1  UNL     1       0.573  52.289 -28.166  1.00  0.00     0.042 C 
HETATM   14  C3  UNL     1       2.818  51.619 -27.214  1.00  0.00     0.042 C 
ENDBRANCH  10  11
ENDBRANCH   9  10
ENDBRANCH   7   9
BRANCH   7  15
HETATM   15  O1  UNL     1      -2.644  52.812 -26.947  1.00  0.00    -0.388 OA
HETATM   16  H15 UNL     1      -2.211  52.474 -27.758  1.00  0.00     0.210 HD
ENDBRANCH   7  15
ENDBRANCH   6   7
BRANCH   6  17
HETATM   17  O2  UNL     1      -2.764  50.753 -28.384  1.00  0.00    -0.393 OA
HETATM   18  H17 UNL     1      -3.225  50.200 -29.039  1.00  0.00     0.210 HD
ENDBRANCH   6  17
ENDBRANCH   5   6
ENDBRANCH   4   5
ENDBRANCH   1   4
BRANCH   3  19
HETATM   19  C15 UNL     1      -2.435  48.550 -22.361  1.00  0.00     0.030 C 
BRANCH  19  20
HETATM   20  C16 UNL     1      -1.609  49.742 -21.879  1.00  0.00     0.042 C 
BRANCH  20  21
HETATM   21  C17 UNL     1      -2.234  50.637 -20.770  1.00  0.00     0.065 C 
HETATM   22  C18 UNL     1      -3.433  51.362 -21.428  1.00  0.00     0.046 C 
HETATM   23  C19 UNL     1      -2.788  49.878 -19.553  1.00  0.00     0.043 C 
HETATM   24  C20 UNL     1      -1.735  49.487 -18.535  1.00  0.00     0.044 C 
HETATM   25  C21 UNL     1      -0.750  50.595 -18.336  1.00  0.00    -0.021 A 
HETATM   26  C22 UNL     1       0.059  50.593 -17.191  1.00  0.00     0.046 A 
HETATM   27  C27 UNL     1      -0.598  51.614 -19.279  1.00  0.00     0.082 A 
HETATM   28  C23 UNL     1       0.983  51.611 -16.986  1.00  0.00     0.066 A 
HETATM   29  C24 UNL     1       1.131  52.636 -17.912  1.00  0.00     0.046 A 
HETATM   30  C25 UNL     1       0.341  52.644 -19.071  1.00  0.00    -0.025 A 
HETATM   31  C26 UNL     1       0.505  53.745 -20.082  1.00  0.00     0.051 C 
HETATM   32  O4  UNL     1      -1.322  51.692 -20.435  1.00  0.00    -0.340 OA
BRANCH  28  33
HETATM   33  O3  UNL     1       1.732  51.568 -15.846  1.00  0.00    -0.361 OA
HETATM   34  H38 UNL     1       2.314  52.345 -15.831  1.00  0.00     0.217 HD
ENDBRANCH  28  33
ENDBRANCH  20  21
ENDBRANCH  19  20
ENDBRANCH   3  19
TORSDOF 13
ENDMDL
MODEL 7
REMARK minimizedAffinity -8.14514542
REMARK CNNscore 0.391483933
REMARK CNNaffinity 6.06389475
REMARK  13 active torsions:
REMARK  status: ('A' for Active; 'I' for Inactive)
REMARK    1  A    between atoms: C4_4  and  C5_5 
REMARK    2  A    between atoms: C5_5  and  C6_6 
REMARK    3  A    between atoms: C6_6  and  C7_7 
REMARK    4  A    between atoms: C7_7  and  O1_9 
REMARK    5  A    between atoms: C7_7  and  C9_10 
REMARK    6  A    between atoms: C9_10  and  O2_11 
REMARK    7  A    between atoms: C9_10  and  C10_12 
REMARK    8  A    between atoms: C10_12  and  C11_13 
REMARK    9  A    between atoms: C11_13  and  C12_14 
REMARK   10  A    between atoms: C14_16  and  C15_17 
REMARK   11  A    between atoms: C15_17  and  C16_18 
REMARK   12  A    between atoms: C16_18  and  C17_19 
REMARK   13  A    between atoms: C23_25  and  O3_26 
ROOT
HETATM    1  C12 UNL     1      -5.042  48.155 -26.289  1.00  0.00    -0.087 C 
HETATM    2  C13 UNL     1      -6.280  48.037 -25.437  1.00  0.00     0.043 C 
HETATM    3  C14 UNL     1      -3.807  48.415 -25.808  1.00  0.00    -0.024 C 
ENDROOT
BRANCH   1   4
HETATM    4  C11 UNL     1      -5.312  47.998 -27.782  1.00  0.00     0.036 C 
BRANCH   4   5
HETATM    5  C10 UNL     1      -6.685  47.492 -28.231  1.00  0.00     0.039 C 
BRANCH   5   6
HETATM    6  C9  UNL     1      -7.192  47.944 -29.611  1.00  0.00     0.152 C 
BRANCH   6   7
HETATM    7  C7  UNL     1      -8.594  48.632 -29.714  1.00  0.00     0.080 C 
HETATM    8  C8  UNL     1      -8.667  49.652 -30.851  1.00  0.00     0.048 C 
BRANCH   7   9
HETATM    9  C6  UNL     1      -9.744  47.596 -29.781  1.00  0.00     0.044 C 
BRANCH   9  10
HETATM   10  C5  UNL     1      -9.530  46.372 -30.684  1.00  0.00     0.030 C 
BRANCH  10  11
HETATM   11  C4  UNL     1      -9.628  46.668 -32.155  1.00  0.00    -0.025 C 
HETATM   12  C2  UNL     1      -8.728  46.382 -33.116  1.00  0.00    -0.091 C 
HETATM   13  C1  UNL     1      -7.436  45.644 -32.901  1.00  0.00     0.042 C 
HETATM   14  C3  UNL     1      -8.981  46.787 -34.544  1.00  0.00     0.042 C 
ENDBRANCH  10  11
ENDBRANCH   9  10
ENDBRANCH   7   9
BRANCH   7  15
HETATM   15  O1  UNL     1      -8.733  49.399 -28.500  1.00  0.00    -0.388 OA
HETATM   16  H15 UNL     1      -8.441  48.788 -27.791  1.00  0.00     0.210 HD
ENDBRANCH   7  15
ENDBRANCH   6   7
BRANCH   6  17
HETATM   17  O2  UNL     1      -6.228  48.907 -30.109  1.00  0.00    -0.393 OA
HETATM   18  H17 UNL     1      -5.379  48.439 -30.197  1.00  0.00     0.210 HD
ENDBRANCH   6  17
ENDBRANCH   5   6
ENDBRANCH   4   5
ENDBRANCH   1   4
BRANCH   3  19
HETATM   19  C15 UNL     1      -3.248  48.625 -24.416  1.00  0.00     0.030 C 
BRANCH  19  20
HETATM   20  C16 UNL     1      -3.910  49.630 -23.473  1.00  0.00     0.042 C 
BRANCH  20  21
HETATM   21  C17 UNL     1      -3.683  51.139 -23.772  1.00  0.00     0.065 C 
HETATM   22  C18 UNL     1      -5.078  51.806 -23.701  1.00  0.00     0.046 C 
HETATM   23  C19 UNL     1      -2.788  51.877 -22.762  1.00  0.00     0.043 C 
HETATM   24  C20 UNL     1      -1.302  51.687 -22.996  1.00  0.00     0.044 C 
HETATM   25  C21 UNL     1      -0.982  51.746 -24.456  1.00  0.00    -0.021 A 
HETATM   26  C22 UNL     1       0.342  51.972 -24.857  1.00  0.00     0.046 A 
HETATM   27  C27 UNL     1      -1.967  51.552 -25.427  1.00  0.00     0.082 A 
HETATM   28  C23 UNL     1       0.663  52.028 -26.208  1.00  0.00     0.066 A 
HETATM   29  C24 UNL     1      -0.313  51.850 -27.181  1.00  0.00     0.046 A 
HETATM   30  C25 UNL     1      -1.640  51.607 -26.796  1.00  0.00    -0.025 A 
HETATM   31  C26 UNL     1      -2.698  51.402 -27.845  1.00  0.00     0.051 C 
HETATM   32  O4  UNL     1      -3.279  51.303 -25.138  1.00  0.00    -0.340 OA
BRANCH  28  33
HETATM   33  O3  UNL     1       1.965  52.269 -26.542  1.00  0.00    -0.361 OA
HETATM   34  H38 UNL     1       2.033  52.298 -27.510  1.00  0.00     0.217 HD
ENDBRANCH  28  33
ENDBRANCH  20  21
ENDBRANCH  19  20
ENDBRANCH   3  19
TORSDOF 13
ENDMDL
MODEL 8
REMARK minimizedAffinity -7.8277564
REMARK CNNscore 0.390988678
REMARK CNNaffinity 6.20772219
REMARK  13 active torsions:
REMARK  status: ('A' for Active; 'I' for Inactive)
REMARK    1  A    between atoms: C4_4  and  C5_5 
REMARK    2  A    between atoms: C5_5  and  C6_6 
REMARK    3  A    between atoms: C6_6  and  C7_7 
REMARK    4  A    between atoms: C7_7  and  O1_9 
REMARK    5  A    between atoms: C7_7  and  C9_10 
REMARK    6  A    between atoms: C9_10  and  O2_11 
REMARK    7  A    between atoms: C9_10  and  C10_12 
REMARK    8  A    between atoms: C10_12  and  C11_13 
REMARK    9  A    between atoms: C11_13  and  C12_14 
REMARK   10  A    between atoms: C14_16  and  C15_17 
REMARK   11  A    between atoms: C15_17  and  C16_18 
REMARK   12  A    between atoms: C16_18  and  C17_19 
REMARK   13  A    between atoms: C23_25  and  O3_26 
ROOT
HETATM    1  C12 UNL     1      -2.382  49.911 -26.978  1.00  0.00    -0.087 C 
HETATM    2  C13 UNL     1      -3.179  51.027 -27.602  1.00  0.00     0.043 C 
HETATM    3  C14 UNL     1      -1.110  50.035 -26.539  1.00  0.00    -0.024 C 
ENDROOT
BRANCH   1   4
HETATM    4  C11 UNL     1      -3.132  48.585 -26.919  1.00  0.00     0.036 C 
BRANCH   4   5
HETATM    5  C10 UNL     1      -4.644  48.584 -27.158  1.00  0.00     0.039 C 
BRANCH   5   6
HETATM    6  C9  UNL     1      -5.159  47.935 -28.454  1.00  0.00     0.152 C 
BRANCH   6   7
HETATM    7  C7  UNL     1      -6.684  47.609 -28.583  1.00  0.00     0.080 C 
HETATM    8  C8  UNL     1      -7.343  48.337 -29.756  1.00  0.00     0.048 C 
BRANCH   7   9
HETATM    9  C6  UNL     1      -6.950  46.083 -28.616  1.00  0.00     0.044 C 
BRANCH   9  10
HETATM   10  C5  UNL     1      -6.869  45.390 -29.985  1.00  0.00     0.030 C 
BRANCH  10  11
HETATM   11  C4  UNL     1      -8.143  44.713 -30.408  1.00  0.00    -0.025 C 
HETATM   12  C2  UNL     1      -8.472  44.266 -31.636  1.00  0.00    -0.091 C 
HETATM   13  C1  UNL     1      -7.578  44.318 -32.844  1.00  0.00     0.042 C 
HETATM   14  C3  UNL     1      -9.817  43.638 -31.885  1.00  0.00     0.042 C 
ENDBRANCH  10  11
ENDBRANCH   9  10
ENDBRANCH   7   9
BRANCH   7  15
HETATM   15  O1  UNL     1      -7.294  48.159 -27.397  1.00  0.00    -0.388 OA
HETATM   16  H15 UNL     1      -6.704  47.877 -26.667  1.00  0.00     0.210 HD
ENDBRANCH   7  15
ENDBRANCH   6   7
BRANCH   6  17
HETATM   17  O2  UNL     1      -4.846  48.857 -29.529  1.00  0.00    -0.393 OA
HETATM   18  H17 UNL     1      -3.876  48.944 -29.555  1.00  0.00     0.210 HD
ENDBRANCH   6  17
ENDBRANCH   5   6
ENDBRANCH   4   5
ENDBRANCH   1   4
BRANCH   3  19
HETATM   19  C15 UNL     1      -0.131  51.189 -26.478  1.00  0.00     0.030 C 
BRANCH  19  20
HETATM   20  C16 UNL     1       0.438  51.634 -25.132  1.00  0.00     0.042 C 
BRANCH  20  21
HETATM   21  C17 UNL     1      -0.308  52.780 -24.389  1.00  0.00     0.065 C 
HETATM   22  C18 UNL     1       0.105  54.093 -25.099  1.00  0.00     0.046 C 
HETATM   23  C19 UNL     1      -1.843  52.707 -24.450  1.00  0.00     0.043 C 
HETATM   24  C20 UNL     1      -2.458  51.757 -23.441  1.00  0.00     0.044 C 
HETATM   25  C21 UNL     1      -1.771  51.868 -22.117  1.00  0.00    -0.021 A 
HETATM   26  C22 UNL     1      -2.409  51.374 -20.972  1.00  0.00     0.046 A 
HETATM   27  C27 UNL     1      -0.495  52.425 -22.003  1.00  0.00     0.082 A 
HETATM   28  C23 UNL     1      -1.788  51.464 -19.732  1.00  0.00     0.066 A 
HETATM   29  C24 UNL     1      -0.525  52.029 -19.606  1.00  0.00     0.046 A 
HETATM   30  C25 UNL     1       0.134  52.514 -20.745  1.00  0.00    -0.025 A 
HETATM   31  C26 UNL     1       1.506  53.116 -20.617  1.00  0.00     0.051 C 
HETATM   32  O4  UNL     1       0.218  52.913 -23.061  1.00  0.00    -0.340 OA
BRANCH  28  33
HETATM   33  O3  UNL     1      -2.463  50.982 -18.647  1.00  0.00    -0.361 OA
HETATM   34  H38 UNL     1      -1.919  51.129 -17.857  1.00  0.00     0.217 HD
ENDBRANCH  28  33
ENDBRANCH  20  21
ENDBRANCH  19  20
ENDBRANCH   3  19
TORSDOF 13
ENDMDL
MODEL 9
REMARK minimizedAffinity -8.01063919
REMARK CNNscore 0.378005505
REMARK CNNaffinity 6.21644449
REMARK  13 active torsions:
REMARK  status: ('A' for Active; 'I' for Inactive)
REMARK    1  A    between atoms: C4_4  and  C5_5 
REMARK    2  A    between atoms: C5_5  and  C6_6 
REMARK    3  A    between atoms: C6_6  and  C7_7 
REMARK    4  A    between atoms: C7_7  and  O1_9 
REMARK    5  A    between atoms: C7_7  and  C9_10 
REMARK    6  A    between atoms: C9_10  and  O2_11 
REMARK    7  A    between atoms: C9_10  and  C10_12 
REMARK    8  A    between atoms: C10_12  and  C11_13 
REMARK    9  A    between atoms: C11_13  and  C12_14 
REMARK   10  A    between atoms: C14_16  and  C15_17 
REMARK   11  A    between atoms: C15_17  and  C16_18 
REMARK   12  A    between atoms: C16_18  and  C17_19 
REMARK   13  A    between atoms: C23_25  and  O3_26 
ROOT
HETATM    1  C12 UNL     1      -5.132  48.074 -26.626  1.00  0.00    -0.087 C 
HETATM    2  C13 UNL     1      -6.308  47.876 -25.704  1.00  0.00     0.043 C 
HETATM    3  C14 UNL     1      -5.200  48.003 -27.974  1.00  0.00    -0.024 C 
ENDROOT
BRANCH   1   4
HETATM    4  C11 UNL     1      -3.818  48.322 -25.894  1.00  0.00     0.036 C 
BRANCH   4   5
HETATM    5  C10 UNL     1      -2.740  49.163 -26.583  1.00  0.00     0.039 C 
BRANCH   5   6
HETATM    6  C9  UNL     1      -3.110  50.602 -26.981  1.00  0.00     0.152 C 
BRANCH   6   7
HETATM    7  C7  UNL     1      -2.807  51.766 -25.979  1.00  0.00     0.080 C 
HETATM    8  C8  UNL     1      -3.991  52.076 -25.062  1.00  0.00     0.048 C 
BRANCH   7   9
HETATM    9  C6  UNL     1      -1.500  51.521 -25.184  1.00  0.00     0.044 C 
BRANCH   9  10
HETATM   10  C5  UNL     1      -0.460  52.653 -25.184  1.00  0.00     0.030 C 
BRANCH  10  11
HETATM   11  C4  UNL     1       0.913  52.226 -25.622  1.00  0.00    -0.025 C 
HETATM   12  C2  UNL     1       1.368  52.074 -26.881  1.00  0.00    -0.091 C 
HETATM   13  C1  UNL     1       0.576  52.359 -28.128  1.00  0.00     0.042 C 
HETATM   14  C3  UNL     1       2.775  51.601 -27.134  1.00  0.00     0.042 C 
ENDBRANCH  10  11
ENDBRANCH   9  10
ENDBRANCH   7   9
BRANCH   7  15
HETATM   15  O1  UNL     1      -2.636  52.941 -26.798  1.00  0.00    -0.388 OA
HETATM   16  H15 UNL     1      -2.056  52.645 -27.531  1.00  0.00     0.210 HD
ENDBRANCH   7  15
ENDBRANCH   6   7
BRANCH   6  17
HETATM   17  O2  UNL     1      -2.364  50.900 -28.189  1.00  0.00    -0.393 OA
HETATM   18  H17 UNL     1      -2.665  50.273 -28.871  1.00  0.00     0.210 HD
ENDBRANCH   6  17
ENDBRANCH   5   6
ENDBRANCH   4   5
ENDBRANCH   1   4
BRANCH   3  19
HETATM   19  C15 UNL     1      -6.329  47.767 -28.954  1.00  0.00     0.030 C 
BRANCH  19  20
HETATM   20  C16 UNL     1      -7.518  46.895 -28.552  1.00  0.00     0.042 C 
BRANCH  20  21
HETATM   21  C17 UNL     1      -8.939  47.440 -28.874  1.00  0.00     0.065 C 
HETATM   22  C18 UNL     1      -9.491  48.012 -27.545  1.00  0.00     0.046 C 
HETATM   23  C19 UNL     1      -8.983  48.583 -29.901  1.00  0.00     0.043 C 
HETATM   24  C20 UNL     1      -8.918  48.122 -31.344  1.00  0.00     0.044 C 
HETATM   25  C21 UNL     1      -9.758  46.902 -31.552  1.00  0.00    -0.021 A 
HETATM   26  C22 UNL     1     -10.136  46.546 -32.854  1.00  0.00     0.046 A 
HETATM   27  C27 UNL     1     -10.150  46.095 -30.481  1.00  0.00     0.082 A 
HETATM   28  C23 UNL     1     -10.915  45.415 -33.071  1.00  0.00     0.066 A 
HETATM   29  C24 UNL     1     -11.320  44.615 -32.010  1.00  0.00     0.046 A 
HETATM   30  C25 UNL     1     -10.937  44.949 -30.703  1.00  0.00    -0.025 A 
HETATM   31  C26 UNL     1     -11.363  44.079 -29.552  1.00  0.00     0.051 C 
HETATM   32  O4  UNL     1      -9.814  46.346 -29.181  1.00  0.00    -0.340 OA
BRANCH  28  33
HETATM   33  O3  UNL     1     -11.268  45.125 -34.357  1.00  0.00    -0.361 OA
HETATM   34  H38 UNL     1     -11.820  44.327 -34.351  1.00  0.00     0.217 HD
ENDBRANCH  28  33
ENDBRANCH  20  21
ENDBRANCH  19  20
ENDBRANCH   3  19
TORSDOF 13
ENDMDL
