MODEL 1
REMARK minimizedAffinity -8.74547482
REMARK CNNscore 0.86079967
REMARK CNNaffinity 7.5063591
REMARK  12 active torsions:
REMARK  status: ('A' for Active; 'I' for Inactive)
REMARK    1  A    between atoms: N1_6  and  O1_8 
REMARK    2  A    between atoms: O1_8  and  C6_9 
REMARK    3  A    between atoms: C6_9  and  C7_10 
REMARK       I    between atoms: C7_10  and  N2_12 
REMARK    4  A    between atoms: N2_12  and  C8_13 
REMARK    5  A    between atoms: C8_13  and  C9_14 
REMARK    6  A    between atoms: C12_17  and  C13_18 
REMARK    7  A    between atoms: C13_18  and  O4_20 
REMARK    8  A    between atoms: C22_29  and  O5_30 
REMARK    9  A    between atoms: C29_37  and  O6_38 
REMARK   10  A    between atoms: C29_37  and  C30_39 
REMARK   11  A    between atoms: C30_39  and  C31_41 
REMARK   12  A    between atoms: C31_41  and  O8_42 
ROOT
HETATM    1  C1  UNL     1      -2.990  49.455 -24.584  1.00  0.00     0.020 C 
HETATM    2  C2  UNL     1      -3.149  50.109 -23.194  1.00  0.00    -0.014 C 
HETATM    3  C3  UNL     1      -3.222  51.654 -23.364  1.00  0.00     0.020 C 
HETATM    4  C4  UNL     1      -1.905  52.283 -23.792  1.00  0.00     0.060 C 
HETATM    5  C5  UNL     1      -0.788  51.917 -22.840  1.00  0.00     0.032 C 
HETATM    6  N1  UNL     1       0.180  52.773 -22.716  1.00  0.00    -0.271 N 
ATOM      7  H1  UNL     1       0.210  53.673 -23.194  1.00  0.00     0.194 HD
HETATM    8  C16 UNL     1      -0.858  50.576 -22.189  1.00  0.00     0.030 C 
HETATM    9  C17 UNL     1      -1.899  49.745 -22.382  1.00  0.00    -0.069 C 
HETATM   10  C18 UNL     1      -1.840  48.340 -21.835  1.00  0.00     0.035 C 
HETATM   11  C19 UNL     1      -3.093  47.984 -21.051  1.00  0.00     0.010 C 
HETATM   12  C20 UNL     1      -4.357  48.171 -21.901  1.00  0.00    -0.002 C 
HETATM   13  C21 UNL     1      -4.450  49.642 -22.421  1.00  0.00     0.031 C 
HETATM   14  C22 UNL     1      -5.800  49.922 -23.151  1.00  0.00     0.124 C 
HETATM   15  C23 UNL     1      -7.038  49.433 -22.365  1.00  0.00     0.045 C 
HETATM   16  C24 UNL     1      -6.930  47.962 -21.894  1.00  0.00     0.001 C 
HETATM   17  C25 UNL     1      -6.973  46.983 -23.101  1.00  0.00     0.019 C 
HETATM   18  C26 UNL     1      -5.618  47.858 -21.079  1.00  0.00     0.002 C 
HETATM   19  C27 UNL     1      -5.721  46.498 -20.404  1.00  0.00     0.009 C 
HETATM   20  C28 UNL     1      -7.214  46.363 -20.058  1.00  0.00     0.047 C 
HETATM   21  C29 UNL     1      -7.965  47.501 -20.815  1.00  0.00     0.128 C 
ENDROOT
BRANCH   6  22
HETATM   22  O1  UNL     1       1.180  52.313 -21.848  1.00  0.00    -0.271 OA
BRANCH  22  23
HETATM   23  C6  UNL     1       1.637  53.406 -21.060  1.00  0.00     0.303 C 
BRANCH  23  24
HETATM   24  C7  UNL     1       0.811  53.461 -19.785  1.00  0.00     0.244 C 
HETATM   25  O2  UNL     1      -0.132  54.234 -19.641  1.00  0.00    -0.271 OA
HETATM   26  N2  UNL     1       1.202  52.556 -18.819  1.00  0.00    -0.355 N 
HETATM   27  H10 UNL     1       1.937  51.895 -19.038  1.00  0.00     0.162 HD
BRANCH  26  28
HETATM   28  C8  UNL     1       0.491  52.412 -17.569  1.00  0.00     0.161 C 
BRANCH  28  29
HETATM   29  C9  UNL     1       1.388  51.864 -16.487  1.00  0.00    -0.040 A 
HETATM   30  C10 UNL     1       1.003  50.752 -15.727  1.00  0.00     0.010 A 
HETATM   31  C11 UNL     1       1.843  50.253 -14.726  1.00  0.00     0.019 A 
HETATM   32  C12 UNL     1       3.074  50.867 -14.465  1.00  0.00     0.037 A 
HETATM   33  C14 UNL     1       3.462  51.981 -15.216  1.00  0.00     0.019 A 
HETATM   34  C15 UNL     1       2.625  52.474 -16.220  1.00  0.00     0.010 A 
BRANCH  32  35
HETATM   35  C13 UNL     1       3.928  50.306 -13.390  1.00  0.00     0.176 C 
HETATM   36  O3  UNL     1       3.812  50.529 -12.199  1.00  0.00    -0.646 OA
BRANCH  35  37
HETATM   37  O4  UNL     1       4.889  49.490 -13.858  1.00  0.00    -0.773 OA
HETATM   38  H15 UNL     1       5.371  49.201 -13.053  1.00  0.00     0.167 HD
ENDBRANCH  35  37
ENDBRANCH  32  35
ENDBRANCH  28  29
ENDBRANCH  26  28
ENDBRANCH  23  24
ENDBRANCH  22  23
ENDBRANCH   6  22
BRANCH  14  39
HETATM   39  O5  UNL     1      -5.819  49.336 -24.444  1.00  0.00    -0.395 OA
HETATM   40  H26 UNL     1      -6.620  49.643 -24.905  1.00  0.00     0.210 HD
ENDBRANCH  14  39
BRANCH  21  41
HETATM   41  O6  UNL     1      -8.186  48.533 -19.843  1.00  0.00    -0.381 OA
HETATM   42  H37 UNL     1      -8.757  49.214 -20.256  1.00  0.00     0.211 HD
ENDBRANCH  21  41
BRANCH  21  43
HETATM   43  C30 UNL     1      -9.326  47.005 -21.376  1.00  0.00     0.184 C 
HETATM   44  O7  UNL     1      -9.691  47.212 -22.537  1.00  0.00    -0.292 OA
BRANCH  43  45
HETATM   45  C31 UNL     1     -10.262  46.285 -20.408  1.00  0.00     0.245 C 
BRANCH  45  46
HETATM   46  O8  UNL     1     -10.402  44.900 -20.686  1.00  0.00    -0.393 OA
HETATM   47  H40 UNL     1     -11.023  44.832 -21.440  1.00  0.00     0.209 HD
ENDBRANCH  45  46
ENDBRANCH  43  45
ENDBRANCH  21  43
TORSDOF 12
ENDMDL
MODEL 2
REMARK minimizedAffinity -8.61608124
REMARK CNNscore 0.531932235
REMARK CNNaffinity 6.82674217
REMARK  12 active torsions:
REMARK  status: ('A' for Active; 'I' for Inactive)
REMARK    1  A    between atoms: N1_6  and  O1_8 
REMARK    2  A    between atoms: O1_8  and  C6_9 
REMARK    3  A    between atoms: C6_9  and  C7_10 
REMARK       I    between atoms: C7_10  and  N2_12 
REMARK    4  A    between atoms: N2_12  and  C8_13 
REMARK    5  A    between atoms: C8_13  and  C9_14 
REMARK    6  A    between atoms: C12_17  and  C13_18 
REMARK    7  A    between atoms: C13_18  and  O4_20 
REMARK    8  A    between atoms: C22_29  and  O5_30 
REMARK    9  A    between atoms: C29_37  and  O6_38 
REMARK   10  A    between atoms: C29_37  and  C30_39 
REMARK   11  A    between atoms: C30_39  and  C31_41 
REMARK   12  A    between atoms: C31_41  and  O8_42 
ROOT
HETATM    1  C1  UNL     1      -0.895  49.621 -20.342  1.00  0.00     0.020 C 
HETATM    2  C2  UNL     1      -2.318  49.978 -20.826  1.00  0.00    -0.014 C 
HETATM    3  C3  UNL     1      -3.002  50.892 -19.769  1.00  0.00     0.020 C 
HETATM    4  C4  UNL     1      -3.345  50.175 -18.472  1.00  0.00     0.060 C 
HETATM    5  C5  UNL     1      -4.199  48.953 -18.733  1.00  0.00     0.032 C 
HETATM    6  N1  UNL     1      -5.015  48.598 -17.788  1.00  0.00    -0.271 N 
ATOM      7  H1  UNL     1      -5.129  49.107 -16.911  1.00  0.00     0.194 HD
HETATM    8  C16 UNL     1      -3.974  48.223 -20.014  1.00  0.00     0.030 C 
HETATM    9  C17 UNL     1      -3.096  48.660 -20.937  1.00  0.00    -0.069 C 
HETATM   10  C18 UNL     1      -2.787  47.796 -22.135  1.00  0.00     0.035 C 
HETATM   11  C19 UNL     1      -2.892  48.575 -23.437  1.00  0.00     0.010 C 
HETATM   12  C20 UNL     1      -1.984  49.812 -23.424  1.00  0.00    -0.002 C 
HETATM   13  C21 UNL     1      -2.342  50.736 -22.216  1.00  0.00     0.031 C 
HETATM   14  C22 UNL     1      -1.557  52.084 -22.256  1.00  0.00     0.124 C 
HETATM   15  C23 UNL     1      -1.596  52.778 -23.637  1.00  0.00     0.045 C 
HETATM   16  C24 UNL     1      -1.203  51.846 -24.809  1.00  0.00     0.001 C 
HETATM   17  C25 UNL     1       0.303  51.465 -24.740  1.00  0.00     0.019 C 
HETATM   18  C26 UNL     1      -2.140  50.617 -24.724  1.00  0.00     0.002 C 
HETATM   19  C27 UNL     1      -1.916  49.901 -26.048  1.00  0.00     0.009 C 
HETATM   20  C28 UNL     1      -1.728  51.041 -27.064  1.00  0.00     0.047 C 
HETATM   21  C29 UNL     1      -1.543  52.357 -26.248  1.00  0.00     0.128 C 
ENDROOT
BRANCH   6  22
HETATM   22  O1  UNL     1      -5.721  47.432 -18.115  1.00  0.00    -0.271 OA
BRANCH  22  23
HETATM   23  C6  UNL     1      -5.448  46.443 -17.129  1.00  0.00     0.303 C 
BRANCH  23  24
HETATM   24  C7  UNL     1      -4.811  45.243 -17.811  1.00  0.00     0.244 C 
HETATM   25  O2  UNL     1      -3.625  45.216 -18.129  1.00  0.00    -0.271 OA
HETATM   26  N2  UNL     1      -5.676  44.189 -18.023  1.00  0.00    -0.355 N 
HETATM   27  H10 UNL     1      -6.620  44.251 -17.662  1.00  0.00     0.162 HD
BRANCH  26  28
HETATM   28  C8  UNL     1      -5.234  42.937 -18.594  1.00  0.00     0.161 C 
BRANCH  28  29
HETATM   29  C9  UNL     1      -5.891  42.679 -19.927  1.00  0.00    -0.040 A 
HETATM   30  C10 UNL     1      -6.234  43.739 -20.777  1.00  0.00     0.010 A 
HETATM   31  C11 UNL     1      -6.843  43.488 -22.011  1.00  0.00     0.019 A 
HETATM   32  C12 UNL     1      -7.127  42.175 -22.406  1.00  0.00     0.037 A 
HETATM   33  C14 UNL     1      -6.793  41.113 -21.559  1.00  0.00     0.019 A 
HETATM   34  C15 UNL     1      -6.178  41.365 -20.330  1.00  0.00     0.010 A 
BRANCH  32  35
HETATM   35  C13 UNL     1      -7.779  41.959 -23.720  1.00  0.00     0.176 C 
HETATM   36  O3  UNL     1      -8.720  41.218 -23.936  1.00  0.00    -0.646 OA
BRANCH  35  37
HETATM   37  O4  UNL     1      -7.220  42.683 -24.706  1.00  0.00    -0.773 OA
HETATM   38  H15 UNL     1      -7.738  42.442 -25.504  1.00  0.00     0.167 HD
ENDBRANCH  35  37
ENDBRANCH  32  35
ENDBRANCH  28  29
ENDBRANCH  26  28
ENDBRANCH  23  24
ENDBRANCH  22  23
ENDBRANCH   6  22
BRANCH  14  39
HETATM   39  O5  UNL     1      -0.202  51.905 -21.873  1.00  0.00    -0.395 OA
HETATM   40  H26 UNL     1       0.209  52.783 -21.790  1.00  0.00     0.210 HD
ENDBRANCH  14  39
BRANCH  21  41
HETATM   41  O6  UNL     1      -2.821  53.010 -26.270  1.00  0.00    -0.381 OA
HETATM   42  H37 UNL     1      -2.711  53.895 -25.864  1.00  0.00     0.211 HD
ENDBRANCH  21  41
BRANCH  21  43
HETATM   43  C30 UNL     1      -0.470  53.277 -26.891  1.00  0.00     0.184 C 
HETATM   44  O7  UNL     1       0.476  53.754 -26.258  1.00  0.00    -0.292 OA
BRANCH  43  45
HETATM   45  C31 UNL     1      -0.653  53.642 -28.363  1.00  0.00     0.245 C 
BRANCH  45  46
HETATM   46  O8  UNL     1      -1.914  54.229 -28.644  1.00  0.00    -0.393 OA
HETATM   47  H40 UNL     1      -2.559  53.494 -28.678  1.00  0.00     0.209 HD
ENDBRANCH  45  46
ENDBRANCH  43  45
ENDBRANCH  21  43
TORSDOF 12
ENDMDL
MODEL 3
REMARK minimizedAffinity -9.80577278
REMARK CNNscore 0.528231263
REMARK CNNaffinity 6.48108244
REMARK  12 active torsions:
REMARK  status: ('A' for Active; 'I' for Inactive)
REMARK    1  A    between atoms: N1_6  and  O1_8 
REMARK    2  A    between atoms: O1_8  and  C6_9 
REMARK    3  A    between atoms: C6_9  and  C7_10 
REMARK       I    between atoms: C7_10  and  N2_12 
REMARK    4  A    between atoms: N2_12  and  C8_13 
REMARK    5  A    between atoms: C8_13  and  C9_14 
REMARK    6  A    between atoms: C12_17  and  C13_18 
REMARK    7  A    between atoms: C13_18  and  O4_20 
REMARK    8  A    between atoms: C22_29  and  O5_30 
REMARK    9  A    between atoms: C29_37  and  O6_38 
REMARK   10  A    between atoms: C29_37  and  C30_39 
REMARK   11  A    between atoms: C30_39  and  C31_41 
REMARK   12  A    between atoms: C31_41  and  O8_42 
ROOT
HETATM    1  C1  UNL     1      -0.155  49.964 -20.842  1.00  0.00     0.020 C 
HETATM    2  C2  UNL     1      -1.607  50.383 -21.160  1.00  0.00    -0.014 C 
HETATM    3  C3  UNL     1      -2.083  51.418 -20.100  1.00  0.00     0.020 C 
HETATM    4  C4  UNL     1      -2.287  50.821 -18.715  1.00  0.00     0.060 C 
HETATM    5  C5  UNL     1      -3.240  49.647 -18.760  1.00  0.00     0.032 C 
HETATM    6  N1  UNL     1      -3.938  49.419 -17.690  1.00  0.00    -0.271 N 
ATOM      7  H1  UNL     1      -3.900  49.997 -16.850  1.00  0.00     0.194 HD
HETATM    8  C16 UNL     1      -3.237  48.812 -19.997  1.00  0.00     0.030 C 
HETATM    9  C17 UNL     1      -2.470  49.118 -21.060  1.00  0.00    -0.069 C 
HETATM   10  C18 UNL     1      -2.379  48.150 -22.214  1.00  0.00     0.035 C 
HETATM   11  C19 UNL     1      -2.616  48.838 -23.550  1.00  0.00     0.010 C 
HETATM   12  C20 UNL     1      -1.644  50.007 -23.758  1.00  0.00    -0.002 C 
HETATM   13  C21 UNL     1      -1.777  51.039 -22.592  1.00  0.00     0.031 C 
HETATM   14  C22 UNL     1      -0.927  52.322 -22.846  1.00  0.00     0.124 C 
HETATM   15  C23 UNL     1      -1.113  52.915 -24.261  1.00  0.00     0.045 C 
HETATM   16  C24 UNL     1      -0.941  51.876 -25.394  1.00  0.00     0.001 C 
HETATM   17  C25 UNL     1       0.534  51.397 -25.495  1.00  0.00     0.019 C 
HETATM   18  C26 UNL     1      -1.929  50.724 -25.087  1.00  0.00     0.002 C 
HETATM   19  C27 UNL     1      -1.931  49.900 -26.366  1.00  0.00     0.009 C 
HETATM   20  C28 UNL     1      -1.818  50.948 -27.488  1.00  0.00     0.047 C 
HETATM   21  C29 UNL     1      -1.445  52.303 -26.812  1.00  0.00     0.128 C 
ENDROOT
BRANCH   6  22
HETATM   22  O1  UNL     1      -4.750  48.284 -17.825  1.00  0.00    -0.271 OA
BRANCH  22  23
HETATM   23  C6  UNL     1      -5.952  48.660 -18.486  1.00  0.00     0.303 C 
BRANCH  23  24
HETATM   24  C7  UNL     1      -7.038  47.661 -18.121  1.00  0.00     0.244 C 
HETATM   25  O2  UNL     1      -7.084  46.530 -18.599  1.00  0.00    -0.271 OA
HETATM   26  N2  UNL     1      -7.949  48.129 -17.197  1.00  0.00    -0.355 N 
HETATM   27  H10 UNL     1      -7.802  49.042 -16.786  1.00  0.00     0.162 HD
BRANCH  26  28
HETATM   28  C8  UNL     1      -9.009  47.297 -16.674  1.00  0.00     0.161 C 
BRANCH  28  29
HETATM   29  C9  UNL     1     -10.286  47.480 -17.456  1.00  0.00    -0.040 A 
HETATM   30  C10 UNL     1     -10.271  48.051 -18.736  1.00  0.00     0.010 A 
HETATM   31  C11 UNL     1     -11.461  48.215 -19.452  1.00  0.00     0.019 A 
HETATM   32  C12 UNL     1     -12.683  47.821 -18.893  1.00  0.00     0.037 A 
HETATM   33  C14 UNL     1     -12.706  47.257 -17.614  1.00  0.00     0.019 A 
HETATM   34  C15 UNL     1     -11.515  47.086 -16.903  1.00  0.00     0.010 A 
BRANCH  32  35
HETATM   35  C13 UNL     1     -13.919  48.021 -19.688  1.00  0.00     0.176 C 
HETATM   36  O3  UNL     1     -14.805  47.202 -19.845  1.00  0.00    -0.646 OA
BRANCH  35  37
HETATM   37  O4  UNL     1     -13.987  49.240 -20.251  1.00  0.00    -0.773 OA
HETATM   38  H15 UNL     1     -14.837  49.231 -20.741  1.00  0.00     0.167 HD
ENDBRANCH  35  37
ENDBRANCH  32  35
ENDBRANCH  28  29
ENDBRANCH  26  28
ENDBRANCH  23  24
ENDBRANCH  22  23
ENDBRANCH   6  22
BRANCH  14  39
HETATM   39  O5  UNL     1       0.455  52.078 -22.631  1.00  0.00    -0.395 OA
HETATM   40  H26 UNL     1       0.926  52.929 -22.675  1.00  0.00     0.210 HD
ENDBRANCH  14  39
BRANCH  21  41
HETATM   41  O6  UNL     1      -2.673  53.040 -26.718  1.00  0.00    -0.381 OA
HETATM   42  H37 UNL     1      -2.456  53.942 -26.404  1.00  0.00     0.211 HD
ENDBRANCH  21  41
BRANCH  21  43
HETATM   43  C30 UNL     1      -0.418  53.097 -27.665  1.00  0.00     0.184 C 
HETATM   44  O7  UNL     1       0.431  52.552 -28.377  1.00  0.00    -0.292 OA
BRANCH  43  45
HETATM   45  C31 UNL     1      -0.441  54.619 -27.550  1.00  0.00     0.245 C 
BRANCH  45  46
HETATM   46  O8  UNL     1       0.273  55.109 -26.425  1.00  0.00    -0.393 OA
HETATM   47  H40 UNL     1      -0.309  54.976 -25.649  1.00  0.00     0.209 HD
ENDBRANCH  45  46
ENDBRANCH  43  45
ENDBRANCH  21  43
TORSDOF 12
ENDMDL
MODEL 4
REMARK minimizedAffinity -8.46134663
REMARK CNNscore 0.448862046
REMARK CNNaffinity 6.39326477
REMARK  12 active torsions:
REMARK  status: ('A' for Active; 'I' for Inactive)
REMARK    1  A    between atoms: N1_6  and  O1_8 
REMARK    2  A    between atoms: O1_8  and  C6_9 
REMARK    3  A    between atoms: C6_9  and  C7_10 
REMARK       I    between atoms: C7_10  and  N2_12 
REMARK    4  A    between atoms: N2_12  and  C8_13 
REMARK    5  A    between atoms: C8_13  and  C9_14 
REMARK    6  A    between atoms: C12_17  and  C13_18 
REMARK    7  A    between atoms: C13_18  and  O4_20 
REMARK    8  A    between atoms: C22_29  and  O5_30 
REMARK    9  A    between atoms: C29_37  and  O6_38 
REMARK   10  A    between atoms: C29_37  and  C30_39 
REMARK   11  A    between atoms: C30_39  and  C31_41 
REMARK   12  A    between atoms: C31_41  and  O8_42 
ROOT
HETATM    1  C1  UNL     1       1.346  51.084 -21.217  1.00  0.00     0.020 C 
HETATM    2  C2  UNL     1      -0.128  51.265 -20.791  1.00  0.00    -0.014 C 
HETATM    3  C3  UNL     1      -0.278  52.616 -20.033  1.00  0.00     0.020 C 
HETATM    4  C4  UNL     1       0.386  52.623 -18.665  1.00  0.00     0.060 C 
HETATM    5  C5  UNL     1      -0.120  51.486 -17.805  1.00  0.00     0.032 C 
HETATM    6  N1  UNL     1      -0.118  51.677 -16.521  1.00  0.00    -0.271 N 
ATOM      7  H1  UNL     1       0.172  52.548 -16.074  1.00  0.00     0.194 HD
HETATM    8  C16 UNL     1      -0.502  50.222 -18.500  1.00  0.00     0.030 C 
HETATM    9  C17 UNL     1      -0.464  50.108 -19.840  1.00  0.00    -0.069 C 
HETATM   10  C18 UNL     1      -0.699  48.761 -20.479  1.00  0.00     0.035 C 
HETATM   11  C19 UNL     1      -1.729  48.835 -21.595  1.00  0.00     0.010 C 
HETATM   12  C20 UNL     1      -1.329  49.866 -22.659  1.00  0.00    -0.002 C 
HETATM   13  C21 UNL     1      -1.141  51.274 -22.009  1.00  0.00     0.031 C 
HETATM   14  C22 UNL     1      -0.895  52.384 -23.077  1.00  0.00     0.124 C 
HETATM   15  C23 UNL     1      -1.898  52.341 -24.252  1.00  0.00     0.045 C 
HETATM   16  C24 UNL     1      -2.035  50.941 -24.897  1.00  0.00     0.001 C 
HETATM   17  C25 UNL     1      -0.731  50.537 -25.640  1.00  0.00     0.019 C 
HETATM   18  C26 UNL     1      -2.404  49.966 -23.753  1.00  0.00     0.002 C 
HETATM   19  C27 UNL     1      -2.815  48.695 -24.481  1.00  0.00     0.009 C 
HETATM   20  C28 UNL     1      -3.543  49.201 -25.739  1.00  0.00     0.047 C 
HETATM   21  C29 UNL     1      -3.260  50.731 -25.848  1.00  0.00     0.128 C 
ENDROOT
BRANCH   6  22
HETATM   22  O1  UNL     1      -0.561  50.546 -15.820  1.00  0.00    -0.271 OA
BRANCH  22  23
HETATM   23  C6  UNL     1       0.190  50.433 -14.617  1.00  0.00     0.303 C 
BRANCH  23  24
HETATM   24  C7  UNL     1      -0.083  51.659 -13.760  1.00  0.00     0.244 C 
HETATM   25  O2  UNL     1       0.423  52.754 -13.993  1.00  0.00    -0.271 OA
HETATM   26  N2  UNL     1      -0.957  51.435 -12.717  1.00  0.00    -0.355 N 
HETATM   27  H10 UNL     1      -1.397  50.528 -12.634  1.00  0.00     0.162 HD
BRANCH  26  28
HETATM   28  C8  UNL     1      -1.392  52.498 -11.839  1.00  0.00     0.161 C 
BRANCH  28  29
HETATM   29  C9  UNL     1      -1.251  52.104 -10.389  1.00  0.00    -0.040 A 
HETATM   30  C10 UNL     1      -2.369  51.730  -9.632  1.00  0.00     0.010 A 
HETATM   31  C11 UNL     1      -2.226  51.367  -8.289  1.00  0.00     0.019 A 
HETATM   32  C12 UNL     1      -0.965  51.384  -7.683  1.00  0.00     0.037 A 
HETATM   33  C14 UNL     1       0.155  51.763  -8.430  1.00  0.00     0.019 A 
HETATM   34  C15 UNL     1       0.011  52.118  -9.773  1.00  0.00     0.010 A 
BRANCH  32  35
HETATM   35  C13 UNL     1      -0.864  50.997  -6.254  1.00  0.00     0.176 C 
HETATM   36  O3  UNL     1      -0.125  51.502  -5.430  1.00  0.00    -0.646 OA
BRANCH  35  37
HETATM   37  O4  UNL     1      -1.695  49.993  -5.925  1.00  0.00    -0.773 OA
HETATM   38  H15 UNL     1      -1.522  49.841  -4.971  1.00  0.00     0.167 HD
ENDBRANCH  35  37
ENDBRANCH  32  35
ENDBRANCH  28  29
ENDBRANCH  26  28
ENDBRANCH  23  24
ENDBRANCH  22  23
ENDBRANCH   6  22
BRANCH  14  39
HETATM   39  O5  UNL     1       0.424  52.317 -23.598  1.00  0.00    -0.395 OA
HETATM   40  H26 UNL     1       0.570  53.099 -24.159  1.00  0.00     0.210 HD
ENDBRANCH  14  39
BRANCH  21  41
HETATM   41  O6  UNL     1      -4.429  51.380 -25.328  1.00  0.00    -0.381 OA
HETATM   42  H37 UNL     1      -4.331  52.342 -25.487  1.00  0.00     0.211 HD
ENDBRANCH  21  41
BRANCH  21  43
HETATM   43  C30 UNL     1      -3.030  51.160 -27.323  1.00  0.00     0.184 C 
HETATM   44  O7  UNL     1      -3.199  50.399 -28.280  1.00  0.00    -0.292 OA
BRANCH  43  45
HETATM   45  C31 UNL     1      -2.512  52.576 -27.567  1.00  0.00     0.245 C 
BRANCH  45  46
HETATM   46  O8  UNL     1      -1.271  52.610 -28.255  1.00  0.00    -0.393 OA
HETATM   47  H40 UNL     1      -0.582  52.401 -27.592  1.00  0.00     0.209 HD
ENDBRANCH  45  46
ENDBRANCH  43  45
ENDBRANCH  21  43
TORSDOF 12
ENDMDL
MODEL 5
REMARK minimizedAffinity -9.58274841
REMARK CNNscore 0.429952174
REMARK CNNaffinity 6.67668343
REMARK  12 active torsions:
REMARK  status: ('A' for Active; 'I' for Inactive)
REMARK    1  A    between atoms: N1_6  and  O1_8 
REMARK    2  A    between atoms: O1_8  and  C6_9 
REMARK    3  A    between atoms: C6_9  and  C7_10 
REMARK       I    between atoms: C7_10  and  N2_12 
REMARK    4  A    between atoms: N2_12  and  C8_13 
REMARK    5  A    between atoms: C8_13  and  C9_14 
REMARK    6  A    between atoms: C12_17  and  C13_18 
REMARK    7  A    between atoms: C13_18  and  O4_20 
REMARK    8  A    between atoms: C22_29  and  O5_30 
REMARK    9  A    between atoms: C29_37  and  O6_38 
REMARK   10  A    between atoms: C29_37  and  C30_39 
REMARK   11  A    between atoms: C30_39  and  C31_41 
REMARK   12  A    between atoms: C31_41  and  O8_42 
ROOT
HETATM    1  C1  UNL     1       1.648  51.445 -21.484  1.00  0.00     0.020 C 
HETATM    2  C2  UNL     1       0.217  51.688 -20.955  1.00  0.00    -0.014 C 
HETATM    3  C3  UNL     1       0.150  53.095 -20.294  1.00  0.00     0.020 C 
HETATM    4  C4  UNL     1       0.925  53.193 -18.989  1.00  0.00     0.060 C 
HETATM    5  C5  UNL     1       0.476  52.135 -18.005  1.00  0.00     0.032 C 
HETATM    6  N1  UNL     1       0.588  52.424 -16.744  1.00  0.00    -0.271 N 
ATOM      7  H1  UNL     1       0.926  53.319 -16.392  1.00  0.00     0.194 HD
HETATM    8  C16 UNL     1       0.019  50.831 -18.566  1.00  0.00     0.030 C 
HETATM    9  C17 UNL     1      -0.056  50.615 -19.893  1.00  0.00    -0.069 C 
HETATM   10  C18 UNL     1      -0.363  49.228 -20.404  1.00  0.00     0.035 C 
HETATM   11  C19 UNL     1      -1.481  49.239 -21.434  1.00  0.00     0.010 C 
HETATM   12  C20 UNL     1      -1.155  50.176 -22.604  1.00  0.00    -0.002 C 
HETATM   13  C21 UNL     1      -0.894  51.626 -22.083  1.00  0.00     0.031 C 
HETATM   14  C22 UNL     1      -0.721  52.646 -23.249  1.00  0.00     0.124 C 
HETATM   15  C23 UNL     1      -1.818  52.535 -24.332  1.00  0.00     0.045 C 
HETATM   16  C24 UNL     1      -2.029  51.093 -24.853  1.00  0.00     0.001 C 
HETATM   17  C25 UNL     1      -0.797  50.606 -25.667  1.00  0.00     0.019 C 
HETATM   18  C26 UNL     1      -2.317  50.216 -23.611  1.00  0.00     0.002 C 
HETATM   19  C27 UNL     1      -2.804  48.902 -24.203  1.00  0.00     0.009 C 
HETATM   20  C28 UNL     1      -3.628  49.326 -25.431  1.00  0.00     0.047 C 
HETATM   21  C29 UNL     1      -3.332  50.837 -25.682  1.00  0.00     0.128 C 
ENDROOT
BRANCH   6  22
HETATM   22  O1  UNL     1       0.187  51.359 -15.924  1.00  0.00    -0.271 OA
BRANCH  22  23
HETATM   23  C6  UNL     1       1.330  50.858 -15.239  1.00  0.00     0.303 C 
BRANCH  23  24
HETATM   24  C7  UNL     1       1.043  50.872 -13.747  1.00  0.00     0.244 C 
HETATM   25  O2  UNL     1      -0.081  50.684 -13.288  1.00  0.00    -0.271 OA
HETATM   26  N2  UNL     1       2.154  51.096 -12.960  1.00  0.00    -0.355 N 
HETATM   27  H10 UNL     1       3.061  51.163 -13.404  1.00  0.00     0.162 HD
BRANCH  26  28
HETATM   28  C8  UNL     1       2.090  51.073 -11.516  1.00  0.00     0.161 C 
BRANCH  28  29
HETATM   29  C9  UNL     1       3.086  52.028 -10.907  1.00  0.00    -0.040 A 
HETATM   30  C10 UNL     1       4.121  51.560 -10.086  1.00  0.00     0.010 A 
HETATM   31  C11 UNL     1       5.040  52.455  -9.527  1.00  0.00     0.019 A 
HETATM   32  C12 UNL     1       4.929  53.828  -9.773  1.00  0.00     0.037 A 
HETATM   33  C14 UNL     1       3.895  54.302 -10.586  1.00  0.00     0.019 A 
HETATM   34  C15 UNL     1       2.982  53.407 -11.149  1.00  0.00     0.010 A 
BRANCH  32  35
HETATM   35  C13 UNL     1       5.923  54.738  -9.153  1.00  0.00     0.176 C 
HETATM   36  O3  UNL     1       5.668  55.733  -8.500  1.00  0.00    -0.646 OA
BRANCH  35  37
HETATM   37  O4  UNL     1       7.193  54.358  -9.381  1.00  0.00    -0.773 OA
HETATM   38  H15 UNL     1       7.732  55.040  -8.925  1.00  0.00     0.167 HD
ENDBRANCH  35  37
ENDBRANCH  32  35
ENDBRANCH  28  29
ENDBRANCH  26  28
ENDBRANCH  23  24
ENDBRANCH  22  23
ENDBRANCH   6  22
BRANCH  14  39
HETATM   39  O5  UNL     1       0.549  52.512 -23.870  1.00  0.00    -0.395 OA
HETATM   40  H26 UNL     1       0.659  53.246 -24.500  1.00  0.00     0.210 HD
ENDBRANCH  14  39
BRANCH  21  41
HETATM   41  O6  UNL     1      -4.444  51.549 -25.120  1.00  0.00    -0.381 OA
HETATM   42  H37 UNL     1      -4.346  52.493 -25.361  1.00  0.00     0.211 HD
ENDBRANCH  21  41
BRANCH  21  43
HETATM   43  C30 UNL     1      -3.219  51.148 -27.199  1.00  0.00     0.184 C 
HETATM   44  O7  UNL     1      -3.006  52.281 -27.641  1.00  0.00    -0.292 OA
BRANCH  43  45
HETATM   45  C31 UNL     1      -3.451  49.992 -28.169  1.00  0.00     0.245 C 
BRANCH  45  46
HETATM   46  O8  UNL     1      -3.807  50.417 -29.476  1.00  0.00    -0.393 OA
HETATM   47  H40 UNL     1      -4.754  50.661 -29.439  1.00  0.00     0.209 HD
ENDBRANCH  45  46
ENDBRANCH  43  45
ENDBRANCH  21  43
TORSDOF 12
ENDMDL
MODEL 6
REMARK minimizedAffinity -8.42001629
REMARK CNNscore 0.423273087
REMARK CNNaffinity 6.30108452
REMARK  12 active torsions:
REMARK  status: ('A' for Active; 'I' for Inactive)
REMARK    1  A    between atoms: N1_6  and  O1_8 
REMARK    2  A    between atoms: O1_8  and  C6_9 
REMARK    3  A    between atoms: C6_9  and  C7_10 
REMARK       I    between atoms: C7_10  and  N2_12 
REMARK    4  A    between atoms: N2_12  and  C8_13 
REMARK    5  A    between atoms: C8_13  and  C9_14 
REMARK    6  A    between atoms: C12_17  and  C13_18 
REMARK    7  A    between atoms: C13_18  and  O4_20 
REMARK    8  A    between atoms: C22_29  and  O5_30 
REMARK    9  A    between atoms: C29_37  and  O6_38 
REMARK   10  A    between atoms: C29_37  and  C30_39 
REMARK   11  A    between atoms: C30_39  and  C31_41 
REMARK   12  A    between atoms: C31_41  and  O8_42 
ROOT
HETATM    1  C1  UNL     1      -5.032  48.082 -20.521  1.00  0.00     0.020 C 
HETATM    2  C2  UNL     1      -6.033  48.946 -21.320  1.00  0.00    -0.014 C 
HETATM    3  C3  UNL     1      -6.804  49.874 -20.337  1.00  0.00     0.020 C 
HETATM    4  C4  UNL     1      -7.775  49.131 -19.432  1.00  0.00     0.060 C 
HETATM    5  C5  UNL     1      -8.751  48.303 -20.239  1.00  0.00     0.032 C 
HETATM    6  N1  UNL     1      -9.921  48.102 -19.714  1.00  0.00    -0.271 N 
ATOM      7  H1  UNL     1     -10.219  48.491 -18.820  1.00  0.00     0.194 HD
HETATM    8  C16 UNL     1      -8.259  47.728 -21.525  1.00  0.00     0.030 C 
HETATM    9  C17 UNL     1      -7.021  47.982 -21.989  1.00  0.00    -0.069 C 
HETATM   10  C18 UNL     1      -6.518  47.243 -23.206  1.00  0.00     0.035 C 
HETATM   11  C19 UNL     1      -5.931  48.189 -24.241  1.00  0.00     0.010 C 
HETATM   12  C20 UNL     1      -4.811  49.050 -23.640  1.00  0.00    -0.002 C 
HETATM   13  C21 UNL     1      -5.345  49.859 -22.416  1.00  0.00     0.031 C 
HETATM   14  C22 UNL     1      -4.287  50.871 -21.875  1.00  0.00     0.124 C 
HETATM   15  C23 UNL     1      -3.632  51.727 -22.983  1.00  0.00     0.045 C 
HETATM   16  C24 UNL     1      -3.082  50.894 -24.165  1.00  0.00     0.001 C 
HETATM   17  C25 UNL     1      -1.860  50.039 -23.727  1.00  0.00     0.019 C 
HETATM   18  C26 UNL     1      -4.263  50.037 -24.684  1.00  0.00     0.002 C 
HETATM   19  C27 UNL     1      -3.752  49.481 -26.005  1.00  0.00     0.009 C 
HETATM   20  C28 UNL     1      -2.917  50.630 -26.597  1.00  0.00     0.047 C 
HETATM   21  C29 UNL     1      -2.722  51.685 -25.466  1.00  0.00     0.128 C 
ENDROOT
BRANCH   6  22
HETATM   22  O1  UNL     1     -10.726  47.286 -20.522  1.00  0.00    -0.271 OA
BRANCH  22  23
HETATM   23  C6  UNL     1     -11.887  46.920 -19.785  1.00  0.00     0.303 C 
BRANCH  23  24
HETATM   24  C7  UNL     1     -13.089  47.621 -20.399  1.00  0.00     0.244 C 
HETATM   25  O2  UNL     1     -13.283  48.827 -20.278  1.00  0.00    -0.271 OA
HETATM   26  N2  UNL     1     -13.924  46.787 -21.113  1.00  0.00    -0.355 N 
HETATM   27  H10 UNL     1     -13.659  45.818 -21.237  1.00  0.00     0.162 HD
BRANCH  26  28
HETATM   28  C8  UNL     1     -15.078  47.285 -21.827  1.00  0.00     0.161 C 
BRANCH  28  29
HETATM   29  C9  UNL     1     -15.010  46.935 -23.293  1.00  0.00    -0.040 A 
HETATM   30  C10 UNL     1     -16.164  46.569 -24.000  1.00  0.00     0.010 A 
HETATM   31  C11 UNL     1     -16.089  46.248 -25.359  1.00  0.00     0.019 A 
HETATM   32  C12 UNL     1     -14.858  46.276 -26.025  1.00  0.00     0.037 A 
HETATM   33  C14 UNL     1     -13.702  46.633 -25.324  1.00  0.00     0.019 A 
HETATM   34  C15 UNL     1     -13.780  46.962 -23.969  1.00  0.00     0.010 A 
BRANCH  32  35
HETATM   35  C13 UNL     1     -14.827  45.920 -27.465  1.00  0.00     0.176 C 
HETATM   36  O3  UNL     1     -15.662  45.257 -28.053  1.00  0.00    -0.646 OA
BRANCH  35  37
HETATM   37  O4  UNL     1     -13.751  46.413 -28.102  1.00  0.00    -0.773 OA
HETATM   38  H15 UNL     1     -13.857  46.102 -29.028  1.00  0.00     0.167 HD
ENDBRANCH  35  37
ENDBRANCH  32  35
ENDBRANCH  28  29
ENDBRANCH  26  28
ENDBRANCH  23  24
ENDBRANCH  22  23
ENDBRANCH   6  22
BRANCH  14  39
HETATM   39  O5  UNL     1      -3.265  50.209 -21.145  1.00  0.00    -0.395 OA
HETATM   40  H26 UNL     1      -2.706  50.885 -20.724  1.00  0.00     0.210 HD
ENDBRANCH  14  39
BRANCH  21  41
HETATM   41  O6  UNL     1      -3.689  52.714 -25.724  1.00  0.00    -0.381 OA
HETATM   42  H37 UNL     1      -3.517  53.448 -25.099  1.00  0.00     0.211 HD
ENDBRANCH  21  41
BRANCH  21  43
HETATM   43  C30 UNL     1      -1.290  52.288 -25.495  1.00  0.00     0.184 C 
HETATM   44  O7  UNL     1      -1.017  53.398 -25.028  1.00  0.00    -0.292 OA
BRANCH  43  45
HETATM   45  C31 UNL     1      -0.203  51.476 -26.194  1.00  0.00     0.245 C 
BRANCH  45  46
HETATM   46  O8  UNL     1      -0.105  51.748 -27.584  1.00  0.00    -0.393 OA
HETATM   47  H40 UNL     1      -0.837  51.260 -28.013  1.00  0.00     0.209 HD
ENDBRANCH  45  46
ENDBRANCH  43  45
ENDBRANCH  21  43
TORSDOF 12
ENDMDL
MODEL 7
REMARK minimizedAffinity -8.3875618
REMARK CNNscore 0.410242468
REMARK CNNaffinity 5.91278458
REMARK  12 active torsions:
REMARK  status: ('A' for Active; 'I' for Inactive)
REMARK    1  A    between atoms: N1_6  and  O1_8 
REMARK    2  A    between atoms: O1_8  and  C6_9 
REMARK    3  A    between atoms: C6_9  and  C7_10 
REMARK       I    between atoms: C7_10  and  N2_12 
REMARK    4  A    between atoms: N2_12  and  C8_13 
REMARK    5  A    between atoms: C8_13  and  C9_14 
REMARK    6  A    between atoms: C12_17  and  C13_18 
REMARK    7  A    between atoms: C13_18  and  O4_20 
REMARK    8  A    between atoms: C22_29  and  O5_30 
REMARK    9  A    between atoms: C29_37  and  O6_38 
REMARK   10  A    between atoms: C29_37  and  C30_39 
REMARK   11  A    between atoms: C30_39  and  C31_41 
REMARK   12  A    between atoms: C31_41  and  O8_42 
ROOT
HETATM    1  C1  UNL     1      -5.774  47.336 -20.343  1.00  0.00     0.020 C 
HETATM    2  C2  UNL     1      -6.646  48.365 -21.095  1.00  0.00    -0.014 C 
HETATM    3  C3  UNL     1      -7.141  49.446 -20.090  1.00  0.00     0.020 C 
HETATM    4  C4  UNL     1      -8.164  48.926 -19.092  1.00  0.00     0.060 C 
HETATM    5  C5  UNL     1      -9.344  48.293 -19.797  1.00  0.00     0.032 C 
HETATM    6  N1  UNL     1     -10.486  48.337 -19.181  1.00  0.00    -0.271 N 
ATOM      7  H1  UNL     1     -10.631  48.794 -18.281  1.00  0.00     0.194 HD
HETATM    8  C16 UNL     1      -9.076  47.608 -21.095  1.00  0.00     0.030 C 
HETATM    9  C17 UNL     1      -7.853  47.603 -21.658  1.00  0.00    -0.069 C 
HETATM   10  C18 UNL     1      -7.602  46.757 -22.882  1.00  0.00     0.035 C 
HETATM   11  C19 UNL     1      -6.924  47.550 -23.989  1.00  0.00     0.010 C 
HETATM   12  C20 UNL     1      -5.613  48.183 -23.501  1.00  0.00    -0.002 C 
HETATM   13  C21 UNL     1      -5.880  49.105 -22.268  1.00  0.00     0.031 C 
HETATM   14  C22 UNL     1      -4.606  49.897 -21.841  1.00  0.00     0.124 C 
HETATM   15  C23 UNL     1      -3.885  50.586 -23.022  1.00  0.00     0.045 C 
HETATM   16  C24 UNL     1      -3.604  49.639 -24.213  1.00  0.00     0.001 C 
HETATM   17  C25 UNL     1      -2.542  48.568 -23.837  1.00  0.00     0.019 C 
HETATM   18  C26 UNL     1      -4.966  49.023 -24.614  1.00  0.00     0.002 C 
HETATM   19  C27 UNL     1      -4.679  48.353 -25.950  1.00  0.00     0.009 C 
HETATM   20  C28 UNL     1      -3.684  49.303 -26.640  1.00  0.00     0.047 C 
HETATM   21  C29 UNL     1      -3.199  50.320 -25.562  1.00  0.00     0.128 C 
ENDROOT
BRANCH   6  22
HETATM   22  O1  UNL     1     -11.496  47.682 -19.900  1.00  0.00    -0.271 OA
BRANCH  22  23
HETATM   23  C6  UNL     1     -12.731  48.347 -19.659  1.00  0.00     0.303 C 
BRANCH  23  24
HETATM   24  C7  UNL     1     -13.833  47.303 -19.580  1.00  0.00     0.244 C 
HETATM   25  O2  UNL     1     -14.716  47.339 -18.727  1.00  0.00    -0.271 OA
HETATM   26  N2  UNL     1     -13.762  46.332 -20.556  1.00  0.00    -0.355 N 
HETATM   27  H10 UNL     1     -13.054  46.411 -21.275  1.00  0.00     0.162 HD
BRANCH  26  28
HETATM   28  C8  UNL     1     -14.765  45.298 -20.685  1.00  0.00     0.161 C 
BRANCH  28  29
HETATM   29  C9  UNL     1     -15.743  45.615 -21.788  1.00  0.00    -0.040 A 
HETATM   30  C10 UNL     1     -15.407  46.512 -22.812  1.00  0.00     0.010 A 
HETATM   31  C11 UNL     1     -16.322  46.799 -23.830  1.00  0.00     0.019 A 
HETATM   32  C12 UNL     1     -17.588  46.202 -23.831  1.00  0.00     0.037 A 
HETATM   33  C14 UNL     1     -17.933  45.311 -22.810  1.00  0.00     0.019 A 
HETATM   34  C15 UNL     1     -17.015  45.020 -21.797  1.00  0.00     0.010 A 
BRANCH  32  35
HETATM   35  C13 UNL     1     -18.527  46.542 -24.929  1.00  0.00     0.176 C 
HETATM   36  O3  UNL     1     -19.428  47.357 -24.868  1.00  0.00    -0.646 OA
BRANCH  35  37
HETATM   37  O4  UNL     1     -18.292  45.842 -26.052  1.00  0.00    -0.773 OA
HETATM   38  H15 UNL     1     -18.977  46.160 -26.680  1.00  0.00     0.167 HD
ENDBRANCH  35  37
ENDBRANCH  32  35
ENDBRANCH  28  29
ENDBRANCH  26  28
ENDBRANCH  23  24
ENDBRANCH  22  23
ENDBRANCH   6  22
BRANCH  14  39
HETATM   39  O5  UNL     1      -3.679  49.060 -21.166  1.00  0.00    -0.395 OA
HETATM   40  H26 UNL     1      -2.967  49.620 -20.810  1.00  0.00     0.210 HD
ENDBRANCH  14  39
BRANCH  21  41
HETATM   41  O6  UNL     1      -3.963  51.514 -25.783  1.00  0.00    -0.381 OA
HETATM   42  H37 UNL     1      -3.602  52.211 -25.197  1.00  0.00     0.211 HD
ENDBRANCH  21  41
BRANCH  21  43
HETATM   43  C30 UNL     1      -1.684  50.627 -25.716  1.00  0.00     0.184 C 
HETATM   44  O7  UNL     1      -0.905  50.673 -24.759  1.00  0.00    -0.292 OA
BRANCH  43  45
HETATM   45  C31 UNL     1      -1.173  50.944 -27.120  1.00  0.00     0.245 C 
BRANCH  45  46
HETATM   46  O8  UNL     1      -2.170  51.490 -27.971  1.00  0.00    -0.393 OA
HETATM   47  H40 UNL     1      -2.720  50.738 -28.269  1.00  0.00     0.209 HD
ENDBRANCH  45  46
ENDBRANCH  43  45
ENDBRANCH  21  43
TORSDOF 12
ENDMDL
MODEL 8
REMARK minimizedAffinity -9.35386467
REMARK CNNscore 0.408192098
REMARK CNNaffinity 6.56620455
REMARK  12 active torsions:
REMARK  status: ('A' for Active; 'I' for Inactive)
REMARK    1  A    between atoms: N1_6  and  O1_8 
REMARK    2  A    between atoms: O1_8  and  C6_9 
REMARK    3  A    between atoms: C6_9  and  C7_10 
REMARK       I    between atoms: C7_10  and  N2_12 
REMARK    4  A    between atoms: N2_12  and  C8_13 
REMARK    5  A    between atoms: C8_13  and  C9_14 
REMARK    6  A    between atoms: C12_17  and  C13_18 
REMARK    7  A    between atoms: C13_18  and  O4_20 
REMARK    8  A    between atoms: C22_29  and  O5_30 
REMARK    9  A    between atoms: C29_37  and  O6_38 
REMARK   10  A    between atoms: C29_37  and  C30_39 
REMARK   11  A    between atoms: C30_39  and  C31_41 
REMARK   12  A    between atoms: C31_41  and  O8_42 
ROOT
HETATM    1  C1  UNL     1       1.448  51.059 -21.193  1.00  0.00     0.020 C 
HETATM    2  C2  UNL     1      -0.023  51.321 -20.801  1.00  0.00    -0.014 C 
HETATM    3  C3  UNL     1      -0.110  52.660 -20.013  1.00  0.00     0.020 C 
HETATM    4  C4  UNL     1       0.516  52.594 -18.628  1.00  0.00     0.060 C 
HETATM    5  C5  UNL     1      -0.083  51.470 -17.810  1.00  0.00     0.032 C 
HETATM    6  N1  UNL     1      -0.104  51.630 -16.522  1.00  0.00    -0.271 N 
ATOM      7  H1  UNL     1       0.227  52.470 -16.047  1.00  0.00     0.194 HD
HETATM    8  C16 UNL     1      -0.524  50.250 -18.547  1.00  0.00     0.030 C 
HETATM    9  C17 UNL     1      -0.456  50.166 -19.889  1.00  0.00    -0.069 C 
HETATM   10  C18 UNL     1      -0.757  48.851 -20.567  1.00  0.00     0.035 C 
HETATM   11  C19 UNL     1      -1.750  49.017 -21.707  1.00  0.00     0.010 C 
HETATM   12  C20 UNL     1      -1.257  50.045 -22.734  1.00  0.00    -0.002 C 
HETATM   13  C21 UNL     1      -1.000  51.422 -22.044  1.00  0.00     0.031 C 
HETATM   14  C22 UNL     1      -0.656  52.541 -23.076  1.00  0.00     0.124 C 
HETATM   15  C23 UNL     1      -1.628  52.589 -24.277  1.00  0.00     0.045 C 
HETATM   16  C24 UNL     1      -1.834  51.216 -24.961  1.00  0.00     0.001 C 
HETATM   17  C25 UNL     1      -0.538  50.748 -25.681  1.00  0.00     0.019 C 
HETATM   18  C26 UNL     1      -2.294  50.239 -23.852  1.00  0.00     0.002 C 
HETATM   19  C27 UNL     1      -2.762  49.013 -24.623  1.00  0.00     0.009 C 
HETATM   20  C28 UNL     1      -3.424  49.594 -25.885  1.00  0.00     0.047 C 
HETATM   21  C29 UNL     1      -3.043  51.105 -25.948  1.00  0.00     0.128 C 
ENDROOT
BRANCH   6  22
HETATM   22  O1  UNL     1      -0.635  50.513 -15.863  1.00  0.00    -0.271 OA
BRANCH  22  23
HETATM   23  C6  UNL     1      -2.022  50.737 -15.633  1.00  0.00     0.303 C 
BRANCH  23  24
HETATM   24  C7  UNL     1      -2.320  50.459 -14.169  1.00  0.00     0.244 C 
HETATM   25  O2  UNL     1      -1.924  49.449 -13.594  1.00  0.00    -0.271 OA
HETATM   26  N2  UNL     1      -3.055  51.446 -13.546  1.00  0.00    -0.355 N 
HETATM   27  H10 UNL     1      -3.278  52.288 -14.060  1.00  0.00     0.162 HD
BRANCH  26  28
HETATM   28  C8  UNL     1      -3.374  51.392 -12.137  1.00  0.00     0.161 C 
BRANCH  28  29
HETATM   29  C9  UNL     1      -2.612  52.437 -11.361  1.00  0.00    -0.040 A 
HETATM   30  C10 UNL     1      -3.277  53.517 -10.763  1.00  0.00     0.010 A 
HETATM   31  C11 UNL     1      -2.561  54.480 -10.045  1.00  0.00     0.019 A 
HETATM   32  C12 UNL     1      -1.169  54.383  -9.926  1.00  0.00     0.037 A 
HETATM   33  C14 UNL     1      -0.499  53.313 -10.525  1.00  0.00     0.019 A 
HETATM   34  C15 UNL     1      -1.216  52.347 -11.235  1.00  0.00     0.010 A 
BRANCH  32  35
HETATM   35  C13 UNL     1      -0.453  55.432  -9.161  1.00  0.00     0.176 C 
HETATM   36  O3  UNL     1      -0.961  56.413  -8.649  1.00  0.00    -0.646 OA
BRANCH  35  37
HETATM   37  O4  UNL     1       0.869  55.204  -9.073  1.00  0.00    -0.773 OA
HETATM   38  H15 UNL     1       1.210  55.965  -8.554  1.00  0.00     0.167 HD
ENDBRANCH  35  37
ENDBRANCH  32  35
ENDBRANCH  28  29
ENDBRANCH  26  28
ENDBRANCH  23  24
ENDBRANCH  22  23
ENDBRANCH   6  22
BRANCH  14  39
HETATM   39  O5  UNL     1       0.669  52.403 -23.565  1.00  0.00    -0.395 OA
HETATM   40  H26 UNL     1       0.879  53.188 -24.101  1.00  0.00     0.210 HD
ENDBRANCH  14  39
BRANCH  21  41
HETATM   41  O6  UNL     1      -4.183  51.814 -25.441  1.00  0.00    -0.381 OA
HETATM   42  H37 UNL     1      -4.022  52.771 -25.574  1.00  0.00     0.211 HD
ENDBRANCH  21  41
BRANCH  21  43
HETATM   43  C30 UNL     1      -2.747  51.555 -27.405  1.00  0.00     0.184 C 
HETATM   44  O7  UNL     1      -3.290  51.046 -28.390  1.00  0.00    -0.292 OA
BRANCH  43  45
HETATM   45  C31 UNL     1      -1.686  52.634 -27.603  1.00  0.00     0.245 C 
BRANCH  45  46
HETATM   46  O8  UNL     1      -2.196  53.825 -28.184  1.00  0.00    -0.393 OA
HETATM   47  H40 UNL     1      -2.288  53.647 -29.142  1.00  0.00     0.209 HD
ENDBRANCH  45  46
ENDBRANCH  43  45
ENDBRANCH  21  43
TORSDOF 12
ENDMDL
MODEL 9
REMARK minimizedAffinity -9.3656044
REMARK CNNscore 0.399216682
REMARK CNNaffinity 6.1634407
REMARK  12 active torsions:
REMARK  status: ('A' for Active; 'I' for Inactive)
REMARK    1  A    between atoms: N1_6  and  O1_8 
REMARK    2  A    between atoms: O1_8  and  C6_9 
REMARK    3  A    between atoms: C6_9  and  C7_10 
REMARK       I    between atoms: C7_10  and  N2_12 
REMARK    4  A    between atoms: N2_12  and  C8_13 
REMARK    5  A    between atoms: C8_13  and  C9_14 
REMARK    6  A    between atoms: C12_17  and  C13_18 
REMARK    7  A    between atoms: C13_18  and  O4_20 
REMARK    8  A    between atoms: C22_29  and  O5_30 
REMARK    9  A    between atoms: C29_37  and  O6_38 
REMARK   10  A    between atoms: C29_37  and  C30_39 
REMARK   11  A    between atoms: C30_39  and  C31_41 
REMARK   12  A    between atoms: C31_41  and  O8_42 
ROOT
HETATM    1  C1  UNL     1      -4.214  48.867 -20.588  1.00  0.00     0.020 C 
HETATM    2  C2  UNL     1      -5.243  49.468 -21.572  1.00  0.00    -0.014 C 
HETATM    3  C3  UNL     1      -6.225  50.384 -20.786  1.00  0.00     0.020 C 
HETATM    4  C4  UNL     1      -7.166  49.621 -19.867  1.00  0.00     0.060 C 
HETATM    5  C5  UNL     1      -7.937  48.565 -20.628  1.00  0.00     0.032 C 
HETATM    6  N1  UNL     1      -9.114  48.258 -20.173  1.00  0.00    -0.271 N 
ATOM      7  H1  UNL     1      -9.548  48.705 -19.365  1.00  0.00     0.194 HD
HETATM    8  C16 UNL     1      -7.250  47.918 -21.783  1.00  0.00     0.030 C 
HETATM    9  C17 UNL     1      -6.020  48.294 -22.180  1.00  0.00    -0.069 C 
HETATM   10  C18 UNL     1      -5.306  47.495 -23.244  1.00  0.00     0.035 C 
HETATM   11  C19 UNL     1      -4.757  48.385 -24.348  1.00  0.00     0.010 C 
HETATM   12  C20 UNL     1      -3.829  49.469 -23.783  1.00  0.00    -0.002 C 
HETATM   13  C21 UNL     1      -4.584  50.334 -22.724  1.00  0.00     0.031 C 
HETATM   14  C22 UNL     1      -3.732  51.549 -22.244  1.00  0.00     0.124 C 
HETATM   15  C23 UNL     1      -3.098  52.352 -23.403  1.00  0.00     0.045 C 
HETATM   16  C24 UNL     1      -2.328  51.472 -24.416  1.00  0.00     0.001 C 
HETATM   17  C25 UNL     1      -1.047  50.868 -23.773  1.00  0.00     0.019 C 
HETATM   18  C26 UNL     1      -3.324  50.392 -24.904  1.00  0.00     0.002 C 
HETATM   19  C27 UNL     1      -2.617  49.762 -26.095  1.00  0.00     0.009 C 
HETATM   20  C28 UNL     1      -1.895  50.941 -26.770  1.00  0.00     0.047 C 
HETATM   21  C29 UNL     1      -1.956  52.144 -25.779  1.00  0.00     0.128 C 
ENDROOT
BRANCH   6  22
HETATM   22  O1  UNL     1      -9.718  47.240 -20.924  1.00  0.00    -0.271 OA
BRANCH  22  23
HETATM   23  C6  UNL     1     -11.008  46.978 -20.382  1.00  0.00     0.303 C 
BRANCH  23  24
HETATM   24  C7  UNL     1     -11.995  46.841 -21.530  1.00  0.00     0.244 C 
HETATM   25  O2  UNL     1     -11.695  46.321 -22.601  1.00  0.00    -0.271 OA
HETATM   26  N2  UNL     1     -13.253  47.335 -21.254  1.00  0.00    -0.355 N 
HETATM   27  H10 UNL     1     -13.451  47.677 -20.322  1.00  0.00     0.162 HD
BRANCH  26  28
HETATM   28  C8  UNL     1     -14.344  47.228 -22.197  1.00  0.00     0.161 C 
BRANCH  28  29
HETATM   29  C9  UNL     1     -15.648  46.934 -21.497  1.00  0.00    -0.040 A 
HETATM   30  C10 UNL     1     -16.717  46.346 -22.186  1.00  0.00     0.010 A 
HETATM   31  C11 UNL     1     -17.921  46.078 -21.527  1.00  0.00     0.019 A 
HETATM   32  C12 UNL     1     -18.075  46.405 -20.175  1.00  0.00     0.037 A 
HETATM   33  C14 UNL     1     -17.015  46.998 -19.483  1.00  0.00     0.019 A 
HETATM   34  C15 UNL     1     -15.810  47.258 -20.141  1.00  0.00     0.010 A 
BRANCH  32  35
HETATM   35  C13 UNL     1     -19.373  46.107 -19.521  1.00  0.00     0.176 C 
HETATM   36  O3  UNL     1     -19.891  45.009 -19.433  1.00  0.00    -0.646 OA
BRANCH  35  37
HETATM   37  O4  UNL     1     -19.963  47.201 -19.008  1.00  0.00    -0.773 OA
HETATM   38  H15 UNL     1     -20.799  46.862 -18.619  1.00  0.00     0.167 HD
ENDBRANCH  35  37
ENDBRANCH  32  35
ENDBRANCH  28  29
ENDBRANCH  26  28
ENDBRANCH  23  24
ENDBRANCH  22  23
ENDBRANCH   6  22
BRANCH  14  39
HETATM   39  O5  UNL     1      -2.704  51.141 -21.354  1.00  0.00    -0.395 OA
HETATM   40  H26 UNL     1      -2.286  51.939 -20.986  1.00  0.00     0.210 HD
ENDBRANCH  14  39
BRANCH  21  41
HETATM   41  O6  UNL     1      -3.026  52.978 -26.247  1.00  0.00    -0.381 OA
HETATM   42  H37 UNL     1      -3.017  53.800 -25.715  1.00  0.00     0.211 HD
ENDBRANCH  21  41
BRANCH  21  43
HETATM   43  C30 UNL     1      -0.625  52.944 -25.777  1.00  0.00     0.184 C 
HETATM   44  O7  UNL     1      -0.448  53.955 -25.091  1.00  0.00    -0.292 OA
BRANCH  43  45
HETATM   45  C31 UNL     1       0.476  52.474 -26.725  1.00  0.00     0.245 C 
BRANCH  45  46
HETATM   46  O8  UNL     1       1.769  52.498 -26.141  1.00  0.00    -0.393 OA
HETATM   47  H40 UNL     1       2.063  53.431 -26.158  1.00  0.00     0.209 HD
ENDBRANCH  45  46
ENDBRANCH  43  45
ENDBRANCH  21  43
TORSDOF 12
ENDMDL
