MODEL 1
REMARK minimizedAffinity -9.24869251
REMARK  8 active torsions:
REMARK  status: ('A' for Active; 'I' for Inactive)
REMARK    1  A    between atoms: C2_2  and  C3_3 
REMARK    2  A    between atoms: C2_2  and  C29_30 
REMARK    3  A    between atoms: C3_3  and  C4_4 
REMARK    4  A    between atoms: C4_4  and  C5_5 
REMARK    5  A    between atoms: C5_5  and  C7_7 
REMARK    6  A    between atoms: C29_30  and  C31_32 
REMARK    7  A    between atoms: C31_32  and  O2_33 
REMARK    8  A    between atoms: O2_33  and  C32_34 
ROOT
HETATM    1  C7  UNL     1      -3.942  50.187 -24.210  1.00  0.00    -0.002 C 
HETATM    2  C8  UNL     1      -4.717  51.543 -24.158  1.00  0.00     0.006 C 
HETATM    3  C9  UNL     1      -4.246  52.304 -22.897  1.00  0.00     0.011 C 
HETATM    4  C10 UNL     1      -3.006  51.531 -22.438  1.00  0.00    -0.032 C 
HETATM    5  C11 UNL     1      -1.826  52.045 -23.351  1.00  0.00     0.016 C 
HETATM    6  C12 UNL     1      -2.501  51.752 -20.989  1.00  0.00     0.004 C 
HETATM    7  C13 UNL     1      -3.532  51.681 -19.812  1.00  0.00     0.007 C 
HETATM    8  C14 UNL     1      -3.095  50.790 -18.602  1.00  0.00     0.007 C 
HETATM    9  C15 UNL     1      -1.648  51.095 -18.191  1.00  0.00     0.010 C 
HETATM   10  C16 UNL     1      -0.877  50.320 -17.122  1.00  0.00     0.018 C 
HETATM   11  C17 UNL     1      -0.670  48.850 -17.503  1.00  0.00     0.023 C 
HETATM   12  C18 UNL     1      -1.587  50.398 -15.763  1.00  0.00     0.023 C 
HETATM   13  C19 UNL     1       0.502  51.027 -16.989  1.00  0.00     0.135 C 
HETATM   14  O1  UNL     1       1.419  50.506 -16.347  1.00  0.00    -0.297 OA
HETATM   15  C20 UNL     1       0.677  52.446 -17.572  1.00  0.00     0.080 C 
HETATM   16  C21 UNL     1       0.011  52.685 -18.952  1.00  0.00     0.018 C 
HETATM   17  C22 UNL     1      -0.721  51.415 -19.347  1.00  0.00    -0.026 A 
HETATM   18  C23 UNL     1       0.090  50.841 -20.465  1.00  0.00     0.021 A 
HETATM   19  C24 UNL     1      -1.371  50.782 -20.674  1.00  0.00    -0.027 A 
HETATM   20  C25 UNL     1      -1.696  49.309 -21.027  1.00  0.00     0.011 C 
HETATM   21  C26 UNL     1      -2.220  49.139 -22.474  1.00  0.00     0.011 C 
HETATM   22  C27 UNL     1      -3.439  50.039 -22.737  1.00  0.00    -0.032 C 
HETATM   23  C28 UNL     1      -4.621  49.485 -21.890  1.00  0.00     0.016 C 
ENDROOT
BRANCH   1  24
HETATM   24  C5  UNL     1      -4.780  49.061 -24.882  1.00  0.00    -0.014 C 
HETATM   25  C6  UNL     1      -5.241  47.999 -23.878  1.00  0.00     0.010 C 
BRANCH  24  26
HETATM   26  C4  UNL     1      -4.037  48.379 -26.064  1.00  0.00     0.009 C 
BRANCH  26  27
HETATM   27  C3  UNL     1      -2.586  48.836 -26.269  1.00  0.00     0.034 C 
BRANCH  27  28
HETATM   28  C2  UNL     1      -2.481  50.121 -27.079  1.00  0.00    -0.083 C 
HETATM   29  C1  UNL     1      -3.309  50.306 -28.124  1.00  0.00     0.015 C 
BRANCH  28  30
HETATM   30  C29 UNL     1      -1.404  51.126 -26.644  1.00  0.00     0.034 C 
HETATM   31  C30 UNL     1      -0.117  50.387 -26.257  1.00  0.00     0.017 C 
BRANCH  30  32
HETATM   32  C31 UNL     1      -1.052  52.228 -27.667  1.00  0.00     0.187 C 
BRANCH  32  33
HETATM   33  O2  UNL     1       0.171  52.878 -27.281  1.00  0.00    -0.321 OA
BRANCH  33  34
HETATM   34  C32 UNL     1       0.005  54.131 -26.778  1.00  0.00     0.254 C 
HETATM   35  C33 UNL     1       0.314  54.142 -25.312  1.00  0.00     0.126 C 
HETATM   36  O3  UNL     1      -0.347  55.113 -27.418  1.00  0.00    -0.266 OA
ENDBRANCH  33  34
ENDBRANCH  32  33
ENDBRANCH  30  32
ENDBRANCH  28  30
ENDBRANCH  27  28
ENDBRANCH  26  27
ENDBRANCH  24  26
ENDBRANCH   1  24
TORSDOF 8
ENDMDL
MODEL 2
REMARK minimizedAffinity -9.17553806
REMARK  8 active torsions:
REMARK  status: ('A' for Active; 'I' for Inactive)
REMARK    1  A    between atoms: C2_2  and  C3_3 
REMARK    2  A    between atoms: C2_2  and  C29_30 
REMARK    3  A    between atoms: C3_3  and  C4_4 
REMARK    4  A    between atoms: C4_4  and  C5_5 
REMARK    5  A    between atoms: C5_5  and  C7_7 
REMARK    6  A    between atoms: C29_30  and  C31_32 
REMARK    7  A    between atoms: C31_32  and  O2_33 
REMARK    8  A    between atoms: O2_33  and  C32_34 
ROOT
HETATM    1  C7  UNL     1      -0.057  51.418 -20.634  1.00  0.00    -0.002 C 
HETATM    2  C8  UNL     1      -0.474  52.117 -19.301  1.00  0.00     0.006 C 
HETATM    3  C9  UNL     1      -1.812  51.493 -18.841  1.00  0.00     0.011 C 
HETATM    4  C10 UNL     1      -1.969  50.255 -19.730  1.00  0.00    -0.032 C 
HETATM    5  C11 UNL     1      -1.069  49.142 -19.063  1.00  0.00     0.016 C 
HETATM    6  C12 UNL     1      -3.372  49.605 -19.839  1.00  0.00     0.004 C 
HETATM    7  C13 UNL     1      -4.606  50.524 -20.132  1.00  0.00     0.007 C 
HETATM    8  C14 UNL     1      -5.550  50.019 -21.275  1.00  0.00     0.007 C 
HETATM    9  C15 UNL     1      -5.866  48.526 -21.105  1.00  0.00     0.010 C 
HETATM   10  C16 UNL     1      -6.663  47.697 -22.113  1.00  0.00     0.018 C 
HETATM   11  C17 UNL     1      -5.960  47.598 -23.472  1.00  0.00     0.023 C 
HETATM   12  C18 UNL     1      -8.073  48.272 -22.309  1.00  0.00     0.023 C 
HETATM   13  C19 UNL     1      -6.801  46.279 -21.489  1.00  0.00     0.135 C 
HETATM   14  O1  UNL     1      -7.221  45.332 -22.160  1.00  0.00    -0.297 OA
HETATM   15  C20 UNL     1      -6.515  46.090 -19.983  1.00  0.00     0.080 C 
HETATM   16  C21 UNL     1      -5.292  46.871 -19.434  1.00  0.00     0.018 C 
HETATM   17  C22 UNL     1      -4.715  47.698 -20.569  1.00  0.00    -0.026 A 
HETATM   18  C23 UNL     1      -3.424  47.024 -20.912  1.00  0.00     0.021 A 
HETATM   19  C24 UNL     1      -3.358  48.500 -20.884  1.00  0.00    -0.027 A 
HETATM   20  C25 UNL     1      -2.736  48.928 -22.238  1.00  0.00     0.011 C 
HETATM   21  C26 UNL     1      -1.347  49.593 -22.078  1.00  0.00     0.011 C 
HETATM   22  C27 UNL     1      -1.407  50.786 -21.110  1.00  0.00    -0.032 C 
HETATM   23  C28 UNL     1      -2.234  51.909 -21.800  1.00  0.00     0.016 C 
ENDROOT
BRANCH   1  24
HETATM   24  C5  UNL     1       0.748  52.368 -21.566  1.00  0.00    -0.014 C 
HETATM   25  C6  UNL     1       1.095  53.697 -20.886  1.00  0.00     0.010 C 
BRANCH  24  26
HETATM   26  C4  UNL     1       0.028  52.641 -22.917  1.00  0.00     0.009 C 
BRANCH  26  27
HETATM   27  C3  UNL     1       0.959  52.795 -24.128  1.00  0.00     0.034 C 
BRANCH  27  28
HETATM   28  C2  UNL     1       0.512  51.965 -25.324  1.00  0.00    -0.083 C 
HETATM   29  C1  UNL     1      -0.520  51.113 -25.181  1.00  0.00     0.015 C 
BRANCH  28  30
HETATM   30  C29 UNL     1       1.298  52.155 -26.629  1.00  0.00     0.034 C 
HETATM   31  C30 UNL     1       2.572  51.302 -26.607  1.00  0.00     0.017 C 
BRANCH  30  32
HETATM   32  C31 UNL     1       0.528  51.859 -27.935  1.00  0.00     0.187 C 
BRANCH  32  33
HETATM   33  O2  UNL     1       0.182  53.093 -28.587  1.00  0.00    -0.321 OA
BRANCH  33  34
HETATM   34  C32 UNL     1      -0.757  53.828 -27.932  1.00  0.00     0.254 C 
HETATM   35  C33 UNL     1      -0.144  55.083 -27.393  1.00  0.00     0.126 C 
HETATM   36  O3  UNL     1      -1.933  53.518 -27.795  1.00  0.00    -0.266 OA
ENDBRANCH  33  34
ENDBRANCH  32  33
ENDBRANCH  30  32
ENDBRANCH  28  30
ENDBRANCH  27  28
ENDBRANCH  26  27
ENDBRANCH  24  26
ENDBRANCH   1  24
TORSDOF 8
ENDMDL
MODEL 3
REMARK minimizedAffinity -9.1461134
REMARK  8 active torsions:
REMARK  status: ('A' for Active; 'I' for Inactive)
REMARK    1  A    between atoms: C2_2  and  C3_3 
REMARK    2  A    between atoms: C2_2  and  C29_30 
REMARK    3  A    between atoms: C3_3  and  C4_4 
REMARK    4  A    between atoms: C4_4  and  C5_5 
REMARK    5  A    between atoms: C5_5  and  C7_7 
REMARK    6  A    between atoms: C29_30  and  C31_32 
REMARK    7  A    between atoms: C31_32  and  O2_33 
REMARK    8  A    between atoms: O2_33  and  C32_34 
ROOT
HETATM    1  C7  UNL     1      -0.003  51.403 -21.113  1.00  0.00    -0.002 C 
HETATM    2  C8  UNL     1      -0.350  52.021 -19.720  1.00  0.00     0.006 C 
HETATM    3  C9  UNL     1      -1.676  51.386 -19.242  1.00  0.00     0.011 C 
HETATM    4  C10 UNL     1      -1.891  50.209 -20.199  1.00  0.00    -0.032 C 
HETATM    5  C11 UNL     1      -0.981  49.044 -19.646  1.00  0.00     0.016 C 
HETATM    6  C12 UNL     1      -3.307  49.586 -20.286  1.00  0.00     0.004 C 
HETATM    7  C13 UNL     1      -4.539  50.537 -20.466  1.00  0.00     0.007 C 
HETATM    8  C14 UNL     1      -5.539  50.119 -21.594  1.00  0.00     0.007 C 
HETATM    9  C15 UNL     1      -5.871  48.623 -21.506  1.00  0.00     0.010 C 
HETATM   10  C16 UNL     1      -6.724  47.870 -22.528  1.00  0.00     0.018 C 
HETATM   11  C17 UNL     1      -6.084  47.851 -23.920  1.00  0.00     0.023 C 
HETATM   12  C18 UNL     1      -8.133  48.475 -22.624  1.00  0.00     0.023 C 
HETATM   13  C19 UNL     1      -6.857  46.417 -21.991  1.00  0.00     0.135 C 
HETATM   14  O1  UNL     1      -7.321  45.521 -22.701  1.00  0.00    -0.297 OA
HETATM   15  C20 UNL     1      -6.509  46.128 -20.513  1.00  0.00     0.080 C 
HETATM   16  C21 UNL     1      -5.251  46.856 -19.972  1.00  0.00     0.018 C 
HETATM   17  C22 UNL     1      -4.711  47.747 -21.076  1.00  0.00    -0.026 A 
HETATM   18  C23 UNL     1      -3.447  47.081 -21.518  1.00  0.00     0.021 A 
HETATM   19  C24 UNL     1      -3.357  48.550 -21.400  1.00  0.00    -0.027 A 
HETATM   20  C25 UNL     1      -2.789  49.057 -22.750  1.00  0.00     0.011 C 
HETATM   21  C26 UNL     1      -1.384  49.692 -22.611  1.00  0.00     0.011 C 
HETATM   22  C27 UNL     1      -1.382  50.821 -21.567  1.00  0.00    -0.032 C 
HETATM   23  C28 UNL     1      -2.221  51.996 -22.146  1.00  0.00     0.016 C 
ENDROOT
BRANCH   1  24
HETATM   24  C5  UNL     1       0.775  52.402 -22.017  1.00  0.00    -0.014 C 
HETATM   25  C6  UNL     1       1.084  53.720 -21.300  1.00  0.00     0.010 C 
BRANCH  24  26
HETATM   26  C4  UNL     1       0.049  52.692 -23.360  1.00  0.00     0.009 C 
BRANCH  26  27
HETATM   27  C3  UNL     1       0.954  53.197 -24.492  1.00  0.00     0.034 C 
BRANCH  27  28
HETATM   28  C2  UNL     1       0.851  52.350 -25.753  1.00  0.00    -0.083 C 
HETATM   29  C1  UNL     1       1.920  51.633 -26.150  1.00  0.00     0.015 C 
BRANCH  28  30
HETATM   30  C29 UNL     1      -0.488  52.389 -26.504  1.00  0.00     0.034 C 
HETATM   31  C30 UNL     1      -0.436  53.436 -27.623  1.00  0.00     0.017 C 
BRANCH  30  32
HETATM   32  C31 UNL     1      -0.968  51.048 -27.103  1.00  0.00     0.187 C 
BRANCH  32  33
HETATM   33  O2  UNL     1      -2.206  50.656 -26.488  1.00  0.00    -0.321 OA
BRANCH  33  34
HETATM   34  C32 UNL     1      -2.961  49.808 -27.239  1.00  0.00     0.254 C 
HETATM   35  C33 UNL     1      -3.217  48.541 -26.482  1.00  0.00     0.126 C 
HETATM   36  O3  UNL     1      -3.373  50.035 -28.368  1.00  0.00    -0.266 OA
ENDBRANCH  33  34
ENDBRANCH  32  33
ENDBRANCH  30  32
ENDBRANCH  28  30
ENDBRANCH  27  28
ENDBRANCH  26  27
ENDBRANCH  24  26
ENDBRANCH   1  24
TORSDOF 8
ENDMDL
MODEL 4
REMARK minimizedAffinity -9.05150795
REMARK  8 active torsions:
REMARK  status: ('A' for Active; 'I' for Inactive)
REMARK    1  A    between atoms: C2_2  and  C3_3 
REMARK    2  A    between atoms: C2_2  and  C29_30 
REMARK    3  A    between atoms: C3_3  and  C4_4 
REMARK    4  A    between atoms: C4_4  and  C5_5 
REMARK    5  A    between atoms: C5_5  and  C7_7 
REMARK    6  A    between atoms: C29_30  and  C31_32 
REMARK    7  A    between atoms: C31_32  and  O2_33 
REMARK    8  A    between atoms: O2_33  and  C32_34 
ROOT
HETATM    1  C7  UNL     1      -3.606  49.949 -24.897  1.00  0.00    -0.002 C 
HETATM    2  C8  UNL     1      -3.957  51.459 -25.099  1.00  0.00     0.006 C 
HETATM    3  C9  UNL     1      -3.458  52.227 -23.854  1.00  0.00     0.011 C 
HETATM    4  C10 UNL     1      -2.567  51.216 -23.125  1.00  0.00    -0.032 C 
HETATM    5  C11 UNL     1      -1.177  51.263 -23.873  1.00  0.00     0.016 C 
HETATM    6  C12 UNL     1      -2.216  51.487 -21.640  1.00  0.00     0.004 C 
HETATM    7  C13 UNL     1      -3.371  51.858 -20.649  1.00  0.00     0.007 C 
HETATM    8  C14 UNL     1      -3.375  51.054 -19.306  1.00  0.00     0.007 C 
HETATM    9  C15 UNL     1      -1.969  51.009 -18.690  1.00  0.00     0.010 C 
HETATM   10  C16 UNL     1      -1.605  50.206 -17.441  1.00  0.00     0.018 C 
HETATM   11  C17 UNL     1      -1.782  48.697 -17.645  1.00  0.00     0.023 C 
HETATM   12  C18 UNL     1      -2.436  50.657 -16.232  1.00  0.00     0.023 C 
HETATM   13  C19 UNL     1      -0.111  50.524 -17.147  1.00  0.00     0.135 C 
HETATM   14  O1  UNL     1       0.523  49.866 -16.316  1.00  0.00    -0.297 OA
HETATM   15  C20 UNL     1       0.543  51.750 -17.822  1.00  0.00     0.080 C 
HETATM   16  C21 UNL     1       0.163  51.971 -19.309  1.00  0.00     0.018 C 
HETATM   17  C22 UNL     1      -0.845  50.906 -19.701  1.00  0.00    -0.026 A 
HETATM   18  C23 UNL     1      -0.093  49.987 -20.611  1.00  0.00     0.021 A 
HETATM   19  C24 UNL     1      -1.467  50.299 -21.053  1.00  0.00    -0.027 A 
HETATM   20  C25 UNL     1      -2.154  48.935 -21.318  1.00  0.00     0.011 C 
HETATM   21  C26 UNL     1      -2.507  48.718 -22.810  1.00  0.00     0.011 C 
HETATM   22  C27 UNL     1      -3.368  49.871 -23.353  1.00  0.00    -0.032 C 
HETATM   23  C28 UNL     1      -4.761  49.779 -22.666  1.00  0.00     0.016 C 
ENDROOT
BRANCH   1  24
HETATM   24  C5  UNL     1      -4.636  49.012 -25.591  1.00  0.00    -0.014 C 
HETATM   25  C6  UNL     1      -5.309  48.051 -24.604  1.00  0.00     0.010 C 
BRANCH  24  26
HETATM   26  C4  UNL     1      -4.022  48.209 -26.771  1.00  0.00     0.009 C 
BRANCH  26  27
HETATM   27  C3  UNL     1      -4.549  48.593 -28.161  1.00  0.00     0.034 C 
BRANCH  27  28
HETATM   28  C2  UNL     1      -5.688  47.698 -28.629  1.00  0.00    -0.083 C 
HETATM   29  C1  UNL     1      -6.600  47.275 -27.733  1.00  0.00     0.015 C 
BRANCH  28  30
HETATM   30  C29 UNL     1      -5.705  47.322 -30.117  1.00  0.00     0.034 C 
HETATM   31  C30 UNL     1      -6.789  46.270 -30.384  1.00  0.00     0.017 C 
BRANCH  30  32
HETATM   32  C31 UNL     1      -5.896  48.491 -31.110  1.00  0.00     0.187 C 
BRANCH  32  33
HETATM   33  O2  UNL     1      -4.694  48.681 -31.875  1.00  0.00    -0.321 OA
BRANCH  33  34
HETATM   34  C32 UNL     1      -4.445  47.697 -32.781  1.00  0.00     0.254 C 
HETATM   35  C33 UNL     1      -5.322  47.870 -33.982  1.00  0.00     0.126 C 
HETATM   36  O3  UNL     1      -3.627  46.797 -32.645  1.00  0.00    -0.266 OA
ENDBRANCH  33  34
ENDBRANCH  32  33
ENDBRANCH  30  32
ENDBRANCH  28  30
ENDBRANCH  27  28
ENDBRANCH  26  27
ENDBRANCH  24  26
ENDBRANCH   1  24
TORSDOF 8
ENDMDL
MODEL 5
REMARK minimizedAffinity -8.73000813
REMARK  8 active torsions:
REMARK  status: ('A' for Active; 'I' for Inactive)
REMARK    1  A    between atoms: C2_2  and  C3_3 
REMARK    2  A    between atoms: C2_2  and  C29_30 
REMARK    3  A    between atoms: C3_3  and  C4_4 
REMARK    4  A    between atoms: C4_4  and  C5_5 
REMARK    5  A    between atoms: C5_5  and  C7_7 
REMARK    6  A    between atoms: C29_30  and  C31_32 
REMARK    7  A    between atoms: C31_32  and  O2_33 
REMARK    8  A    between atoms: O2_33  and  C32_34 
ROOT
HETATM    1  C7  UNL     1      -0.718  52.537 -21.470  1.00  0.00    -0.002 C 
HETATM    2  C8  UNL     1      -0.010  52.185 -22.818  1.00  0.00     0.006 C 
HETATM    3  C9  UNL     1      -0.807  51.039 -23.481  1.00  0.00     0.011 C 
HETATM    4  C10 UNL     1      -2.109  50.975 -22.676  1.00  0.00    -0.032 C 
HETATM    5  C11 UNL     1      -3.021  52.124 -23.259  1.00  0.00     0.016 C 
HETATM    6  C12 UNL     1      -2.977  49.697 -22.787  1.00  0.00     0.004 C 
HETATM    7  C13 UNL     1      -2.286  48.300 -22.627  1.00  0.00     0.007 C 
HETATM    8  C14 UNL     1      -3.004  47.314 -21.646  1.00  0.00     0.007 C 
HETATM    9  C15 UNL     1      -4.514  47.273 -21.920  1.00  0.00     0.010 C 
HETATM   10  C16 UNL     1      -5.521  46.501 -21.066  1.00  0.00     0.018 C 
HETATM   11  C17 UNL     1      -5.594  47.030 -19.629  1.00  0.00     0.023 C 
HETATM   12  C18 UNL     1      -5.190  45.002 -21.041  1.00  0.00     0.023 C 
HETATM   13  C19 UNL     1      -6.901  46.680 -21.761  1.00  0.00     0.135 C 
HETATM   14  O1  UNL     1      -7.943  46.339 -21.194  1.00  0.00    -0.297 OA
HETATM   15  C20 UNL     1      -6.946  47.184 -23.221  1.00  0.00     0.080 C 
HETATM   16  C21 UNL     1      -5.949  48.321 -23.564  1.00  0.00     0.018 C 
HETATM   17  C22 UNL     1      -5.115  48.604 -22.327  1.00  0.00    -0.026 A 
HETATM   18  C23 UNL     1      -5.597  49.933 -21.840  1.00  0.00     0.021 A 
HETATM   19  C24 UNL     1      -4.131  49.759 -21.796  1.00  0.00    -0.027 A 
HETATM   20  C25 UNL     1      -3.696  50.122 -20.354  1.00  0.00     0.011 C 
HETATM   21  C26 UNL     1      -2.812  51.391 -20.294  1.00  0.00     0.011 C 
HETATM   22  C27 UNL     1      -1.584  51.260 -21.210  1.00  0.00    -0.032 C 
HETATM   23  C28 UNL     1      -0.652  50.178 -20.594  1.00  0.00     0.016 C 
ENDROOT
BRANCH   1  24
HETATM   24  C5  UNL     1       0.286  53.048 -20.398  1.00  0.00    -0.014 C 
HETATM   25  C6  UNL     1       1.602  53.535 -21.015  1.00  0.00     0.010 C 
BRANCH  24  26
HETATM   26  C4  UNL     1       0.582  51.992 -19.296  1.00  0.00     0.009 C 
BRANCH  26  27
HETATM   27  C3  UNL     1       0.831  52.568 -17.895  1.00  0.00     0.034 C 
BRANCH  27  28
HETATM   28  C2  UNL     1       1.082  51.490 -16.850  1.00  0.00    -0.083 C 
HETATM   29  C1  UNL     1       0.145  50.547 -16.642  1.00  0.00     0.015 C 
BRANCH  28  30
HETATM   30  C29 UNL     1       2.410  51.568 -16.083  1.00  0.00     0.034 C 
HETATM   31  C30 UNL     1       3.101  52.910 -16.357  1.00  0.00     0.017 C 
BRANCH  30  32
HETATM   32  C31 UNL     1       2.325  51.360 -14.555  1.00  0.00     0.187 C 
BRANCH  32  33
HETATM   33  O2  UNL     1       2.933  50.106 -14.199  1.00  0.00    -0.321 OA
BRANCH  33  34
HETATM   34  C32 UNL     1       3.825  50.188 -13.175  1.00  0.00     0.254 C 
HETATM   35  C33 UNL     1       3.255  51.008 -12.060  1.00  0.00     0.126 C 
HETATM   36  O3  UNL     1       4.935  49.671 -13.157  1.00  0.00    -0.266 OA
ENDBRANCH  33  34
ENDBRANCH  32  33
ENDBRANCH  30  32
ENDBRANCH  28  30
ENDBRANCH  27  28
ENDBRANCH  26  27
ENDBRANCH  24  26
ENDBRANCH   1  24
TORSDOF 8
ENDMDL
MODEL 6
REMARK minimizedAffinity -8.71104622
REMARK  8 active torsions:
REMARK  status: ('A' for Active; 'I' for Inactive)
REMARK    1  A    between atoms: C2_2  and  C3_3 
REMARK    2  A    between atoms: C2_2  and  C29_30 
REMARK    3  A    between atoms: C3_3  and  C4_4 
REMARK    4  A    between atoms: C4_4  and  C5_5 
REMARK    5  A    between atoms: C5_5  and  C7_7 
REMARK    6  A    between atoms: C29_30  and  C31_32 
REMARK    7  A    between atoms: C31_32  and  O2_33 
REMARK    8  A    between atoms: O2_33  and  C32_34 
ROOT
HETATM    1  C7  UNL     1      -3.226  49.274 -24.756  1.00  0.00    -0.002 C 
HETATM    2  C8  UNL     1      -2.195  50.213 -24.052  1.00  0.00     0.006 C 
HETATM    3  C9  UNL     1      -2.513  50.208 -22.539  1.00  0.00     0.011 C 
HETATM    4  C10 UNL     1      -3.493  49.043 -22.369  1.00  0.00    -0.032 C 
HETATM    5  C11 UNL     1      -2.599  47.743 -22.320  1.00  0.00     0.016 C 
HETATM    6  C12 UNL     1      -4.339  48.981 -21.071  1.00  0.00     0.004 C 
HETATM    7  C13 UNL     1      -5.093  50.270 -20.601  1.00  0.00     0.007 C 
HETATM    8  C14 UNL     1      -6.596  50.056 -20.222  1.00  0.00     0.007 C 
HETATM    9  C15 UNL     1      -6.764  48.829 -19.315  1.00  0.00     0.010 C 
HETATM   10  C16 UNL     1      -8.114  48.275 -18.860  1.00  0.00     0.018 C 
HETATM   11  C17 UNL     1      -8.964  47.773 -20.034  1.00  0.00     0.023 C 
HETATM   12  C18 UNL     1      -8.906  49.328 -18.073  1.00  0.00     0.023 C 
HETATM   13  C19 UNL     1      -7.793  47.093 -17.901  1.00  0.00     0.135 C 
HETATM   14  O1  UNL     1      -8.682  46.320 -17.533  1.00  0.00    -0.297 OA
HETATM   15  C20 UNL     1      -6.368  46.965 -17.320  1.00  0.00     0.080 C 
HETATM   16  C21 UNL     1      -5.215  47.262 -18.313  1.00  0.00     0.018 C 
HETATM   17  C22 UNL     1      -5.830  47.679 -19.637  1.00  0.00    -0.026 A 
HETATM   18  C23 UNL     1      -5.574  46.526 -20.555  1.00  0.00     0.021 A 
HETATM   19  C24 UNL     1      -5.359  47.855 -21.164  1.00  0.00    -0.027 A 
HETATM   20  C25 UNL     1      -6.186  47.867 -22.474  1.00  0.00     0.011 C 
HETATM   21  C26 UNL     1      -5.302  47.954 -23.742  1.00  0.00     0.011 C 
HETATM   22  C27 UNL     1      -4.361  49.169 -23.686  1.00  0.00    -0.032 C 
HETATM   23  C28 UNL     1      -5.240  50.448 -23.807  1.00  0.00     0.016 C 
ENDROOT
BRANCH   1  24
HETATM   24  C5  UNL     1      -3.541  49.737 -26.207  1.00  0.00    -0.014 C 
HETATM   25  C6  UNL     1      -3.817  48.560 -27.149  1.00  0.00     0.010 C 
BRANCH  24  26
HETATM   26  C4  UNL     1      -2.429  50.641 -26.808  1.00  0.00     0.009 C 
BRANCH  26  27
HETATM   27  C3  UNL     1      -1.013  50.052 -26.752  1.00  0.00     0.034 C 
BRANCH  27  28
HETATM   28  C2  UNL     1       0.063  51.069 -27.110  1.00  0.00    -0.083 C 
HETATM   29  C1  UNL     1      -0.086  51.818 -28.219  1.00  0.00     0.015 C 
BRANCH  28  30
HETATM   30  C29 UNL     1       1.272  51.156 -26.168  1.00  0.00     0.034 C 
HETATM   31  C30 UNL     1       2.500  51.672 -26.930  1.00  0.00     0.017 C 
BRANCH  30  32
HETATM   32  C31 UNL     1       1.083  52.014 -24.898  1.00  0.00     0.187 C 
BRANCH  32  33
HETATM   33  O2  UNL     1       1.338  53.396 -25.201  1.00  0.00    -0.321 OA
BRANCH  33  34
HETATM   34  C32 UNL     1       0.230  54.185 -25.191  1.00  0.00     0.254 C 
HETATM   35  C33 UNL     1      -0.891  53.489 -24.482  1.00  0.00     0.126 C 
HETATM   36  O3  UNL     1       0.148  55.301 -25.685  1.00  0.00    -0.266 OA
ENDBRANCH  33  34
ENDBRANCH  32  33
ENDBRANCH  30  32
ENDBRANCH  28  30
ENDBRANCH  27  28
ENDBRANCH  26  27
ENDBRANCH  24  26
ENDBRANCH   1  24
TORSDOF 8
ENDMDL
MODEL 7
REMARK minimizedAffinity -8.67352867
REMARK  8 active torsions:
REMARK  status: ('A' for Active; 'I' for Inactive)
REMARK    1  A    between atoms: C2_2  and  C3_3 
REMARK    2  A    between atoms: C2_2  and  C29_30 
REMARK    3  A    between atoms: C3_3  and  C4_4 
REMARK    4  A    between atoms: C4_4  and  C5_5 
REMARK    5  A    between atoms: C5_5  and  C7_7 
REMARK    6  A    between atoms: C29_30  and  C31_32 
REMARK    7  A    between atoms: C31_32  and  O2_33 
REMARK    8  A    between atoms: O2_33  and  C32_34 
ROOT
HETATM    1  C7  UNL     1      -3.223  49.482 -25.048  1.00  0.00    -0.002 C 
HETATM    2  C8  UNL     1      -3.851  50.889 -25.312  1.00  0.00     0.006 C 
HETATM    3  C9  UNL     1      -3.528  51.782 -24.091  1.00  0.00     0.011 C 
HETATM    4  C10 UNL     1      -2.474  50.986 -23.316  1.00  0.00    -0.032 C 
HETATM    5  C11 UNL     1      -1.106  51.270 -24.052  1.00  0.00     0.016 C 
HETATM    6  C12 UNL     1      -2.206  51.370 -21.839  1.00  0.00     0.004 C 
HETATM    7  C13 UNL     1      -3.428  51.550 -20.874  1.00  0.00     0.007 C 
HETATM    8  C14 UNL     1      -3.301  50.808 -19.502  1.00  0.00     0.007 C 
HETATM    9  C15 UNL     1      -1.923  51.053 -18.871  1.00  0.00     0.010 C 
HETATM   10  C16 UNL     1      -1.434  50.380 -17.588  1.00  0.00     0.018 C 
HETATM   11  C17 UNL     1      -1.318  48.858 -17.736  1.00  0.00     0.023 C 
HETATM   12  C18 UNL     1      -2.357  50.707 -16.406  1.00  0.00     0.023 C 
HETATM   13  C19 UNL     1      -0.033  50.986 -17.291  1.00  0.00     0.135 C 
HETATM   14  O1  UNL     1       0.700  50.492 -16.430  1.00  0.00    -0.297 OA
HETATM   15  C20 UNL     1       0.387  52.290 -18.006  1.00  0.00     0.080 C 
HETATM   16  C21 UNL     1      -0.002  52.382 -19.505  1.00  0.00     0.018 C 
HETATM   17  C22 UNL     1      -0.783  51.131 -19.866  1.00  0.00    -0.026 A 
HETATM   18  C23 UNL     1       0.146  50.341 -20.732  1.00  0.00     0.021 A 
HETATM   19  C24 UNL     1      -1.255  50.368 -21.200  1.00  0.00    -0.027 A 
HETATM   20  C25 UNL     1      -1.666  48.890 -21.419  1.00  0.00     0.011 C 
HETATM   21  C26 UNL     1      -1.945  48.558 -22.905  1.00  0.00     0.011 C 
HETATM   22  C27 UNL     1      -3.001  49.505 -23.500  1.00  0.00    -0.032 C 
HETATM   23  C28 UNL     1      -4.363  49.174 -22.824  1.00  0.00     0.016 C 
ENDROOT
BRANCH   1  24
HETATM   24  C5  UNL     1      -4.044  48.342 -25.716  1.00  0.00    -0.014 C 
HETATM   25  C6  UNL     1      -3.879  48.318 -27.240  1.00  0.00     0.010 C 
BRANCH  24  26
HETATM   26  C4  UNL     1      -5.554  48.392 -25.352  1.00  0.00     0.009 C 
BRANCH  26  27
HETATM   27  C3  UNL     1      -6.482  47.652 -26.327  1.00  0.00     0.034 C 
BRANCH  27  28
HETATM   28  C2  UNL     1      -7.567  46.854 -25.617  1.00  0.00    -0.083 C 
HETATM   29  C1  UNL     1      -7.591  46.833 -24.271  1.00  0.00     0.015 C 
BRANCH  28  30
HETATM   30  C29 UNL     1      -8.566  46.102 -26.509  1.00  0.00     0.034 C 
HETATM   31  C30 UNL     1      -8.358  44.588 -26.375  1.00  0.00     0.017 C 
BRANCH  30  32
HETATM   32  C31 UNL     1     -10.059  46.418 -26.271  1.00  0.00     0.187 C 
BRANCH  32  33
HETATM   33  O2  UNL     1     -10.639  46.961 -27.469  1.00  0.00    -0.321 OA
BRANCH  33  34
HETATM   34  C32 UNL     1     -11.687  47.801 -27.252  1.00  0.00     0.254 C 
HETATM   35  C33 UNL     1     -12.829  47.442 -28.153  1.00  0.00     0.126 C 
HETATM   36  O3  UNL     1     -11.706  48.720 -26.444  1.00  0.00    -0.266 OA
ENDBRANCH  33  34
ENDBRANCH  32  33
ENDBRANCH  30  32
ENDBRANCH  28  30
ENDBRANCH  27  28
ENDBRANCH  26  27
ENDBRANCH  24  26
ENDBRANCH   1  24
TORSDOF 8
ENDMDL
MODEL 8
REMARK minimizedAffinity -8.61088753
REMARK  8 active torsions:
REMARK  status: ('A' for Active; 'I' for Inactive)
REMARK    1  A    between atoms: C2_2  and  C3_3 
REMARK    2  A    between atoms: C2_2  and  C29_30 
REMARK    3  A    between atoms: C3_3  and  C4_4 
REMARK    4  A    between atoms: C4_4  and  C5_5 
REMARK    5  A    between atoms: C5_5  and  C7_7 
REMARK    6  A    between atoms: C29_30  and  C31_32 
REMARK    7  A    between atoms: C31_32  and  O2_33 
REMARK    8  A    between atoms: O2_33  and  C32_34 
ROOT
HETATM    1  C7  UNL     1      -6.213  48.620 -22.438  1.00  0.00    -0.002 C 
HETATM    2  C8  UNL     1      -5.360  47.424 -21.907  1.00  0.00     0.006 C 
HETATM    3  C9  UNL     1      -3.880  47.717 -22.245  1.00  0.00     0.011 C 
HETATM    4  C10 UNL     1      -3.879  49.189 -22.668  1.00  0.00    -0.032 C 
HETATM    5  C11 UNL     1      -3.871  50.014 -21.322  1.00  0.00     0.016 C 
HETATM    6  C12 UNL     1      -2.657  49.724 -23.457  1.00  0.00     0.004 C 
HETATM    7  C13 UNL     1      -2.139  48.906 -24.689  1.00  0.00     0.007 C 
HETATM    8  C14 UNL     1      -1.890  49.748 -25.984  1.00  0.00     0.007 C 
HETATM    9  C15 UNL     1      -1.102  51.026 -25.665  1.00  0.00     0.010 C 
HETATM   10  C16 UNL     1      -0.794  52.123 -26.685  1.00  0.00     0.018 C 
HETATM   11  C17 UNL     1      -2.064  52.799 -27.214  1.00  0.00     0.023 C 
HETATM   12  C18 UNL     1       0.017  51.569 -27.865  1.00  0.00     0.023 C 
HETATM   13  C19 UNL     1       0.085  53.168 -25.941  1.00  0.00     0.135 C 
HETATM   14  O1  UNL     1       0.323  54.268 -26.447  1.00  0.00    -0.297 OA
HETATM   15  C20 UNL     1       0.757  52.770 -24.608  1.00  0.00     0.080 C 
HETATM   16  C21 UNL     1      -0.121  51.929 -23.645  1.00  0.00     0.018 C 
HETATM   17  C22 UNL     1      -1.448  51.660 -24.332  1.00  0.00    -0.026 A 
HETATM   18  C23 UNL     1      -2.436  52.507 -23.596  1.00  0.00     0.021 A 
HETATM   19  C24 UNL     1      -2.916  51.149 -23.923  1.00  0.00    -0.027 A 
HETATM   20  C25 UNL     1      -4.278  51.334 -24.638  1.00  0.00     0.011 C 
HETATM   21  C26 UNL     1      -5.466  50.765 -23.825  1.00  0.00     0.011 C 
HETATM   22  C27 UNL     1      -5.241  49.287 -23.467  1.00  0.00    -0.032 C 
HETATM   23  C28 UNL     1      -5.321  48.467 -24.788  1.00  0.00     0.016 C 
ENDROOT
BRANCH   1  24
HETATM   24  C5  UNL     1      -7.641  48.175 -22.867  1.00  0.00    -0.014 C 
HETATM   25  C6  UNL     1      -8.563  47.937 -21.667  1.00  0.00     0.010 C 
BRANCH  24  26
HETATM   26  C4  UNL     1      -7.632  46.918 -23.781  1.00  0.00     0.009 C 
BRANCH  26  27
HETATM   27  C3  UNL     1      -8.472  47.039 -25.060  1.00  0.00     0.034 C 
BRANCH  27  28
HETATM   28  C2  UNL     1      -8.228  45.896 -26.036  1.00  0.00    -0.083 C 
HETATM   29  C1  UNL     1      -8.177  44.634 -25.569  1.00  0.00     0.015 C 
BRANCH  28  30
HETATM   30  C29 UNL     1      -8.040  46.277 -27.512  1.00  0.00     0.034 C 
HETATM   31  C30 UNL     1      -9.378  46.718 -28.119  1.00  0.00     0.017 C 
BRANCH  30  32
HETATM   32  C31 UNL     1      -6.983  47.365 -27.803  1.00  0.00     0.187 C 
BRANCH  32  33
HETATM   33  O2  UNL     1      -6.193  46.985 -28.943  1.00  0.00    -0.321 OA
BRANCH  33  34
HETATM   34  C32 UNL     1      -5.250  47.898 -29.300  1.00  0.00     0.254 C 
HETATM   35  C33 UNL     1      -4.448  48.305 -28.102  1.00  0.00     0.126 C 
HETATM   36  O3  UNL     1      -5.074  48.332 -30.430  1.00  0.00    -0.266 OA
ENDBRANCH  33  34
ENDBRANCH  32  33
ENDBRANCH  30  32
ENDBRANCH  28  30
ENDBRANCH  27  28
ENDBRANCH  26  27
ENDBRANCH  24  26
ENDBRANCH   1  24
TORSDOF 8
ENDMDL
MODEL 9
REMARK minimizedAffinity -8.59866333
REMARK  8 active torsions:
REMARK  status: ('A' for Active; 'I' for Inactive)
REMARK    1  A    between atoms: C2_2  and  C3_3 
REMARK    2  A    between atoms: C2_2  and  C29_30 
REMARK    3  A    between atoms: C3_3  and  C4_4 
REMARK    4  A    between atoms: C4_4  and  C5_5 
REMARK    5  A    between atoms: C5_5  and  C7_7 
REMARK    6  A    between atoms: C29_30  and  C31_32 
REMARK    7  A    between atoms: C31_32  and  O2_33 
REMARK    8  A    between atoms: O2_33  and  C32_34 
ROOT
HETATM    1  C7  UNL     1      -1.343  49.152 -17.600  1.00  0.00    -0.002 C 
HETATM    2  C8  UNL     1      -2.765  49.396 -17.001  1.00  0.00     0.006 C 
HETATM    3  C9  UNL     1      -3.752  49.548 -18.181  1.00  0.00     0.011 C 
HETATM    4  C10 UNL     1      -2.950  49.079 -19.399  1.00  0.00    -0.032 C 
HETATM    5  C11 UNL     1      -3.022  47.502 -19.370  1.00  0.00     0.016 C 
HETATM    6  C12 UNL     1      -3.468  49.464 -20.808  1.00  0.00     0.004 C 
HETATM    7  C13 UNL     1      -3.866  50.954 -21.084  1.00  0.00     0.007 C 
HETATM    8  C14 UNL     1      -3.270  51.567 -22.395  1.00  0.00     0.007 C 
HETATM    9  C15 UNL     1      -3.452  50.608 -23.580  1.00  0.00     0.010 C 
HETATM   10  C16 UNL     1      -2.880  50.851 -24.977  1.00  0.00     0.018 C 
HETATM   11  C17 UNL     1      -1.347  50.885 -24.981  1.00  0.00     0.023 C 
HETATM   12  C18 UNL     1      -3.420  52.158 -25.575  1.00  0.00     0.023 C 
HETATM   13  C19 UNL     1      -3.381  49.671 -25.858  1.00  0.00     0.135 C 
HETATM   14  O1  UNL     1      -2.916  49.484 -26.986  1.00  0.00    -0.297 OA
HETATM   15  C20 UNL     1      -4.553  48.802 -25.352  1.00  0.00     0.080 C 
HETATM   16  C21 UNL     1      -4.517  48.450 -23.842  1.00  0.00     0.018 C 
HETATM   17  C22 UNL     1      -3.312  49.140 -23.227  1.00  0.00    -0.026 A 
HETATM   18  C23 UNL     1      -2.349  48.035 -22.935  1.00  0.00     0.021 A 
HETATM   19  C24 UNL     1      -2.457  49.052 -21.869  1.00  0.00    -0.027 A 
HETATM   20  C25 UNL     1      -1.008  49.511 -21.563  1.00  0.00     0.011 C 
HETATM   21  C26 UNL     1      -0.543  49.126 -20.138  1.00  0.00     0.011 C 
HETATM   22  C27 UNL     1      -1.515  49.657 -19.071  1.00  0.00    -0.032 C 
HETATM   23  C28 UNL     1      -1.388  51.208 -19.053  1.00  0.00     0.016 C 
ENDROOT
BRANCH   1  24
HETATM   24  C5  UNL     1      -0.219  49.724 -16.689  1.00  0.00    -0.014 C 
HETATM   25  C6  UNL     1       0.413  48.649 -15.798  1.00  0.00     0.010 C 
BRANCH  24  26
HETATM   26  C4  UNL     1      -0.698  50.916 -15.815  1.00  0.00     0.009 C 
BRANCH  26  27
HETATM   27  C3  UNL     1       0.410  51.632 -15.030  1.00  0.00     0.034 C 
BRANCH  27  28
HETATM   28  C2  UNL     1       1.605  52.000 -15.898  1.00  0.00    -0.083 C 
HETATM   29  C1  UNL     1       1.395  52.622 -17.074  1.00  0.00     0.015 C 
BRANCH  28  30
HETATM   30  C29 UNL     1       2.992  51.612 -15.365  1.00  0.00     0.034 C 
HETATM   31  C30 UNL     1       4.077  52.443 -16.062  1.00  0.00     0.017 C 
BRANCH  30  32
HETATM   32  C31 UNL     1       3.189  51.726 -13.837  1.00  0.00     0.187 C 
BRANCH  32  33
HETATM   33  O2  UNL     1       2.890  50.466 -13.213  1.00  0.00    -0.321 OA
BRANCH  33  34
HETATM   34  C32 UNL     1       3.801  49.487 -13.465  1.00  0.00     0.254 C 
HETATM   35  C33 UNL     1       3.118  48.156 -13.536  1.00  0.00     0.126 C 
HETATM   36  O3  UNL     1       5.004  49.657 -13.613  1.00  0.00    -0.266 OA
ENDBRANCH  33  34
ENDBRANCH  32  33
ENDBRANCH  30  32
ENDBRANCH  28  30
ENDBRANCH  27  28
ENDBRANCH  26  27
ENDBRANCH  24  26
ENDBRANCH   1  24
TORSDOF 8
ENDMDL
