MODEL 1
REMARK minimizedAffinity -9.35614204
REMARK  5 active torsions:
REMARK  status: ('A' for Active; 'I' for Inactive)
REMARK    1  A    between atoms: C2_2  and  C4_4 
REMARK    2  A    between atoms: C7_7  and  C8_8 
REMARK    3  A    between atoms: C8_8  and  O2_10 
REMARK    4  A    between atoms: C21_24  and  C23_26 
REMARK    5  A    between atoms: C23_26  and  O4_27 
ROOT
HETATM    1  C4  UNL     1      -0.127  51.895 -23.259  1.00  0.00     0.019 C 
HETATM    2  C5  UNL     1       0.391  52.862 -24.359  1.00  0.00     0.011 C 
HETATM    3  C6  UNL     1      -0.742  53.016 -25.404  1.00  0.00     0.021 C 
HETATM    4  C7  UNL     1      -1.766  51.921 -25.049  1.00  0.00     0.050 C 
HETATM    5  C9  UNL     1      -3.215  52.261 -25.423  1.00  0.00     0.022 C 
HETATM    6  C10 UNL     1      -4.239  51.359 -24.684  1.00  0.00     0.011 C 
HETATM    7  C11 UNL     1      -4.104  51.294 -23.112  1.00  0.00    -0.032 C 
HETATM    8  C12 UNL     1      -4.463  52.732 -22.613  1.00  0.00     0.016 C 
HETATM    9  C13 UNL     1      -2.596  50.962 -22.770  1.00  0.00     0.000 C 
HETATM   10  C14 UNL     1      -2.185  49.487 -22.965  1.00  0.00     0.006 C 
HETATM   11  C15 UNL     1      -3.341  48.496 -23.007  1.00  0.00     0.006 C 
HETATM   12  C16 UNL     1      -4.380  48.895 -21.966  1.00  0.00     0.003 C 
HETATM   13  C17 UNL     1      -5.277  47.712 -21.432  1.00  0.00    -0.031 C 
HETATM   14  C18 UNL     1      -5.805  46.828 -22.594  1.00  0.00     0.016 C 
HETATM   15  C19 UNL     1      -4.411  46.805 -20.518  1.00  0.00     0.036 C 
HETATM   16  C20 UNL     1      -5.198  45.663 -19.881  1.00  0.00     0.169 C 
HETATM   17  O3  UNL     1      -6.595  45.915 -19.793  1.00  0.00    -0.378 OA
HETATM   18  C21 UNL     1      -6.950  47.262 -19.433  1.00  0.00     0.082 C 
HETATM   19  C22 UNL     1      -8.494  47.261 -19.413  1.00  0.00     0.049 C 
HETATM   20  C24 UNL     1      -6.471  48.259 -20.566  1.00  0.00     0.030 C 
HETATM   21  C25 UNL     1      -6.199  49.678 -20.035  1.00  0.00     0.009 C 
HETATM   22  C26 UNL     1      -5.748  50.737 -21.059  1.00  0.00     0.011 C 
HETATM   23  C27 UNL     1      -5.131  50.208 -22.396  1.00  0.00    -0.032 C 
HETATM   24  C28 UNL     1      -6.323  49.972 -23.359  1.00  0.00     0.016 C 
HETATM   25  C29 UNL     1      -1.645  51.931 -23.508  1.00  0.00     0.017 C 
ENDROOT
BRANCH   4  26
HETATM   26  C8  UNL     1      -1.377  50.639 -25.817  1.00  0.00     0.149 C 
HETATM   27  O1  UNL     1      -2.089  49.672 -26.037  1.00  0.00    -0.649 OA
BRANCH  26  28
HETATM   28  O2  UNL     1      -0.116  50.616 -26.286  1.00  0.00    -0.776 OA
HETATM   29  H11 UNL     1      -0.055  49.750 -26.741  1.00  0.00     0.167 HD
ENDBRANCH  26  28
ENDBRANCH   4  26
BRANCH   1  30
HETATM   30  C2  UNL     1       0.411  52.265 -21.886  1.00  0.00    -0.088 C 
HETATM   31  C1  UNL     1       1.068  53.398 -21.590  1.00  0.00     0.014 C 
HETATM   32  C3  UNL     1       0.155  51.238 -20.811  1.00  0.00     0.043 C 
ENDBRANCH   1  30
BRANCH  18  33
HETATM   33  C23 UNL     1      -6.446  47.543 -17.985  1.00  0.00     0.202 C 
BRANCH  33  34
HETATM   34  O4  UNL     1      -7.385  48.219 -17.155  1.00  0.00    -0.398 OA
HETATM   35  H37 UNL     1      -8.071  47.575 -16.907  1.00  0.00     0.209 HD
ENDBRANCH  33  34
ENDBRANCH  18  33
TORSDOF 5
ENDMDL
MODEL 2
REMARK minimizedAffinity -8.63009834
REMARK  5 active torsions:
REMARK  status: ('A' for Active; 'I' for Inactive)
REMARK    1  A    between atoms: C2_2  and  C4_4 
REMARK    2  A    between atoms: C7_7  and  C8_8 
REMARK    3  A    between atoms: C8_8  and  O2_10 
REMARK    4  A    between atoms: C21_24  and  C23_26 
REMARK    5  A    between atoms: C23_26  and  O4_27 
ROOT
HETATM    1  C4  UNL     1      -0.320  52.358 -19.106  1.00  0.00     0.019 C 
HETATM    2  C5  UNL     1       0.791  52.383 -18.020  1.00  0.00     0.011 C 
HETATM    3  C6  UNL     1       0.679  51.063 -17.219  1.00  0.00     0.021 C 
HETATM    4  C7  UNL     1      -0.662  50.441 -17.657  1.00  0.00     0.050 C 
HETATM    5  C9  UNL     1      -0.705  48.908 -17.587  1.00  0.00     0.022 C 
HETATM    6  C10 UNL     1      -1.874  48.316 -18.418  1.00  0.00     0.011 C 
HETATM    7  C11 UNL     1      -1.961  48.775 -19.926  1.00  0.00    -0.032 C 
HETATM    8  C12 UNL     1      -0.690  48.172 -20.609  1.00  0.00     0.016 C 
HETATM    9  C13 UNL     1      -1.893  50.355 -19.954  1.00  0.00     0.000 C 
HETATM   10  C14 UNL     1      -3.198  51.078 -19.556  1.00  0.00     0.006 C 
HETATM   11  C15 UNL     1      -4.458  50.227 -19.638  1.00  0.00     0.006 C 
HETATM   12  C16 UNL     1      -4.389  49.351 -20.883  1.00  0.00     0.003 C 
HETATM   13  C17 UNL     1      -5.787  48.908 -21.465  1.00  0.00    -0.031 C 
HETATM   14  C18 UNL     1      -6.735  48.399 -20.345  1.00  0.00     0.016 C 
HETATM   15  C19 UNL     1      -6.467  50.141 -22.119  1.00  0.00     0.036 C 
HETATM   16  C20 UNL     1      -7.800  49.813 -22.785  1.00  0.00     0.169 C 
HETATM   17  O3  UNL     1      -7.931  48.444 -23.150  1.00  0.00    -0.378 OA
HETATM   18  C21 UNL     1      -6.742  47.840 -23.689  1.00  0.00     0.082 C 
HETATM   19  C22 UNL     1      -7.153  46.383 -23.991  1.00  0.00     0.049 C 
HETATM   20  C24 UNL     1      -5.611  47.814 -22.581  1.00  0.00     0.030 C 
HETATM   21  C25 UNL     1      -4.192  47.819 -23.178  1.00  0.00     0.009 C 
HETATM   22  C26 UNL     1      -3.013  47.773 -22.187  1.00  0.00     0.011 C 
HETATM   23  C27 UNL     1      -3.307  48.222 -20.718  1.00  0.00    -0.032 C 
HETATM   24  C28 UNL     1      -3.814  46.961 -19.973  1.00  0.00     0.016 C 
HETATM   25  C29 UNL     1      -0.679  50.862 -19.144  1.00  0.00     0.017 C 
ENDROOT
BRANCH   4  26
HETATM   26  C8  UNL     1      -1.764  50.980 -16.719  1.00  0.00     0.149 C 
HETATM   27  O1  UNL     1      -1.781  50.922 -15.499  1.00  0.00    -0.649 OA
BRANCH  26  28
HETATM   28  O2  UNL     1      -2.799  51.576 -17.338  1.00  0.00    -0.776 OA
HETATM   29  H11 UNL     1      -3.381  51.854 -16.600  1.00  0.00     0.167 HD
ENDBRANCH  26  28
ENDBRANCH   4  26
BRANCH   1  30
HETATM   30  C2  UNL     1       0.126  53.049 -20.384  1.00  0.00    -0.088 C 
HETATM   31  C1  UNL     1       0.828  54.193 -20.443  1.00  0.00     0.014 C 
HETATM   32  C3  UNL     1      -0.280  52.347 -21.656  1.00  0.00     0.043 C 
ENDBRANCH   1  30
BRANCH  18  33
HETATM   33  C23 UNL     1      -6.393  48.536 -25.038  1.00  0.00     0.202 C 
BRANCH  33  34
HETATM   34  O4  UNL     1      -5.313  49.461 -24.963  1.00  0.00    -0.398 OA
HETATM   35  H37 UNL     1      -4.492  48.945 -24.892  1.00  0.00     0.209 HD
ENDBRANCH  33  34
ENDBRANCH  18  33
TORSDOF 5
ENDMDL
MODEL 3
REMARK minimizedAffinity -8.59663296
REMARK  5 active torsions:
REMARK  status: ('A' for Active; 'I' for Inactive)
REMARK    1  A    between atoms: C2_2  and  C4_4 
REMARK    2  A    between atoms: C7_7  and  C8_8 
REMARK    3  A    between atoms: C8_8  and  O2_10 
REMARK    4  A    between atoms: C21_24  and  C23_26 
REMARK    5  A    between atoms: C23_26  and  O4_27 
ROOT
HETATM    1  C4  UNL     1      -0.080  51.243 -26.436  1.00  0.00     0.019 C 
HETATM    2  C5  UNL     1      -0.159  52.181 -27.673  1.00  0.00     0.011 C 
HETATM    3  C6  UNL     1      -1.628  52.655 -27.795  1.00  0.00     0.021 C 
HETATM    4  C7  UNL     1      -2.420  51.761 -26.820  1.00  0.00     0.050 C 
HETATM    5  C9  UNL     1      -3.676  52.420 -26.232  1.00  0.00     0.022 C 
HETATM    6  C10 UNL     1      -4.188  51.680 -24.968  1.00  0.00     0.011 C 
HETATM    7  C11 UNL     1      -3.131  51.447 -23.819  1.00  0.00    -0.032 C 
HETATM    8  C12 UNL     1      -2.787  52.877 -23.287  1.00  0.00     0.016 C 
HETATM    9  C13 UNL     1      -1.848  50.788 -24.469  1.00  0.00     0.000 C 
HETATM   10  C14 UNL     1      -1.973  49.284 -24.794  1.00  0.00     0.006 C 
HETATM   11  C15 UNL     1      -3.086  48.555 -24.054  1.00  0.00     0.006 C 
HETATM   12  C16 UNL     1      -3.146  49.060 -22.618  1.00  0.00     0.003 C 
HETATM   13  C17 UNL     1      -3.750  48.039 -21.576  1.00  0.00    -0.031 C 
HETATM   14  C18 UNL     1      -5.055  47.389 -22.108  1.00  0.00     0.016 C 
HETATM   15  C19 UNL     1      -2.724  46.897 -21.348  1.00  0.00     0.036 C 
HETATM   16  C20 UNL     1      -3.172  45.884 -20.298  1.00  0.00     0.169 C 
HETATM   17  O3  UNL     1      -4.122  46.405 -19.375  1.00  0.00    -0.378 OA
HETATM   18  C21 UNL     1      -3.880  47.758 -18.949  1.00  0.00     0.082 C 
HETATM   19  C22 UNL     1      -5.037  48.067 -17.976  1.00  0.00     0.049 C 
HETATM   20  C24 UNL     1      -4.002  48.735 -20.189  1.00  0.00     0.030 C 
HETATM   21  C25 UNL     1      -3.166  50.016 -20.022  1.00  0.00     0.009 C 
HETATM   22  C26 UNL     1      -3.229  51.050 -21.162  1.00  0.00     0.011 C 
HETATM   23  C27 UNL     1      -3.699  50.531 -22.561  1.00  0.00    -0.032 C 
HETATM   24  C28 UNL     1      -5.246  50.628 -22.561  1.00  0.00     0.016 C 
HETATM   25  C29 UNL     1      -1.375  51.608 -25.691  1.00  0.00     0.017 C 
ENDROOT
BRANCH   4  26
HETATM   26  C8  UNL     1      -2.873  50.502 -27.590  1.00  0.00     0.149 C 
HETATM   27  O1  UNL     1      -2.800  49.344 -27.210  1.00  0.00    -0.649 OA
BRANCH  26  28
HETATM   28  O2  UNL     1      -3.408  50.737 -28.803  1.00  0.00    -0.776 OA
HETATM   29  H11 UNL     1      -3.637  49.842 -29.131  1.00  0.00     0.167 HD
ENDBRANCH  26  28
ENDBRANCH   4  26
BRANCH   1  30
HETATM   30  C2  UNL     1       1.254  51.371 -25.718  1.00  0.00    -0.088 C 
HETATM   31  C1  UNL     1       2.425  50.887 -26.164  1.00  0.00     0.014 C 
HETATM   32  C3  UNL     1       1.194  52.110 -24.404  1.00  0.00     0.043 C 
ENDBRANCH   1  30
BRANCH  18  33
HETATM   33  C23 UNL     1      -2.546  47.799 -18.146  1.00  0.00     0.202 C 
BRANCH  33  34
HETATM   34  O4  UNL     1      -1.391  48.070 -18.934  1.00  0.00    -0.398 OA
HETATM   35  H37 UNL     1      -1.410  49.016 -19.162  1.00  0.00     0.209 HD
ENDBRANCH  33  34
ENDBRANCH  18  33
TORSDOF 5
ENDMDL
MODEL 4
REMARK minimizedAffinity -8.26122761
REMARK  5 active torsions:
REMARK  status: ('A' for Active; 'I' for Inactive)
REMARK    1  A    between atoms: C2_2  and  C4_4 
REMARK    2  A    between atoms: C7_7  and  C8_8 
REMARK    3  A    between atoms: C8_8  and  O2_10 
REMARK    4  A    between atoms: C21_24  and  C23_26 
REMARK    5  A    between atoms: C23_26  and  O4_27 
ROOT
HETATM    1  C4  UNL     1      -1.120  52.032 -22.337  1.00  0.00     0.019 C 
HETATM    2  C5  UNL     1       0.295  52.593 -22.021  1.00  0.00     0.011 C 
HETATM    3  C6  UNL     1       0.775  51.915 -20.715  1.00  0.00     0.021 C 
HETATM    4  C7  UNL     1      -0.473  51.210 -20.147  1.00  0.00     0.050 C 
HETATM    5  C9  UNL     1      -0.170  49.958 -19.312  1.00  0.00     0.022 C 
HETATM    6  C10 UNL     1      -1.422  49.060 -19.128  1.00  0.00     0.011 C 
HETATM    7  C11 UNL     1      -2.179  48.640 -20.448  1.00  0.00    -0.032 C 
HETATM    8  C12 UNL     1      -1.179  47.713 -21.214  1.00  0.00     0.016 C 
HETATM    9  C13 UNL     1      -2.452  49.953 -21.287  1.00  0.00     0.000 C 
HETATM   10  C14 UNL     1      -3.619  50.828 -20.778  1.00  0.00     0.006 C 
HETATM   11  C15 UNL     1      -4.608  50.117 -19.866  1.00  0.00     0.006 C 
HETATM   12  C16 UNL     1      -4.850  48.708 -20.392  1.00  0.00     0.003 C 
HETATM   13  C17 UNL     1      -6.242  48.078 -19.995  1.00  0.00    -0.031 C 
HETATM   14  C18 UNL     1      -6.555  48.289 -18.489  1.00  0.00     0.016 C 
HETATM   15  C19 UNL     1      -7.359  48.792 -20.803  1.00  0.00     0.036 C 
HETATM   16  C20 UNL     1      -8.748  48.211 -20.556  1.00  0.00     0.169 C 
HETATM   17  O3  UNL     1      -8.728  46.867 -20.090  1.00  0.00    -0.378 OA
HETATM   18  C21 UNL     1      -7.744  46.021 -20.712  1.00  0.00     0.082 C 
HETATM   19  C22 UNL     1      -7.932  44.648 -20.032  1.00  0.00     0.049 C 
HETATM   20  C24 UNL     1      -6.292  46.550 -20.363  1.00  0.00     0.030 C 
HETATM   21  C25 UNL     1      -5.250  46.176 -21.432  1.00  0.00     0.009 C 
HETATM   22  C26 UNL     1      -3.797  46.622 -21.182  1.00  0.00     0.011 C 
HETATM   23  C27 UNL     1      -3.583  47.802 -20.178  1.00  0.00    -0.032 C 
HETATM   24  C28 UNL     1      -3.491  47.160 -18.769  1.00  0.00     0.016 C 
HETATM   25  C29 UNL     1      -1.151  50.766 -21.463  1.00  0.00     0.017 C 
ENDROOT
BRANCH   4  26
HETATM   26  C8  UNL     1      -1.209  52.212 -19.231  1.00  0.00     0.149 C 
HETATM   27  O1  UNL     1      -2.273  52.036 -18.659  1.00  0.00    -0.649 OA
BRANCH  26  28
HETATM   28  O2  UNL     1      -0.586  53.392 -19.060  1.00  0.00    -0.776 OA
HETATM   29  H11 UNL     1      -1.184  53.884 -18.458  1.00  0.00     0.167 HD
ENDBRANCH  26  28
ENDBRANCH   4  26
BRANCH   1  30
HETATM   30  C2  UNL     1      -1.356  51.910 -23.833  1.00  0.00    -0.088 C 
HETATM   31  C1  UNL     1      -0.489  51.384 -24.715  1.00  0.00     0.014 C 
HETATM   32  C3  UNL     1      -2.687  52.438 -24.307  1.00  0.00     0.043 C 
ENDBRANCH   1  30
BRANCH  18  33
HETATM   33  C23 UNL     1      -8.096  45.869 -22.222  1.00  0.00     0.202 C 
BRANCH  33  34
HETATM   34  O4  UNL     1      -7.183  46.507 -23.107  1.00  0.00    -0.398 OA
HETATM   35  H37 UNL     1      -6.374  45.967 -23.130  1.00  0.00     0.209 HD
ENDBRANCH  33  34
ENDBRANCH  18  33
TORSDOF 5
ENDMDL
MODEL 5
REMARK minimizedAffinity -8.0248661
REMARK  5 active torsions:
REMARK  status: ('A' for Active; 'I' for Inactive)
REMARK    1  A    between atoms: C2_2  and  C4_4 
REMARK    2  A    between atoms: C7_7  and  C8_8 
REMARK    3  A    between atoms: C8_8  and  O2_10 
REMARK    4  A    between atoms: C21_24  and  C23_26 
REMARK    5  A    between atoms: C23_26  and  O4_27 
ROOT
HETATM    1  C4  UNL     1      -0.941  51.081 -22.964  1.00  0.00     0.019 C 
HETATM    2  C5  UNL     1      -0.425  52.285 -23.800  1.00  0.00     0.011 C 
HETATM    3  C6  UNL     1      -1.633  52.848 -24.586  1.00  0.00     0.021 C 
HETATM    4  C7  UNL     1      -2.744  51.792 -24.424  1.00  0.00     0.050 C 
HETATM    5  C9  UNL     1      -4.170  52.357 -24.478  1.00  0.00     0.022 C 
HETATM    6  C10 UNL     1      -5.215  51.368 -23.896  1.00  0.00     0.011 C 
HETATM    7  C11 UNL     1      -4.923  50.819 -22.445  1.00  0.00    -0.032 C 
HETATM    8  C12 UNL     1      -5.043  52.064 -21.507  1.00  0.00     0.016 C 
HETATM    9  C13 UNL     1      -3.441  50.267 -22.427  1.00  0.00     0.000 C 
HETATM   10  C14 UNL     1      -3.243  48.889 -23.096  1.00  0.00     0.006 C 
HETATM   11  C15 UNL     1      -4.512  48.064 -23.261  1.00  0.00     0.006 C 
HETATM   12  C16 UNL     1      -5.375  48.220 -22.016  1.00  0.00     0.003 C 
HETATM   13  C17 UNL     1      -6.353  47.015 -21.727  1.00  0.00    -0.031 C 
HETATM   14  C18 UNL     1      -7.109  46.575 -23.009  1.00  0.00     0.016 C 
HETATM   15  C19 UNL     1      -5.516  45.801 -21.244  1.00  0.00     0.036 C 
HETATM   16  C20 UNL     1      -6.368  44.594 -20.861  1.00  0.00     0.169 C 
HETATM   17  O3  UNL     1      -7.705  44.931 -20.510  1.00  0.00    -0.378 OA
HETATM   18  C21 UNL     1      -7.847  46.131 -19.730  1.00  0.00     0.082 C 
HETATM   19  C22 UNL     1      -9.367  46.262 -19.497  1.00  0.00     0.049 C 
HETATM   20  C24 UNL     1      -7.369  47.378 -20.582  1.00  0.00     0.030 C 
HETATM   21  C25 UNL     1      -6.865  48.539 -19.707  1.00  0.00     0.009 C 
HETATM   22  C26 UNL     1      -6.396  49.814 -20.433  1.00  0.00     0.011 C 
HETATM   23  C27 UNL     1      -5.996  49.662 -21.938  1.00  0.00    -0.032 C 
HETATM   24  C28 UNL     1      -7.304  49.836 -22.753  1.00  0.00     0.016 C 
HETATM   25  C29 UNL     1      -2.459  51.325 -22.978  1.00  0.00     0.017 C 
ENDROOT
BRANCH   4  26
HETATM   26  C8  UNL     1      -2.604  50.774 -25.576  1.00  0.00     0.149 C 
HETATM   27  O1  UNL     1      -1.664  50.022 -25.780  1.00  0.00    -0.649 OA
BRANCH  26  28
HETATM   28  O2  UNL     1      -3.646  50.728 -26.427  1.00  0.00    -0.776 OA
HETATM   29  H11 UNL     1      -3.387  50.036 -27.071  1.00  0.00     0.167 HD
ENDBRANCH  26  28
ENDBRANCH   4  26
BRANCH   1  30
HETATM   30  C2  UNL     1      -0.217  50.968 -21.632  1.00  0.00    -0.088 C 
HETATM   31  C1  UNL     1       0.501  51.945 -21.054  1.00  0.00     0.014 C 
HETATM   32  C3  UNL     1      -0.352  49.628 -20.952  1.00  0.00     0.043 C 
ENDBRANCH   1  30
BRANCH  18  33
HETATM   33  C23 UNL     1      -7.160  45.915 -18.348  1.00  0.00     0.202 C 
BRANCH  33  34
HETATM   34  O4  UNL     1      -7.773  44.921 -17.534  1.00  0.00    -0.398 OA
HETATM   35  H37 UNL     1      -7.540  44.054 -17.908  1.00  0.00     0.209 HD
ENDBRANCH  33  34
ENDBRANCH  18  33
TORSDOF 5
ENDMDL
MODEL 6
REMARK minimizedAffinity -7.73841429
REMARK  5 active torsions:
REMARK  status: ('A' for Active; 'I' for Inactive)
REMARK    1  A    between atoms: C2_2  and  C4_4 
REMARK    2  A    between atoms: C7_7  and  C8_8 
REMARK    3  A    between atoms: C8_8  and  O2_10 
REMARK    4  A    between atoms: C21_24  and  C23_26 
REMARK    5  A    between atoms: C23_26  and  O4_27 
ROOT
HETATM    1  C4  UNL     1       4.705  56.768  -6.111  1.00  0.00     0.019 C 
HETATM    2  C5  UNL     1       6.196  57.193  -6.002  1.00  0.00     0.011 C 
HETATM    3  C6  UNL     1       6.972  56.425  -7.100  1.00  0.00     0.021 C 
HETATM    4  C7  UNL     1       5.983  55.364  -7.622  1.00  0.00     0.050 C 
HETATM    5  C9  UNL     1       6.199  54.962  -9.088  1.00  0.00     0.022 C 
HETATM    6  C10 UNL     1       4.961  54.242  -9.686  1.00  0.00     0.011 C 
HETATM    7  C11 UNL     1       3.580  54.995  -9.545  1.00  0.00    -0.032 C 
HETATM    8  C12 UNL     1       3.721  56.273 -10.436  1.00  0.00     0.016 C 
HETATM    9  C13 UNL     1       3.408  55.409  -8.028  1.00  0.00     0.000 C 
HETATM   10  C14 UNL     1       2.994  54.266  -7.077  1.00  0.00     0.006 C 
HETATM   11  C15 UNL     1       2.376  53.052  -7.757  1.00  0.00     0.006 C 
HETATM   12  C16 UNL     1       1.453  53.522  -8.875  1.00  0.00     0.003 C 
HETATM   13  C17 UNL     1       0.292  52.520  -9.247  1.00  0.00    -0.031 C 
HETATM   14  C18 UNL     1       0.818  51.065  -9.385  1.00  0.00     0.016 C 
HETATM   15  C19 UNL     1      -0.755  52.526  -8.102  1.00  0.00     0.036 C 
HETATM   16  C20 UNL     1      -1.968  51.644  -8.388  1.00  0.00     0.169 C 
HETATM   17  O3  UNL     1      -2.188  51.413  -9.775  1.00  0.00    -0.378 OA
HETATM   18  C21 UNL     1      -1.965  52.552 -10.626  1.00  0.00     0.082 C 
HETATM   19  C22 UNL     1      -2.265  52.033 -12.048  1.00  0.00     0.049 C 
HETATM   20  C24 UNL     1      -0.440  52.971 -10.564  1.00  0.00     0.030 C 
HETATM   21  C25 UNL     1      -0.220  54.464 -10.867  1.00  0.00     0.009 C 
HETATM   22  C26 UNL     1       1.233  54.977 -10.856  1.00  0.00     0.011 C 
HETATM   23  C27 UNL     1       2.279  54.115 -10.074  1.00  0.00    -0.032 C 
HETATM   24  C28 UNL     1       2.799  53.052 -11.076  1.00  0.00     0.016 C 
HETATM   25  C29 UNL     1       4.661  56.159  -7.523  1.00  0.00     0.017 C 
ENDROOT
BRANCH   4  26
HETATM   26  C8  UNL     1       6.154  54.092  -6.762  1.00  0.00     0.149 C 
HETATM   27  O1  UNL     1       5.884  53.967  -5.578  1.00  0.00    -0.649 OA
BRANCH  26  28
HETATM   28  O2  UNL     1       6.647  53.024  -7.416  1.00  0.00    -0.776 OA
HETATM   29  H11 UNL     1       6.678  52.327  -6.727  1.00  0.00     0.167 HD
ENDBRANCH  26  28
ENDBRANCH   4  26
BRANCH   1  30
HETATM   30  C2  UNL     1       3.767  57.914  -5.766  1.00  0.00    -0.088 C 
HETATM   31  C1  UNL     1       3.699  58.528  -4.573  1.00  0.00     0.014 C 
HETATM   32  C3  UNL     1       2.865  58.352  -6.893  1.00  0.00     0.043 C 
ENDBRANCH   1  30
BRANCH  18  33
HETATM   33  C23 UNL     1      -3.015  53.649 -10.278  1.00  0.00     0.202 C 
BRANCH  33  34
HETATM   34  O4  UNL     1      -3.681  54.207 -11.406  1.00  0.00    -0.398 OA
HETATM   35  H37 UNL     1      -4.318  53.545 -11.724  1.00  0.00     0.209 HD
ENDBRANCH  33  34
ENDBRANCH  18  33
TORSDOF 5
ENDMDL
MODEL 7
REMARK minimizedAffinity -7.71382856
REMARK  5 active torsions:
REMARK  status: ('A' for Active; 'I' for Inactive)
REMARK    1  A    between atoms: C2_2  and  C4_4 
REMARK    2  A    between atoms: C7_7  and  C8_8 
REMARK    3  A    between atoms: C8_8  and  O2_10 
REMARK    4  A    between atoms: C21_24  and  C23_26 
REMARK    5  A    between atoms: C23_26  and  O4_27 
ROOT
HETATM    1  C4  UNL     1       5.540  64.506 -34.313  1.00  0.00     0.019 C 
HETATM    2  C5  UNL     1       6.967  63.892 -34.281  1.00  0.00     0.011 C 
HETATM    3  C6  UNL     1       7.872  64.792 -35.157  1.00  0.00     0.021 C 
HETATM    4  C7  UNL     1       6.903  65.725 -35.909  1.00  0.00     0.050 C 
HETATM    5  C9  UNL     1       7.493  67.095 -36.272  1.00  0.00     0.022 C 
HETATM    6  C10 UNL     1       6.394  68.131 -36.627  1.00  0.00     0.011 C 
HETATM    7  C11 UNL     1       5.243  68.320 -35.561  1.00  0.00    -0.032 C 
HETATM    8  C12 UNL     1       5.944  68.950 -34.313  1.00  0.00     0.016 C 
HETATM    9  C13 UNL     1       4.679  66.888 -35.201  1.00  0.00     0.000 C 
HETATM   10  C14 UNL     1       3.736  66.267 -36.254  1.00  0.00     0.006 C 
HETATM   11  C15 UNL     1       3.125  67.257 -37.236  1.00  0.00     0.006 C 
HETATM   12  C16 UNL     1       2.747  68.531 -36.492  1.00  0.00     0.003 C 
HETATM   13  C17 UNL     1       1.582  69.368 -37.151  1.00  0.00    -0.031 C 
HETATM   14  C18 UNL     1       1.792  69.528 -38.681  1.00  0.00     0.016 C 
HETATM   15  C19 UNL     1       0.245  68.607 -36.945  1.00  0.00     0.036 C 
HETATM   16  C20 UNL     1      -0.968  69.362 -37.479  1.00  0.00     0.169 C 
HETATM   17  O3  UNL     1      -0.766  70.767 -37.573  1.00  0.00    -0.378 OA
HETATM   18  C21 UNL     1      -0.034  71.353 -36.482  1.00  0.00     0.082 C 
HETATM   19  C22 UNL     1       0.044  72.854 -36.832  1.00  0.00     0.049 C 
HETATM   20  C24 UNL     1       1.440  70.773 -36.461  1.00  0.00     0.030 C 
HETATM   21  C25 UNL     1       2.068  70.796 -35.055  1.00  0.00     0.009 C 
HETATM   22  C26 UNL     1       3.512  70.275 -34.923  1.00  0.00     0.011 C 
HETATM   23  C27 UNL     1       4.029  69.332 -36.059  1.00  0.00    -0.032 C 
HETATM   24  C28 UNL     1       4.602  70.258 -37.162  1.00  0.00     0.016 C 
HETATM   25  C29 UNL     1       5.829  65.930 -34.816  1.00  0.00     0.017 C 
ENDROOT
BRANCH   4  26
HETATM   26  C8  UNL     1       6.499  65.029 -37.227  1.00  0.00     0.149 C 
HETATM   27  O1  UNL     1       6.431  65.539 -38.334  1.00  0.00    -0.649 OA
BRANCH  26  28
HETATM   28  O2  UNL     1       6.202  63.721 -37.114  1.00  0.00    -0.776 OA
HETATM   29  H11 UNL     1       5.982  63.455 -38.031  1.00  0.00     0.167 HD
ENDBRANCH  26  28
ENDBRANCH   4  26
BRANCH   1  30
HETATM   30  C2  UNL     1       4.815  64.315 -32.990  1.00  0.00    -0.088 C 
HETATM   31  C1  UNL     1       4.718  65.239 -32.020  1.00  0.00     0.014 C 
HETATM   32  C3  UNL     1       4.174  62.962 -32.812  1.00  0.00     0.043 C 
ENDBRANCH   1  30
BRANCH  18  33
HETATM   33  C23 UNL     1      -0.872  71.200 -35.177  1.00  0.00     0.202 C 
BRANCH  33  34
HETATM   34  O4  UNL     1      -0.448  70.142 -34.325  1.00  0.00    -0.398 OA
HETATM   35  H37 UNL     1       0.375  70.428 -33.892  1.00  0.00     0.209 HD
ENDBRANCH  33  34
ENDBRANCH  18  33
TORSDOF 5
ENDMDL
MODEL 8
REMARK minimizedAffinity -7.69450569
REMARK  5 active torsions:
REMARK  status: ('A' for Active; 'I' for Inactive)
REMARK    1  A    between atoms: C2_2  and  C4_4 
REMARK    2  A    between atoms: C7_7  and  C8_8 
REMARK    3  A    between atoms: C8_8  and  O2_10 
REMARK    4  A    between atoms: C21_24  and  C23_26 
REMARK    5  A    between atoms: C23_26  and  O4_27 
ROOT
HETATM    1  C4  UNL     1       7.616  62.942 -34.139  1.00  0.00     0.019 C 
HETATM    2  C5  UNL     1       6.741  61.690 -34.424  1.00  0.00     0.011 C 
HETATM    3  C6  UNL     1       5.308  62.193 -34.727  1.00  0.00     0.021 C 
HETATM    4  C7  UNL     1       5.311  63.681 -34.324  1.00  0.00     0.050 C 
HETATM    5  C9  UNL     1       4.330  64.555 -35.118  1.00  0.00     0.022 C 
HETATM    6  C10 UNL     1       4.661  66.066 -34.994  1.00  0.00     0.011 C 
HETATM    7  C11 UNL     1       6.142  66.488 -35.345  1.00  0.00    -0.032 C 
HETATM    8  C12 UNL     1       6.292  66.209 -36.876  1.00  0.00     0.016 C 
HETATM    9  C13 UNL     1       7.118  65.551 -34.525  1.00  0.00     0.000 C 
HETATM   10  C14 UNL     1       7.267  65.904 -33.029  1.00  0.00     0.006 C 
HETATM   11  C15 UNL     1       6.847  67.318 -32.655  1.00  0.00     0.006 C 
HETATM   12  C16 UNL     1       7.308  68.281 -33.742  1.00  0.00     0.003 C 
HETATM   13  C17 UNL     1       7.535  69.767 -33.265  1.00  0.00    -0.031 C 
HETATM   14  C18 UNL     1       6.358  70.270 -32.387  1.00  0.00     0.016 C 
HETATM   15  C19 UNL     1       8.817  69.818 -32.391  1.00  0.00     0.036 C 
HETATM   16  C20 UNL     1       9.180  71.227 -31.931  1.00  0.00     0.169 C 
HETATM   17  O3  UNL     1       8.647  72.251 -32.763  1.00  0.00    -0.378 OA
HETATM   18  C21 UNL     1       8.683  71.971 -34.175  1.00  0.00     0.082 C 
HETATM   19  C22 UNL     1       8.053  73.217 -34.831  1.00  0.00     0.049 C 
HETATM   20  C24 UNL     1       7.759  70.724 -34.492  1.00  0.00     0.030 C 
HETATM   21  C25 UNL     1       8.205  69.958 -35.751  1.00  0.00     0.009 C 
HETATM   22  C26 UNL     1       7.361  68.738 -36.166  1.00  0.00     0.011 C 
HETATM   23  C27 UNL     1       6.470  68.087 -35.058  1.00  0.00    -0.032 C 
HETATM   24  C28 UNL     1       5.125  68.859 -35.075  1.00  0.00     0.016 C 
HETATM   25  C29 UNL     1       6.751  64.065 -34.737  1.00  0.00     0.017 C 
ENDROOT
BRANCH   4  26
HETATM   26  C8  UNL     1       4.915  63.772 -32.835  1.00  0.00     0.149 C 
HETATM   27  O1  UNL     1       4.790  64.788 -32.170  1.00  0.00    -0.649 OA
BRANCH  26  28
HETATM   28  O2  UNL     1       4.683  62.590 -32.234  1.00  0.00    -0.776 OA
HETATM   29  H11 UNL     1       4.443  62.842 -31.317  1.00  0.00     0.167 HD
ENDBRANCH  26  28
ENDBRANCH   4  26
BRANCH   1  30
HETATM   30  C2  UNL     1       9.042  62.757 -34.633  1.00  0.00    -0.088 C 
HETATM   31  C1  UNL     1       9.513  63.180 -35.818  1.00  0.00     0.014 C 
HETATM   32  C3  UNL     1       9.953  62.034 -33.673  1.00  0.00     0.043 C 
ENDBRANCH   1  30
BRANCH  18  33
HETATM   33  C23 UNL     1      10.171  71.881 -34.629  1.00  0.00     0.202 C 
BRANCH  33  34
HETATM   34  O4  UNL     1      10.924  73.071 -34.419  1.00  0.00    -0.398 OA
HETATM   35  H37 UNL     1      11.106  73.136 -33.465  1.00  0.00     0.209 HD
ENDBRANCH  33  34
ENDBRANCH  18  33
TORSDOF 5
ENDMDL
MODEL 9
REMARK minimizedAffinity -7.63109922
REMARK  5 active torsions:
REMARK  status: ('A' for Active; 'I' for Inactive)
REMARK    1  A    between atoms: C2_2  and  C4_4 
REMARK    2  A    between atoms: C7_7  and  C8_8 
REMARK    3  A    between atoms: C8_8  and  O2_10 
REMARK    4  A    between atoms: C21_24  and  C23_26 
REMARK    5  A    between atoms: C23_26  and  O4_27 
ROOT
HETATM    1  C4  UNL     1      -2.889  50.545 -24.814  1.00  0.00     0.019 C 
HETATM    2  C5  UNL     1      -2.034  51.840 -24.724  1.00  0.00     0.011 C 
HETATM    3  C6  UNL     1      -1.963  52.240 -23.230  1.00  0.00     0.021 C 
HETATM    4  C7  UNL     1      -3.010  51.352 -22.528  1.00  0.00     0.050 C 
HETATM    5  C9  UNL     1      -2.688  51.031 -21.062  1.00  0.00     0.022 C 
HETATM    6  C10 UNL     1      -3.507  49.823 -20.533  1.00  0.00     0.011 C 
HETATM    7  C11 UNL     1      -3.428  48.499 -21.390  1.00  0.00    -0.032 C 
HETATM    8  C12 UNL     1      -1.946  48.017 -21.259  1.00  0.00     0.016 C 
HETATM    9  C13 UNL     1      -3.744  48.877 -22.893  1.00  0.00     0.000 C 
HETATM   10  C14 UNL     1      -5.236  49.113 -23.213  1.00  0.00     0.006 C 
HETATM   11  C15 UNL     1      -6.213  48.522 -22.206  1.00  0.00     0.006 C 
HETATM   12  C16 UNL     1      -5.708  47.155 -21.762  1.00  0.00     0.003 C 
HETATM   13  C17 UNL     1      -6.826  46.161 -21.259  1.00  0.00    -0.031 C 
HETATM   14  C18 UNL     1      -7.807  46.859 -20.278  1.00  0.00     0.016 C 
HETATM   15  C19 UNL     1      -7.655  45.685 -22.481  1.00  0.00     0.036 C 
HETATM   16  C20 UNL     1      -8.725  44.657 -22.122  1.00  0.00     0.169 C 
HETATM   17  O3  UNL     1      -8.449  43.947 -20.921  1.00  0.00    -0.378 OA
HETATM   18  C21 UNL     1      -7.070  43.580 -20.732  1.00  0.00     0.082 C 
HETATM   19  C22 UNL     1      -7.052  42.840 -19.378  1.00  0.00     0.049 C 
HETATM   20  C24 UNL     1      -6.188  44.888 -20.592  1.00  0.00     0.030 C 
HETATM   21  C25 UNL     1      -4.729  44.672 -21.033  1.00  0.00     0.009 C 
HETATM   22  C26 UNL     1      -3.775  45.875 -20.917  1.00  0.00     0.011 C 
HETATM   23  C27 UNL     1      -4.432  47.294 -20.854  1.00  0.00    -0.032 C 
HETATM   24  C28 UNL     1      -4.742  47.561 -19.359  1.00  0.00     0.016 C 
HETATM   25  C29 UNL     1      -2.858  50.055 -23.356  1.00  0.00     0.017 C 
ENDROOT
BRANCH   4  26
HETATM   26  C8  UNL     1      -4.362  52.099 -22.555  1.00  0.00     0.149 C 
HETATM   27  O1  UNL     1      -4.921  52.567 -23.534  1.00  0.00    -0.649 OA
BRANCH  26  28
HETATM   28  O2  UNL     1      -4.967  52.225 -21.360  1.00  0.00    -0.776 OA
HETATM   29  H11 UNL     1      -5.794  52.707 -21.570  1.00  0.00     0.167 HD
ENDBRANCH  26  28
ENDBRANCH   4  26
BRANCH   1  30
HETATM   30  C2  UNL     1      -2.401  49.623 -25.919  1.00  0.00    -0.088 C 
HETATM   31  C1  UNL     1      -2.988  48.471 -26.285  1.00  0.00     0.014 C 
HETATM   32  C3  UNL     1      -1.153  50.091 -26.626  1.00  0.00     0.043 C 
ENDBRANCH   1  30
BRANCH  18  33
HETATM   33  C23 UNL     1      -6.663  42.569 -21.845  1.00  0.00     0.202 C 
BRANCH  33  34
HETATM   34  O4  UNL     1      -5.989  41.409 -21.369  1.00  0.00    -0.398 OA
HETATM   35  H37 UNL     1      -6.654  40.840 -20.944  1.00  0.00     0.209 HD
ENDBRANCH  33  34
ENDBRANCH  18  33
TORSDOF 5
ENDMDL
