MODEL 1
REMARK minimizedAffinity -9.28557301
REMARK  9 active torsions:
REMARK  status: ('A' for Active; 'I' for Inactive)
REMARK    1  A    between atoms: C2_2  and  C3_3 
REMARK    2  A    between atoms: C3_3  and  N1_4 
REMARK    3  A    between atoms: N1_4  and  C4_5 
REMARK    4  A    between atoms: C4_5  and  C5_6 
REMARK    5  A    between atoms: C7_8  and  O1_9 
REMARK    6  A    between atoms: C25_28  and  N2_29 
REMARK    7  A    between atoms: C25_28  and  C26_30 
REMARK    8  A    between atoms: C26_30  and  C27_31 
REMARK    9  A    between atoms: C27_31  and  O3_32 
ROOT
HETATM    1  C5  UNL     1       0.380  50.962 -17.045  1.00  0.00    -0.021 A 
HETATM    2  C6  UNL     1       0.424  49.723 -16.377  1.00  0.00     0.045 A 
HETATM    3  C7  UNL     1      -0.577  48.780 -16.537  1.00  0.00     0.066 A 
HETATM    4  C8  UNL     1      -1.686  49.052 -17.318  1.00  0.00     0.045 A 
HETATM    5  C9  UNL     1      -1.816  50.295 -17.967  1.00  0.00    -0.037 A 
HETATM    6  C10 UNL     1      -0.754  51.257 -17.867  1.00  0.00    -0.042 A 
HETATM    7  C11 UNL     1      -0.770  52.543 -18.713  1.00  0.00     0.044 C 
HETATM    8  C12 UNL     1      -0.285  52.229 -20.142  1.00  0.00    -0.010 C 
HETATM    9  C13 UNL     1       1.061  52.815 -20.594  1.00  0.00     0.005 C 
HETATM   10  C14 UNL     1       1.448  52.281 -21.994  1.00  0.00     0.001 C 
HETATM   11  C15 UNL     1       0.307  52.257 -23.037  1.00  0.00     0.007 C 
HETATM   12  C16 UNL     1      -1.002  51.725 -22.417  1.00  0.00     0.022 C 
HETATM   13  C17 UNL     1      -1.307  52.636 -21.217  1.00  0.00     0.012 C 
HETATM   14  C18 UNL     1      -2.177  51.419 -23.378  1.00  0.00     0.082 C 
HETATM   15  C19 UNL     1      -2.521  52.581 -24.335  1.00  0.00     0.040 C 
HETATM   16  C20 UNL     1      -3.698  52.154 -25.233  1.00  0.00     0.013 C 
HETATM   17  C21 UNL     1      -3.965  50.624 -25.059  1.00  0.00     0.059 C 
HETATM   18  C22 UNL     1      -2.583  49.915 -25.262  1.00  0.00     0.061 C 
HETATM   19  C23 UNL     1      -2.628  48.376 -25.283  1.00  0.00     0.046 C 
HETATM   20  C24 UNL     1      -1.901  50.313 -26.592  1.00  0.00     0.046 C 
HETATM   21  O2  UNL     1      -1.713  50.301 -24.182  1.00  0.00    -0.368 OA
HETATM   22  C25 UNL     1      -4.542  50.373 -23.605  1.00  0.00     0.180 C 
HETATM   23  C28 UNL     1      -3.522  51.048 -22.631  1.00  0.00     0.139 C 
HETATM   24  C29 UNL     1      -3.358  50.404 -21.297  1.00  0.00    -0.096 C 
HETATM   25  C30 UNL     1      -3.222  50.287 -20.106  1.00  0.00    -0.101 C 
HETATM   26  C31 UNL     1      -3.151  50.537 -18.654  1.00  0.00     0.133 C 
ENDROOT
BRANCH  22  27
HETATM   27  N2  UNL     1      -4.739  48.926 -23.393  1.00  0.00     0.090 N 
HETATM   28  H37 UNL     1      -3.945  48.541 -22.878  1.00  0.00     0.313 HD
HETATM   29  H38 UNL     1      -5.544  48.768 -22.776  1.00  0.00     0.313 HD
ENDBRANCH  22  27
BRANCH  22  30
HETATM   30  C26 UNL     1      -5.973  51.005 -23.455  1.00  0.00     0.069 C 
BRANCH  30  31
HETATM   31  C27 UNL     1      -7.034  50.165 -22.730  1.00  0.00     0.166 C 
BRANCH  31  32
HETATM   32  O3  UNL     1      -6.891  50.223 -21.317  1.00  0.00    -0.401 OA
HETATM   33  H43 UNL     1      -7.609  50.790 -20.980  1.00  0.00     0.209 HD
ENDBRANCH  31  32
ENDBRANCH  30  31
ENDBRANCH  22  30
BRANCH   3  34
HETATM   34  O1  UNL     1      -0.443  47.592 -15.880  1.00  0.00    -0.361 OA
HETATM   35  H12 UNL     1      -1.179  47.013 -16.132  1.00  0.00     0.217 HD
ENDBRANCH   3  34
BRANCH   1  36
HETATM   36  C4  UNL     1       1.476  51.996 -16.805  1.00  0.00     0.308 C 
BRANCH  36  37
HETATM   37  N1  UNL     1       1.623  52.540 -15.451  1.00  0.00     0.087 N 
HETATM   38  H8  UNL     1       0.716  52.637 -15.003  1.00  0.00     0.316 HD
BRANCH  37  39
HETATM   39  C3  UNL     1       2.554  51.775 -14.624  1.00  0.00     0.269 C 
BRANCH  39  40
HETATM   40  C2  UNL     1       3.932  51.685 -15.288  1.00  0.00     0.025 C 
HETATM   41  C1  UNL     1       4.347  52.966 -15.997  1.00  0.00     0.007 C 
ENDBRANCH  39  40
ENDBRANCH  37  39
ENDBRANCH  36  37
ENDBRANCH   1  36
TORSDOF 9
ENDMDL
MODEL 2
REMARK minimizedAffinity -9.24567795
REMARK  9 active torsions:
REMARK  status: ('A' for Active; 'I' for Inactive)
REMARK    1  A    between atoms: C2_2  and  C3_3 
REMARK    2  A    between atoms: C3_3  and  N1_4 
REMARK    3  A    between atoms: N1_4  and  C4_5 
REMARK    4  A    between atoms: C4_5  and  C5_6 
REMARK    5  A    between atoms: C7_8  and  O1_9 
REMARK    6  A    between atoms: C25_28  and  N2_29 
REMARK    7  A    between atoms: C25_28  and  C26_30 
REMARK    8  A    between atoms: C26_30  and  C27_31 
REMARK    9  A    between atoms: C27_31  and  O3_32 
ROOT
HETATM    1  C5  UNL     1      -3.101  51.182 -24.796  1.00  0.00    -0.021 A 
HETATM    2  C6  UNL     1      -2.667  52.211 -25.655  1.00  0.00     0.045 A 
HETATM    3  C7  UNL     1      -2.655  52.046 -27.030  1.00  0.00     0.066 A 
HETATM    4  C8  UNL     1      -3.017  50.839 -27.600  1.00  0.00     0.045 A 
HETATM    5  C9  UNL     1      -3.406  49.754 -26.792  1.00  0.00    -0.037 A 
HETATM    6  C10 UNL     1      -3.490  49.930 -25.369  1.00  0.00    -0.042 A 
HETATM    7  C11 UNL     1      -4.093  48.835 -24.470  1.00  0.00     0.044 C 
HETATM    8  C12 UNL     1      -5.632  48.911 -24.522  1.00  0.00    -0.010 C 
HETATM    9  C13 UNL     1      -6.378  49.347 -23.251  1.00  0.00     0.005 C 
HETATM   10  C14 UNL     1      -7.892  49.502 -23.531  1.00  0.00     0.001 C 
HETATM   11  C15 UNL     1      -8.534  48.374 -24.371  1.00  0.00     0.007 C 
HETATM   12  C16 UNL     1      -7.634  47.986 -25.562  1.00  0.00     0.022 C 
HETATM   13  C17 UNL     1      -6.277  47.586 -24.959  1.00  0.00     0.012 C 
HETATM   14  C18 UNL     1      -8.230  47.037 -26.631  1.00  0.00     0.082 C 
HETATM   15  C19 UNL     1      -8.857  45.753 -26.047  1.00  0.00     0.040 C 
HETATM   16  C20 UNL     1      -9.411  44.900 -27.205  1.00  0.00     0.013 C 
HETATM   17  C21 UNL     1      -9.391  45.731 -28.528  1.00  0.00     0.059 C 
HETATM   18  C22 UNL     1     -10.104  47.088 -28.201  1.00  0.00     0.061 C 
HETATM   19  C23 UNL     1     -10.335  48.018 -29.406  1.00  0.00     0.046 C 
HETATM   20  C24 UNL     1     -11.504  46.888 -27.575  1.00  0.00     0.046 C 
HETATM   21  O2  UNL     1      -9.292  47.809 -27.256  1.00  0.00    -0.368 OA
HETATM   22  C25 UNL     1      -7.885  45.953 -28.964  1.00  0.00     0.180 C 
HETATM   23  C28 UNL     1      -7.176  46.564 -27.713  1.00  0.00     0.139 C 
HETATM   24  C29 UNL     1      -6.063  47.517 -27.983  1.00  0.00    -0.096 C 
HETATM   25  C30 UNL     1      -4.999  48.073 -27.883  1.00  0.00    -0.101 C 
HETATM   26  C31 UNL     1      -3.615  48.436 -27.521  1.00  0.00     0.133 C 
ENDROOT
BRANCH  22  27
HETATM   27  N2  UNL     1      -7.838  46.794 -30.177  1.00  0.00     0.090 N 
HETATM   28  H37 UNL     1      -7.649  47.764 -29.917  1.00  0.00     0.313 HD
HETATM   29  H38 UNL     1      -7.037  46.525 -30.759  1.00  0.00     0.313 HD
ENDBRANCH  22  27
BRANCH  22  30
HETATM   30  C26 UNL     1      -7.219  44.593 -29.387  1.00  0.00     0.069 C 
BRANCH  30  31
HETATM   31  C27 UNL     1      -7.032  44.346 -30.890  1.00  0.00     0.166 C 
BRANCH  31  32
HETATM   32  O3  UNL     1      -6.185  43.235 -31.150  1.00  0.00    -0.401 OA
HETATM   33  H43 UNL     1      -6.756  42.505 -31.454  1.00  0.00     0.209 HD
ENDBRANCH  31  32
ENDBRANCH  30  31
ENDBRANCH  22  30
BRANCH   3  34
HETATM   34  O1  UNL     1      -2.251  53.102 -27.794  1.00  0.00    -0.361 OA
HETATM   35  H12 UNL     1      -2.352  52.865 -28.729  1.00  0.00     0.217 HD
ENDBRANCH   3  34
BRANCH   1  36
HETATM   36  C4  UNL     1      -3.054  51.383 -23.284  1.00  0.00     0.308 C 
BRANCH  36  37
HETATM   37  N1  UNL     1      -1.978  52.214 -22.734  1.00  0.00     0.087 N 
HETATM   38  H8  UNL     1      -2.297  52.714 -21.909  1.00  0.00     0.316 HD
BRANCH  37  39
HETATM   39  C3  UNL     1      -0.752  51.464 -22.468  1.00  0.00     0.269 C 
BRANCH  39  40
HETATM   40  C2  UNL     1       0.480  52.368 -22.581  1.00  0.00     0.025 C 
HETATM   41  C1  UNL     1       0.813  53.102 -21.290  1.00  0.00     0.007 C 
ENDBRANCH  39  40
ENDBRANCH  37  39
ENDBRANCH  36  37
ENDBRANCH   1  36
TORSDOF 9
ENDMDL
MODEL 3
REMARK minimizedAffinity -9.17120552
REMARK  9 active torsions:
REMARK  status: ('A' for Active; 'I' for Inactive)
REMARK    1  A    between atoms: C2_2  and  C3_3 
REMARK    2  A    between atoms: C3_3  and  N1_4 
REMARK    3  A    between atoms: N1_4  and  C4_5 
REMARK    4  A    between atoms: C4_5  and  C5_6 
REMARK    5  A    between atoms: C7_8  and  O1_9 
REMARK    6  A    between atoms: C25_28  and  N2_29 
REMARK    7  A    between atoms: C25_28  and  C26_30 
REMARK    8  A    between atoms: C26_30  and  C27_31 
REMARK    9  A    between atoms: C27_31  and  O3_32 
ROOT
HETATM    1  C5  UNL     1      -3.666  50.464 -23.388  1.00  0.00    -0.021 A 
HETATM    2  C6  UNL     1      -2.928  51.619 -23.713  1.00  0.00     0.045 A 
HETATM    3  C7  UNL     1      -2.404  51.809 -24.981  1.00  0.00     0.066 A 
HETATM    4  C8  UNL     1      -2.543  50.837 -25.955  1.00  0.00     0.045 A 
HETATM    5  C9  UNL     1      -3.222  49.636 -25.676  1.00  0.00    -0.037 A 
HETATM    6  C10 UNL     1      -3.830  49.453 -24.387  1.00  0.00    -0.042 A 
HETATM    7  C11 UNL     1      -4.740  48.243 -24.107  1.00  0.00     0.044 C 
HETATM    8  C12 UNL     1      -6.147  48.509 -24.679  1.00  0.00    -0.010 C 
HETATM    9  C13 UNL     1      -7.307  48.691 -23.690  1.00  0.00     0.005 C 
HETATM   10  C14 UNL     1      -8.605  49.088 -24.434  1.00  0.00     0.001 C 
HETATM   11  C15 UNL     1      -8.901  48.293 -25.727  1.00  0.00     0.007 C 
HETATM   12  C16 UNL     1      -7.626  48.119 -26.577  1.00  0.00     0.022 C 
HETATM   13  C17 UNL     1      -6.599  47.423 -25.669  1.00  0.00     0.012 C 
HETATM   14  C18 UNL     1      -7.791  47.549 -28.008  1.00  0.00     0.082 C 
HETATM   15  C19 UNL     1      -8.609  46.241 -28.070  1.00  0.00     0.040 C 
HETATM   16  C20 UNL     1      -8.701  45.781 -29.538  1.00  0.00     0.013 C 
HETATM   17  C21 UNL     1      -8.176  46.913 -30.478  1.00  0.00     0.059 C 
HETATM   18  C22 UNL     1      -8.941  48.216 -30.060  1.00  0.00     0.061 C 
HETATM   19  C23 UNL     1      -8.692  49.442 -30.957  1.00  0.00     0.046 C 
HETATM   20  C24 UNL     1     -10.476  48.028 -30.056  1.00  0.00     0.046 C 
HETATM   21  O2  UNL     1      -8.532  48.573 -28.727  1.00  0.00    -0.368 OA
HETATM   22  C25 UNL     1      -6.613  47.062 -30.268  1.00  0.00     0.180 C 
HETATM   23  C28 UNL     1      -6.416  47.247 -28.730  1.00  0.00     0.139 C 
HETATM   24  C29 UNL     1      -5.269  48.101 -28.308  1.00  0.00    -0.096 C 
HETATM   25  C30 UNL     1      -4.313  48.485 -27.685  1.00  0.00    -0.101 C 
HETATM   26  C31 UNL     1      -3.160  48.580 -26.769  1.00  0.00     0.133 C 
ENDROOT
BRANCH  22  27
HETATM   27  N2  UNL     1      -6.105  48.172 -31.098  1.00  0.00     0.090 N 
HETATM   28  H37 UNL     1      -6.014  49.015 -30.528  1.00  0.00     0.313 HD
HETATM   29  H38 UNL     1      -5.148  47.968 -31.408  1.00  0.00     0.313 HD
ENDBRANCH  22  27
BRANCH  22  30
HETATM   30  C26 UNL     1      -5.856  45.785 -30.789  1.00  0.00     0.069 C 
BRANCH  30  31
HETATM   31  C27 UNL     1      -4.972  45.957 -32.032  1.00  0.00     0.166 C 
BRANCH  31  32
HETATM   32  O3  UNL     1      -3.703  46.511 -31.715  1.00  0.00    -0.401 OA
HETATM   33  H43 UNL     1      -3.051  45.789 -31.779  1.00  0.00     0.209 HD
ENDBRANCH  31  32
ENDBRANCH  30  31
ENDBRANCH  22  30
BRANCH   3  34
HETATM   34  O1  UNL     1      -1.730  52.970 -25.223  1.00  0.00    -0.361 OA
HETATM   35  H12 UNL     1      -1.477  52.992 -26.159  1.00  0.00     0.217 HD
ENDBRANCH   3  34
BRANCH   1  36
HETATM   36  C4  UNL     1      -4.185  50.266 -21.967  1.00  0.00     0.308 C 
BRANCH  36  37
HETATM   37  N1  UNL     1      -3.378  49.458 -21.047  1.00  0.00     0.087 N 
HETATM   38  H8  UNL     1      -3.616  48.474 -21.131  1.00  0.00     0.316 HD
BRANCH  37  39
HETATM   39  C3  UNL     1      -1.941  49.680 -21.198  1.00  0.00     0.269 C 
BRANCH  39  40
HETATM   40  C2  UNL     1      -1.174  48.355 -21.152  1.00  0.00     0.025 C 
HETATM   41  C1  UNL     1      -1.923  47.198 -21.798  1.00  0.00     0.007 C 
ENDBRANCH  39  40
ENDBRANCH  37  39
ENDBRANCH  36  37
ENDBRANCH   1  36
TORSDOF 9
ENDMDL
MODEL 4
REMARK minimizedAffinity -9.06836891
REMARK  9 active torsions:
REMARK  status: ('A' for Active; 'I' for Inactive)
REMARK    1  A    between atoms: C2_2  and  C3_3 
REMARK    2  A    between atoms: C3_3  and  N1_4 
REMARK    3  A    between atoms: N1_4  and  C4_5 
REMARK    4  A    between atoms: C4_5  and  C5_6 
REMARK    5  A    between atoms: C7_8  and  O1_9 
REMARK    6  A    between atoms: C25_28  and  N2_29 
REMARK    7  A    between atoms: C25_28  and  C26_30 
REMARK    8  A    between atoms: C26_30  and  C27_31 
REMARK    9  A    between atoms: C27_31  and  O3_32 
ROOT
HETATM    1  C5  UNL     1      -2.044  52.178 -23.985  1.00  0.00    -0.021 A 
HETATM    2  C6  UNL     1      -3.346  52.519 -24.402  1.00  0.00     0.045 A 
HETATM    3  C7  UNL     1      -4.461  51.883 -23.880  1.00  0.00     0.066 A 
HETATM    4  C8  UNL     1      -4.324  50.849 -22.972  1.00  0.00     0.045 A 
HETATM    5  C9  UNL     1      -3.047  50.424 -22.559  1.00  0.00    -0.037 A 
HETATM    6  C10 UNL     1      -1.884  51.118 -23.038  1.00  0.00    -0.042 A 
HETATM    7  C11 UNL     1      -0.488  50.811 -22.464  1.00  0.00     0.044 C 
HETATM    8  C12 UNL     1      -0.310  51.539 -21.117  1.00  0.00    -0.010 C 
HETATM    9  C13 UNL     1       0.711  52.685 -21.045  1.00  0.00     0.005 C 
HETATM   10  C14 UNL     1       0.651  53.386 -19.667  1.00  0.00     0.001 C 
HETATM   11  C15 UNL     1       0.565  52.444 -18.443  1.00  0.00     0.007 C 
HETATM   12  C16 UNL     1      -0.436  51.297 -18.695  1.00  0.00     0.022 C 
HETATM   13  C17 UNL     1       0.045  50.582 -19.968  1.00  0.00     0.012 C 
HETATM   14  C18 UNL     1      -0.814  50.399 -17.491  1.00  0.00     0.082 C 
HETATM   15  C19 UNL     1       0.403  49.835 -16.726  1.00  0.00     0.040 C 
HETATM   16  C20 UNL     1      -0.104  48.965 -15.558  1.00  0.00     0.013 C 
HETATM   17  C21 UNL     1      -1.644  49.162 -15.386  1.00  0.00     0.059 C 
HETATM   18  C22 UNL     1      -1.880  50.709 -15.313  1.00  0.00     0.061 C 
HETATM   19  C23 UNL     1      -3.323  51.141 -14.991  1.00  0.00     0.046 C 
HETATM   20  C24 UNL     1      -1.008  51.393 -14.234  1.00  0.00     0.046 C 
HETATM   21  O2  UNL     1      -1.539  51.280 -16.590  1.00  0.00    -0.368 OA
HETATM   22  C25 UNL     1      -2.381  48.517 -16.631  1.00  0.00     0.180 C 
HETATM   23  C28 UNL     1      -1.705  49.152 -17.888  1.00  0.00     0.139 C 
HETATM   24  C29 UNL     1      -2.576  49.342 -19.082  1.00  0.00    -0.096 C 
HETATM   25  C30 UNL     1      -2.931  49.361 -20.233  1.00  0.00    -0.101 C 
HETATM   26  C31 UNL     1      -3.022  49.173 -21.694  1.00  0.00     0.133 C 
ENDROOT
BRANCH  22  27
HETATM   27  N2  UNL     1      -3.834  48.749 -16.522  1.00  0.00     0.090 N 
HETATM   28  H37 UNL     1      -4.099  49.555 -17.094  1.00  0.00     0.313 HD
HETATM   29  H38 UNL     1      -4.347  47.963 -16.937  1.00  0.00     0.313 HD
ENDBRANCH  22  27
BRANCH  22  30
HETATM   30  C26 UNL     1      -2.218  46.953 -16.628  1.00  0.00     0.069 C 
BRANCH  30  31
HETATM   31  C27 UNL     1      -2.309  46.245 -15.269  1.00  0.00     0.166 C 
BRANCH  31  32
HETATM   32  O3  UNL     1      -1.125  45.524 -14.958  1.00  0.00    -0.401 OA
HETATM   33  H43 UNL     1      -0.652  46.031 -14.272  1.00  0.00     0.209 HD
ENDBRANCH  31  32
ENDBRANCH  30  31
ENDBRANCH  22  30
BRANCH   3  34
HETATM   34  O1  UNL     1      -5.688  52.295 -24.312  1.00  0.00    -0.361 OA
HETATM   35  H12 UNL     1      -6.369  51.809 -23.821  1.00  0.00     0.217 HD
ENDBRANCH   3  34
BRANCH   1  36
HETATM   36  C4  UNL     1      -0.838  52.864 -24.618  1.00  0.00     0.308 C 
BRANCH  36  37
HETATM   37  N1  UNL     1      -0.885  53.149 -26.056  1.00  0.00     0.087 N 
HETATM   38  H8  UNL     1      -1.151  54.115 -26.222  1.00  0.00     0.316 HD
BRANCH  37  39
HETATM   39  C3  UNL     1       0.355  52.805 -26.750  1.00  0.00     0.269 C 
BRANCH  39  40
HETATM   40  C2  UNL     1       1.176  51.798 -25.937  1.00  0.00     0.025 C 
HETATM   41  C1  UNL     1       2.504  51.435 -26.587  1.00  0.00     0.007 C 
ENDBRANCH  39  40
ENDBRANCH  37  39
ENDBRANCH  36  37
ENDBRANCH   1  36
TORSDOF 9
ENDMDL
MODEL 5
REMARK minimizedAffinity -8.99110603
REMARK  9 active torsions:
REMARK  status: ('A' for Active; 'I' for Inactive)
REMARK    1  A    between atoms: C2_2  and  C3_3 
REMARK    2  A    between atoms: C3_3  and  N1_4 
REMARK    3  A    between atoms: N1_4  and  C4_5 
REMARK    4  A    between atoms: C4_5  and  C5_6 
REMARK    5  A    between atoms: C7_8  and  O1_9 
REMARK    6  A    between atoms: C25_28  and  N2_29 
REMARK    7  A    between atoms: C25_28  and  C26_30 
REMARK    8  A    between atoms: C26_30  and  C27_31 
REMARK    9  A    between atoms: C27_31  and  O3_32 
ROOT
HETATM    1  C5  UNL     1      -0.917  52.389 -24.143  1.00  0.00    -0.021 A 
HETATM    2  C6  UNL     1       0.284  52.315 -23.410  1.00  0.00     0.045 A 
HETATM    3  C7  UNL     1       0.288  52.017 -22.057  1.00  0.00     0.066 A 
HETATM    4  C8  UNL     1      -0.900  51.839 -21.370  1.00  0.00     0.045 A 
HETATM    5  C9  UNL     1      -2.135  51.956 -22.035  1.00  0.00    -0.037 A 
HETATM    6  C10 UNL     1      -2.154  52.197 -23.450  1.00  0.00    -0.042 A 
HETATM    7  C11 UNL     1      -3.472  52.141 -24.245  1.00  0.00     0.044 C 
HETATM    8  C12 UNL     1      -3.838  50.672 -24.538  1.00  0.00    -0.010 C 
HETATM    9  C13 UNL     1      -3.785  50.191 -25.996  1.00  0.00     0.005 C 
HETATM   10  C14 UNL     1      -4.042  48.667 -26.079  1.00  0.00     0.001 C 
HETATM   11  C15 UNL     1      -5.205  48.139 -25.207  1.00  0.00     0.007 C 
HETATM   12  C16 UNL     1      -5.178  48.773 -23.801  1.00  0.00     0.022 C 
HETATM   13  C17 UNL     1      -5.235  50.294 -24.017  1.00  0.00     0.012 C 
HETATM   14  C18 UNL     1      -6.130  48.184 -22.731  1.00  0.00     0.082 C 
HETATM   15  C19 UNL     1      -7.599  48.073 -23.194  1.00  0.00     0.040 C 
HETATM   16  C20 UNL     1      -8.438  47.476 -22.048  1.00  0.00     0.013 C 
HETATM   17  C21 UNL     1      -7.491  46.947 -20.923  1.00  0.00     0.059 C 
HETATM   18  C22 UNL     1      -6.445  46.022 -21.634  1.00  0.00     0.061 C 
HETATM   19  C23 UNL     1      -5.490  45.263 -20.694  1.00  0.00     0.046 C 
HETATM   20  C24 UNL     1      -7.111  44.926 -22.499  1.00  0.00     0.046 C 
HETATM   21  O2  UNL     1      -5.632  46.838 -22.498  1.00  0.00    -0.368 OA
HETATM   22  C25 UNL     1      -6.795  48.185 -20.222  1.00  0.00     0.180 C 
HETATM   23  C28 UNL     1      -6.152  49.011 -21.382  1.00  0.00     0.139 C 
HETATM   24  C29 UNL     1      -4.893  49.740 -21.056  1.00  0.00    -0.096 C 
HETATM   25  C30 UNL     1      -4.069  50.617 -21.025  1.00  0.00    -0.101 C 
HETATM   26  C31 UNL     1      -3.365  51.909 -21.141  1.00  0.00     0.133 C 
ENDROOT
BRANCH  22  27
HETATM   27  N2  UNL     1      -5.844  47.706 -19.199  1.00  0.00     0.090 N 
HETATM   28  H37 UNL     1      -4.897  47.703 -19.583  1.00  0.00     0.313 HD
HETATM   29  H38 UNL     1      -5.802  48.373 -18.420  1.00  0.00     0.313 HD
ENDBRANCH  22  27
BRANCH  22  30
HETATM   30  C26 UNL     1      -7.848  49.042 -19.429  1.00  0.00     0.069 C 
BRANCH  30  31
HETATM   31  C27 UNL     1      -8.027  48.722 -17.939  1.00  0.00     0.166 C 
BRANCH  31  32
HETATM   32  O3  UNL     1      -9.001  49.554 -17.324  1.00  0.00    -0.401 OA
HETATM   33  H43 UNL     1      -9.796  49.007 -17.181  1.00  0.00     0.209 HD
ENDBRANCH  31  32
ENDBRANCH  30  31
ENDBRANCH  22  30
BRANCH   3  34
HETATM   34  O1  UNL     1       1.495  51.931 -21.428  1.00  0.00    -0.361 OA
HETATM   35  H12 UNL     1       1.347  51.658 -20.509  1.00  0.00     0.217 HD
ENDBRANCH   3  34
BRANCH   1  36
HETATM   36  C4  UNL     1      -0.885  52.769 -25.620  1.00  0.00     0.308 C 
BRANCH  36  37
HETATM   37  N1  UNL     1       0.345  53.367 -26.149  1.00  0.00     0.087 N 
HETATM   38  H8  UNL     1       1.134  53.163 -25.541  1.00  0.00     0.316 HD
BRANCH  37  39
HETATM   39  C3  UNL     1       0.620  52.984 -27.533  1.00  0.00     0.269 C 
BRANCH  39  40
HETATM   40  C2  UNL     1       1.329  51.627 -27.596  1.00  0.00     0.025 C 
HETATM   41  C1  UNL     1       2.500  51.510 -26.631  1.00  0.00     0.007 C 
ENDBRANCH  39  40
ENDBRANCH  37  39
ENDBRANCH  36  37
ENDBRANCH   1  36
TORSDOF 9
ENDMDL
MODEL 6
REMARK minimizedAffinity -8.94810772
REMARK  9 active torsions:
REMARK  status: ('A' for Active; 'I' for Inactive)
REMARK    1  A    between atoms: C2_2  and  C3_3 
REMARK    2  A    between atoms: C3_3  and  N1_4 
REMARK    3  A    between atoms: N1_4  and  C4_5 
REMARK    4  A    between atoms: C4_5  and  C5_6 
REMARK    5  A    between atoms: C7_8  and  O1_9 
REMARK    6  A    between atoms: C25_28  and  N2_29 
REMARK    7  A    between atoms: C25_28  and  C26_30 
REMARK    8  A    between atoms: C26_30  and  C27_31 
REMARK    9  A    between atoms: C27_31  and  O3_32 
ROOT
HETATM    1  C5  UNL     1      -3.717  50.416 -23.522  1.00  0.00    -0.021 A 
HETATM    2  C6  UNL     1      -2.997  51.584 -23.840  1.00  0.00     0.045 A 
HETATM    3  C7  UNL     1      -2.487  51.795 -25.110  1.00  0.00     0.066 A 
HETATM    4  C8  UNL     1      -2.622  50.832 -26.094  1.00  0.00     0.045 A 
HETATM    5  C9  UNL     1      -3.283  49.619 -25.822  1.00  0.00    -0.037 A 
HETATM    6  C10 UNL     1      -3.877  49.414 -24.531  1.00  0.00    -0.042 A 
HETATM    7  C11 UNL     1      -4.769  48.190 -24.255  1.00  0.00     0.044 C 
HETATM    8  C12 UNL     1      -6.184  48.444 -24.813  1.00  0.00    -0.010 C 
HETATM    9  C13 UNL     1      -7.338  48.600 -23.811  1.00  0.00     0.005 C 
HETATM   10  C14 UNL     1      -8.647  48.988 -24.540  1.00  0.00     0.001 C 
HETATM   11  C15 UNL     1      -8.945  48.203 -25.839  1.00  0.00     0.007 C 
HETATM   12  C16 UNL     1      -7.675  48.055 -26.702  1.00  0.00     0.022 C 
HETATM   13  C17 UNL     1      -6.631  47.363 -25.810  1.00  0.00     0.012 C 
HETATM   14  C18 UNL     1      -7.846  47.499 -28.137  1.00  0.00     0.082 C 
HETATM   15  C19 UNL     1      -8.647  46.182 -28.206  1.00  0.00     0.040 C 
HETATM   16  C20 UNL     1      -8.746  45.736 -29.679  1.00  0.00     0.013 C 
HETATM   17  C21 UNL     1      -8.244  46.886 -30.610  1.00  0.00     0.059 C 
HETATM   18  C22 UNL     1      -9.022  48.174 -30.172  1.00  0.00     0.061 C 
HETATM   19  C23 UNL     1      -8.797  49.413 -31.058  1.00  0.00     0.046 C 
HETATM   20  C24 UNL     1     -10.555  47.966 -30.156  1.00  0.00     0.046 C 
HETATM   21  O2  UNL     1      -8.605  48.521 -28.838  1.00  0.00    -0.368 OA
HETATM   22  C25 UNL     1      -6.681  47.052 -30.413  1.00  0.00     0.180 C 
HETATM   23  C28 UNL     1      -6.472  47.222 -28.874  1.00  0.00     0.139 C 
HETATM   24  C29 UNL     1      -5.334  48.087 -28.453  1.00  0.00    -0.096 C 
HETATM   25  C30 UNL     1      -4.377  48.477 -27.835  1.00  0.00    -0.101 C 
HETATM   26  C31 UNL     1      -3.217  48.576 -26.928  1.00  0.00     0.133 C 
ENDROOT
BRANCH  22  27
HETATM   27  N2  UNL     1      -6.195  48.177 -31.235  1.00  0.00     0.090 N 
HETATM   28  H37 UNL     1      -6.110  49.016 -30.657  1.00  0.00     0.313 HD
HETATM   29  H38 UNL     1      -5.238  47.989 -31.556  1.00  0.00     0.313 HD
ENDBRANCH  22  27
BRANCH  22  30
HETATM   30  C26 UNL     1      -5.913  45.791 -30.954  1.00  0.00     0.069 C 
BRANCH  30  31
HETATM   31  C27 UNL     1      -4.981  46.005 -32.155  1.00  0.00     0.166 C 
BRANCH  31  32
HETATM   32  O3  UNL     1      -3.702  46.485 -31.764  1.00  0.00    -0.401 OA
HETATM   33  H43 UNL     1      -3.078  45.741 -31.854  1.00  0.00     0.209 HD
ENDBRANCH  31  32
ENDBRANCH  30  31
ENDBRANCH  22  30
BRANCH   3  34
HETATM   34  O1  UNL     1      -1.830  52.967 -25.345  1.00  0.00    -0.361 OA
HETATM   35  H12 UNL     1      -1.585  53.003 -26.283  1.00  0.00     0.217 HD
ENDBRANCH   3  34
BRANCH   1  36
HETATM   36  C4  UNL     1      -4.221  50.196 -22.099  1.00  0.00     0.308 C 
BRANCH  36  37
HETATM   37  N1  UNL     1      -5.483  50.834 -21.710  1.00  0.00     0.087 N 
HETATM   38  H8  UNL     1      -6.203  50.657 -22.405  1.00  0.00     0.316 HD
BRANCH  37  39
HETATM   39  C3  UNL     1      -5.926  50.460 -20.368  1.00  0.00     0.269 C 
BRANCH  39  40
HETATM   40  C2  UNL     1      -7.139  49.527 -20.431  1.00  0.00     0.025 C 
HETATM   41  C1  UNL     1      -7.275  48.625 -19.213  1.00  0.00     0.007 C 
ENDBRANCH  39  40
ENDBRANCH  37  39
ENDBRANCH  36  37
ENDBRANCH   1  36
TORSDOF 9
ENDMDL
MODEL 7
REMARK minimizedAffinity -8.36675644
REMARK  9 active torsions:
REMARK  status: ('A' for Active; 'I' for Inactive)
REMARK    1  A    between atoms: C2_2  and  C3_3 
REMARK    2  A    between atoms: C3_3  and  N1_4 
REMARK    3  A    between atoms: N1_4  and  C4_5 
REMARK    4  A    between atoms: C4_5  and  C5_6 
REMARK    5  A    between atoms: C7_8  and  O1_9 
REMARK    6  A    between atoms: C25_28  and  N2_29 
REMARK    7  A    between atoms: C25_28  and  C26_30 
REMARK    8  A    between atoms: C26_30  and  C27_31 
REMARK    9  A    between atoms: C27_31  and  O3_32 
ROOT
HETATM    1  C5  UNL     1      -3.467  47.528 -21.730  1.00  0.00    -0.021 A 
HETATM    2  C6  UNL     1      -3.231  46.369 -20.965  1.00  0.00     0.045 A 
HETATM    3  C7  UNL     1      -4.196  45.384 -20.829  1.00  0.00     0.066 A 
HETATM    4  C8  UNL     1      -5.448  45.539 -21.396  1.00  0.00     0.045 A 
HETATM    5  C9  UNL     1      -5.765  46.701 -22.125  1.00  0.00    -0.037 A 
HETATM    6  C10 UNL     1      -4.753  47.699 -22.333  1.00  0.00    -0.042 A 
HETATM    7  C11 UNL     1      -4.999  48.888 -23.282  1.00  0.00     0.044 C 
HETATM    8  C12 UNL     1      -4.789  48.438 -24.741  1.00  0.00    -0.010 C 
HETATM    9  C13 UNL     1      -3.588  49.012 -25.509  1.00  0.00     0.005 C 
HETATM   10  C14 UNL     1      -3.456  48.344 -26.898  1.00  0.00     0.001 C 
HETATM   11  C15 UNL     1      -4.777  48.175 -27.685  1.00  0.00     0.007 C 
HETATM   12  C16 UNL     1      -5.910  47.673 -26.766  1.00  0.00     0.022 C 
HETATM   13  C17 UNL     1      -6.020  48.697 -25.625  1.00  0.00     0.012 C 
HETATM   14  C18 UNL     1      -7.234  47.232 -27.438  1.00  0.00     0.082 C 
HETATM   15  C19 UNL     1      -7.816  48.275 -28.417  1.00  0.00     0.040 C 
HETATM   16  C20 UNL     1      -9.124  47.720 -29.015  1.00  0.00     0.013 C 
HETATM   17  C21 UNL     1      -9.274  46.210 -28.641  1.00  0.00     0.059 C 
HETATM   18  C22 UNL     1      -7.925  45.524 -29.046  1.00  0.00     0.061 C 
HETATM   19  C23 UNL     1      -7.896  43.992 -28.905  1.00  0.00     0.046 C 
HETATM   20  C24 UNL     1      -7.537  45.799 -30.518  1.00  0.00     0.046 C 
HETATM   21  O2  UNL     1      -6.881  46.049 -28.205  1.00  0.00    -0.368 OA
HETATM   22  C25 UNL     1      -9.542  46.099 -27.083  1.00  0.00     0.180 C 
HETATM   23  C28 UNL     1      -8.387  46.902 -26.405  1.00  0.00     0.139 C 
HETATM   24  C29 UNL     1      -7.932  46.410 -25.073  1.00  0.00    -0.096 C 
HETATM   25  C30 UNL     1      -7.560  46.424 -23.928  1.00  0.00    -0.101 C 
HETATM   26  C31 UNL     1      -7.219  46.830 -22.551  1.00  0.00     0.133 C 
ENDROOT
BRANCH  22  27
HETATM   27  N2  UNL     1      -9.621  44.677 -26.695  1.00  0.00     0.090 N 
HETATM   28  H37 UNL     1      -8.723  44.372 -26.314  1.00  0.00     0.313 HD
HETATM   29  H38 UNL     1     -10.281  44.562 -25.917  1.00  0.00     0.313 HD
ENDBRANCH  22  27
BRANCH  22  30
HETATM   30  C26 UNL     1     -10.947  46.700 -26.714  1.00  0.00     0.069 C 
BRANCH  30  31
HETATM   31  C27 UNL     1     -11.294  48.074 -27.304  1.00  0.00     0.166 C 
BRANCH  31  32
HETATM   32  O3  UNL     1     -11.120  49.123 -26.361  1.00  0.00    -0.401 OA
HETATM   33  H43 UNL     1     -10.311  49.605 -26.615  1.00  0.00     0.209 HD
ENDBRANCH  31  32
ENDBRANCH  30  31
ENDBRANCH  22  30
BRANCH   3  34
HETATM   34  O1  UNL     1      -3.876  44.278 -20.099  1.00  0.00    -0.361 OA
HETATM   35  H12 UNL     1      -4.617  43.653 -20.140  1.00  0.00     0.217 HD
ENDBRANCH   3  34
BRANCH   1  36
HETATM   36  C4  UNL     1      -2.399  48.613 -21.817  1.00  0.00     0.308 C 
BRANCH  36  37
HETATM   37  N1  UNL     1      -1.152  48.412 -21.072  1.00  0.00     0.087 N 
HETATM   38  H8  UNL     1      -0.378  48.239 -21.708  1.00  0.00     0.316 HD
BRANCH  37  39
HETATM   39  C3  UNL     1      -0.854  49.503 -20.146  1.00  0.00     0.269 C 
BRANCH  39  40
HETATM   40  C2  UNL     1      -0.090  50.628 -20.851  1.00  0.00     0.025 C 
HETATM   41  C1  UNL     1      -0.814  51.966 -20.817  1.00  0.00     0.007 C 
ENDBRANCH  39  40
ENDBRANCH  37  39
ENDBRANCH  36  37
ENDBRANCH   1  36
TORSDOF 9
ENDMDL
MODEL 8
REMARK minimizedAffinity -8.19681835
REMARK  9 active torsions:
REMARK  status: ('A' for Active; 'I' for Inactive)
REMARK    1  A    between atoms: C2_2  and  C3_3 
REMARK    2  A    between atoms: C3_3  and  N1_4 
REMARK    3  A    between atoms: N1_4  and  C4_5 
REMARK    4  A    between atoms: C4_5  and  C5_6 
REMARK    5  A    between atoms: C7_8  and  O1_9 
REMARK    6  A    between atoms: C25_28  and  N2_29 
REMARK    7  A    between atoms: C25_28  and  C26_30 
REMARK    8  A    between atoms: C26_30  and  C27_31 
REMARK    9  A    between atoms: C27_31  and  O3_32 
ROOT
HETATM    1  C5  UNL     1      -0.893  51.811 -23.396  1.00  0.00    -0.021 A 
HETATM    2  C6  UNL     1      -1.394  52.600 -24.450  1.00  0.00     0.045 A 
HETATM    3  C7  UNL     1      -2.435  52.160 -25.250  1.00  0.00     0.066 A 
HETATM    4  C8  UNL     1      -2.979  50.901 -25.072  1.00  0.00     0.045 A 
HETATM    5  C9  UNL     1      -2.484  50.043 -24.072  1.00  0.00    -0.037 A 
HETATM    6  C10 UNL     1      -1.452  50.510 -23.190  1.00  0.00    -0.042 A 
HETATM    7  C11 UNL     1      -1.019  49.679 -21.967  1.00  0.00     0.044 C 
HETATM    8  C12 UNL     1      -2.027  49.884 -20.819  1.00  0.00    -0.010 C 
HETATM    9  C13 UNL     1      -1.551  50.634 -19.565  1.00  0.00     0.005 C 
HETATM   10  C14 UNL     1      -2.728  50.868 -18.588  1.00  0.00     0.001 C 
HETATM   11  C15 UNL     1      -3.664  49.656 -18.369  1.00  0.00     0.007 C 
HETATM   12  C16 UNL     1      -3.986  48.955 -19.705  1.00  0.00     0.022 C 
HETATM   13  C17 UNL     1      -2.632  48.562 -20.319  1.00  0.00     0.012 C 
HETATM   14  C18 UNL     1      -5.090  47.868 -19.695  1.00  0.00     0.082 C 
HETATM   15  C19 UNL     1      -4.897  46.791 -18.605  1.00  0.00     0.040 C 
HETATM   16  C20 UNL     1      -6.053  45.776 -18.700  1.00  0.00     0.013 C 
HETATM   17  C21 UNL     1      -7.150  46.317 -19.671  1.00  0.00     0.059 C 
HETATM   18  C22 UNL     1      -7.480  47.771 -19.190  1.00  0.00     0.061 C 
HETATM   19  C23 UNL     1      -8.653  48.455 -19.915  1.00  0.00     0.046 C 
HETATM   20  C24 UNL     1      -7.847  47.831 -17.688  1.00  0.00     0.046 C 
HETATM   21  O2  UNL     1      -6.315  48.591 -19.397  1.00  0.00    -0.368 OA
HETATM   22  C25 UNL     1      -6.571  46.307 -21.146  1.00  0.00     0.180 C 
HETATM   23  C28 UNL     1      -5.222  47.091 -21.068  1.00  0.00     0.139 C 
HETATM   24  C29 UNL     1      -4.835  47.864 -22.282  1.00  0.00    -0.096 C 
HETATM   25  C30 UNL     1      -4.151  48.329 -23.157  1.00  0.00    -0.101 C 
HETATM   26  C31 UNL     1      -3.045  48.629 -24.087  1.00  0.00     0.133 C 
ENDROOT
BRANCH  22  27
HETATM   27  N2  UNL     1      -7.568  46.877 -22.074  1.00  0.00     0.090 N 
HETATM   28  H37 UNL     1      -7.348  47.859 -22.256  1.00  0.00     0.313 HD
HETATM   29  H38 UNL     1      -7.493  46.424 -22.991  1.00  0.00     0.313 HD
ENDBRANCH  22  27
BRANCH  22  30
HETATM   30  C26 UNL     1      -6.345  44.834 -21.647  1.00  0.00     0.069 C 
BRANCH  30  31
HETATM   31  C27 UNL     1      -7.583  44.060 -22.120  1.00  0.00     0.166 C 
BRANCH  31  32
HETATM   32  O3  UNL     1      -7.816  44.219 -23.513  1.00  0.00    -0.401 OA
HETATM   33  H43 UNL     1      -7.558  43.382 -23.943  1.00  0.00     0.209 HD
ENDBRANCH  31  32
ENDBRANCH  30  31
ENDBRANCH  22  30
BRANCH   3  34
HETATM   34  O1  UNL     1      -2.883  52.998 -26.229  1.00  0.00    -0.361 OA
HETATM   35  H12 UNL     1      -3.647  52.587 -26.664  1.00  0.00     0.217 HD
ENDBRANCH   3  34
BRANCH   1  36
HETATM   36  C4  UNL     1       0.288  52.308 -22.567  1.00  0.00     0.308 C 
BRANCH  36  37
HETATM   37  N1  UNL     1       0.861  53.616 -22.902  1.00  0.00     0.087 N 
HETATM   38  H8  UNL     1       0.174  54.198 -23.373  1.00  0.00     0.316 HD
BRANCH  37  39
HETATM   39  C3  UNL     1       1.446  54.298 -21.750  1.00  0.00     0.269 C 
BRANCH  39  40
HETATM   40  C2  UNL     1       1.338  53.435 -20.489  1.00  0.00     0.025 C 
HETATM   41  C1  UNL     1       0.229  53.878 -19.545  1.00  0.00     0.007 C 
ENDBRANCH  39  40
ENDBRANCH  37  39
ENDBRANCH  36  37
ENDBRANCH   1  36
TORSDOF 9
ENDMDL
MODEL 9
REMARK minimizedAffinity -7.91172838
REMARK  9 active torsions:
REMARK  status: ('A' for Active; 'I' for Inactive)
REMARK    1  A    between atoms: C2_2  and  C3_3 
REMARK    2  A    between atoms: C3_3  and  N1_4 
REMARK    3  A    between atoms: N1_4  and  C4_5 
REMARK    4  A    between atoms: C4_5  and  C5_6 
REMARK    5  A    between atoms: C7_8  and  O1_9 
REMARK    6  A    between atoms: C25_28  and  N2_29 
REMARK    7  A    between atoms: C25_28  and  C26_30 
REMARK    8  A    between atoms: C26_30  and  C27_31 
REMARK    9  A    between atoms: C27_31  and  O3_32 
ROOT
HETATM    1  C5  UNL     1      -3.423  50.822 -22.779  1.00  0.00    -0.021 A 
HETATM    2  C6  UNL     1      -3.166  51.971 -23.553  1.00  0.00     0.045 A 
HETATM    3  C7  UNL     1      -3.397  51.988 -24.918  1.00  0.00     0.066 A 
HETATM    4  C8  UNL     1      -3.834  50.852 -25.576  1.00  0.00     0.045 A 
HETATM    5  C9  UNL     1      -4.055  49.656 -24.867  1.00  0.00    -0.037 A 
HETATM    6  C10 UNL     1      -3.886  49.641 -23.440  1.00  0.00    -0.042 A 
HETATM    7  C11 UNL     1      -4.301  48.413 -22.608  1.00  0.00     0.044 C 
HETATM    8  C12 UNL     1      -5.826  48.432 -22.380  1.00  0.00    -0.010 C 
HETATM    9  C13 UNL     1      -6.339  48.666 -20.951  1.00  0.00     0.005 C 
HETATM   10  C14 UNL     1      -7.882  48.796 -20.938  1.00  0.00     0.001 C 
HETATM   11  C15 UNL     1      -8.644  47.761 -21.799  1.00  0.00     0.007 C 
HETATM   12  C16 UNL     1      -7.964  47.570 -23.171  1.00  0.00     0.022 C 
HETATM   13  C17 UNL     1      -6.515  47.151 -22.874  1.00  0.00     0.012 C 
HETATM   14  C18 UNL     1      -8.725  46.746 -24.239  1.00  0.00     0.082 C 
HETATM   15  C19 UNL     1      -9.216  45.372 -23.735  1.00  0.00     0.040 C 
HETATM   16  C20 UNL     1      -9.953  44.656 -24.884  1.00  0.00     0.013 C 
HETATM   17  C21 UNL     1     -10.184  45.654 -26.064  1.00  0.00     0.059 C 
HETATM   18  C22 UNL     1     -10.850  46.925 -25.436  1.00  0.00     0.061 C 
HETATM   19  C23 UNL     1     -11.308  47.995 -26.443  1.00  0.00     0.046 C 
HETATM   20  C24 UNL     1     -12.112  46.588 -24.608  1.00  0.00     0.046 C 
HETATM   21  O2  UNL     1      -9.894  47.549 -24.557  1.00  0.00    -0.368 OA
HETATM   22  C25 UNL     1      -8.783  45.992 -26.722  1.00  0.00     0.180 C 
HETATM   23  C28 UNL     1      -7.873  46.462 -25.542  1.00  0.00     0.139 C 
HETATM   24  C29 UNL     1      -6.842  47.488 -25.870  1.00  0.00    -0.096 C 
HETATM   25  C30 UNL     1      -5.788  48.069 -25.882  1.00  0.00    -0.101 C 
HETATM   26  C31 UNL     1      -4.367  48.437 -25.722  1.00  0.00     0.133 C 
ENDROOT
BRANCH  22  27
HETATM   27  N2  UNL     1      -8.968  46.986 -27.798  1.00  0.00     0.090 N 
HETATM   28  H37 UNL     1      -8.753  47.921 -27.445  1.00  0.00     0.313 HD
HETATM   29  H38 UNL     1      -8.279  46.829 -28.542  1.00  0.00     0.313 HD
ENDBRANCH  22  27
BRANCH  22  30
HETATM   30  C26 UNL     1      -8.181  44.727 -27.435  1.00  0.00     0.069 C 
BRANCH  30  31
HETATM   31  C27 UNL     1      -7.483  44.954 -28.784  1.00  0.00     0.166 C 
BRANCH  31  32
HETATM   32  O3  UNL     1      -7.013  43.741 -29.355  1.00  0.00    -0.401 OA
HETATM   33  H43 UNL     1      -7.611  43.522 -30.095  1.00  0.00     0.209 HD
ENDBRANCH  31  32
ENDBRANCH  30  31
ENDBRANCH  22  30
BRANCH   3  34
HETATM   34  O1  UNL     1      -3.154  53.151 -25.590  1.00  0.00    -0.361 OA
HETATM   35  H12 UNL     1      -3.416  53.035 -26.516  1.00  0.00     0.217 HD
ENDBRANCH   3  34
BRANCH   1  36
HETATM   36  C4  UNL     1      -3.110  50.824 -21.286  1.00  0.00     0.308 C 
BRANCH  36  37
HETATM   37  N1  UNL     1      -1.841  51.417 -20.851  1.00  0.00     0.087 N 
HETATM   38  H8  UNL     1      -1.623  51.138 -19.898  1.00  0.00     0.316 HD
BRANCH  37  39
HETATM   39  C3  UNL     1      -0.733  51.134 -21.761  1.00  0.00     0.269 C 
BRANCH  39  40
HETATM   40  C2  UNL     1       0.591  51.655 -21.192  1.00  0.00     0.025 C 
HETATM   41  C1  UNL     1       0.802  53.146 -21.415  1.00  0.00     0.007 C 
ENDBRANCH  39  40
ENDBRANCH  37  39
ENDBRANCH  36  37
ENDBRANCH   1  36
TORSDOF 9
ENDMDL
