MODEL 1
REMARK minimizedAffinity -10.5076609
REMARK  4 active torsions:
REMARK  status: ('A' for Active; 'I' for Inactive)
REMARK    1  A    between atoms: C3_3  and  C4_4 
REMARK    2  A    between atoms: C4_4  and  O1_5 
REMARK    3  A    between atoms: C6_9  and  C7_10 
REMARK    4  A    between atoms: C7_10  and  C9_12 
ROOT
HETATM    1  C9  UNL     1      -5.640   5.725  13.328  1.00  0.00     0.000 C 
HETATM    2  C10 UNL     1      -6.415   4.468  12.868  1.00  0.00     0.006 C 
HETATM    3  C11 UNL     1      -7.911   4.819  13.027  1.00  0.00     0.006 C 
HETATM    4  C12 UNL     1      -7.915   6.290  13.457  1.00  0.00    -0.001 C 
HETATM    5  C13 UNL     1      -9.172   6.864  14.127  1.00  0.00    -0.002 C 
HETATM    6  C14 UNL     1     -10.370   6.744  13.177  1.00  0.00     0.040 C 
HETATM    7  C15 UNL     1     -11.600   7.353  13.736  1.00  0.00     0.159 A 
HETATM    8  O4  UNL     1     -11.824   7.115  15.119  1.00  0.00    -0.368 OA
HETATM    9  C16 UNL     1     -11.539   8.488  14.743  1.00  0.00     0.102 A 
HETATM   10  C17 UNL     1     -12.779   9.350  14.871  1.00  0.00     0.042 C 
HETATM   11  C18 UNL     1     -12.496  10.789  15.261  1.00  0.00     0.010 C 
HETATM   12  C19 UNL     1     -11.254  11.276  14.552  1.00  0.00     0.079 C 
HETATM   13  C20 UNL     1     -10.076  10.538  15.141  1.00  0.00     0.138 C 
HETATM   14  O5  UNL     1      -9.080  11.178  15.485  1.00  0.00    -0.297 OA
HETATM   15  C21 UNL     1     -10.179   8.996  15.290  1.00  0.00     0.054 C 
HETATM   16  C22 UNL     1     -10.127   8.693  16.806  1.00  0.00     0.027 C 
HETATM   17  C23 UNL     1      -8.947   8.365  14.508  1.00  0.00     0.009 C 
HETATM   18  C24 UNL     1      -7.573   8.577  15.224  1.00  0.00     0.007 C 
HETATM   19  C25 UNL     1      -6.378   7.907  14.529  1.00  0.00     0.010 C 
HETATM   20  C26 UNL     1      -6.631   6.414  14.310  1.00  0.00    -0.036 C 
HETATM   21  C27 UNL     1      -6.770   5.690  15.671  1.00  0.00     0.016 C 
ENDROOT
BRANCH   1  22
HETATM   22  C7  UNL     1      -4.126   5.588  13.636  1.00  0.00     0.016 C 
HETATM   23  C8  UNL     1      -3.411   6.922  13.339  1.00  0.00     0.013 C 
BRANCH  22  24
HETATM   24  C6  UNL     1      -3.325   4.387  13.081  1.00  0.00     0.140 C 
HETATM   25  O3  UNL     1      -2.331   4.917  12.170  1.00  0.00    -0.311 OA
HETATM   26  C5  UNL     1      -1.501   4.060  11.526  1.00  0.00     0.292 C 
HETATM   27  C3  UNL     1      -1.910   2.626  11.466  1.00  0.00     0.042 C 
HETATM   28  O2  UNL     1      -0.471   4.454  10.989  1.00  0.00    -0.260 OA
HETATM   29  C2  UNL     1      -3.178   2.283  11.787  1.00  0.00    -0.067 C 
HETATM   30  C1  UNL     1      -3.761   0.906  11.619  1.00  0.00     0.044 C 
HETATM   31  C28 UNL     1      -4.124   3.315  12.348  1.00  0.00     0.067 C 
BRANCH  27  32
HETATM   32  C4  UNL     1      -0.790   1.740  10.984  1.00  0.00     0.209 C 
BRANCH  32  33
HETATM   33  O1  UNL     1      -1.103   1.094   9.755  1.00  0.00    -0.396 OA
HETATM   34  H6  UNL     1      -0.410   0.428   9.605  1.00  0.00     0.209 HD
ENDBRANCH  32  33
ENDBRANCH  27  32
ENDBRANCH  22  24
ENDBRANCH   1  22
TORSDOF 4
ENDMDL
MODEL 2
REMARK minimizedAffinity -10.4521666
REMARK  4 active torsions:
REMARK  status: ('A' for Active; 'I' for Inactive)
REMARK    1  A    between atoms: C3_3  and  C4_4 
REMARK    2  A    between atoms: C4_4  and  O1_5 
REMARK    3  A    between atoms: C6_9  and  C7_10 
REMARK    4  A    between atoms: C7_10  and  C9_12 
ROOT
HETATM    1  C9  UNL     1      -5.308   6.299  13.398  1.00  0.00     0.000 C 
HETATM    2  C10 UNL     1      -5.524   7.814  13.621  1.00  0.00     0.006 C 
HETATM    3  C11 UNL     1      -4.169   8.480  13.291  1.00  0.00     0.006 C 
HETATM    4  C12 UNL     1      -3.290   7.331  12.787  1.00  0.00    -0.001 C 
HETATM    5  C13 UNL     1      -1.765   7.512  12.777  1.00  0.00    -0.002 C 
HETATM    6  C14 UNL     1      -1.387   8.698  11.883  1.00  0.00     0.040 C 
HETATM    7  C15 UNL     1       0.081   8.877  11.769  1.00  0.00     0.159 A 
HETATM    8  O4  UNL     1       0.812   8.696  12.974  1.00  0.00    -0.368 OA
HETATM    9  C16 UNL     1       1.039   7.710  11.931  1.00  0.00     0.102 A 
HETATM   10  C17 UNL     1       2.418   7.876  11.326  1.00  0.00     0.042 C 
HETATM   11  C18 UNL     1       3.049   6.577  10.857  1.00  0.00     0.010 C 
HETATM   12  C19 UNL     1       1.998   5.698  10.222  1.00  0.00     0.079 C 
HETATM   13  C20 UNL     1       1.070   5.236  11.319  1.00  0.00     0.138 C 
HETATM   14  O5  UNL     1       0.783   4.039  11.396  1.00  0.00    -0.297 OA
HETATM   15  C21 UNL     1       0.520   6.299  12.309  1.00  0.00     0.054 C 
HETATM   16  C22 UNL     1       1.080   5.936  13.704  1.00  0.00     0.027 C 
HETATM   17  C23 UNL     1      -1.067   6.211  12.257  1.00  0.00     0.009 C 
HETATM   18  C24 UNL     1      -1.649   4.932  12.941  1.00  0.00     0.007 C 
HETATM   19  C25 UNL     1      -3.183   4.865  12.976  1.00  0.00     0.010 C 
HETATM   20  C26 UNL     1      -3.778   6.120  13.617  1.00  0.00    -0.036 C 
HETATM   21  C27 UNL     1      -3.342   6.223  15.098  1.00  0.00     0.016 C 
ENDROOT
BRANCH   1  22
HETATM   22  C7  UNL     1      -6.352   5.311  13.982  1.00  0.00     0.016 C 
HETATM   23  C8  UNL     1      -6.436   4.055  13.090  1.00  0.00     0.013 C 
BRANCH  22  24
HETATM   24  C6  UNL     1      -7.761   5.812  14.378  1.00  0.00     0.140 C 
HETATM   25  O3  UNL     1      -8.453   6.162  13.155  1.00  0.00    -0.311 OA
HETATM   26  C5  UNL     1      -9.715   6.652  13.227  1.00  0.00     0.292 C 
HETATM   27  C3  UNL     1     -10.167   7.186  14.545  1.00  0.00     0.042 C 
HETATM   28  O2  UNL     1     -10.443   6.683  12.241  1.00  0.00    -0.260 OA
HETATM   29  C2  UNL     1      -9.254   7.424  15.514  1.00  0.00    -0.067 C 
HETATM   30  C1  UNL     1      -9.553   8.104  16.823  1.00  0.00     0.044 C 
HETATM   31  C28 UNL     1      -7.818   7.009  15.321  1.00  0.00     0.067 C 
BRANCH  27  32
HETATM   32  C4  UNL     1     -11.654   7.434  14.572  1.00  0.00     0.209 C 
BRANCH  32  33
HETATM   33  O1  UNL     1     -12.399   6.233  14.741  1.00  0.00    -0.396 OA
HETATM   34  H6  UNL     1     -13.332   6.459  14.583  1.00  0.00     0.209 HD
ENDBRANCH  32  33
ENDBRANCH  27  32
ENDBRANCH  22  24
ENDBRANCH   1  22
TORSDOF 4
ENDMDL
MODEL 3
REMARK minimizedAffinity -10.0613852
REMARK  4 active torsions:
REMARK  status: ('A' for Active; 'I' for Inactive)
REMARK    1  A    between atoms: C3_3  and  C4_4 
REMARK    2  A    between atoms: C4_4  and  O1_5 
REMARK    3  A    between atoms: C6_9  and  C7_10 
REMARK    4  A    between atoms: C7_10  and  C9_12 
ROOT
HETATM    1  C9  UNL     1      -1.571   5.933  13.004  1.00  0.00     0.000 C 
HETATM    2  C10 UNL     1      -1.792   5.311  11.606  1.00  0.00     0.006 C 
HETATM    3  C11 UNL     1      -0.422   5.392  10.894  1.00  0.00     0.006 C 
HETATM    4  C12 UNL     1       0.530   5.946  11.958  1.00  0.00    -0.001 C 
HETATM    5  C13 UNL     1       1.859   6.572  11.512  1.00  0.00    -0.002 C 
HETATM    6  C14 UNL     1       2.698   5.531  10.759  1.00  0.00     0.040 C 
HETATM    7  C15 UNL     1       4.030   6.052  10.369  1.00  0.00     0.159 A 
HETATM    8  O4  UNL     1       4.045   7.388   9.888  1.00  0.00    -0.368 OA
HETATM    9  C16 UNL     1       4.715   7.155  11.155  1.00  0.00     0.102 A 
HETATM   10  C17 UNL     1       6.217   7.268  10.999  1.00  0.00     0.042 C 
HETATM   11  C18 UNL     1       6.931   7.801  12.228  1.00  0.00     0.010 C 
HETATM   12  C19 UNL     1       6.298   7.228  13.475  1.00  0.00     0.079 C 
HETATM   13  C20 UNL     1       4.921   7.834  13.604  1.00  0.00     0.138 C 
HETATM   14  O5  UNL     1       4.573   8.304  14.690  1.00  0.00    -0.297 OA
HETATM   15  C21 UNL     1       4.004   7.841  12.351  1.00  0.00     0.054 C 
HETATM   16  C22 UNL     1       3.766   9.324  11.984  1.00  0.00     0.027 C 
HETATM   17  C23 UNL     1       2.656   7.098  12.752  1.00  0.00     0.009 C 
HETATM   18  C24 UNL     1       1.744   7.926  13.713  1.00  0.00     0.007 C 
HETATM   19  C25 UNL     1       0.399   7.263  14.050  1.00  0.00     0.010 C 
HETATM   20  C26 UNL     1      -0.372   6.898  12.781  1.00  0.00    -0.036 C 
HETATM   21  C27 UNL     1      -0.735   8.177  11.988  1.00  0.00     0.016 C 
ENDROOT
BRANCH   1  22
HETATM   22  C7  UNL     1      -2.817   6.336  13.837  1.00  0.00     0.016 C 
HETATM   23  C8  UNL     1      -2.408   6.572  15.305  1.00  0.00     0.013 C 
BRANCH  22  24
HETATM   24  C6  UNL     1      -4.118   5.504  13.745  1.00  0.00     0.140 C 
HETATM   25  O3  UNL     1      -3.908   4.488  12.733  1.00  0.00    -0.311 OA
HETATM   26  C5  UNL     1      -4.914   3.628  12.441  1.00  0.00     0.292 C 
HETATM   27  C3  UNL     1      -6.291   4.019  12.863  1.00  0.00     0.042 C 
HETATM   28  O2  UNL     1      -4.704   2.587  11.829  1.00  0.00    -0.260 OA
HETATM   29  C2  UNL     1      -6.532   5.292  13.249  1.00  0.00    -0.067 C 
HETATM   30  C1  UNL     1      -7.896   5.853  13.545  1.00  0.00     0.044 C 
HETATM   31  C28 UNL     1      -5.392   6.267  13.400  1.00  0.00     0.067 C 
BRANCH  27  32
HETATM   32  C4  UNL     1      -7.264   2.874  12.741  1.00  0.00     0.209 C 
BRANCH  32  33
HETATM   33  O1  UNL     1      -8.565   3.217  13.205  1.00  0.00    -0.396 OA
HETATM   34  H6  UNL     1      -9.075   2.391  13.245  1.00  0.00     0.209 HD
ENDBRANCH  32  33
ENDBRANCH  27  32
ENDBRANCH  22  24
ENDBRANCH   1  22
TORSDOF 4
ENDMDL
MODEL 4
REMARK minimizedAffinity -9.87219143
REMARK  4 active torsions:
REMARK  status: ('A' for Active; 'I' for Inactive)
REMARK    1  A    between atoms: C3_3  and  C4_4 
REMARK    2  A    between atoms: C4_4  and  O1_5 
REMARK    3  A    between atoms: C6_9  and  C7_10 
REMARK    4  A    between atoms: C7_10  and  C9_12 
ROOT
HETATM    1  C9  UNL     1      -1.334   5.984  12.903  1.00  0.00     0.000 C 
HETATM    2  C10 UNL     1      -1.396   5.578  11.412  1.00  0.00     0.006 C 
HETATM    3  C11 UNL     1       0.022   5.830  10.853  1.00  0.00     0.006 C 
HETATM    4  C12 UNL     1       0.845   6.253  12.073  1.00  0.00    -0.001 C 
HETATM    5  C13 UNL     1       2.170   6.998  11.853  1.00  0.00    -0.002 C 
HETATM    6  C14 UNL     1       3.128   6.127  11.034  1.00  0.00     0.040 C 
HETATM    7  C15 UNL     1       4.456   6.760  10.853  1.00  0.00     0.159 A 
HETATM    8  O4  UNL     1       4.435   8.155  10.584  1.00  0.00    -0.368 OA
HETATM    9  C16 UNL     1       5.006   7.756  11.858  1.00  0.00     0.102 A 
HETATM   10  C17 UNL     1       6.508   7.959  11.862  1.00  0.00     0.042 C 
HETATM   11  C18 UNL     1       7.080   8.324  13.220  1.00  0.00     0.010 C 
HETATM   12  C19 UNL     1       6.377   7.537  14.301  1.00  0.00     0.079 C 
HETATM   13  C20 UNL     1       4.962   8.053  14.390  1.00  0.00     0.138 C 
HETATM   14  O5  UNL     1       4.495   8.332  15.497  1.00  0.00    -0.297 OA
HETATM   15  C21 UNL     1       4.157   8.215  13.072  1.00  0.00     0.054 C 
HETATM   16  C22 UNL     1       3.865   9.725  12.913  1.00  0.00     0.027 C 
HETATM   17  C23 UNL     1       2.825   7.359  13.228  1.00  0.00     0.009 C 
HETATM   18  C24 UNL     1       1.787   7.986  14.214  1.00  0.00     0.007 C 
HETATM   19  C25 UNL     1       0.459   7.220  14.319  1.00  0.00     0.010 C 
HETATM   20  C26 UNL     1      -0.177   7.023  12.942  1.00  0.00    -0.036 C 
HETATM   21  C27 UNL     1      -0.545   8.393  12.322  1.00  0.00     0.016 C 
ENDROOT
BRANCH   1  22
HETATM   22  C7  UNL     1      -2.667   6.196  13.667  1.00  0.00     0.016 C 
HETATM   23  C8  UNL     1      -2.486   5.808  15.149  1.00  0.00     0.013 C 
BRANCH  22  24
HETATM   24  C6  UNL     1      -3.990   5.630  13.097  1.00  0.00     0.140 C 
HETATM   25  O3  UNL     1      -5.048   6.007  14.011  1.00  0.00    -0.311 OA
HETATM   26  C5  UNL     1      -6.318   5.612  13.749  1.00  0.00     0.292 C 
HETATM   27  C3  UNL     1      -6.501   4.489  12.783  1.00  0.00     0.042 C 
HETATM   28  O2  UNL     1      -7.276   6.138  14.306  1.00  0.00    -0.260 OA
HETATM   29  C2  UNL     1      -5.434   3.736  12.432  1.00  0.00    -0.067 C 
HETATM   30  C1  UNL     1      -5.508   2.486  11.597  1.00  0.00     0.044 C 
HETATM   31  C28 UNL     1      -4.050   4.121  12.888  1.00  0.00     0.067 C 
BRANCH  27  32
HETATM   32  C4  UNL     1      -7.940   4.335  12.363  1.00  0.00     0.209 C 
BRANCH  32  33
HETATM   33  O1  UNL     1      -8.672   3.487  13.242  1.00  0.00    -0.396 OA
HETATM   34  H6  UNL     1      -9.527   3.313  12.813  1.00  0.00     0.209 HD
ENDBRANCH  32  33
ENDBRANCH  27  32
ENDBRANCH  22  24
ENDBRANCH   1  22
TORSDOF 4
ENDMDL
MODEL 5
REMARK minimizedAffinity -9.81552982
REMARK  4 active torsions:
REMARK  status: ('A' for Active; 'I' for Inactive)
REMARK    1  A    between atoms: C3_3  and  C4_4 
REMARK    2  A    between atoms: C4_4  and  O1_5 
REMARK    3  A    between atoms: C6_9  and  C7_10 
REMARK    4  A    between atoms: C7_10  and  C9_12 
ROOT
HETATM    1  C9  UNL     1      -1.766   6.138  12.493  1.00  0.00     0.000 C 
HETATM    2  C10 UNL     1      -1.996   4.727  11.901  1.00  0.00     0.006 C 
HETATM    3  C11 UNL     1      -3.482   4.400  12.173  1.00  0.00     0.006 C 
HETATM    4  C12 UNL     1      -4.048   5.679  12.797  1.00  0.00    -0.001 C 
HETATM    5  C13 UNL     1      -5.358   5.600  13.594  1.00  0.00    -0.002 C 
HETATM    6  C14 UNL     1      -6.487   5.089  12.691  1.00  0.00     0.040 C 
HETATM    7  C15 UNL     1      -7.798   5.063  13.381  1.00  0.00     0.159 A 
HETATM    8  O4  UNL     1      -7.770   4.610  14.727  1.00  0.00    -0.368 OA
HETATM    9  C16 UNL     1      -8.112   6.007  14.528  1.00  0.00     0.102 A 
HETATM   10  C17 UNL     1      -9.577   6.250  14.827  1.00  0.00     0.042 C 
HETATM   11  C18 UNL     1      -9.874   7.627  15.395  1.00  0.00     0.010 C 
HETATM   12  C19 UNL     1      -9.016   8.661  14.704  1.00  0.00     0.079 C 
HETATM   13  C20 UNL     1      -7.589   8.428  15.135  1.00  0.00     0.138 C 
HETATM   14  O5  UNL     1      -6.915   9.387  15.518  1.00  0.00    -0.297 OA
HETATM   15  C21 UNL     1      -7.035   6.978  15.079  1.00  0.00     0.054 C 
HETATM   16  C22 UNL     1      -6.716   6.569  16.536  1.00  0.00     0.027 C 
HETATM   17  C23 UNL     1      -5.734   7.008  14.165  1.00  0.00     0.009 C 
HETATM   18  C24 UNL     1      -4.506   7.701  14.841  1.00  0.00     0.007 C 
HETATM   19  C25 UNL     1      -3.215   7.670  14.010  1.00  0.00     0.010 C 
HETATM   20  C26 UNL     1      -2.852   6.241  13.602  1.00  0.00    -0.036 C 
HETATM   21  C27 UNL     1      -2.549   5.388  14.857  1.00  0.00     0.016 C 
ENDROOT
BRANCH   1  22
HETATM   22  C7  UNL     1      -0.307   6.617  12.712  1.00  0.00     0.016 C 
HETATM   23  C8  UNL     1      -0.281   7.740  13.769  1.00  0.00     0.013 C 
BRANCH  22  24
HETATM   24  C6  UNL     1       0.588   6.968  11.499  1.00  0.00     0.140 C 
HETATM   25  O3  UNL     1      -0.239   7.681  10.547  1.00  0.00    -0.311 OA
HETATM   26  C5  UNL     1       0.306   8.088   9.375  1.00  0.00     0.292 C 
HETATM   27  C3  UNL     1       1.581   7.440   8.951  1.00  0.00     0.042 C 
HETATM   28  O2  UNL     1      -0.244   8.934   8.677  1.00  0.00    -0.260 OA
HETATM   29  C2  UNL     1       1.990   6.310   9.571  1.00  0.00    -0.067 C 
HETATM   30  C1  UNL     1       3.166   5.475   9.140  1.00  0.00     0.044 C 
HETATM   31  C28 UNL     1       1.249   5.798  10.779  1.00  0.00     0.067 C 
BRANCH  27  32
HETATM   32  C4  UNL     1       2.226   8.166   7.797  1.00  0.00     0.209 C 
BRANCH  32  33
HETATM   33  O1  UNL     1       2.008   7.507   6.554  1.00  0.00    -0.396 OA
HETATM   34  H6  UNL     1       2.585   7.941   5.903  1.00  0.00     0.209 HD
ENDBRANCH  32  33
ENDBRANCH  27  32
ENDBRANCH  22  24
ENDBRANCH   1  22
TORSDOF 4
ENDMDL
MODEL 6
REMARK minimizedAffinity -9.59586143
REMARK  4 active torsions:
REMARK  status: ('A' for Active; 'I' for Inactive)
REMARK    1  A    between atoms: C3_3  and  C4_4 
REMARK    2  A    between atoms: C4_4  and  O1_5 
REMARK    3  A    between atoms: C6_9  and  C7_10 
REMARK    4  A    between atoms: C7_10  and  C9_12 
ROOT
HETATM    1  C9  UNL     1      -5.425   5.652  13.531  1.00  0.00     0.000 C 
HETATM    2  C10 UNL     1      -6.155   4.384  13.030  1.00  0.00     0.006 C 
HETATM    3  C11 UNL     1      -7.662   4.715  13.105  1.00  0.00     0.006 C 
HETATM    4  C12 UNL     1      -7.710   6.186  13.530  1.00  0.00    -0.001 C 
HETATM    5  C13 UNL     1      -9.010   6.744  14.127  1.00  0.00    -0.002 C 
HETATM    6  C14 UNL     1     -10.151   6.607  13.112  1.00  0.00     0.040 C 
HETATM    7  C15 UNL     1     -11.418   7.200  13.600  1.00  0.00     0.159 A 
HETATM    8  O4  UNL     1     -11.717   6.960  14.968  1.00  0.00    -0.368 OA
HETATM    9  C16 UNL     1     -11.430   8.337  14.606  1.00  0.00     0.102 A 
HETATM   10  C17 UNL     1     -12.686   9.182  14.663  1.00  0.00     0.042 C 
HETATM   11  C18 UNL     1     -12.445  10.626  15.065  1.00  0.00     0.010 C 
HETATM   12  C19 UNL     1     -11.171  11.128  14.427  1.00  0.00     0.079 C 
HETATM   13  C20 UNL     1     -10.019  10.407  15.083  1.00  0.00     0.138 C 
HETATM   14  O5  UNL     1      -9.052  11.060  15.481  1.00  0.00    -0.297 OA
HETATM   15  C21 UNL     1     -10.110   8.863  15.229  1.00  0.00     0.054 C 
HETATM   16  C22 UNL     1     -10.139   8.563  16.745  1.00  0.00     0.027 C 
HETATM   17  C23 UNL     1      -8.827   8.249  14.518  1.00  0.00     0.009 C 
HETATM   18  C24 UNL     1      -7.499   8.480  15.310  1.00  0.00     0.007 C 
HETATM   19  C25 UNL     1      -6.258   7.825  14.685  1.00  0.00     0.010 C 
HETATM   20  C26 UNL     1      -6.478   6.328  14.455  1.00  0.00    -0.036 C 
HETATM   21  C27 UNL     1      -6.684   5.604  15.807  1.00  0.00     0.016 C 
ENDROOT
BRANCH   1  22
HETATM   22  C7  UNL     1      -3.928   5.535  13.924  1.00  0.00     0.016 C 
HETATM   23  C8  UNL     1      -3.708   6.150  15.322  1.00  0.00     0.013 C 
BRANCH  22  24
HETATM   24  C6  UNL     1      -2.826   5.982  12.935  1.00  0.00     0.140 C 
HETATM   25  O3  UNL     1      -2.148   4.786  12.478  1.00  0.00    -0.311 OA
HETATM   26  C5  UNL     1      -1.115   4.904  11.608  1.00  0.00     0.292 C 
HETATM   27  C3  UNL     1      -0.473   6.246  11.487  1.00  0.00     0.042 C 
HETATM   28  O2  UNL     1      -0.707   3.940  10.969  1.00  0.00    -0.260 OA
HETATM   29  C2  UNL     1      -0.733   7.193  12.416  1.00  0.00    -0.067 C 
HETATM   30  C1  UNL     1      -0.036   8.524  12.499  1.00  0.00     0.044 C 
HETATM   31  C28 UNL     1      -1.780   6.951  13.474  1.00  0.00     0.067 C 
BRANCH  27  32
HETATM   32  C4  UNL     1       0.457   6.320  10.302  1.00  0.00     0.209 C 
BRANCH  32  33
HETATM   33  O1  UNL     1       1.528   5.388  10.396  1.00  0.00    -0.396 OA
HETATM   34  H6  UNL     1       2.157   5.614   9.690  1.00  0.00     0.209 HD
ENDBRANCH  32  33
ENDBRANCH  27  32
ENDBRANCH  22  24
ENDBRANCH   1  22
TORSDOF 4
ENDMDL
MODEL 7
REMARK minimizedAffinity -9.51732826
REMARK  4 active torsions:
REMARK  status: ('A' for Active; 'I' for Inactive)
REMARK    1  A    between atoms: C3_3  and  C4_4 
REMARK    2  A    between atoms: C4_4  and  O1_5 
REMARK    3  A    between atoms: C6_9  and  C7_10 
REMARK    4  A    between atoms: C7_10  and  C9_12 
ROOT
HETATM    1  C9  UNL     1      -3.620   4.990  13.844  1.00  0.00     0.000 C 
HETATM    2  C10 UNL     1      -2.304   4.596  13.133  1.00  0.00     0.006 C 
HETATM    3  C11 UNL     1      -1.243   5.601  13.636  1.00  0.00     0.006 C 
HETATM    4  C12 UNL     1      -1.977   6.437  14.689  1.00  0.00    -0.001 C 
HETATM    5  C13 UNL     1      -1.395   7.800  15.093  1.00  0.00    -0.002 C 
HETATM    6  C14 UNL     1       0.013   7.615  15.670  1.00  0.00     0.040 C 
HETATM    7  C15 UNL     1       0.600   8.888  16.152  1.00  0.00     0.159 A 
HETATM    8  O4  UNL     1       0.367  10.019  15.324  1.00  0.00    -0.368 OA
HETATM    9  C16 UNL     1      -0.272  10.036  16.628  1.00  0.00     0.102 A 
HETATM   10  C17 UNL     1       0.384  11.057  17.535  1.00  0.00     0.042 C 
HETATM   11  C18 UNL     1      -0.564  11.705  18.528  1.00  0.00     0.010 C 
HETATM   12  C19 UNL     1      -1.535  10.675  19.055  1.00  0.00     0.079 C 
HETATM   13  C20 UNL     1      -2.455  10.296  17.920  1.00  0.00     0.138 C 
HETATM   14  O5  UNL     1      -3.672  10.278  18.116  1.00  0.00    -0.297 OA
HETATM   15  C21 UNL     1      -1.818   9.950  16.546  1.00  0.00     0.054 C 
HETATM   16  C22 UNL     1      -2.309  11.024  15.547  1.00  0.00     0.027 C 
HETATM   17  C23 UNL     1      -2.316   8.492  16.153  1.00  0.00     0.009 C 
HETATM   18  C24 UNL     1      -3.821   8.432  15.734  1.00  0.00     0.007 C 
HETATM   19  C25 UNL     1      -4.303   7.049  15.272  1.00  0.00     0.010 C 
HETATM   20  C26 UNL     1      -3.424   6.503  14.145  1.00  0.00    -0.036 C 
HETATM   21  C27 UNL     1      -3.530   7.410  12.896  1.00  0.00     0.016 C 
ENDROOT
BRANCH   1  22
HETATM   22  C7  UNL     1      -4.954   4.418  13.295  1.00  0.00     0.016 C 
HETATM   23  C8  UNL     1      -4.722   3.801  11.901  1.00  0.00     0.013 C 
BRANCH  22  24
HETATM   24  C6  UNL     1      -6.238   5.280  13.320  1.00  0.00     0.140 C 
HETATM   25  O3  UNL     1      -6.824   5.142  14.637  1.00  0.00    -0.311 OA
HETATM   26  C5  UNL     1      -7.982   5.790  14.917  1.00  0.00     0.292 C 
HETATM   27  C3  UNL     1      -8.796   6.264  13.760  1.00  0.00     0.042 C 
HETATM   28  O2  UNL     1      -8.359   5.951  16.073  1.00  0.00    -0.260 OA
HETATM   29  C2  UNL     1      -8.519   5.805  12.519  1.00  0.00    -0.067 C 
HETATM   30  C1  UNL     1      -9.355   6.079  11.298  1.00  0.00     0.044 C 
HETATM   31  C28 UNL     1      -7.304   4.943  12.283  1.00  0.00     0.067 C 
BRANCH  27  32
HETATM   32  C4  UNL     1      -9.895   7.203  14.191  1.00  0.00     0.209 C 
BRANCH  32  33
HETATM   33  O1  UNL     1     -10.936   6.530  14.892  1.00  0.00    -0.396 OA
HETATM   34  H6  UNL     1     -11.666   7.166  14.984  1.00  0.00     0.209 HD
ENDBRANCH  32  33
ENDBRANCH  27  32
ENDBRANCH  22  24
ENDBRANCH   1  22
TORSDOF 4
ENDMDL
MODEL 8
REMARK minimizedAffinity -9.42785549
REMARK  4 active torsions:
REMARK  status: ('A' for Active; 'I' for Inactive)
REMARK    1  A    between atoms: C3_3  and  C4_4 
REMARK    2  A    between atoms: C4_4  and  O1_5 
REMARK    3  A    between atoms: C6_9  and  C7_10 
REMARK    4  A    between atoms: C7_10  and  C9_12 
ROOT
HETATM    1  C9  UNL     1      -3.864   2.707  12.293  1.00  0.00     0.000 C 
HETATM    2  C10 UNL     1      -3.113   1.560  11.577  1.00  0.00     0.006 C 
HETATM    3  C11 UNL     1      -1.722   2.131  11.224  1.00  0.00     0.006 C 
HETATM    4  C12 UNL     1      -1.709   3.527  11.857  1.00  0.00    -0.001 C 
HETATM    5  C13 UNL     1      -0.685   4.558  11.360  1.00  0.00    -0.002 C 
HETATM    6  C14 UNL     1       0.737   4.028  11.582  1.00  0.00     0.040 C 
HETATM    7  C15 UNL     1       1.775   5.013  11.193  1.00  0.00     0.159 A 
HETATM    8  O4  UNL     1       1.516   5.732   9.996  1.00  0.00    -0.368 OA
HETATM    9  C16 UNL     1       1.507   6.507  11.225  1.00  0.00     0.102 A 
HETATM   10  C17 UNL     1       2.718   7.413  11.298  1.00  0.00     0.042 C 
HETATM   11  C18 UNL     1       2.471   8.721  12.028  1.00  0.00     0.010 C 
HETATM   12  C19 UNL     1       1.580   8.479  13.224  1.00  0.00     0.079 C 
HETATM   13  C20 UNL     1       0.207   8.128  12.703  1.00  0.00     0.138 C 
HETATM   14  O5  UNL     1      -0.777   8.699  13.177  1.00  0.00    -0.297 OA
HETATM   15  C21 UNL     1       0.101   7.057  11.583  1.00  0.00     0.054 C 
HETATM   16  C22 UNL     1      -0.468   7.774  10.337  1.00  0.00     0.027 C 
HETATM   17  C23 UNL     1      -0.869   5.915  12.116  1.00  0.00     0.009 C 
HETATM   18  C24 UNL     1      -2.372   6.343  12.172  1.00  0.00     0.007 C 
HETATM   19  C25 UNL     1      -3.339   5.232  12.606  1.00  0.00     0.010 C 
HETATM   20  C26 UNL     1      -3.181   3.986  11.732  1.00  0.00    -0.036 C 
HETATM   21  C27 UNL     1      -3.562   4.309  10.267  1.00  0.00     0.016 C 
ENDROOT
BRANCH   1  22
HETATM   22  C7  UNL     1      -5.403   2.592  12.458  1.00  0.00     0.016 C 
HETATM   23  C8  UNL     1      -5.995   1.796  11.277  1.00  0.00     0.013 C 
BRANCH  22  24
HETATM   24  C6  UNL     1      -6.249   3.850  12.767  1.00  0.00     0.140 C 
HETATM   25  O3  UNL     1      -6.676   3.753  14.147  1.00  0.00    -0.311 OA
HETATM   26  C5  UNL     1      -7.456   4.732  14.668  1.00  0.00     0.292 C 
HETATM   27  C3  UNL     1      -8.165   5.626  13.706  1.00  0.00     0.042 C 
HETATM   28  O2  UNL     1      -7.598   4.857  15.879  1.00  0.00    -0.260 OA
HETATM   29  C2  UNL     1      -8.239   5.273  12.402  1.00  0.00    -0.067 C 
HETATM   30  C1  UNL     1      -9.051   5.999  11.364  1.00  0.00     0.044 C 
HETATM   31  C28 UNL     1      -7.482   4.071  11.897  1.00  0.00     0.067 C 
BRANCH  27  32
HETATM   32  C4  UNL     1      -8.761   6.829  14.389  1.00  0.00     0.209 C 
BRANCH  32  33
HETATM   33  O1  UNL     1      -9.832   6.481  15.261  1.00  0.00    -0.396 OA
HETATM   34  H6  UNL     1     -10.258   7.314  15.526  1.00  0.00     0.209 HD
ENDBRANCH  32  33
ENDBRANCH  27  32
ENDBRANCH  22  24
ENDBRANCH   1  22
TORSDOF 4
ENDMDL
MODEL 9
REMARK minimizedAffinity -9.35957718
REMARK  4 active torsions:
REMARK  status: ('A' for Active; 'I' for Inactive)
REMARK    1  A    between atoms: C3_3  and  C4_4 
REMARK    2  A    between atoms: C4_4  and  O1_5 
REMARK    3  A    between atoms: C6_9  and  C7_10 
REMARK    4  A    between atoms: C7_10  and  C9_12 
ROOT
HETATM    1  C9  UNL     1      -1.284   4.791  13.198  1.00  0.00     0.000 C 
HETATM    2  C10 UNL     1       0.228   4.717  12.880  1.00  0.00     0.006 C 
HETATM    3  C11 UNL     1       0.870   5.902  13.636  1.00  0.00     0.006 C 
HETATM    4  C12 UNL     1      -0.284   6.517  14.435  1.00  0.00    -0.001 C 
HETATM    5  C13 UNL     1      -0.143   7.953  14.959  1.00  0.00    -0.002 C 
HETATM    6  C14 UNL     1       1.063   8.047  15.902  1.00  0.00     0.040 C 
HETATM    7  C15 UNL     1       1.207   9.394  16.504  1.00  0.00     0.159 A 
HETATM    8  O4  UNL     1       0.968  10.484  15.625  1.00  0.00    -0.368 OA
HETATM    9  C16 UNL     1       0.013  10.308  16.705  1.00  0.00     0.102 A 
HETATM   10  C17 UNL     1       0.163  11.405  17.739  1.00  0.00     0.042 C 
HETATM   11  C18 UNL     1      -1.135  11.793  18.424  1.00  0.00     0.010 C 
HETATM   12  C19 UNL     1      -1.966  10.558  18.683  1.00  0.00     0.079 C 
HETATM   13  C20 UNL     1      -2.441  10.042  17.347  1.00  0.00     0.138 C 
HETATM   14  O5  UNL     1      -3.632   9.756  17.204  1.00  0.00    -0.297 OA
HETATM   15  C21 UNL     1      -1.397   9.899  16.205  1.00  0.00     0.054 C 
HETATM   16  C22 UNL     1      -1.820  10.886  15.092  1.00  0.00     0.027 C 
HETATM   17  C23 UNL     1      -1.442   8.386  15.716  1.00  0.00     0.009 C 
HETATM   18  C24 UNL     1      -2.728   8.027  14.903  1.00  0.00     0.007 C 
HETATM   19  C25 UNL     1      -2.757   6.594  14.350  1.00  0.00     0.010 C 
HETATM   20  C26 UNL     1      -1.509   6.297  13.516  1.00  0.00    -0.036 C 
HETATM   21  C27 UNL     1      -1.468   7.214  12.270  1.00  0.00     0.016 C 
ENDROOT
BRANCH   1  22
HETATM   22  C7  UNL     1      -2.264   3.973  12.315  1.00  0.00     0.016 C 
HETATM   23  C8  UNL     1      -2.099   4.382  10.837  1.00  0.00     0.013 C 
BRANCH  22  24
HETATM   24  C6  UNL     1      -3.758   3.866  12.705  1.00  0.00     0.140 C 
HETATM   25  O3  UNL     1      -4.368   2.906  11.808  1.00  0.00    -0.311 OA
HETATM   26  C5  UNL     1      -5.692   2.642  11.925  1.00  0.00     0.292 C 
HETATM   27  C3  UNL     1      -6.523   3.628  12.676  1.00  0.00     0.042 C 
HETATM   28  O2  UNL     1      -6.191   1.647  11.410  1.00  0.00    -0.260 OA
HETATM   29  C2  UNL     1      -6.013   4.849  12.956  1.00  0.00    -0.067 C 
HETATM   30  C1  UNL     1      -6.794   5.984  13.563  1.00  0.00     0.044 C 
HETATM   31  C28 UNL     1      -4.569   5.156  12.652  1.00  0.00     0.067 C 
BRANCH  27  32
HETATM   32  C4  UNL     1      -7.899   3.092  12.980  1.00  0.00     0.209 C 
BRANCH  32  33
HETATM   33  O1  UNL     1      -8.027   1.714  12.645  1.00  0.00    -0.396 OA
HETATM   34  H6  UNL     1      -8.972   1.497  12.716  1.00  0.00     0.209 HD
ENDBRANCH  32  33
ENDBRANCH  27  32
ENDBRANCH  22  24
ENDBRANCH   1  22
TORSDOF 4
ENDMDL
