MODEL 1
REMARK minimizedAffinity -6.85850573
REMARK CNNscore 0.66084826
REMARK CNNaffinity 6.68626022
REMARK  6 active torsions:
REMARK  status: ('A' for Active; 'I' for Inactive)
REMARK    1  A    between atoms: C4_4  and  C5_5 
REMARK    2  A    between atoms: C5_5  and  C6_6 
REMARK    3  A    between atoms: C6_6  and  C7_7 
REMARK    4  A    between atoms: C7_7  and  C9_9 
REMARK    5  A    between atoms: C17_17  and  O1_18 
REMARK    6  A    between atoms: C21_22  and  O2_23 
ROOT
HETATM    1  C9  UNL     1      -2.272  12.903  17.923  1.00  0.00    -0.002 C 
HETATM    2  C10 UNL     1      -1.293  12.339  19.000  1.00  0.00     0.006 C 
HETATM    3  C11 UNL     1      -0.738  11.002  18.474  1.00  0.00     0.011 C 
HETATM    4  C12 UNL     1      -1.121  10.977  16.983  1.00  0.00    -0.032 C 
HETATM    5  C13 UNL     1      -0.027  11.825  16.252  1.00  0.00     0.016 C 
HETATM    6  C14 UNL     1      -1.229   9.556  16.350  1.00  0.00     0.003 C 
HETATM    7  C15 UNL     1       0.079   8.749  16.462  1.00  0.00     0.009 C 
HETATM    8  C16 UNL     1       0.046   7.497  15.595  1.00  0.00     0.039 C 
HETATM    9  C17 UNL     1       0.084   7.877  14.101  1.00  0.00     0.071 C 
HETATM   10  C18 UNL     1      -0.801   9.145  13.802  1.00  0.00     0.029 C 
HETATM   11  C19 UNL     1      -1.326   9.165  12.347  1.00  0.00     0.011 C 
HETATM   12  C20 UNL     1      -0.309   8.611  11.359  1.00  0.00     0.033 C 
HETATM   13  C21 UNL     1       0.098   7.162  11.644  1.00  0.00     0.129 C 
HETATM   14  C22 UNL     1      -0.137   6.669  13.112  1.00  0.00     0.010 C 
HETATM   15  C23 UNL     1      -1.521   5.998  13.268  1.00  0.00     0.020 C 
HETATM   16  C24 UNL     1       0.891   5.532  13.380  1.00  0.00     0.020 C 
HETATM   17  C25 UNL     1      -1.882   9.554  14.900  1.00  0.00    -0.033 C 
HETATM   18  C26 UNL     1      -3.071   8.557  14.889  1.00  0.00     0.016 C 
HETATM   19  C27 UNL     1      -2.491  10.950  14.504  1.00  0.00     0.011 C 
HETATM   20  C28 UNL     1      -3.033  11.898  15.595  1.00  0.00     0.011 C 
HETATM   21  C29 UNL     1      -2.547  11.641  17.031  1.00  0.00    -0.032 C 
HETATM   22  C30 UNL     1      -3.631  10.785  17.760  1.00  0.00     0.016 C 
ENDROOT
BRANCH   1  23
HETATM   23  C7  UNL     1      -3.460  13.680  18.564  1.00  0.00    -0.014 C 
HETATM   24  C8  UNL     1      -4.269  14.435  17.493  1.00  0.00     0.010 C 
BRANCH  23  25
HETATM   25  C6  UNL     1      -4.408  12.813  19.423  1.00  0.00     0.008 C 
BRANCH  25  26
HETATM   26  C5  UNL     1      -5.085  13.536  20.593  1.00  0.00     0.028 C 
BRANCH  26  27
HETATM   27  C4  UNL     1      -6.583  13.459  20.472  1.00  0.00    -0.025 C 
HETATM   28  C2  UNL     1      -7.484  13.292  21.459  1.00  0.00    -0.091 C 
HETATM   29  C1  UNL     1      -7.152  13.107  22.914  1.00  0.00     0.042 C 
HETATM   30  C3  UNL     1      -8.960  13.269  21.154  1.00  0.00     0.042 C 
ENDBRANCH  26  27
ENDBRANCH  25  26
ENDBRANCH  23  25
ENDBRANCH   1  23
BRANCH   9  31
HETATM   31  O1  UNL     1       1.444   8.338  13.847  1.00  0.00    -0.389 OA
HETATM   32  H29 UNL     1       2.068   7.784  14.345  1.00  0.00     0.210 HD
ENDBRANCH   9  31
BRANCH  13  33
HETATM   33  O2  UNL     1      -0.575   6.320  10.702  1.00  0.00    -0.395 OA
HETATM   34  H36 UNL     1      -0.128   5.456  10.711  1.00  0.00     0.210 HD
ENDBRANCH  13  33
TORSDOF 6
ENDMDL
MODEL 2
REMARK minimizedAffinity -7.15214777
REMARK CNNscore 0.6089077
REMARK CNNaffinity 6.93876266
REMARK  6 active torsions:
REMARK  status: ('A' for Active; 'I' for Inactive)
REMARK    1  A    between atoms: C4_4  and  C5_5 
REMARK    2  A    between atoms: C5_5  and  C6_6 
REMARK    3  A    between atoms: C6_6  and  C7_7 
REMARK    4  A    between atoms: C7_7  and  C9_9 
REMARK    5  A    between atoms: C17_17  and  O1_18 
REMARK    6  A    between atoms: C21_22  and  O2_23 
ROOT
HETATM    1  C9  UNL     1      -1.861  10.422  15.926  1.00  0.00    -0.002 C 
HETATM    2  C10 UNL     1      -0.645  10.394  16.903  1.00  0.00     0.006 C 
HETATM    3  C11 UNL     1       0.472   9.570  16.236  1.00  0.00     0.011 C 
HETATM    4  C12 UNL     1       0.032   9.427  14.768  1.00  0.00    -0.032 C 
HETATM    5  C13 UNL     1       0.467  10.757  14.066  1.00  0.00     0.016 C 
HETATM    6  C14 UNL     1       0.617   8.192  14.017  1.00  0.00     0.003 C 
HETATM    7  C15 UNL     1       2.158   8.177  13.999  1.00  0.00     0.009 C 
HETATM    8  C16 UNL     1       2.702   7.138  13.026  1.00  0.00     0.039 C 
HETATM    9  C17 UNL     1       2.412   7.560  11.572  1.00  0.00     0.071 C 
HETATM   10  C18 UNL     1       0.979   8.197  11.426  1.00  0.00     0.029 C 
HETATM   11  C19 UNL     1       0.397   8.016  10.004  1.00  0.00     0.011 C 
HETATM   12  C20 UNL     1       1.467   8.124   8.926  1.00  0.00     0.033 C 
HETATM   13  C21 UNL     1       2.584   7.085   9.063  1.00  0.00     0.129 C 
HETATM   14  C22 UNL     1       2.761   6.466  10.491  1.00  0.00     0.010 C 
HETATM   15  C23 UNL     1       1.938   5.166  10.649  1.00  0.00     0.020 C 
HETATM   16  C24 UNL     1       4.246   6.016  10.610  1.00  0.00     0.020 C 
HETATM   17  C25 UNL     1      -0.061   7.926  12.604  1.00  0.00    -0.033 C 
HETATM   18  C26 UNL     1      -0.563   6.459  12.559  1.00  0.00     0.016 C 
HETATM   19  C27 UNL     1      -1.333   8.821  12.362  1.00  0.00     0.011 C 
HETATM   20  C28 UNL     1      -2.191   9.291  13.555  1.00  0.00     0.011 C 
HETATM   21  C29 UNL     1      -1.522   9.250  14.939  1.00  0.00    -0.032 C 
HETATM   22  C30 UNL     1      -1.945   7.919  15.638  1.00  0.00     0.016 C 
ENDROOT
BRANCH   1  23
HETATM   23  C7  UNL     1      -3.221  10.434  16.686  1.00  0.00    -0.014 C 
HETATM   24  C8  UNL     1      -4.304   9.678  15.895  1.00  0.00     0.010 C 
BRANCH  23  25
HETATM   25  C6  UNL     1      -3.155   9.894  18.133  1.00  0.00     0.008 C 
BRANCH  25  26
HETATM   26  C5  UNL     1      -3.704  10.833  19.214  1.00  0.00     0.028 C 
BRANCH  26  27
HETATM   27  C4  UNL     1      -3.763  12.249  18.709  1.00  0.00    -0.025 C 
HETATM   28  C2  UNL     1      -4.424  13.291  19.248  1.00  0.00    -0.091 C 
HETATM   29  C1  UNL     1      -5.288  13.228  20.478  1.00  0.00     0.042 C 
HETATM   30  C3  UNL     1      -4.345  14.659  18.619  1.00  0.00     0.042 C 
ENDBRANCH  26  27
ENDBRANCH  25  26
ENDBRANCH  23  25
ENDBRANCH   1  23
BRANCH   9  31
HETATM   31  O1  UNL     1       3.313   8.673  11.298  1.00  0.00    -0.389 OA
HETATM   32  H29 UNL     1       4.173   8.498  11.716  1.00  0.00     0.210 HD
ENDBRANCH   9  31
BRANCH  13  33
HETATM   33  O2  UNL     1       2.363   6.066   8.081  1.00  0.00    -0.395 OA
HETATM   34  H36 UNL     1       3.190   5.561   7.994  1.00  0.00     0.210 HD
ENDBRANCH  13  33
TORSDOF 6
ENDMDL
MODEL 3
REMARK minimizedAffinity -7.98152542
REMARK CNNscore 0.605859995
REMARK CNNaffinity 6.54281092
REMARK  6 active torsions:
REMARK  status: ('A' for Active; 'I' for Inactive)
REMARK    1  A    between atoms: C4_4  and  C5_5 
REMARK    2  A    between atoms: C5_5  and  C6_6 
REMARK    3  A    between atoms: C6_6  and  C7_7 
REMARK    4  A    between atoms: C7_7  and  C9_9 
REMARK    5  A    between atoms: C17_17  and  O1_18 
REMARK    6  A    between atoms: C21_22  and  O2_23 
ROOT
HETATM    1  C9  UNL     1      -0.272  12.420  19.466  1.00  0.00    -0.002 C 
HETATM    2  C10 UNL     1      -1.599  13.234  19.574  1.00  0.00     0.006 C 
HETATM    3  C11 UNL     1      -2.552  12.723  18.477  1.00  0.00     0.011 C 
HETATM    4  C12 UNL     1      -1.914  11.413  17.982  1.00  0.00    -0.032 C 
HETATM    5  C13 UNL     1      -2.357  10.315  19.006  1.00  0.00     0.016 C 
HETATM    6  C14 UNL     1      -2.299  10.996  16.529  1.00  0.00     0.003 C 
HETATM    7  C15 UNL     1      -3.818  10.824  16.338  1.00  0.00     0.009 C 
HETATM    8  C16 UNL     1      -4.147  10.144  15.015  1.00  0.00     0.039 C 
HETATM    9  C17 UNL     1      -3.704   8.668  15.045  1.00  0.00     0.071 C 
HETATM   10  C18 UNL     1      -2.319   8.492  15.773  1.00  0.00     0.029 C 
HETATM   11  C19 UNL     1      -1.544   7.250  15.270  1.00  0.00     0.011 C 
HETATM   12  C20 UNL     1      -2.470   6.083  14.953  1.00  0.00     0.033 C 
HETATM   13  C21 UNL     1      -3.511   6.400  13.875  1.00  0.00     0.129 C 
HETATM   14  C22 UNL     1      -3.823   7.920  13.662  1.00  0.00     0.010 C 
HETATM   15  C23 UNL     1      -2.930   8.531  12.558  1.00  0.00     0.020 C 
HETATM   16  C24 UNL     1      -5.272   8.011  13.100  1.00  0.00     0.020 C 
HETATM   17  C25 UNL     1      -1.423   9.797  15.959  1.00  0.00    -0.033 C 
HETATM   18  C26 UNL     1      -0.807  10.231  14.602  1.00  0.00     0.016 C 
HETATM   19  C27 UNL     1      -0.205   9.438  16.888  1.00  0.00     0.011 C 
HETATM   20  C28 UNL     1       0.452  10.526  17.764  1.00  0.00     0.011 C 
HETATM   21  C29 UNL     1      -0.387  11.786  18.034  1.00  0.00    -0.032 C 
HETATM   22  C30 UNL     1       0.044  12.880  17.007  1.00  0.00     0.016 C 
ENDROOT
BRANCH   1  23
HETATM   23  C7  UNL     1       0.972  13.280  19.841  1.00  0.00    -0.014 C 
HETATM   24  C8  UNL     1       0.557  14.704  20.253  1.00  0.00     0.010 C 
BRANCH  23  25
HETATM   25  C6  UNL     1       1.878  12.662  20.930  1.00  0.00     0.008 C 
BRANCH  25  26
HETATM   26  C5  UNL     1       2.729  11.467  20.482  1.00  0.00     0.028 C 
BRANCH  26  27
HETATM   27  C4  UNL     1       2.216  10.191  21.091  1.00  0.00    -0.025 C 
HETATM   28  C2  UNL     1       2.742   9.496  22.118  1.00  0.00    -0.091 C 
HETATM   29  C1  UNL     1       4.004   9.856  22.852  1.00  0.00     0.042 C 
HETATM   30  C3  UNL     1       2.072   8.242  22.620  1.00  0.00     0.042 C 
ENDBRANCH  26  27
ENDBRANCH  25  26
ENDBRANCH  23  25
ENDBRANCH   1  23
BRANCH   9  31
HETATM   31  O1  UNL     1      -4.646   7.992  15.930  1.00  0.00    -0.389 OA
HETATM   32  H29 UNL     1      -5.537   8.352  15.783  1.00  0.00     0.210 HD
ENDBRANCH   9  31
BRANCH  13  33
HETATM   33  O2  UNL     1      -3.085   5.783  12.654  1.00  0.00    -0.395 OA
HETATM   34  H36 UNL     1      -3.851   5.762  12.056  1.00  0.00     0.210 HD
ENDBRANCH  13  33
TORSDOF 6
ENDMDL
MODEL 4
REMARK minimizedAffinity -9.08411694
REMARK CNNscore 0.541826248
REMARK CNNaffinity 7.00503397
REMARK  6 active torsions:
REMARK  status: ('A' for Active; 'I' for Inactive)
REMARK    1  A    between atoms: C4_4  and  C5_5 
REMARK    2  A    between atoms: C5_5  and  C6_6 
REMARK    3  A    between atoms: C6_6  and  C7_7 
REMARK    4  A    between atoms: C7_7  and  C9_9 
REMARK    5  A    between atoms: C17_17  and  O1_18 
REMARK    6  A    between atoms: C21_22  and  O2_23 
ROOT
HETATM    1  C9  UNL     1      -3.698   7.475  15.153  1.00  0.00    -0.002 C 
HETATM    2  C10 UNL     1      -3.998   5.977  14.831  1.00  0.00     0.006 C 
HETATM    3  C11 UNL     1      -3.025   5.533  13.723  1.00  0.00     0.011 C 
HETATM    4  C12 UNL     1      -1.966   6.648  13.660  1.00  0.00    -0.032 C 
HETATM    5  C13 UNL     1      -0.950   6.328  14.807  1.00  0.00     0.016 C 
HETATM    6  C14 UNL     1      -1.227   6.785  12.293  1.00  0.00     0.003 C 
HETATM    7  C15 UNL     1      -0.504   5.491  11.871  1.00  0.00     0.009 C 
HETATM    8  C16 UNL     1       0.439   5.728  10.698  1.00  0.00     0.039 C 
HETATM    9  C17 UNL     1       1.641   6.586  11.140  1.00  0.00     0.071 C 
HETATM   10  C18 UNL     1       1.206   7.731  12.129  1.00  0.00     0.029 C 
HETATM   11  C19 UNL     1       2.155   8.952  12.069  1.00  0.00     0.011 C 
HETATM   12  C20 UNL     1       3.607   8.543  11.859  1.00  0.00     0.033 C 
HETATM   13  C21 UNL     1       3.843   7.757  10.566  1.00  0.00     0.129 C 
HETATM   14  C22 UNL     1       2.581   7.052   9.963  1.00  0.00     0.010 C 
HETATM   15  C23 UNL     1       1.867   7.956   8.932  1.00  0.00     0.020 C 
HETATM   16  C24 UNL     1       3.092   5.833   9.140  1.00  0.00     0.020 C 
HETATM   17  C25 UNL     1      -0.344   8.102  12.177  1.00  0.00    -0.033 C 
HETATM   18  C26 UNL     1      -0.759   8.870  10.894  1.00  0.00     0.016 C 
HETATM   19  C27 UNL     1      -0.581   9.101  13.369  1.00  0.00     0.011 C 
HETATM   20  C28 UNL     1      -1.949   9.148  14.082  1.00  0.00     0.011 C 
HETATM   21  C29 UNL     1      -2.857   7.921  13.905  1.00  0.00    -0.032 C 
HETATM   22  C30 UNL     1      -3.866   8.232  12.754  1.00  0.00     0.016 C 
ENDROOT
BRANCH   1  23
HETATM   23  C7  UNL     1      -4.988   8.257  15.546  1.00  0.00    -0.014 C 
HETATM   24  C8  UNL     1      -4.688   9.753  15.747  1.00  0.00     0.010 C 
BRANCH  23  25
HETATM   25  C6  UNL     1      -6.169   8.086  14.564  1.00  0.00     0.008 C 
BRANCH  25  26
HETATM   26  C5  UNL     1      -7.435   7.456  15.157  1.00  0.00     0.028 C 
BRANCH  26  27
HETATM   27  C4  UNL     1      -7.385   5.956  15.046  1.00  0.00    -0.025 C 
HETATM   28  C2  UNL     1      -7.622   5.200  13.957  1.00  0.00    -0.091 C 
HETATM   29  C1  UNL     1      -8.031   5.726  12.608  1.00  0.00     0.042 C 
HETATM   30  C3  UNL     1      -7.496   3.699  14.022  1.00  0.00     0.042 C 
ENDBRANCH  26  27
ENDBRANCH  25  26
ENDBRANCH  23  25
ENDBRANCH   1  23
BRANCH   9  31
HETATM   31  O1  UNL     1       2.465   5.711  11.967  1.00  0.00    -0.389 OA
HETATM   32  H29 UNL     1       2.469   4.819  11.583  1.00  0.00     0.210 HD
ENDBRANCH   9  31
BRANCH  13  33
HETATM   33  O2  UNL     1       4.445   8.642   9.614  1.00  0.00    -0.395 OA
HETATM   34  H36 UNL     1       4.825   8.094   8.906  1.00  0.00     0.210 HD
ENDBRANCH  13  33
TORSDOF 6
ENDMDL
MODEL 5
REMARK minimizedAffinity -8.20107365
REMARK CNNscore 0.517558038
REMARK CNNaffinity 7.13254356
REMARK  6 active torsions:
REMARK  status: ('A' for Active; 'I' for Inactive)
REMARK    1  A    between atoms: C4_4  and  C5_5 
REMARK    2  A    between atoms: C5_5  and  C6_6 
REMARK    3  A    between atoms: C6_6  and  C7_7 
REMARK    4  A    between atoms: C7_7  and  C9_9 
REMARK    5  A    between atoms: C17_17  and  O1_18 
REMARK    6  A    between atoms: C21_22  and  O2_23 
ROOT
HETATM    1  C9  UNL     1       0.567   6.767  13.168  1.00  0.00    -0.002 C 
HETATM    2  C10 UNL     1       0.596   8.315  12.970  1.00  0.00     0.006 C 
HETATM    3  C11 UNL     1      -0.847   8.833  13.122  1.00  0.00     0.011 C 
HETATM    4  C12 UNL     1      -1.624   7.655  13.737  1.00  0.00    -0.032 C 
HETATM    5  C13 UNL     1      -1.342   7.720  15.275  1.00  0.00     0.016 C 
HETATM    6  C14 UNL     1      -3.159   7.657  13.459  1.00  0.00     0.003 C 
HETATM    7  C15 UNL     1      -3.858   8.934  13.966  1.00  0.00     0.009 C 
HETATM    8  C16 UNL     1      -5.374   8.792  13.949  1.00  0.00     0.039 C 
HETATM    9  C17 UNL     1      -5.831   7.783  15.022  1.00  0.00     0.071 C 
HETATM   10  C18 UNL     1      -4.860   6.546  15.107  1.00  0.00     0.029 C 
HETATM   11  C19 UNL     1      -5.573   5.273  15.621  1.00  0.00     0.011 C 
HETATM   12  C20 UNL     1      -6.615   5.586  16.687  1.00  0.00     0.033 C 
HETATM   13  C21 UNL     1      -7.722   6.528  16.206  1.00  0.00     0.129 C 
HETATM   14  C22 UNL     1      -7.364   7.416  14.966  1.00  0.00     0.010 C 
HETATM   15  C23 UNL     1      -7.780   6.733  13.643  1.00  0.00     0.020 C 
HETATM   16  C24 UNL     1      -8.248   8.694  15.052  1.00  0.00     0.020 C 
HETATM   17  C25 UNL     1      -3.882   6.302  13.873  1.00  0.00    -0.033 C 
HETATM   18  C26 UNL     1      -4.673   5.765  12.650  1.00  0.00     0.016 C 
HETATM   19  C27 UNL     1      -2.866   5.164  14.258  1.00  0.00     0.011 C 
HETATM   20  C28 UNL     1      -1.461   5.127  13.620  1.00  0.00     0.011 C 
HETATM   21  C29 UNL     1      -0.958   6.438  12.994  1.00  0.00    -0.032 C 
HETATM   22  C30 UNL     1      -1.248   6.382  11.461  1.00  0.00     0.016 C 
ENDROOT
BRANCH   1  23
HETATM   23  C7  UNL     1       1.627   6.046  12.282  1.00  0.00    -0.014 C 
HETATM   24  C8  UNL     1       1.014   4.828  11.566  1.00  0.00     0.010 C 
BRANCH  23  25
HETATM   25  C6  UNL     1       2.334   6.957  11.253  1.00  0.00     0.008 C 
BRANCH  25  26
HETATM   26  C5  UNL     1       1.406   7.754  10.329  1.00  0.00     0.028 C 
BRANCH  26  27
HETATM   27  C4  UNL     1       1.406   7.171   8.941  1.00  0.00    -0.025 C 
HETATM   28  C2  UNL     1       2.132   7.567   7.879  1.00  0.00    -0.091 C 
HETATM   29  C1  UNL     1       3.087   8.730   7.866  1.00  0.00     0.042 C 
HETATM   30  C3  UNL     1       2.026   6.840   6.562  1.00  0.00     0.042 C 
ENDBRANCH  26  27
ENDBRANCH  25  26
ENDBRANCH  23  25
ENDBRANCH   1  23
BRANCH   9  31
HETATM   31  O1  UNL     1      -5.644   8.457  16.302  1.00  0.00    -0.389 OA
HETATM   32  H29 UNL     1      -5.890   9.392  16.209  1.00  0.00     0.210 HD
ENDBRANCH   9  31
BRANCH  13  33
HETATM   33  O2  UNL     1      -8.894   5.744  15.959  1.00  0.00    -0.395 OA
HETATM   34  H36 UNL     1      -9.649   6.355  15.909  1.00  0.00     0.210 HD
ENDBRANCH  13  33
TORSDOF 6
ENDMDL
MODEL 6
REMARK minimizedAffinity -8.80660152
REMARK CNNscore 0.502429307
REMARK CNNaffinity 6.90480566
REMARK  6 active torsions:
REMARK  status: ('A' for Active; 'I' for Inactive)
REMARK    1  A    between atoms: C4_4  and  C5_5 
REMARK    2  A    between atoms: C5_5  and  C6_6 
REMARK    3  A    between atoms: C6_6  and  C7_7 
REMARK    4  A    between atoms: C7_7  and  C9_9 
REMARK    5  A    between atoms: C17_17  and  O1_18 
REMARK    6  A    between atoms: C21_22  and  O2_23 
ROOT
HETATM    1  C9  UNL     1      -5.503   6.567  15.212  1.00  0.00    -0.002 C 
HETATM    2  C10 UNL     1      -5.804   5.272  14.394  1.00  0.00     0.006 C 
HETATM    3  C11 UNL     1      -4.659   5.083  13.381  1.00  0.00     0.011 C 
HETATM    4  C12 UNL     1      -3.557   6.053  13.848  1.00  0.00    -0.032 C 
HETATM    5  C13 UNL     1      -2.793   5.304  14.990  1.00  0.00     0.016 C 
HETATM    6  C14 UNL     1      -2.567   6.515  12.735  1.00  0.00     0.003 C 
HETATM    7  C15 UNL     1      -1.836   5.340  12.058  1.00  0.00     0.009 C 
HETATM    8  C16 UNL     1      -0.678   5.820  11.192  1.00  0.00     0.039 C 
HETATM    9  C17 UNL     1       0.456   6.379  12.073  1.00  0.00     0.071 C 
HETATM   10  C18 UNL     1      -0.107   7.216  13.283  1.00  0.00     0.029 C 
HETATM   11  C19 UNL     1       0.890   8.296  13.766  1.00  0.00     0.011 C 
HETATM   12  C20 UNL     1       2.335   7.824  13.685  1.00  0.00     0.033 C 
HETATM   13  C21 UNL     1       2.778   7.440  12.270  1.00  0.00     0.129 C 
HETATM   14  C22 UNL     1       1.623   7.078  11.275  1.00  0.00     0.010 C 
HETATM   15  C23 UNL     1       1.159   8.316  10.473  1.00  0.00     0.020 C 
HETATM   16  C24 UNL     1       2.226   6.116  10.210  1.00  0.00     0.020 C 
HETATM   17  C25 UNL     1      -1.619   7.710  13.184  1.00  0.00    -0.033 C 
HETATM   18  C26 UNL     1      -1.748   8.864  12.154  1.00  0.00     0.016 C 
HETATM   19  C27 UNL     1      -2.034   8.327  14.572  1.00  0.00     0.011 C 
HETATM   20  C28 UNL     1      -3.509   8.298  15.025  1.00  0.00     0.011 C 
HETATM   21  C29 UNL     1      -4.421   7.278  14.325  1.00  0.00    -0.032 C 
HETATM   22  C30 UNL     1      -5.178   8.018  13.176  1.00  0.00     0.016 C 
ENDROOT
BRANCH   1  23
HETATM   23  C7  UNL     1      -6.807   7.322  15.608  1.00  0.00    -0.014 C 
HETATM   24  C8  UNL     1      -6.789   8.770  15.085  1.00  0.00     0.010 C 
BRANCH  23  25
HETATM   25  C6  UNL     1      -8.115   6.624  15.171  1.00  0.00     0.008 C 
BRANCH  25  26
HETATM   26  C5  UNL     1      -9.170   7.535  14.534  1.00  0.00     0.028 C 
BRANCH  26  27
HETATM   27  C4  UNL     1     -10.553   6.985  14.756  1.00  0.00    -0.025 C 
HETATM   28  C2  UNL     1     -11.633   7.122  13.964  1.00  0.00    -0.091 C 
HETATM   29  C1  UNL     1     -11.675   7.908  12.682  1.00  0.00     0.042 C 
HETATM   30  C3  UNL     1     -12.942   6.471  14.332  1.00  0.00     0.042 C 
ENDBRANCH  26  27
ENDBRANCH  25  26
ENDBRANCH  23  25
ENDBRANCH   1  23
BRANCH   9  31
HETATM   31  O1  UNL     1       1.068   5.220  12.712  1.00  0.00    -0.389 OA
HETATM   32  H29 UNL     1       1.104   4.487  12.075  1.00  0.00     0.210 HD
ENDBRANCH   9  31
BRANCH  13  33
HETATM   33  O2  UNL     1       3.589   8.502  11.756  1.00  0.00    -0.395 OA
HETATM   34  H36 UNL     1       4.071   8.155  10.986  1.00  0.00     0.210 HD
ENDBRANCH  13  33
TORSDOF 6
ENDMDL
MODEL 7
REMARK minimizedAffinity -6.50266933
REMARK CNNscore 0.468410909
REMARK CNNaffinity 6.67179155
REMARK  6 active torsions:
REMARK  status: ('A' for Active; 'I' for Inactive)
REMARK    1  A    between atoms: C4_4  and  C5_5 
REMARK    2  A    between atoms: C5_5  and  C6_6 
REMARK    3  A    between atoms: C6_6  and  C7_7 
REMARK    4  A    between atoms: C7_7  and  C9_9 
REMARK    5  A    between atoms: C17_17  and  O1_18 
REMARK    6  A    between atoms: C21_22  and  O2_23 
ROOT
HETATM    1  C9  UNL     1     -13.808   2.765  25.846  1.00  0.00    -0.002 C 
HETATM    2  C10 UNL     1     -14.733   1.510  25.780  1.00  0.00     0.006 C 
HETATM    3  C11 UNL     1     -15.198   1.195  27.215  1.00  0.00     0.011 C 
HETATM    4  C12 UNL     1     -14.828   2.448  28.031  1.00  0.00    -0.032 C 
HETATM    5  C13 UNL     1     -15.988   3.469  27.781  1.00  0.00     0.016 C 
HETATM    6  C14 UNL     1     -14.626   2.208  29.558  1.00  0.00     0.003 C 
HETATM    7  C15 UNL     1     -15.872   1.612  30.241  1.00  0.00     0.009 C 
HETATM    8  C16 UNL     1     -15.759   1.657  31.760  1.00  0.00     0.039 C 
HETATM    9  C17 UNL     1     -15.839   3.112  32.262  1.00  0.00     0.071 C 
HETATM   10  C18 UNL     1     -15.050   4.096  31.319  1.00  0.00     0.029 C 
HETATM   11  C19 UNL     1     -14.542   5.350  32.070  1.00  0.00     0.011 C 
HETATM   12  C20 UNL     1     -15.528   5.826  33.128  1.00  0.00     0.033 C 
HETATM   13  C21 UNL     1     -15.827   4.778  34.205  1.00  0.00     0.129 C 
HETATM   14  C22 UNL     1     -15.542   3.292  33.800  1.00  0.00     0.010 C 
HETATM   15  C23 UNL     1     -14.112   2.862  34.201  1.00  0.00     0.020 C 
HETATM   16  C24 UNL     1     -16.484   2.399  34.659  1.00  0.00     0.020 C 
HETATM   17  C25 UNL     1     -13.990   3.451  30.318  1.00  0.00    -0.033 C 
HETATM   18  C26 UNL     1     -12.733   2.973  31.093  1.00  0.00     0.016 C 
HETATM   19  C27 UNL     1     -13.486   4.572  29.335  1.00  0.00     0.011 C 
HETATM   20  C28 UNL     1     -13.001   4.202  27.918  1.00  0.00     0.011 C 
HETATM   21  C29 UNL     1     -13.453   2.837  27.373  1.00  0.00    -0.032 C 
HETATM   22  C30 UNL     1     -12.303   1.812  27.630  1.00  0.00     0.016 C 
ENDROOT
BRANCH   1  23
HETATM   23  C7  UNL     1     -12.672   2.709  24.782  1.00  0.00    -0.014 C 
HETATM   24  C8  UNL     1     -11.825   1.433  24.943  1.00  0.00     0.010 C 
BRANCH  23  25
HETATM   25  C6  UNL     1     -13.152   2.838  23.318  1.00  0.00     0.008 C 
BRANCH  25  26
HETATM   26  C5  UNL     1     -13.860   4.152  22.969  1.00  0.00     0.028 C 
BRANCH  26  27
HETATM   27  C4  UNL     1     -14.016   5.015  24.192  1.00  0.00    -0.025 C 
HETATM   28  C2  UNL     1     -13.551   6.263  24.388  1.00  0.00    -0.091 C 
HETATM   29  C1  UNL     1     -12.727   7.046  23.402  1.00  0.00     0.042 C 
HETATM   30  C3  UNL     1     -13.831   6.994  25.676  1.00  0.00     0.042 C 
ENDBRANCH  26  27
ENDBRANCH  25  26
ENDBRANCH  23  25
ENDBRANCH   1  23
BRANCH   9  31
HETATM   31  O1  UNL     1     -17.231   3.512  32.089  1.00  0.00    -0.389 OA
HETATM   32  H29 UNL     1     -17.809   2.764  32.314  1.00  0.00     0.210 HD
ENDBRANCH   9  31
BRANCH  13  33
HETATM   33  O2  UNL     1     -15.106   5.140  35.387  1.00  0.00    -0.395 OA
HETATM   34  H36 UNL     1     -15.489   4.640  36.128  1.00  0.00     0.210 HD
ENDBRANCH  13  33
TORSDOF 6
ENDMDL
MODEL 8
REMARK minimizedAffinity -8.69396877
REMARK CNNscore 0.414462954
REMARK CNNaffinity 6.79395103
REMARK  6 active torsions:
REMARK  status: ('A' for Active; 'I' for Inactive)
REMARK    1  A    between atoms: C4_4  and  C5_5 
REMARK    2  A    between atoms: C5_5  and  C6_6 
REMARK    3  A    between atoms: C6_6  and  C7_7 
REMARK    4  A    between atoms: C7_7  and  C9_9 
REMARK    5  A    between atoms: C17_17  and  O1_18 
REMARK    6  A    between atoms: C21_22  and  O2_23 
ROOT
HETATM    1  C9  UNL     1      -5.845   6.991  14.728  1.00  0.00    -0.002 C 
HETATM    2  C10 UNL     1      -5.748   8.417  15.356  1.00  0.00     0.006 C 
HETATM    3  C11 UNL     1      -4.306   8.920  15.155  1.00  0.00     0.011 C 
HETATM    4  C12 UNL     1      -3.691   7.949  14.130  1.00  0.00    -0.032 C 
HETATM    5  C13 UNL     1      -4.163   8.463  12.729  1.00  0.00     0.016 C 
HETATM    6  C14 UNL     1      -2.137   7.832  14.177  1.00  0.00     0.003 C 
HETATM    7  C15 UNL     1      -1.427   9.183  13.958  1.00  0.00     0.009 C 
HETATM    8  C16 UNL     1       0.067   9.004  13.719  1.00  0.00     0.039 C 
HETATM    9  C17 UNL     1       0.316   8.335  12.353  1.00  0.00     0.071 C 
HETATM   10  C18 UNL     1      -0.736   7.201  12.060  1.00  0.00     0.029 C 
HETATM   11  C19 UNL     1      -0.178   6.112  11.113  1.00  0.00     0.011 C 
HETATM   12  C20 UNL     1       0.737   6.692  10.043  1.00  0.00     0.033 C 
HETATM   13  C21 UNL     1       1.955   7.428  10.609  1.00  0.00     0.129 C 
HETATM   14  C22 UNL     1       1.816   7.929  12.086  1.00  0.00     0.010 C 
HETATM   15  C23 UNL     1       2.353   6.883  13.091  1.00  0.00     0.020 C 
HETATM   16  C24 UNL     1       2.763   9.154  12.241  1.00  0.00     0.020 C 
HETATM   17  C25 UNL     1      -1.562   6.636  13.301  1.00  0.00    -0.033 C 
HETATM   18  C26 UNL     1      -0.657   5.750  14.198  1.00  0.00     0.016 C 
HETATM   19  C27 UNL     1      -2.691   5.684  12.757  1.00  0.00     0.011 C 
HETATM   20  C28 UNL     1      -4.002   5.500  13.551  1.00  0.00     0.011 C 
HETATM   21  C29 UNL     1      -4.335   6.588  14.585  1.00  0.00    -0.032 C 
HETATM   22  C30 UNL     1      -3.855   6.085  15.984  1.00  0.00     0.016 C 
ENDROOT
BRANCH   1  23
HETATM   23  C7  UNL     1      -6.827   6.073  15.515  1.00  0.00    -0.014 C 
HETATM   24  C8  UNL     1      -7.493   6.838  16.673  1.00  0.00     0.010 C 
BRANCH  23  25
HETATM   25  C6  UNL     1      -7.908   5.392  14.646  1.00  0.00     0.008 C 
BRANCH  25  26
HETATM   26  C5  UNL     1      -8.243   6.104  13.330  1.00  0.00     0.028 C 
BRANCH  26  27
HETATM   27  C4  UNL     1      -9.732   6.255  13.170  1.00  0.00    -0.025 C 
HETATM   28  C2  UNL     1     -10.527   7.203  13.701  1.00  0.00    -0.091 C 
HETATM   29  C1  UNL     1     -10.070   8.307  14.615  1.00  0.00     0.042 C 
HETATM   30  C3  UNL     1     -12.006   7.218  13.407  1.00  0.00     0.042 C 
ENDBRANCH  26  27
ENDBRANCH  25  26
ENDBRANCH  23  25
ENDBRANCH   1  23
BRANCH   9  31
HETATM   31  O1  UNL     1       0.011   9.354  11.355  1.00  0.00    -0.389 OA
HETATM   32  H29 UNL     1       0.327  10.217  11.672  1.00  0.00     0.210 HD
ENDBRANCH   9  31
BRANCH  13  33
HETATM   33  O2  UNL     1       3.096   6.576  10.456  1.00  0.00    -0.395 OA
HETATM   34  H36 UNL     1       3.889   7.127  10.570  1.00  0.00     0.210 HD
ENDBRANCH  13  33
TORSDOF 6
ENDMDL
MODEL 9
REMARK minimizedAffinity -7.24558544
REMARK CNNscore 0.397767216
REMARK CNNaffinity 6.73704195
REMARK  6 active torsions:
REMARK  status: ('A' for Active; 'I' for Inactive)
REMARK    1  A    between atoms: C4_4  and  C5_5 
REMARK    2  A    between atoms: C5_5  and  C6_6 
REMARK    3  A    between atoms: C6_6  and  C7_7 
REMARK    4  A    between atoms: C7_7  and  C9_9 
REMARK    5  A    between atoms: C17_17  and  O1_18 
REMARK    6  A    between atoms: C21_22  and  O2_23 
ROOT
HETATM    1  C9  UNL     1      -7.654   5.824  15.022  1.00  0.00    -0.002 C 
HETATM    2  C10 UNL     1      -6.585   6.920  15.327  1.00  0.00     0.006 C 
HETATM    3  C11 UNL     1      -7.282   8.291  15.233  1.00  0.00     0.011 C 
HETATM    4  C12 UNL     1      -8.787   7.967  15.218  1.00  0.00    -0.032 C 
HETATM    5  C13 UNL     1      -9.188   7.764  16.717  1.00  0.00     0.016 C 
HETATM    6  C14 UNL     1      -9.691   9.046  14.548  1.00  0.00     0.003 C 
HETATM    7  C15 UNL     1      -9.564  10.431  15.213  1.00  0.00     0.009 C 
HETATM    8  C16 UNL     1     -10.653  11.386  14.742  1.00  0.00     0.039 C 
HETATM    9  C17 UNL     1     -12.027  10.944  15.285  1.00  0.00     0.071 C 
HETATM   10  C18 UNL     1     -12.190   9.378  15.245  1.00  0.00     0.029 C 
HETATM   11  C19 UNL     1     -13.671   8.945  15.127  1.00  0.00     0.011 C 
HETATM   12  C20 UNL     1     -14.603   9.857  15.912  1.00  0.00     0.033 C 
HETATM   13  C21 UNL     1     -14.552  11.321  15.463  1.00  0.00     0.129 C 
HETATM   14  C22 UNL     1     -13.251  11.750  14.703  1.00  0.00     0.010 C 
HETATM   15  C23 UNL     1     -13.413  11.596  13.173  1.00  0.00     0.020 C 
HETATM   16  C24 UNL     1     -13.074  13.279  14.935  1.00  0.00     0.020 C 
HETATM   17  C25 UNL     1     -11.187   8.565  14.311  1.00  0.00    -0.033 C 
HETATM   18  C26 UNL     1     -11.548   8.773  12.816  1.00  0.00     0.016 C 
HETATM   19  C27 UNL     1     -11.383   7.028  14.588  1.00  0.00     0.011 C 
HETATM   20  C28 UNL     1     -10.211   6.045  14.377  1.00  0.00     0.011 C 
HETATM   21  C29 UNL     1      -8.801   6.656  14.348  1.00  0.00    -0.032 C 
HETATM   22  C30 UNL     1      -8.401   6.871  12.853  1.00  0.00     0.016 C 
ENDROOT
BRANCH   1  23
HETATM   23  C7  UNL     1      -7.038   4.600  14.281  1.00  0.00    -0.014 C 
HETATM   24  C8  UNL     1      -8.083   3.915  13.380  1.00  0.00     0.010 C 
BRANCH  23  25
HETATM   25  C6  UNL     1      -5.766   4.915  13.462  1.00  0.00     0.008 C 
BRANCH  25  26
HETATM   26  C5  UNL     1      -5.694   4.263  12.076  1.00  0.00     0.028 C 
BRANCH  26  27
HETATM   27  C4  UNL     1      -4.555   3.281  12.009  1.00  0.00    -0.025 C 
HETATM   28  C2  UNL     1      -4.603   1.983  11.653  1.00  0.00    -0.091 C 
HETATM   29  C1  UNL     1      -5.852   1.233  11.276  1.00  0.00     0.042 C 
HETATM   30  C3  UNL     1      -3.347   1.151  11.613  1.00  0.00     0.042 C 
ENDBRANCH  26  27
ENDBRANCH  25  26
ENDBRANCH  23  25
ENDBRANCH   1  23
BRANCH   9  31
HETATM   31  O1  UNL     1     -12.005  11.252  16.710  1.00  0.00    -0.389 OA
HETATM   32  H29 UNL     1     -11.545  12.098  16.847  1.00  0.00     0.210 HD
ENDBRANCH   9  31
BRANCH  13  33
HETATM   33  O2  UNL     1     -15.720  11.584  14.677  1.00  0.00    -0.395 OA
HETATM   34  H36 UNL     1     -15.818  12.549  14.614  1.00  0.00     0.210 HD
ENDBRANCH  13  33
TORSDOF 6
ENDMDL
