MODEL 1
REMARK minimizedAffinity -8.97374344
REMARK CNNscore 0.426815689
REMARK CNNaffinity 7.44792175
REMARK  8 active torsions:
REMARK  status: ('A' for Active; 'I' for Inactive)
REMARK    1  A    between atoms: C2_2  and  N1_3 
REMARK    2  A    between atoms: C2_2  and  C24_33 
REMARK       I    between atoms: N1_3  and  C3_4 
REMARK    3  A    between atoms: C3_4  and  C4_6 
REMARK    4  A    between atoms: C4_6  and  C5_7 
REMARK    5  A    between atoms: C10_12  and  C12_14 
REMARK    6  A    between atoms: C12_14  and  O2_15 
REMARK    7  A    between atoms: C13_16  and  O3_17 
REMARK    8  A    between atoms: C18_23  and  C19_24 
ROOT
HETATM    1  C5  UNL     1      -1.836   5.929  12.652  1.00  0.00     0.054 C 
HETATM    2  C6  UNL     1      -0.790   6.704  11.881  1.00  0.00     0.028 A 
HETATM    3  C7  UNL     1      -0.297   7.932  12.277  1.00  0.00     0.008 A 
HETATM    4  C8  UNL     1      -0.732   8.693  13.495  1.00  0.00     0.054 C 
HETATM    5  C9  UNL     1      -2.119   8.137  13.923  1.00  0.00     0.012 C 
HETATM    6  C10 UNL     1      -2.919   8.914  15.026  1.00  0.00     0.008 C 
HETATM    7  C11 UNL     1      -2.967  10.426  14.672  1.00  0.00     0.020 C 
HETATM    8  C13 UNL     1      -4.401   8.394  14.992  1.00  0.00     0.128 C 
HETATM    9  C14 UNL     1      -4.582   6.973  14.434  1.00  0.00     0.033 C 
HETATM   10  C15 UNL     1      -3.401   6.060  14.739  1.00  0.00     0.013 C 
HETATM   11  C16 UNL     1      -2.064   6.553  14.111  1.00  0.00    -0.030 C 
HETATM   12  C17 UNL     1      -0.929   6.097  15.061  1.00  0.00     0.016 C 
HETATM   13  S1  UNL     1       0.866   8.485  11.171  1.00  0.00    -0.074 SA
HETATM   14  C18 UNL     1       0.593   7.083  10.188  1.00  0.00     0.086 A 
HETATM   15  N3  UNL     1      -0.317   6.250  10.666  1.00  0.00    -0.352 N 
ATOM     16  H3  UNL     1      -0.626   5.395  10.203  1.00  0.00     0.166 HD
ENDROOT
BRANCH   1  17
HETATM   17  C4  UNL     1      -1.647   4.403  12.542  1.00  0.00     0.114 C 
BRANCH  17  18
HETATM   18  C3  UNL     1      -2.868   3.544  12.243  1.00  0.00     0.218 C 
HETATM   19  N1  UNL     1      -3.458   3.882  11.042  1.00  0.00    -0.353 N 
HETATM   20  H5  UNL     1      -2.997   4.538  10.425  1.00  0.00     0.163 HD
HETATM   21  O1  UNL     1      -3.316   2.667  12.971  1.00  0.00    -0.274 OA
BRANCH  19  22
HETATM   22  C2  UNL     1      -4.643   3.203  10.546  1.00  0.00     0.113 C 
HETATM   23  C1  UNL     1      -5.014   3.691   9.144  1.00  0.00     0.037 C 
BRANCH  22  24
HETATM   24  C24 UNL     1      -5.760   3.351  11.566  1.00  0.00    -0.036 A 
HETATM   25  C25 UNL     1      -6.517   2.219  11.919  1.00  0.00     0.009 A 
HETATM   26  C26 UNL     1      -7.534   2.306  12.872  1.00  0.00     0.001 A 
HETATM   27  C27 UNL     1      -7.801   3.522  13.497  1.00  0.00     0.000 A 
HETATM   28  C28 UNL     1      -7.052   4.651  13.170  1.00  0.00     0.001 A 
HETATM   29  C29 UNL     1      -6.033   4.566  12.215  1.00  0.00     0.009 A 
ENDBRANCH  22  24
ENDBRANCH  19  22
ENDBRANCH  17  18
ENDBRANCH   1  17
BRANCH  14  30
HETATM   30  C19 UNL     1       1.306   6.865   8.921  1.00  0.00     0.013 A 
HETATM   31  C20 UNL     1       1.042   7.550   7.728  1.00  0.00     0.017 A 
HETATM   32  C21 UNL     1       1.769   7.259   6.572  1.00  0.00     0.018 A 
HETATM   33  C22 UNL     1       2.751   6.285   6.638  1.00  0.00     0.087 A 
HETATM   34  N2  UNL     1       3.045   5.598   7.760  1.00  0.00    -0.374 N 
HETATM   35  C23 UNL     1       2.319   5.907   8.867  1.00  0.00     0.101 A 
ATOM     36  H2  UNL     1       3.772   4.884   7.777  1.00  0.00     0.164 HD
ENDBRANCH  14  30
BRANCH   6  37
HETATM   37  C12 UNL     1      -2.327   8.820  16.451  1.00  0.00     0.176 C 
BRANCH  37  38
HETATM   38  O2  UNL     1      -2.689   7.599  17.079  1.00  0.00    -0.400 OA
HETATM   39  H17 UNL     1      -2.319   7.622  17.979  1.00  0.00     0.209 HD
ENDBRANCH  37  38
ENDBRANCH   6  37
BRANCH   8  40
HETATM   40  O3  UNL     1      -5.000   8.447  16.286  1.00  0.00    -0.395 OA
HETATM   41  H19 UNL     1      -5.218   9.378  16.470  1.00  0.00     0.210 HD
ENDBRANCH   8  40
TORSDOF 8
ENDMDL
MODEL 2
REMARK minimizedAffinity -9.07440758
REMARK CNNscore 0.422201842
REMARK CNNaffinity 7.29404879
REMARK  8 active torsions:
REMARK  status: ('A' for Active; 'I' for Inactive)
REMARK    1  A    between atoms: C2_2  and  N1_3 
REMARK    2  A    between atoms: C2_2  and  C24_33 
REMARK       I    between atoms: N1_3  and  C3_4 
REMARK    3  A    between atoms: C3_4  and  C4_6 
REMARK    4  A    between atoms: C4_6  and  C5_7 
REMARK    5  A    between atoms: C10_12  and  C12_14 
REMARK    6  A    between atoms: C12_14  and  O2_15 
REMARK    7  A    between atoms: C13_16  and  O3_17 
REMARK    8  A    between atoms: C18_23  and  C19_24 
ROOT
HETATM    1  C5  UNL     1      -1.498   6.489  13.476  1.00  0.00     0.054 C 
HETATM    2  C6  UNL     1      -2.126   5.328  12.737  1.00  0.00     0.028 A 
HETATM    3  C7  UNL     1      -1.490   4.623  11.733  1.00  0.00     0.008 A 
HETATM    4  C8  UNL     1      -0.115   4.908  11.207  1.00  0.00     0.054 C 
HETATM    5  C9  UNL     1       0.244   6.367  11.600  1.00  0.00     0.012 C 
HETATM    6  C10 UNL     1       1.530   7.009  10.969  1.00  0.00     0.008 C 
HETATM    7  C11 UNL     1       1.523   6.791   9.431  1.00  0.00     0.020 C 
HETATM    8  C13 UNL     1       1.451   8.559  11.208  1.00  0.00     0.128 C 
HETATM    9  C14 UNL     1       0.601   8.994  12.412  1.00  0.00     0.033 C 
HETATM   10  C15 UNL     1       0.638   7.990  13.558  1.00  0.00     0.013 C 
HETATM   11  C16 UNL     1       0.072   6.592  13.171  1.00  0.00    -0.030 C 
HETATM   12  C17 UNL     1       0.842   5.549  14.018  1.00  0.00     0.016 C 
HETATM   13  S1  UNL     1      -2.500   3.389  11.150  1.00  0.00    -0.074 SA
HETATM   14  C18 UNL     1      -3.756   3.914  12.224  1.00  0.00     0.086 A 
HETATM   15  N3  UNL     1      -3.433   4.953  12.976  1.00  0.00    -0.352 N 
ATOM     16  H3  UNL     1      -4.060   5.412  13.638  1.00  0.00     0.166 HD
ENDROOT
BRANCH   1  17
HETATM   17  C4  UNL     1      -1.954   6.574  14.946  1.00  0.00     0.114 C 
BRANCH  17  18
HETATM   18  C3  UNL     1      -2.872   7.719  15.353  1.00  0.00     0.218 C 
HETATM   19  N1  UNL     1      -4.012   7.770  14.576  1.00  0.00    -0.353 N 
HETATM   20  H5  UNL     1      -4.208   7.020  13.926  1.00  0.00     0.163 HD
HETATM   21  O1  UNL     1      -2.645   8.532  16.241  1.00  0.00    -0.274 OA
BRANCH  19  22
HETATM   22  C2  UNL     1      -5.035   8.782  14.773  1.00  0.00     0.113 C 
HETATM   23  C1  UNL     1      -4.559   9.868  15.740  1.00  0.00     0.037 C 
BRANCH  22  24
HETATM   24  C24 UNL     1      -6.327   8.104  15.195  1.00  0.00    -0.036 A 
HETATM   25  C25 UNL     1      -6.279   6.785  15.684  1.00  0.00     0.009 A 
HETATM   26  C26 UNL     1      -7.440   6.136  16.108  1.00  0.00     0.001 A 
HETATM   27  C27 UNL     1      -8.664   6.798  16.063  1.00  0.00     0.000 A 
HETATM   28  C28 UNL     1      -8.729   8.108  15.595  1.00  0.00     0.001 A 
HETATM   29  C29 UNL     1      -7.568   8.761  15.169  1.00  0.00     0.009 A 
ENDBRANCH  22  24
ENDBRANCH  19  22
ENDBRANCH  17  18
ENDBRANCH   1  17
BRANCH  14  30
HETATM   30  C19 UNL     1      -5.072   3.260  12.266  1.00  0.00     0.013 A 
HETATM   31  C20 UNL     1      -5.398   2.076  11.591  1.00  0.00     0.017 A 
HETATM   32  C21 UNL     1      -6.684   1.541  11.686  1.00  0.00     0.018 A 
HETATM   33  C22 UNL     1      -7.620   2.207  12.459  1.00  0.00     0.087 A 
HETATM   34  N2  UNL     1      -7.359   3.348  13.127  1.00  0.00    -0.374 N 
HETATM   35  C23 UNL     1      -6.096   3.840  13.015  1.00  0.00     0.101 A 
ATOM     36  H2  UNL     1      -8.070   3.817  13.687  1.00  0.00     0.164 HD
ENDBRANCH  14  30
BRANCH   6  37
HETATM   37  C12 UNL     1       2.868   6.432  11.485  1.00  0.00     0.176 C 
BRANCH  37  38
HETATM   38  O2  UNL     1       3.405   5.485  10.573  1.00  0.00    -0.400 OA
HETATM   39  H17 UNL     1       4.220   5.135  10.973  1.00  0.00     0.209 HD
ENDBRANCH  37  38
ENDBRANCH   6  37
BRANCH   8  40
HETATM   40  O3  UNL     1       2.751   9.130  11.349  1.00  0.00    -0.395 OA
HETATM   41  H19 UNL     1       3.149   9.178  10.461  1.00  0.00     0.210 HD
ENDBRANCH   8  40
TORSDOF 8
ENDMDL
MODEL 3
REMARK minimizedAffinity -10.1025
REMARK CNNscore 0.410499066
REMARK CNNaffinity 7.34740877
REMARK  8 active torsions:
REMARK  status: ('A' for Active; 'I' for Inactive)
REMARK    1  A    between atoms: C2_2  and  N1_3 
REMARK    2  A    between atoms: C2_2  and  C24_33 
REMARK       I    between atoms: N1_3  and  C3_4 
REMARK    3  A    between atoms: C3_4  and  C4_6 
REMARK    4  A    between atoms: C4_6  and  C5_7 
REMARK    5  A    between atoms: C10_12  and  C12_14 
REMARK    6  A    between atoms: C12_14  and  O2_15 
REMARK    7  A    between atoms: C13_16  and  O3_17 
REMARK    8  A    between atoms: C18_23  and  C19_24 
ROOT
HETATM    1  C5  UNL     1      -0.474   6.077  13.220  1.00  0.00     0.054 C 
HETATM    2  C6  UNL     1      -1.970   5.882  13.112  1.00  0.00     0.028 A 
HETATM    3  C7  UNL     1      -2.898   6.844  13.462  1.00  0.00     0.008 A 
HETATM    4  C8  UNL     1      -2.576   8.198  14.021  1.00  0.00     0.054 C 
HETATM    5  C9  UNL     1      -1.132   8.139  14.591  1.00  0.00     0.012 C 
HETATM    6  C10 UNL     1      -0.627   9.350  15.452  1.00  0.00     0.008 C 
HETATM    7  C11 UNL     1      -1.682   9.697  16.539  1.00  0.00     0.020 C 
HETATM    8  C13 UNL     1       0.667   8.884  16.211  1.00  0.00     0.128 C 
HETATM    9  C14 UNL     1       1.441   7.736  15.541  1.00  0.00     0.033 C 
HETATM   10  C15 UNL     1       1.349   7.767  14.021  1.00  0.00     0.013 C 
HETATM   11  C16 UNL     1      -0.106   7.614  13.488  1.00  0.00    -0.030 C 
HETATM   12  C17 UNL     1      -0.183   8.412  12.163  1.00  0.00     0.016 C 
HETATM   13  S1  UNL     1      -4.472   6.269  13.195  1.00  0.00    -0.074 SA
HETATM   14  C18 UNL     1      -3.826   4.741  12.694  1.00  0.00     0.086 A 
HETATM   15  N3  UNL     1      -2.505   4.670  12.724  1.00  0.00    -0.352 N 
ATOM     16  H3  UNL     1      -1.961   3.838  12.494  1.00  0.00     0.166 HD
ENDROOT
BRANCH   1  17
HETATM   17  C4  UNL     1       0.304   5.331  12.117  1.00  0.00     0.114 C 
BRANCH  17  18
HETATM   18  C3  UNL     1       1.260   6.130  11.242  1.00  0.00     0.218 C 
HETATM   19  N1  UNL     1       2.575   5.751  11.431  1.00  0.00    -0.353 N 
HETATM   20  H5  UNL     1       2.784   4.939  11.997  1.00  0.00     0.163 HD
HETATM   21  O1  UNL     1       0.939   7.026  10.470  1.00  0.00    -0.274 OA
BRANCH  19  22
HETATM   22  C2  UNL     1       3.669   6.377  10.709  1.00  0.00     0.113 C 
HETATM   23  C1  UNL     1       4.227   7.574  11.481  1.00  0.00     0.037 C 
BRANCH  22  24
HETATM   24  C24 UNL     1       3.205   6.712   9.302  1.00  0.00    -0.036 A 
HETATM   25  C25 UNL     1       2.940   5.664   8.402  1.00  0.00     0.009 A 
HETATM   26  C26 UNL     1       2.486   5.929   7.108  1.00  0.00     0.001 A 
HETATM   27  C27 UNL     1       2.277   7.243   6.698  1.00  0.00     0.000 A 
HETATM   28  C28 UNL     1       2.521   8.293   7.581  1.00  0.00     0.001 A 
HETATM   29  C29 UNL     1       2.976   8.031   8.877  1.00  0.00     0.009 A 
ENDBRANCH  22  24
ENDBRANCH  19  22
ENDBRANCH  17  18
ENDBRANCH   1  17
BRANCH  14  30
HETATM   30  C19 UNL     1      -4.690   3.621  12.291  1.00  0.00     0.013 A 
HETATM   31  C20 UNL     1      -6.069   3.552  12.527  1.00  0.00     0.017 A 
HETATM   32  C21 UNL     1      -6.799   2.435  12.116  1.00  0.00     0.018 A 
HETATM   33  C22 UNL     1      -6.129   1.408  11.474  1.00  0.00     0.087 A 
HETATM   34  N2  UNL     1      -4.805   1.425  11.223  1.00  0.00    -0.374 N 
HETATM   35  C23 UNL     1      -4.124   2.528  11.635  1.00  0.00     0.101 A 
ATOM     36  H2  UNL     1      -4.338   0.652  10.750  1.00  0.00     0.164 HD
ENDBRANCH  14  30
BRANCH   6  37
HETATM   37  C12 UNL     1      -0.372  10.653  14.661  1.00  0.00     0.176 C 
BRANCH  37  38
HETATM   38  O2  UNL     1      -1.506  11.016  13.888  1.00  0.00    -0.400 OA
HETATM   39  H17 UNL     1      -1.266  11.816  13.389  1.00  0.00     0.209 HD
ENDBRANCH  37  38
ENDBRANCH   6  37
BRANCH   8  40
HETATM   40  O3  UNL     1       1.569   9.970  16.417  1.00  0.00    -0.395 OA
HETATM   41  H19 UNL     1       1.211  10.516  17.141  1.00  0.00     0.210 HD
ENDBRANCH   8  40
TORSDOF 8
ENDMDL
MODEL 4
REMARK minimizedAffinity -7.23864889
REMARK CNNscore 0.325312555
REMARK CNNaffinity 6.02409506
REMARK  8 active torsions:
REMARK  status: ('A' for Active; 'I' for Inactive)
REMARK    1  A    between atoms: C2_2  and  N1_3 
REMARK    2  A    between atoms: C2_2  and  C24_33 
REMARK       I    between atoms: N1_3  and  C3_4 
REMARK    3  A    between atoms: C3_4  and  C4_6 
REMARK    4  A    between atoms: C4_6  and  C5_7 
REMARK    5  A    between atoms: C10_12  and  C12_14 
REMARK    6  A    between atoms: C12_14  and  O2_15 
REMARK    7  A    between atoms: C13_16  and  O3_17 
REMARK    8  A    between atoms: C18_23  and  C19_24 
ROOT
HETATM    1  C5  UNL     1     -13.071   8.013  23.125  1.00  0.00     0.054 C 
HETATM    2  C6  UNL     1     -13.464   6.569  22.906  1.00  0.00     0.028 A 
HETATM    3  C7  UNL     1     -14.382   6.158  21.959  1.00  0.00     0.008 A 
HETATM    4  C8  UNL     1     -15.143   7.063  21.036  1.00  0.00     0.054 C 
HETATM    5  C9  UNL     1     -15.108   8.491  21.646  1.00  0.00     0.012 C 
HETATM    6  C10 UNL     1     -16.029   9.591  21.010  1.00  0.00     0.008 C 
HETATM    7  C11 UNL     1     -17.475   9.041  20.862  1.00  0.00     0.020 C 
HETATM    8  C13 UNL     1     -16.102  10.791  22.020  1.00  0.00     0.128 C 
HETATM    9  C14 UNL     1     -14.903  10.916  22.975  1.00  0.00     0.033 C 
HETATM   10  C15 UNL     1     -13.595  10.451  22.349  1.00  0.00     0.013 C 
HETATM   11  C16 UNL     1     -13.607   8.948  21.940  1.00  0.00    -0.030 C 
HETATM   12  C17 UNL     1     -12.682   8.814  20.705  1.00  0.00     0.016 C 
HETATM   13  S1  UNL     1     -14.555   4.470  22.000  1.00  0.00    -0.074 SA
HETATM   14  C18 UNL     1     -13.445   4.391  23.329  1.00  0.00     0.086 A 
HETATM   15  N3  UNL     1     -12.973   5.565  23.716  1.00  0.00    -0.352 N 
ATOM     16  H3  UNL     1     -12.336   5.707  24.502  1.00  0.00     0.166 HD
ENDROOT
BRANCH   1  17
HETATM   17  C4  UNL     1     -11.599   8.169  23.558  1.00  0.00     0.114 C 
BRANCH  17  18
HETATM   18  C3  UNL     1     -11.207   9.408  24.352  1.00  0.00     0.218 C 
HETATM   19  N1  UNL     1     -10.700  10.404  23.541  1.00  0.00    -0.353 N 
HETATM   20  H5  UNL     1     -10.744  10.301  22.536  1.00  0.00     0.163 HD
HETATM   21  O1  UNL     1     -11.293   9.531  25.568  1.00  0.00    -0.274 OA
BRANCH  19  22
HETATM   22  C2  UNL     1     -10.252  11.679  24.074  1.00  0.00     0.113 C 
HETATM   23  C1  UNL     1     -11.439  12.553  24.485  1.00  0.00     0.037 C 
BRANCH  22  24
HETATM   24  C24 UNL     1      -9.321  12.336  23.069  1.00  0.00    -0.036 A 
HETATM   25  C25 UNL     1      -8.072  12.814  23.506  1.00  0.00     0.009 A 
HETATM   26  C26 UNL     1      -7.176  13.399  22.609  1.00  0.00     0.001 A 
HETATM   27  C27 UNL     1      -7.509  13.503  21.260  1.00  0.00     0.000 A 
HETATM   28  C28 UNL     1      -8.735  13.023  20.808  1.00  0.00     0.001 A 
HETATM   29  C29 UNL     1      -9.635  12.437  21.704  1.00  0.00     0.009 A 
ENDBRANCH  22  24
ENDBRANCH  19  22
ENDBRANCH  17  18
ENDBRANCH   1  17
BRANCH  14  30
HETATM   30  C19 UNL     1     -13.087   3.119  23.975  1.00  0.00     0.013 A 
HETATM   31  C20 UNL     1     -11.785   2.741  24.325  1.00  0.00     0.017 A 
HETATM   32  C21 UNL     1     -11.548   1.502  24.924  1.00  0.00     0.018 A 
HETATM   33  C22 UNL     1     -12.626   0.666  25.160  1.00  0.00     0.087 A 
HETATM   34  N2  UNL     1     -13.897   0.982  24.843  1.00  0.00    -0.374 N 
HETATM   35  C23 UNL     1     -14.093   2.196  24.263  1.00  0.00     0.101 A 
ATOM     36  H2  UNL     1     -14.671   0.344  25.027  1.00  0.00     0.164 HD
ENDBRANCH  14  30
BRANCH   6  37
HETATM   37  C12 UNL     1     -15.600  10.069  19.604  1.00  0.00     0.176 C 
BRANCH  37  38
HETATM   38  O2  UNL     1     -16.310   9.378  18.586  1.00  0.00    -0.400 OA
HETATM   39  H17 UNL     1     -15.966   9.696  17.733  1.00  0.00     0.209 HD
ENDBRANCH  37  38
ENDBRANCH   6  37
BRANCH   8  40
HETATM   40  O3  UNL     1     -16.263  12.034  21.339  1.00  0.00    -0.395 OA
HETATM   41  H19 UNL     1     -17.189  12.088  21.042  1.00  0.00     0.210 HD
ENDBRANCH   8  40
TORSDOF 8
ENDMDL
MODEL 5
REMARK minimizedAffinity -7.20647955
REMARK CNNscore 0.314313561
REMARK CNNaffinity 6.58003855
REMARK  8 active torsions:
REMARK  status: ('A' for Active; 'I' for Inactive)
REMARK    1  A    between atoms: C2_2  and  N1_3 
REMARK    2  A    between atoms: C2_2  and  C24_33 
REMARK       I    between atoms: N1_3  and  C3_4 
REMARK    3  A    between atoms: C3_4  and  C4_6 
REMARK    4  A    between atoms: C4_6  and  C5_7 
REMARK    5  A    between atoms: C10_12  and  C12_14 
REMARK    6  A    between atoms: C12_14  and  O2_15 
REMARK    7  A    between atoms: C13_16  and  O3_17 
REMARK    8  A    between atoms: C18_23  and  C19_24 
ROOT
HETATM    1  C5  UNL     1     -10.164   8.871  15.072  1.00  0.00     0.054 C 
HETATM    2  C6  UNL     1      -9.291   7.757  14.539  1.00  0.00     0.028 A 
HETATM    3  C7  UNL     1      -9.767   6.703  13.782  1.00  0.00     0.008 A 
HETATM    4  C8  UNL     1     -11.201   6.486  13.399  1.00  0.00     0.054 C 
HETATM    5  C9  UNL     1     -12.078   7.314  14.378  1.00  0.00     0.012 C 
HETATM    6  C10 UNL     1     -13.630   7.082  14.359  1.00  0.00     0.008 C 
HETATM    7  C11 UNL     1     -13.933   5.560  14.431  1.00  0.00     0.020 C 
HETATM    8  C13 UNL     1     -14.221   7.724  15.665  1.00  0.00     0.128 C 
HETATM    9  C14 UNL     1     -13.384   8.862  16.272  1.00  0.00     0.033 C 
HETATM   10  C15 UNL     1     -12.643   9.679  15.221  1.00  0.00     0.013 C 
HETATM   11  C16 UNL     1     -11.619   8.843  14.399  1.00  0.00    -0.030 C 
HETATM   12  C17 UNL     1     -11.557   9.474  12.987  1.00  0.00     0.016 C 
HETATM   13  S1  UNL     1      -8.496   5.660  13.360  1.00  0.00    -0.074 SA
HETATM   14  C18 UNL     1      -7.394   6.638  14.272  1.00  0.00     0.086 A 
HETATM   15  N3  UNL     1      -7.950   7.687  14.857  1.00  0.00    -0.352 N 
ATOM     16  H3  UNL     1      -7.457   8.349  15.458  1.00  0.00     0.166 HD
ENDROOT
BRANCH   1  17
HETATM   17  C4  UNL     1      -9.426  10.224  15.137  1.00  0.00     0.114 C 
BRANCH  17  18
HETATM   18  C3  UNL     1     -10.141  11.405  15.779  1.00  0.00     0.218 C 
HETATM   19  N1  UNL     1     -10.462  12.381  14.856  1.00  0.00    -0.353 N 
HETATM   20  H5  UNL     1     -10.331  12.198  13.870  1.00  0.00     0.163 HD
HETATM   21  O1  UNL     1     -10.393  11.522  16.973  1.00  0.00    -0.274 OA
BRANCH  19  22
HETATM   22  C2  UNL     1     -11.144  13.606  15.235  1.00  0.00     0.113 C 
HETATM   23  C1  UNL     1     -12.663  13.440  15.160  1.00  0.00     0.037 C 
BRANCH  22  24
HETATM   24  C24 UNL     1     -10.606  14.751  14.392  1.00  0.00    -0.036 A 
HETATM   25  C25 UNL     1     -11.285  15.110  13.213  1.00  0.00     0.009 A 
HETATM   26  C26 UNL     1     -10.840  16.174  12.426  1.00  0.00     0.001 A 
HETATM   27  C27 UNL     1      -9.718  16.904  12.812  1.00  0.00     0.000 A 
HETATM   28  C28 UNL     1      -9.041  16.571  13.983  1.00  0.00     0.001 A 
HETATM   29  C29 UNL     1      -9.485  15.506  14.773  1.00  0.00     0.009 A 
ENDBRANCH  22  24
ENDBRANCH  19  22
ENDBRANCH  17  18
ENDBRANCH   1  17
BRANCH  14  30
HETATM   30  C19 UNL     1      -5.967   6.303  14.392  1.00  0.00     0.013 A 
HETATM   31  C20 UNL     1      -5.209   5.669  13.399  1.00  0.00     0.017 A 
HETATM   32  C21 UNL     1      -3.860   5.382  13.618  1.00  0.00     0.018 A 
HETATM   33  C22 UNL     1      -3.298   5.740  14.831  1.00  0.00     0.087 A 
HETATM   34  N2  UNL     1      -3.982   6.351  15.818  1.00  0.00    -0.374 N 
HETATM   35  C23 UNL     1      -5.292   6.617  15.573  1.00  0.00     0.101 A 
ATOM     36  H2  UNL     1      -3.540   6.600  16.704  1.00  0.00     0.164 HD
ENDBRANCH  14  30
BRANCH   6  37
HETATM   37  C12 UNL     1     -14.354   7.611  13.100  1.00  0.00     0.176 C 
BRANCH  37  38
HETATM   38  O2  UNL     1     -14.898   8.904  13.324  1.00  0.00    -0.400 OA
HETATM   39  H17 UNL     1     -15.369   9.159  12.512  1.00  0.00     0.209 HD
ENDBRANCH  37  38
ENDBRANCH   6  37
BRANCH   8  40
HETATM   40  O3  UNL     1     -15.546   8.208  15.453  1.00  0.00    -0.395 OA
HETATM   41  H19 UNL     1     -16.141   7.436  15.434  1.00  0.00     0.210 HD
ENDBRANCH   8  40
TORSDOF 8
ENDMDL
MODEL 6
REMARK minimizedAffinity -7.21084023
REMARK CNNscore 0.304466099
REMARK CNNaffinity 6.6623559
REMARK  8 active torsions:
REMARK  status: ('A' for Active; 'I' for Inactive)
REMARK    1  A    between atoms: C2_2  and  N1_3 
REMARK    2  A    between atoms: C2_2  and  C24_33 
REMARK       I    between atoms: N1_3  and  C3_4 
REMARK    3  A    between atoms: C3_4  and  C4_6 
REMARK    4  A    between atoms: C4_6  and  C5_7 
REMARK    5  A    between atoms: C10_12  and  C12_14 
REMARK    6  A    between atoms: C12_14  and  O2_15 
REMARK    7  A    between atoms: C13_16  and  O3_17 
REMARK    8  A    between atoms: C18_23  and  C19_24 
ROOT
HETATM    1  C5  UNL     1      -9.482   9.287  14.815  1.00  0.00     0.054 C 
HETATM    2  C6  UNL     1     -10.783   8.900  14.147  1.00  0.00     0.028 A 
HETATM    3  C7  UNL     1     -11.070   7.623  13.707  1.00  0.00     0.008 A 
HETATM    4  C8  UNL     1     -10.146   6.445  13.794  1.00  0.00     0.054 C 
HETATM    5  C9  UNL     1      -8.704   6.993  13.978  1.00  0.00     0.012 C 
HETATM    6  C10 UNL     1      -7.508   5.985  13.857  1.00  0.00     0.008 C 
HETATM    7  C11 UNL     1      -7.663   5.140  12.562  1.00  0.00     0.020 C 
HETATM    8  C13 UNL     1      -6.193   6.828  13.692  1.00  0.00     0.128 C 
HETATM    9  C14 UNL     1      -6.251   8.251  14.271  1.00  0.00     0.033 C 
HETATM   10  C15 UNL     1      -7.141   8.355  15.503  1.00  0.00     0.013 C 
HETATM   11  C16 UNL     1      -8.629   7.992  15.220  1.00  0.00    -0.030 C 
HETATM   12  C17 UNL     1      -9.194   7.377  16.524  1.00  0.00     0.016 C 
HETATM   13  S1  UNL     1     -12.622   7.571  13.022  1.00  0.00    -0.074 SA
HETATM   14  C18 UNL     1     -12.794   9.275  13.288  1.00  0.00     0.086 A 
HETATM   15  N3  UNL     1     -11.746   9.847  13.859  1.00  0.00    -0.352 N 
ATOM     16  H3  UNL     1     -11.662  10.844  14.059  1.00  0.00     0.166 HD
ENDROOT
BRANCH   1  17
HETATM   17  C4  UNL     1      -9.664  10.392  15.875  1.00  0.00     0.114 C 
BRANCH  17  18
HETATM   18  C3  UNL     1      -9.789  11.833  15.401  1.00  0.00     0.218 C 
HETATM   19  N1  UNL     1      -8.684  12.589  15.742  1.00  0.00    -0.353 N 
HETATM   20  H5  UNL     1      -7.871  12.135  16.135  1.00  0.00     0.163 HD
HETATM   21  O1  UNL     1     -10.752  12.307  14.810  1.00  0.00    -0.274 OA
BRANCH  19  22
HETATM   22  C2  UNL     1      -8.578  13.997  15.400  1.00  0.00     0.113 C 
HETATM   23  C1  UNL     1      -9.003  14.248  13.952  1.00  0.00     0.037 C 
BRANCH  22  24
HETATM   24  C24 UNL     1      -7.175  14.480  15.725  1.00  0.00    -0.036 A 
HETATM   25  C25 UNL     1      -6.527  13.979  16.869  1.00  0.00     0.009 A 
HETATM   26  C26 UNL     1      -5.227  14.377  17.187  1.00  0.00     0.001 A 
HETATM   27  C27 UNL     1      -4.549  15.270  16.360  1.00  0.00     0.000 A 
HETATM   28  C28 UNL     1      -5.170  15.765  15.216  1.00  0.00     0.001 A 
HETATM   29  C29 UNL     1      -6.472  15.369  14.895  1.00  0.00     0.009 A 
ENDBRANCH  22  24
ENDBRANCH  19  22
ENDBRANCH  17  18
ENDBRANCH   1  17
BRANCH  14  30
HETATM   30  C19 UNL     1     -14.001  10.012  12.886  1.00  0.00     0.013 A 
HETATM   31  C20 UNL     1     -14.161  11.400  12.990  1.00  0.00     0.017 A 
HETATM   32  C21 UNL     1     -15.356  12.003  12.592  1.00  0.00     0.018 A 
HETATM   33  C22 UNL     1     -16.367  11.200  12.095  1.00  0.00     0.087 A 
HETATM   34  N2  UNL     1     -16.265   9.862  11.975  1.00  0.00    -0.374 N 
HETATM   35  C23 UNL     1     -15.088   9.306  12.370  1.00  0.00     0.101 A 
ATOM     36  H2  UNL     1     -17.029   9.295  11.608  1.00  0.00     0.164 HD
ENDBRANCH  14  30
BRANCH   6  37
HETATM   37  C12 UNL     1      -7.383   4.977  15.022  1.00  0.00     0.176 C 
BRANCH  37  38
HETATM   38  O2  UNL     1      -7.740   3.666  14.608  1.00  0.00    -0.400 OA
HETATM   39  H17 UNL     1      -7.678   3.093  15.393  1.00  0.00     0.209 HD
ENDBRANCH  37  38
ENDBRANCH   6  37
BRANCH   8  40
HETATM   40  O3  UNL     1      -5.071   6.158  14.265  1.00  0.00    -0.395 OA
HETATM   41  H19 UNL     1      -4.815   5.440  13.657  1.00  0.00     0.210 HD
ENDBRANCH   8  40
TORSDOF 8
ENDMDL
MODEL 7
REMARK minimizedAffinity -9.12992287
REMARK CNNscore 0.230845287
REMARK CNNaffinity 7.39197731
REMARK  8 active torsions:
REMARK  status: ('A' for Active; 'I' for Inactive)
REMARK    1  A    between atoms: C2_2  and  N1_3 
REMARK    2  A    between atoms: C2_2  and  C24_33 
REMARK       I    between atoms: N1_3  and  C3_4 
REMARK    3  A    between atoms: C3_4  and  C4_6 
REMARK    4  A    between atoms: C4_6  and  C5_7 
REMARK    5  A    between atoms: C10_12  and  C12_14 
REMARK    6  A    between atoms: C12_14  and  O2_15 
REMARK    7  A    between atoms: C13_16  and  O3_17 
REMARK    8  A    between atoms: C18_23  and  C19_24 
ROOT
HETATM    1  C5  UNL     1      -7.430   6.590  14.084  1.00  0.00     0.054 C 
HETATM    2  C6  UNL     1      -6.160   7.411  14.116  1.00  0.00     0.028 A 
HETATM    3  C7  UNL     1      -6.048   8.627  14.761  1.00  0.00     0.008 A 
HETATM    4  C8  UNL     1      -7.154   9.328  15.493  1.00  0.00     0.054 C 
HETATM    5  C9  UNL     1      -8.499   8.736  14.989  1.00  0.00     0.012 C 
HETATM    6  C10 UNL     1      -9.829   9.454  15.412  1.00  0.00     0.008 C 
HETATM    7  C11 UNL     1      -9.710  10.979  15.139  1.00  0.00     0.020 C 
HETATM    8  C13 UNL     1     -10.974   8.915  14.481  1.00  0.00     0.128 C 
HETATM    9  C14 UNL     1     -10.733   7.517  13.889  1.00  0.00     0.033 C 
HETATM   10  C15 UNL     1      -9.937   6.608  14.817  1.00  0.00     0.013 C 
HETATM   11  C16 UNL     1      -8.509   7.146  15.130  1.00  0.00    -0.030 C 
HETATM   12  C17 UNL     1      -8.154   6.665  16.558  1.00  0.00     0.016 C 
HETATM   13  S1  UNL     1      -4.476   9.243  14.589  1.00  0.00    -0.074 SA
HETATM   14  C18 UNL     1      -4.054   7.882  13.602  1.00  0.00     0.086 A 
HETATM   15  N3  UNL     1      -5.037   7.017  13.416  1.00  0.00    -0.352 N 
ATOM     16  H3  UNL     1      -4.975   6.178  12.837  1.00  0.00     0.166 HD
ENDROOT
BRANCH   1  17
HETATM   17  C4  UNL     1      -7.156   5.072  14.069  1.00  0.00     0.114 C 
BRANCH  17  18
HETATM   18  C3  UNL     1      -7.056   4.370  12.721  1.00  0.00     0.218 C 
HETATM   19  N1  UNL     1      -6.003   3.478  12.678  1.00  0.00    -0.353 N 
HETATM   20  H5  UNL     1      -5.490   3.270  13.525  1.00  0.00     0.163 HD
HETATM   21  O1  UNL     1      -7.790   4.568  11.760  1.00  0.00    -0.274 OA
BRANCH  19  22
HETATM   22  C2  UNL     1      -5.704   2.694  11.493  1.00  0.00     0.113 C 
HETATM   23  C1  UNL     1      -6.378   1.322  11.554  1.00  0.00     0.037 C 
BRANCH  22  24
HETATM   24  C24 UNL     1      -4.198   2.634  11.306  1.00  0.00    -0.036 A 
HETATM   25  C25 UNL     1      -3.523   1.430  11.581  1.00  0.00     0.009 A 
HETATM   26  C26 UNL     1      -2.143   1.326  11.395  1.00  0.00     0.001 A 
HETATM   27  C27 UNL     1      -1.418   2.417  10.920  1.00  0.00     0.000 A 
HETATM   28  C28 UNL     1      -2.073   3.612  10.630  1.00  0.00     0.001 A 
HETATM   29  C29 UNL     1      -3.455   3.720  10.815  1.00  0.00     0.009 A 
ENDBRANCH  22  24
ENDBRANCH  19  22
ENDBRANCH  17  18
ENDBRANCH   1  17
BRANCH  14  30
HETATM   30  C19 UNL     1      -2.716   7.729  13.011  1.00  0.00     0.013 A 
HETATM   31  C20 UNL     1      -1.974   6.541  13.013  1.00  0.00     0.017 A 
HETATM   32  C21 UNL     1      -0.703   6.503  12.435  1.00  0.00     0.018 A 
HETATM   33  C22 UNL     1      -0.202   7.661  11.866  1.00  0.00     0.087 A 
HETATM   34  N2  UNL     1      -0.874   8.829  11.838  1.00  0.00    -0.374 N 
HETATM   35  C23 UNL     1      -2.109   8.831  12.407  1.00  0.00     0.101 A 
ATOM     36  H2  UNL     1      -0.478   9.667  11.414  1.00  0.00     0.164 HD
ENDBRANCH  14  30
BRANCH   6  37
HETATM   37  C12 UNL     1     -10.205   9.306  16.903  1.00  0.00     0.176 C 
BRANCH  37  38
HETATM   38  O2  UNL     1     -11.060  10.358  17.325  1.00  0.00    -0.400 OA
HETATM   39  H17 UNL     1     -11.224  10.227  18.275  1.00  0.00     0.209 HD
ENDBRANCH  37  38
ENDBRANCH   6  37
BRANCH   8  40
HETATM   40  O3  UNL     1     -12.230   8.904  15.157  1.00  0.00    -0.395 OA
HETATM   41  H19 UNL     1     -12.549   9.824  15.199  1.00  0.00     0.210 HD
ENDBRANCH   8  40
TORSDOF 8
ENDMDL
MODEL 8
REMARK minimizedAffinity -8.36929798
REMARK CNNscore 0.230626956
REMARK CNNaffinity 6.96149588
REMARK  8 active torsions:
REMARK  status: ('A' for Active; 'I' for Inactive)
REMARK    1  A    between atoms: C2_2  and  N1_3 
REMARK    2  A    between atoms: C2_2  and  C24_33 
REMARK       I    between atoms: N1_3  and  C3_4 
REMARK    3  A    between atoms: C3_4  and  C4_6 
REMARK    4  A    between atoms: C4_6  and  C5_7 
REMARK    5  A    between atoms: C10_12  and  C12_14 
REMARK    6  A    between atoms: C12_14  and  O2_15 
REMARK    7  A    between atoms: C13_16  and  O3_17 
REMARK    8  A    between atoms: C18_23  and  C19_24 
ROOT
HETATM    1  C5  UNL     1      -1.350   7.133  13.528  1.00  0.00     0.054 C 
HETATM    2  C6  UNL     1      -2.223   6.040  12.953  1.00  0.00     0.028 A 
HETATM    3  C7  UNL     1      -1.787   5.120  12.018  1.00  0.00     0.008 A 
HETATM    4  C8  UNL     1      -0.415   5.078  11.414  1.00  0.00     0.054 C 
HETATM    5  C9  UNL     1       0.230   6.477  11.620  1.00  0.00     0.012 C 
HETATM    6  C10 UNL     1       1.576   6.788  10.873  1.00  0.00     0.008 C 
HETATM    7  C11 UNL     1       1.442   6.409   9.372  1.00  0.00     0.020 C 
HETATM    8  C13 UNL     1       1.799   8.342  10.930  1.00  0.00     0.128 C 
HETATM    9  C14 UNL     1       1.114   9.059  12.104  1.00  0.00     0.033 C 
HETATM   10  C15 UNL     1       1.029   8.198  13.358  1.00  0.00     0.013 C 
HETATM   11  C16 UNL     1       0.192   6.900  13.158  1.00  0.00    -0.030 C 
HETATM   12  C17 UNL     1       0.801   5.828  14.095  1.00  0.00     0.016 C 
HETATM   13  S1  UNL     1      -3.040   4.046  11.620  1.00  0.00    -0.074 SA
HETATM   14  C18 UNL     1      -4.114   4.915  12.667  1.00  0.00     0.086 A 
HETATM   15  N3  UNL     1      -3.561   5.949  13.280  1.00  0.00    -0.352 N 
ATOM     16  H3  UNL     1      -4.054   6.588  13.905  1.00  0.00     0.166 HD
ENDROOT
BRANCH   1  17
HETATM   17  C4  UNL     1      -1.698   7.463  14.993  1.00  0.00     0.114 C 
BRANCH  17  18
HETATM   18  C3  UNL     1      -2.288   8.832  15.304  1.00  0.00     0.218 C 
HETATM   19  N1  UNL     1      -3.027   8.825  16.471  1.00  0.00    -0.353 N 
HETATM   20  H5  UNL     1      -3.016   8.006  17.064  1.00  0.00     0.163 HD
HETATM   21  O1  UNL     1      -2.164   9.834  14.611  1.00  0.00    -0.274 OA
BRANCH  19  22
HETATM   22  C2  UNL     1      -3.691  10.016  16.970  1.00  0.00     0.113 C 
HETATM   23  C1  UNL     1      -4.425  10.751  15.846  1.00  0.00     0.037 C 
BRANCH  22  24
HETATM   24  C24 UNL     1      -2.679  10.874  17.711  1.00  0.00    -0.036 A 
HETATM   25  C25 UNL     1      -1.700  10.245  18.502  1.00  0.00     0.009 A 
HETATM   26  C26 UNL     1      -0.735  10.996  19.176  1.00  0.00     0.001 A 
HETATM   27  C27 UNL     1      -0.725  12.384  19.060  1.00  0.00     0.000 A 
HETATM   28  C28 UNL     1      -1.679  13.022  18.270  1.00  0.00     0.001 A 
HETATM   29  C29 UNL     1      -2.647  12.273  17.594  1.00  0.00     0.009 A 
ENDBRANCH  22  24
ENDBRANCH  19  22
ENDBRANCH  17  18
ENDBRANCH   1  17
BRANCH  14  30
HETATM   30  C19 UNL     1      -5.524   4.532  12.832  1.00  0.00     0.013 A 
HETATM   31  C20 UNL     1      -6.048   3.267  12.537  1.00  0.00     0.017 A 
HETATM   32  C21 UNL     1      -7.409   3.009  12.716  1.00  0.00     0.018 A 
HETATM   33  C22 UNL     1      -8.217   4.027  13.191  1.00  0.00     0.087 A 
HETATM   34  N2  UNL     1      -7.763   5.260  13.490  1.00  0.00    -0.374 N 
HETATM   35  C23 UNL     1      -6.434   5.478  13.306  1.00  0.00     0.101 A 
ATOM     36  H2  UNL     1      -8.384   5.992  13.836  1.00  0.00     0.164 HD
ENDBRANCH  14  30
BRANCH   6  37
HETATM   37  C12 UNL     1       2.810   6.026  11.406  1.00  0.00     0.176 C 
BRANCH  37  38
HETATM   38  O2  UNL     1       3.564   6.830  12.302  1.00  0.00    -0.400 OA
HETATM   39  H17 UNL     1       4.341   6.308  12.567  1.00  0.00     0.209 HD
ENDBRANCH  37  38
ENDBRANCH   6  37
BRANCH   8  40
HETATM   40  O3  UNL     1       3.189   8.666  10.958  1.00  0.00    -0.395 OA
HETATM   41  H19 UNL     1       3.538   8.540  10.057  1.00  0.00     0.210 HD
ENDBRANCH   8  40
TORSDOF 8
ENDMDL
MODEL 9
REMARK minimizedAffinity -8.47231293
REMARK CNNscore 0.224764049
REMARK CNNaffinity 6.83630753
REMARK  8 active torsions:
REMARK  status: ('A' for Active; 'I' for Inactive)
REMARK    1  A    between atoms: C2_2  and  N1_3 
REMARK    2  A    between atoms: C2_2  and  C24_33 
REMARK       I    between atoms: N1_3  and  C3_4 
REMARK    3  A    between atoms: C3_4  and  C4_6 
REMARK    4  A    between atoms: C4_6  and  C5_7 
REMARK    5  A    between atoms: C10_12  and  C12_14 
REMARK    6  A    between atoms: C12_14  and  O2_15 
REMARK    7  A    between atoms: C13_16  and  O3_17 
REMARK    8  A    between atoms: C18_23  and  C19_24 
ROOT
HETATM    1  C5  UNL     1      -2.140   8.500  16.156  1.00  0.00     0.054 C 
HETATM    2  C6  UNL     1      -3.530   8.233  15.623  1.00  0.00     0.028 A 
HETATM    3  C7  UNL     1      -4.493   9.211  15.465  1.00  0.00     0.008 A 
HETATM    4  C8  UNL     1      -4.327  10.660  15.818  1.00  0.00     0.054 C 
HETATM    5  C9  UNL     1      -3.140  10.766  16.814  1.00  0.00     0.012 C 
HETATM    6  C10 UNL     1      -2.899  12.140  17.534  1.00  0.00     0.008 C 
HETATM    7  C11 UNL     1      -4.233  12.655  18.141  1.00  0.00     0.020 C 
HETATM    8  C13 UNL     1      -1.924  11.878  18.738  1.00  0.00     0.128 C 
HETATM    9  C14 UNL     1      -1.012  10.651  18.587  1.00  0.00     0.033 C 
HETATM   10  C15 UNL     1      -0.617  10.379  17.141  1.00  0.00     0.013 C 
HETATM   11  C16 UNL     1      -1.832  10.072  16.217  1.00  0.00    -0.030 C 
HETATM   12  C17 UNL     1      -1.464  10.591  14.806  1.00  0.00     0.016 C 
HETATM   13  S1  UNL     1      -5.918   8.539  14.834  1.00  0.00    -0.074 SA
HETATM   14  C18 UNL     1      -5.190   6.966  14.874  1.00  0.00     0.086 A 
HETATM   15  N3  UNL     1      -3.949   6.950  15.333  1.00  0.00    -0.352 N 
ATOM     16  H3  UNL     1      -3.383   6.110  15.455  1.00  0.00     0.166 HD
ENDROOT
BRANCH   1  17
HETATM   17  C4  UNL     1      -1.075   7.581  15.525  1.00  0.00     0.114 C 
BRANCH  17  18
HETATM   18  C3  UNL     1      -1.105   7.371  14.017  1.00  0.00     0.218 C 
HETATM   19  N1  UNL     1      -0.073   6.561  13.586  1.00  0.00    -0.353 N 
HETATM   20  H5  UNL     1       0.509   6.089  14.266  1.00  0.00     0.163 HD
HETATM   21  O1  UNL     1      -1.916   7.868  13.245  1.00  0.00    -0.274 OA
BRANCH  19  22
HETATM   22  C2  UNL     1       0.108   6.222  12.185  1.00  0.00     0.113 C 
HETATM   23  C1  UNL     1      -0.278   7.392  11.279  1.00  0.00     0.037 C 
BRANCH  22  24
HETATM   24  C24 UNL     1      -0.644   4.936  11.886  1.00  0.00    -0.036 A 
HETATM   25  C25 UNL     1      -2.026   4.997  11.630  1.00  0.00     0.009 A 
HETATM   26  C26 UNL     1      -2.749   3.842  11.324  1.00  0.00     0.001 A 
HETATM   27  C27 UNL     1      -2.100   2.611  11.256  1.00  0.00     0.000 A 
HETATM   28  C28 UNL     1      -0.729   2.534  11.493  1.00  0.00     0.001 A 
HETATM   29  C29 UNL     1      -0.003   3.690  11.800  1.00  0.00     0.009 A 
ENDBRANCH  22  24
ENDBRANCH  19  22
ENDBRANCH  17  18
ENDBRANCH   1  17
BRANCH  14  30
HETATM   30  C19 UNL     1      -5.914   5.758  14.449  1.00  0.00     0.013 A 
HETATM   31  C20 UNL     1      -5.550   4.950  13.364  1.00  0.00     0.017 A 
HETATM   32  C21 UNL     1      -6.314   3.829  13.034  1.00  0.00     0.018 A 
HETATM   33  C22 UNL     1      -7.428   3.540  13.803  1.00  0.00     0.087 A 
HETATM   34  N2  UNL     1      -7.821   4.284  14.855  1.00  0.00    -0.374 N 
HETATM   35  C23 UNL     1      -7.055   5.367  15.151  1.00  0.00     0.101 A 
ATOM     36  H2  UNL     1      -8.649   4.047  15.402  1.00  0.00     0.164 HD
ENDBRANCH  14  30
BRANCH   6  37
HETATM   37  C12 UNL     1      -2.370  13.271  16.623  1.00  0.00     0.176 C 
BRANCH  37  38
HETATM   38  O2  UNL     1      -0.956  13.374  16.700  1.00  0.00    -0.400 OA
HETATM   39  H17 UNL     1      -0.695  14.124  16.137  1.00  0.00     0.209 HD
ENDBRANCH  37  38
ENDBRANCH   6  37
BRANCH   8  40
HETATM   40  O3  UNL     1      -1.104  13.016  18.999  1.00  0.00    -0.395 OA
HETATM   41  H19 UNL     1      -1.657  13.679  19.451  1.00  0.00     0.210 HD
ENDBRANCH   8  40
TORSDOF 8
ENDMDL
