MODEL 1
REMARK minimizedAffinity -7.81674671
REMARK CNNscore 0.514940023
REMARK CNNaffinity 6.55792093
REMARK  9 active torsions:
REMARK  status: ('A' for Active; 'I' for Inactive)
REMARK    1  A    between atoms: C2_2  and  C3_3 
REMARK    2  A    between atoms: C2_2  and  C9_12 
REMARK    3  A    between atoms: C3_3  and  C4_4 
REMARK    4  A    between atoms: C4_4  and  C5_5 
REMARK    5  A    between atoms: C5_5  and  O1_6 
REMARK    6  A    between atoms: C5_5  and  C6_7 
REMARK    7  A    between atoms: C6_7  and  O2_9 
REMARK    8  A    between atoms: C6_7  and  C8_10 
REMARK    9  A    between atoms: C8_10  and  O3_11 
ROOT
HETATM    1  C9  UNL     1       7.389   9.849  15.346  1.00  0.00    -0.002 C 
HETATM    2  C10 UNL     1       8.539   9.330  14.440  1.00  0.00     0.007 C 
HETATM    3  C11 UNL     1       7.892   8.812  13.141  1.00  0.00     0.015 C 
HETATM    4  C12 UNL     1       6.459   9.382  13.148  1.00  0.00    -0.005 C 
HETATM    5  C13 UNL     1       6.549  10.844  12.610  1.00  0.00     0.021 C 
HETATM    6  C14 UNL     1       5.359   8.739  12.311  1.00  0.00    -0.000 C 
HETATM    7  C15 UNL     1       4.057   8.793  12.702  1.00  0.00    -0.060 C 
HETATM    8  C16 UNL     1       3.666   9.454  14.030  1.00  0.00     0.036 C 
HETATM    9  C17 UNL     1       4.798   9.982  14.935  1.00  0.00     0.015 C 
HETATM   10  C18 UNL     1       6.115   9.239  14.688  1.00  0.00    -0.028 C 
HETATM   11  C19 UNL     1       5.933   7.759  15.134  1.00  0.00     0.016 C 
HETATM   12  C20 UNL     1       2.906   8.145  11.885  1.00  0.00    -0.014 C 
HETATM   13  C21 UNL     1       2.704   6.738  12.492  1.00  0.00     0.020 C 
HETATM   14  C22 UNL     1       1.589   8.955  12.005  1.00  0.00     0.021 C 
HETATM   15  C23 UNL     1       0.469   8.430  11.122  1.00  0.00     0.080 C 
HETATM   16  C24 UNL     1       0.887   8.406   9.673  1.00  0.00     0.135 C 
HETATM   17  O4  UNL     1       0.119   8.833   8.809  1.00  0.00    -0.297 OA
HETATM   18  C25 UNL     1       2.223   7.733   9.324  1.00  0.00     0.018 C 
HETATM   19  C26 UNL     1       2.649   8.242   7.922  1.00  0.00     0.023 C 
HETATM   20  C27 UNL     1       1.976   6.222   9.199  1.00  0.00     0.023 C 
HETATM   21  C28 UNL     1       3.315   8.149  10.372  1.00  0.00     0.020 C 
HETATM   22  C29 UNL     1       4.652   7.423  10.193  1.00  0.00     0.090 C 
HETATM   23  C30 UNL     1       5.734   8.074  11.021  1.00  0.00     0.157 C 
HETATM   24  O5  UNL     1       6.901   8.029  10.640  1.00  0.00    -0.293 OA
ENDROOT
BRANCH   1  25
HETATM   25  C2  UNL     1       7.704   9.750  16.871  1.00  0.00    -0.014 C 
HETATM   26  C1  UNL     1       7.079  10.816  17.780  1.00  0.00     0.010 C 
BRANCH  25  27
HETATM   27  C3  UNL     1       9.223   9.642  17.128  1.00  0.00     0.007 C 
BRANCH  27  28
HETATM   28  C4  UNL     1      10.001  10.959  17.277  1.00  0.00     0.035 C 
BRANCH  28  29
HETATM   29  C5  UNL     1      11.421  10.912  17.875  1.00  0.00     0.154 C 
BRANCH  29  30
HETATM   30  O1  UNL     1      12.328  11.445  16.906  1.00  0.00    -0.392 OA
HETATM   31  H10 UNL     1      13.197  11.555  17.341  1.00  0.00     0.210 HD
ENDBRANCH  29  30
BRANCH  29  32
HETATM   32  C6  UNL     1      11.609  11.542  19.298  1.00  0.00     0.101 C 
HETATM   33  C7  UNL     1      12.620  12.692  19.270  1.00  0.00     0.051 C 
BRANCH  32  34
HETATM   34  O2  UNL     1      12.064  10.548  20.232  1.00  0.00    -0.385 OA
HETATM   35  H14 UNL     1      12.341  10.995  21.049  1.00  0.00     0.210 HD
ENDBRANCH  32  34
BRANCH  32  36
HETATM   36  C8  UNL     1      10.258  12.056  19.844  1.00  0.00     0.204 C 
BRANCH  36  37
HETATM   37  O3  UNL     1      10.222  11.915  21.268  1.00  0.00    -0.398 OA
HETATM   38  H17 UNL     1      11.076  12.282  21.585  1.00  0.00     0.209 HD
ENDBRANCH  36  37
ENDBRANCH  32  36
ENDBRANCH  29  32
ENDBRANCH  28  29
ENDBRANCH  27  28
ENDBRANCH  25  27
ENDBRANCH   1  25
TORSDOF 9
ENDMDL
MODEL 2
REMARK minimizedAffinity -6.66026688
REMARK CNNscore 0.430187464
REMARK CNNaffinity 6.51766348
REMARK  9 active torsions:
REMARK  status: ('A' for Active; 'I' for Inactive)
REMARK    1  A    between atoms: C2_2  and  C3_3 
REMARK    2  A    between atoms: C2_2  and  C9_12 
REMARK    3  A    between atoms: C3_3  and  C4_4 
REMARK    4  A    between atoms: C4_4  and  C5_5 
REMARK    5  A    between atoms: C5_5  and  O1_6 
REMARK    6  A    between atoms: C5_5  and  C6_7 
REMARK    7  A    between atoms: C6_7  and  O2_9 
REMARK    8  A    between atoms: C6_7  and  C8_10 
REMARK    9  A    between atoms: C8_10  and  O3_11 
ROOT
HETATM    1  C9  UNL     1     -12.217   9.156  14.663  1.00  0.00    -0.002 C 
HETATM    2  C10 UNL     1     -12.225   9.381  13.126  1.00  0.00     0.007 C 
HETATM    3  C11 UNL     1     -13.437   8.612  12.564  1.00  0.00     0.015 C 
HETATM    4  C12 UNL     1     -14.315   8.287  13.790  1.00  0.00    -0.005 C 
HETATM    5  C13 UNL     1     -15.165   9.561  14.090  1.00  0.00     0.021 C 
HETATM    6  C14 UNL     1     -15.334   7.155  13.742  1.00  0.00    -0.000 C 
HETATM    7  C15 UNL     1     -15.673   6.468  14.866  1.00  0.00    -0.060 C 
HETATM    8  C16 UNL     1     -14.993   6.776  16.207  1.00  0.00     0.036 C 
HETATM    9  C17 UNL     1     -13.867   7.831  16.219  1.00  0.00     0.015 C 
HETATM   10  C18 UNL     1     -13.188   7.951  14.851  1.00  0.00    -0.028 C 
HETATM   11  C19 UNL     1     -12.451   6.613  14.551  1.00  0.00     0.016 C 
HETATM   12  C20 UNL     1     -16.701   5.303  14.862  1.00  0.00    -0.014 C 
HETATM   13  C21 UNL     1     -15.866   4.011  14.702  1.00  0.00     0.020 C 
HETATM   14  C22 UNL     1     -17.504   5.240  16.187  1.00  0.00     0.021 C 
HETATM   15  C23 UNL     1     -18.608   4.195  16.180  1.00  0.00     0.080 C 
HETATM   16  C24 UNL     1     -19.572   4.433  15.045  1.00  0.00     0.135 C 
HETATM   17  O4  UNL     1     -20.785   4.374  15.253  1.00  0.00    -0.297 OA
HETATM   18  C25 UNL     1     -18.988   4.624  13.637  1.00  0.00     0.018 C 
HETATM   19  C26 UNL     1     -20.077   5.308  12.770  1.00  0.00     0.023 C 
HETATM   20  C27 UNL     1     -18.738   3.234  13.033  1.00  0.00     0.023 C 
HETATM   21  C28 UNL     1     -17.729   5.559  13.708  1.00  0.00     0.020 C 
HETATM   22  C29 UNL     1     -16.991   5.704  12.374  1.00  0.00     0.090 C 
HETATM   23  C30 UNL     1     -15.990   6.833  12.433  1.00  0.00     0.157 C 
HETATM   24  O5  UNL     1     -15.711   7.452  11.408  1.00  0.00    -0.293 OA
ENDROOT
BRANCH   1  25
HETATM   25  C2  UNL     1     -10.792   9.224  15.295  1.00  0.00    -0.014 C 
HETATM   26  C1  UNL     1     -10.109  10.596  15.321  1.00  0.00     0.010 C 
BRANCH  25  27
HETATM   27  C3  UNL     1      -9.852   8.161  14.684  1.00  0.00     0.007 C 
BRANCH  27  28
HETATM   28  C4  UNL     1      -8.843   7.496  15.633  1.00  0.00     0.035 C 
BRANCH  28  29
HETATM   29  C5  UNL     1      -8.113   6.223  15.157  1.00  0.00     0.154 C 
BRANCH  29  30
HETATM   30  O1  UNL     1      -8.836   5.689  14.044  1.00  0.00    -0.392 OA
HETATM   31  H10 UNL     1      -8.292   4.977  13.651  1.00  0.00     0.210 HD
ENDBRANCH  29  30
BRANCH  29  32
HETATM   32  C6  UNL     1      -6.576   6.352  14.882  1.00  0.00     0.101 C 
HETATM   33  C7  UNL     1      -6.087   5.262  13.924  1.00  0.00     0.051 C 
BRANCH  32  34
HETATM   34  O2  UNL     1      -5.836   6.257  16.111  1.00  0.00    -0.385 OA
HETATM   35  H14 UNL     1      -4.893   6.160  15.897  1.00  0.00     0.210 HD
ENDBRANCH  32  34
BRANCH  32  36
HETATM   36  C8  UNL     1      -6.247   7.742  14.291  1.00  0.00     0.204 C 
BRANCH  36  37
HETATM   37  O3  UNL     1      -5.093   7.654  13.450  1.00  0.00    -0.398 OA
HETATM   38  H17 UNL     1      -5.255   6.876  12.872  1.00  0.00     0.209 HD
ENDBRANCH  36  37
ENDBRANCH  32  36
ENDBRANCH  29  32
ENDBRANCH  28  29
ENDBRANCH  27  28
ENDBRANCH  25  27
ENDBRANCH   1  25
TORSDOF 9
ENDMDL
MODEL 3
REMARK minimizedAffinity -8.18845081
REMARK CNNscore 0.362157196
REMARK CNNaffinity 6.77361059
REMARK  9 active torsions:
REMARK  status: ('A' for Active; 'I' for Inactive)
REMARK    1  A    between atoms: C2_2  and  C3_3 
REMARK    2  A    between atoms: C2_2  and  C9_12 
REMARK    3  A    between atoms: C3_3  and  C4_4 
REMARK    4  A    between atoms: C4_4  and  C5_5 
REMARK    5  A    between atoms: C5_5  and  O1_6 
REMARK    6  A    between atoms: C5_5  and  C6_7 
REMARK    7  A    between atoms: C6_7  and  O2_9 
REMARK    8  A    between atoms: C6_7  and  C8_10 
REMARK    9  A    between atoms: C8_10  and  O3_11 
ROOT
HETATM    1  C9  UNL     1       1.971   7.917  12.410  1.00  0.00    -0.002 C 
HETATM    2  C10 UNL     1       2.620   6.697  11.702  1.00  0.00     0.007 C 
HETATM    3  C11 UNL     1       1.502   5.661  11.471  1.00  0.00     0.015 C 
HETATM    4  C12 UNL     1       0.185   6.434  11.686  1.00  0.00    -0.005 C 
HETATM    5  C13 UNL     1      -0.127   7.181  10.351  1.00  0.00     0.021 C 
HETATM    6  C14 UNL     1      -1.108   5.696  12.016  1.00  0.00    -0.000 C 
HETATM    7  C15 UNL     1      -2.082   6.287  12.760  1.00  0.00    -0.060 C 
HETATM    8  C16 UNL     1      -1.881   7.694  13.337  1.00  0.00     0.036 C 
HETATM    9  C17 UNL     1      -0.518   8.379  13.111  1.00  0.00     0.015 C 
HETATM   10  C18 UNL     1       0.604   7.356  12.903  1.00  0.00    -0.028 C 
HETATM   11  C19 UNL     1       0.793   6.562  14.228  1.00  0.00     0.016 C 
HETATM   12  C20 UNL     1      -3.411   5.570  13.126  1.00  0.00    -0.014 C 
HETATM   13  C21 UNL     1      -3.172   4.934  14.515  1.00  0.00     0.020 C 
HETATM   14  C22 UNL     1      -4.597   6.565  13.209  1.00  0.00     0.021 C 
HETATM   15  C23 UNL     1      -5.940   5.892  13.442  1.00  0.00     0.080 C 
HETATM   16  C24 UNL     1      -6.235   4.883  12.361  1.00  0.00     0.135 C 
HETATM   17  O4  UNL     1      -7.352   4.855  11.841  1.00  0.00    -0.297 OA
HETATM   18  C25 UNL     1      -5.150   3.845  12.034  1.00  0.00     0.018 C 
HETATM   19  C26 UNL     1      -5.469   3.264  10.632  1.00  0.00     0.023 C 
HETATM   20  C27 UNL     1      -5.278   2.692  13.040  1.00  0.00     0.023 C 
HETATM   21  C28 UNL     1      -3.745   4.544  11.990  1.00  0.00     0.020 C 
HETATM   22  C29 UNL     1      -2.577   3.571  11.806  1.00  0.00     0.090 C 
HETATM   23  C30 UNL     1      -1.305   4.313  11.472  1.00  0.00     0.157 C 
HETATM   24  O5  UNL     1      -0.445   3.768  10.784  1.00  0.00    -0.293 OA
ENDROOT
BRANCH   1  25
HETATM   25  C2  UNL     1       2.960   8.707  13.322  1.00  0.00    -0.014 C 
HETATM   26  C1  UNL     1       3.178  10.189  12.991  1.00  0.00     0.010 C 
BRANCH  25  27
HETATM   27  C3  UNL     1       4.314   7.976  13.453  1.00  0.00     0.007 C 
BRANCH  27  28
HETATM   28  C4  UNL     1       5.348   8.589  14.411  1.00  0.00     0.035 C 
BRANCH  28  29
HETATM   29  C5  UNL     1       6.594   7.759  14.779  1.00  0.00     0.154 C 
BRANCH  29  30
HETATM   30  O1  UNL     1       6.422   6.442  14.248  1.00  0.00    -0.392 OA
HETATM   31  H10 UNL     1       7.271   5.968  14.348  1.00  0.00     0.210 HD
ENDBRANCH  29  30
BRANCH  29  32
HETATM   32  C6  UNL     1       7.987   8.383  14.425  1.00  0.00     0.101 C 
HETATM   33  C7  UNL     1       7.954   9.912  14.516  1.00  0.00     0.051 C 
BRANCH  32  34
HETATM   34  O2  UNL     1       8.383   8.006  13.095  1.00  0.00    -0.385 OA
HETATM   35  H14 UNL     1       9.151   8.543  12.837  1.00  0.00     0.210 HD
ENDBRANCH  32  34
BRANCH  32  36
HETATM   36  C8  UNL     1       9.081   7.834  15.369  1.00  0.00     0.204 C 
BRANCH  36  37
HETATM   37  O3  UNL     1       8.571   7.740  16.703  1.00  0.00    -0.398 OA
HETATM   38  H17 UNL     1       7.700   7.295  16.615  1.00  0.00     0.209 HD
ENDBRANCH  36  37
ENDBRANCH  32  36
ENDBRANCH  29  32
ENDBRANCH  28  29
ENDBRANCH  27  28
ENDBRANCH  25  27
ENDBRANCH   1  25
TORSDOF 9
ENDMDL
MODEL 4
REMARK minimizedAffinity -9.1511116
REMARK CNNscore 0.324760228
REMARK CNNaffinity 6.8699379
REMARK  9 active torsions:
REMARK  status: ('A' for Active; 'I' for Inactive)
REMARK    1  A    between atoms: C2_2  and  C3_3 
REMARK    2  A    between atoms: C2_2  and  C9_12 
REMARK    3  A    between atoms: C3_3  and  C4_4 
REMARK    4  A    between atoms: C4_4  and  C5_5 
REMARK    5  A    between atoms: C5_5  and  O1_6 
REMARK    6  A    between atoms: C5_5  and  C6_7 
REMARK    7  A    between atoms: C6_7  and  O2_9 
REMARK    8  A    between atoms: C6_7  and  C8_10 
REMARK    9  A    between atoms: C8_10  and  O3_11 
ROOT
HETATM    1  C9  UNL     1      -2.875   8.352  15.177  1.00  0.00    -0.002 C 
HETATM    2  C10 UNL     1      -1.828   7.969  16.259  1.00  0.00     0.007 C 
HETATM    3  C11 UNL     1      -0.481   7.773  15.534  1.00  0.00     0.015 C 
HETATM    4  C12 UNL     1      -0.674   8.412  14.144  1.00  0.00    -0.005 C 
HETATM    5  C13 UNL     1      -0.447   9.947  14.313  1.00  0.00     0.021 C 
HETATM    6  C14 UNL     1       0.226   8.024  12.976  1.00  0.00    -0.000 C 
HETATM    7  C15 UNL     1      -0.229   8.070  11.695  1.00  0.00    -0.060 C 
HETATM    8  C16 UNL     1      -1.682   8.460  11.394  1.00  0.00     0.036 C 
HETATM    9  C17 UNL     1      -2.622   8.720  12.589  1.00  0.00     0.015 C 
HETATM   10  C18 UNL     1      -2.165   7.970  13.844  1.00  0.00    -0.028 C 
HETATM   11  C19 UNL     1      -2.303   6.442  13.579  1.00  0.00     0.016 C 
HETATM   12  C20 UNL     1       0.650   7.677  10.475  1.00  0.00    -0.014 C 
HETATM   13  C21 UNL     1       0.339   6.188  10.200  1.00  0.00     0.020 C 
HETATM   14  C22 UNL     1       0.303   8.519   9.221  1.00  0.00     0.021 C 
HETATM   15  C23 UNL     1       1.221   8.257   8.039  1.00  0.00     0.080 C 
HETATM   16  C24 UNL     1       2.662   8.513   8.405  1.00  0.00     0.135 C 
HETATM   17  O4  UNL     1       3.381   9.156   7.638  1.00  0.00    -0.297 OA
HETATM   18  C25 UNL     1       3.205   7.852   9.681  1.00  0.00     0.018 C 
HETATM   19  C26 UNL     1       4.490   8.618  10.092  1.00  0.00     0.023 C 
HETATM   20  C27 UNL     1       3.629   6.418   9.329  1.00  0.00     0.023 C 
HETATM   21  C28 UNL     1       2.146   7.974  10.833  1.00  0.00     0.020 C 
HETATM   22  C29 UNL     1       2.535   7.225  12.111  1.00  0.00     0.090 C 
HETATM   23  C30 UNL     1       1.642   7.623  13.262  1.00  0.00     0.157 C 
HETATM   24  O5  UNL     1       2.079   7.591  14.410  1.00  0.00    -0.293 OA
ENDROOT
BRANCH   1  25
HETATM   25  C2  UNL     1      -4.329   7.918  15.537  1.00  0.00    -0.014 C 
HETATM   26  C1  UNL     1      -4.543   6.444  15.906  1.00  0.00     0.010 C 
BRANCH  25  27
HETATM   27  C3  UNL     1      -5.335   8.356  14.450  1.00  0.00     0.007 C 
BRANCH  27  28
HETATM   28  C4  UNL     1      -5.824   7.273  13.475  1.00  0.00     0.035 C 
BRANCH  28  29
HETATM   29  C5  UNL     1      -6.712   6.137  14.022  1.00  0.00     0.154 C 
BRANCH  29  30
HETATM   30  O1  UNL     1      -7.996   6.688  14.329  1.00  0.00    -0.392 OA
HETATM   31  H10 UNL     1      -8.599   5.944  14.528  1.00  0.00     0.210 HD
ENDBRANCH  29  30
BRANCH  29  32
HETATM   32  C6  UNL     1      -6.799   4.831  13.160  1.00  0.00     0.101 C 
HETATM   33  C7  UNL     1      -5.410   4.363  12.715  1.00  0.00     0.051 C 
BRANCH  32  34
HETATM   34  O2  UNL     1      -7.610   5.052  11.993  1.00  0.00    -0.385 OA
HETATM   35  H14 UNL     1      -7.501   4.295  11.394  1.00  0.00     0.210 HD
ENDBRANCH  32  34
BRANCH  32  36
HETATM   36  C8  UNL     1      -7.493   3.703  13.956  1.00  0.00     0.204 C 
BRANCH  36  37
HETATM   37  O3  UNL     1      -8.606   3.196  13.213  1.00  0.00    -0.398 OA
HETATM   38  H17 UNL     1      -8.264   3.047  12.305  1.00  0.00     0.209 HD
ENDBRANCH  36  37
ENDBRANCH  32  36
ENDBRANCH  29  32
ENDBRANCH  28  29
ENDBRANCH  27  28
ENDBRANCH  25  27
ENDBRANCH   1  25
TORSDOF 9
ENDMDL
MODEL 5
REMARK minimizedAffinity -8.51552391
REMARK CNNscore 0.285925686
REMARK CNNaffinity 6.64861727
REMARK  9 active torsions:
REMARK  status: ('A' for Active; 'I' for Inactive)
REMARK    1  A    between atoms: C2_2  and  C3_3 
REMARK    2  A    between atoms: C2_2  and  C9_12 
REMARK    3  A    between atoms: C3_3  and  C4_4 
REMARK    4  A    between atoms: C4_4  and  C5_5 
REMARK    5  A    between atoms: C5_5  and  O1_6 
REMARK    6  A    between atoms: C5_5  and  C6_7 
REMARK    7  A    between atoms: C6_7  and  O2_9 
REMARK    8  A    between atoms: C6_7  and  C8_10 
REMARK    9  A    between atoms: C8_10  and  O3_11 
ROOT
HETATM    1  C9  UNL     1      -0.110   9.083  14.288  1.00  0.00    -0.002 C 
HETATM    2  C10 UNL     1       0.472   7.893  13.477  1.00  0.00     0.007 C 
HETATM    3  C11 UNL     1      -0.705   6.953  13.147  1.00  0.00     0.015 C 
HETATM    4  C12 UNL     1      -1.975   7.784  13.422  1.00  0.00    -0.005 C 
HETATM    5  C13 UNL     1      -2.224   8.665  12.158  1.00  0.00     0.021 C 
HETATM    6  C14 UNL     1      -3.314   7.101  13.676  1.00  0.00    -0.000 C 
HETATM    7  C15 UNL     1      -4.259   7.681  14.464  1.00  0.00    -0.060 C 
HETATM    8  C16 UNL     1      -3.980   9.016  15.167  1.00  0.00     0.036 C 
HETATM    9  C17 UNL     1      -2.574   9.633  15.013  1.00  0.00     0.015 C 
HETATM   10  C18 UNL     1      -1.515   8.565  14.721  1.00  0.00    -0.028 C 
HETATM   11  C19 UNL     1      -1.390   7.645  15.970  1.00  0.00     0.016 C 
HETATM   12  C20 UNL     1      -5.633   7.018  14.756  1.00  0.00    -0.014 C 
HETATM   13  C21 UNL     1      -5.450   6.246  16.084  1.00  0.00     0.020 C 
HETATM   14  C22 UNL     1      -6.757   8.073  14.921  1.00  0.00     0.021 C 
HETATM   15  C23 UNL     1      -8.142   7.467  15.084  1.00  0.00     0.080 C 
HETATM   16  C24 UNL     1      -8.485   6.579  13.914  1.00  0.00     0.135 C 
HETATM   17  O4  UNL     1      -9.596   6.667  13.387  1.00  0.00    -0.297 OA
HETATM   18  C25 UNL     1      -7.462   5.510  13.501  1.00  0.00     0.018 C 
HETATM   19  C26 UNL     1      -7.799   5.077  12.051  1.00  0.00     0.023 C 
HETATM   20  C27 UNL     1      -7.671   4.281  14.398  1.00  0.00     0.023 C 
HETATM   21  C28 UNL     1      -6.016   6.121  13.530  1.00  0.00     0.020 C 
HETATM   22  C29 UNL     1      -4.908   5.098  13.266  1.00  0.00     0.090 C 
HETATM   23  C30 UNL     1      -3.589   5.787  13.009  1.00  0.00     0.157 C 
HETATM   24  O5  UNL     1      -2.756   5.253  12.279  1.00  0.00    -0.293 OA
ENDROOT
BRANCH   1  25
HETATM   25  C2  UNL     1       0.915   9.725  15.274  1.00  0.00    -0.014 C 
HETATM   26  C1  UNL     1       1.232  11.212  15.075  1.00  0.00     0.010 C 
BRANCH  25  27
HETATM   27  C3  UNL     1       2.217   8.898  15.353  1.00  0.00     0.007 C 
BRANCH  27  28
HETATM   28  C4  UNL     1       3.369   9.322  14.428  1.00  0.00     0.035 C 
BRANCH  28  29
HETATM   29  C5  UNL     1       4.790   9.414  15.017  1.00  0.00     0.154 C 
BRANCH  29  30
HETATM   30  O1  UNL     1       4.678   9.820  16.385  1.00  0.00    -0.392 OA
HETATM   31  H10 UNL     1       5.561   9.729  16.795  1.00  0.00     0.210 HD
ENDBRANCH  29  30
BRANCH  29  32
HETATM   32  C6  UNL     1       5.716   8.165  14.826  1.00  0.00     0.101 C 
HETATM   33  C7  UNL     1       5.838   7.781  13.348  1.00  0.00     0.051 C 
BRANCH  32  34
HETATM   34  O2  UNL     1       5.200   7.039  15.557  1.00  0.00    -0.385 OA
HETATM   35  H14 UNL     1       5.683   6.243  15.281  1.00  0.00     0.210 HD
ENDBRANCH  32  34
BRANCH  32  36
HETATM   36  C8  UNL     1       7.123   8.440  15.404  1.00  0.00     0.204 C 
BRANCH  36  37
HETATM   37  O3  UNL     1       7.149   8.119  16.798  1.00  0.00    -0.398 OA
HETATM   38  H17 UNL     1       6.731   7.233  16.866  1.00  0.00     0.209 HD
ENDBRANCH  36  37
ENDBRANCH  32  36
ENDBRANCH  29  32
ENDBRANCH  28  29
ENDBRANCH  27  28
ENDBRANCH  25  27
ENDBRANCH   1  25
TORSDOF 9
ENDMDL
MODEL 6
REMARK minimizedAffinity -6.85422802
REMARK CNNscore 0.285522372
REMARK CNNaffinity 5.77044058
REMARK  9 active torsions:
REMARK  status: ('A' for Active; 'I' for Inactive)
REMARK    1  A    between atoms: C2_2  and  C3_3 
REMARK    2  A    between atoms: C2_2  and  C9_12 
REMARK    3  A    between atoms: C3_3  and  C4_4 
REMARK    4  A    between atoms: C4_4  and  C5_5 
REMARK    5  A    between atoms: C5_5  and  O1_6 
REMARK    6  A    between atoms: C5_5  and  C6_7 
REMARK    7  A    between atoms: C6_7  and  O2_9 
REMARK    8  A    between atoms: C6_7  and  C8_10 
REMARK    9  A    between atoms: C8_10  and  O3_11 
ROOT
HETATM    1  C9  UNL     1     -17.329   3.581  14.290  1.00  0.00    -0.002 C 
HETATM    2  C10 UNL     1     -17.224   3.496  15.837  1.00  0.00     0.007 C 
HETATM    3  C11 UNL     1     -16.710   2.083  16.177  1.00  0.00     0.015 C 
HETATM    4  C12 UNL     1     -16.165   1.520  14.848  1.00  0.00    -0.005 C 
HETATM    5  C13 UNL     1     -14.721   2.086  14.672  1.00  0.00     0.021 C 
HETATM    6  C14 UNL     1     -16.009   0.017  14.642  1.00  0.00    -0.000 C 
HETATM    7  C15 UNL     1     -16.115  -0.535  13.404  1.00  0.00    -0.060 C 
HETATM    8  C16 UNL     1     -16.453   0.333  12.185  1.00  0.00     0.036 C 
HETATM    9  C17 UNL     1     -16.742   1.830  12.423  1.00  0.00     0.015 C 
HETATM   10  C18 UNL     1     -17.250   2.090  13.845  1.00  0.00    -0.028 C 
HETATM   11  C19 UNL     1     -18.639   1.406  14.001  1.00  0.00     0.016 C 
HETATM   12  C20 UNL     1     -15.971  -2.061  13.149  1.00  0.00    -0.014 C 
HETATM   13  C21 UNL     1     -17.409  -2.627  13.182  1.00  0.00     0.020 C 
HETATM   14  C22 UNL     1     -15.329  -2.356  11.768  1.00  0.00     0.021 C 
HETATM   15  C23 UNL     1     -15.053  -3.831  11.528  1.00  0.00     0.080 C 
HETATM   16  C24 UNL     1     -14.159  -4.397  12.603  1.00  0.00     0.135 C 
HETATM   17  O4  UNL     1     -13.209  -5.116  12.290  1.00  0.00    -0.297 OA
HETATM   18  C25 UNL     1     -14.549  -4.142  14.067  1.00  0.00     0.018 C 
HETATM   19  C26 UNL     1     -13.286  -4.381  14.934  1.00  0.00     0.023 C 
HETATM   20  C27 UNL     1     -15.583  -5.203  14.474  1.00  0.00     0.023 C 
HETATM   21  C28 UNL     1     -15.014  -2.653  14.240  1.00  0.00     0.020 C 
HETATM   22  C29 UNL     1     -15.555  -2.333  15.636  1.00  0.00     0.090 C 
HETATM   23  C30 UNL     1     -15.698  -0.842  15.830  1.00  0.00     0.157 C 
HETATM   24  O5  UNL     1     -15.581  -0.361  16.955  1.00  0.00    -0.293 OA
ENDROOT
BRANCH   1  25
HETATM   25  C2  UNL     1     -18.427   4.574  13.794  1.00  0.00    -0.014 C 
HETATM   26  C1  UNL     1     -19.825   3.995  13.548  1.00  0.00     0.010 C 
BRANCH  25  27
HETATM   27  C3  UNL     1     -17.948   5.378  12.566  1.00  0.00     0.007 C 
BRANCH  27  28
HETATM   28  C4  UNL     1     -17.238   6.714  12.841  1.00  0.00     0.035 C 
BRANCH  28  29
HETATM   29  C5  UNL     1     -15.799   6.903  12.322  1.00  0.00     0.154 C 
BRANCH  29  30
HETATM   30  O1  UNL     1     -15.867   7.587  11.067  1.00  0.00    -0.392 OA
HETATM   31  H10 UNL     1     -14.956   7.841  10.817  1.00  0.00     0.210 HD
ENDBRANCH  29  30
BRANCH  29  32
HETATM   32  C6  UNL     1     -14.770   7.548  13.313  1.00  0.00     0.101 C 
HETATM   33  C7  UNL     1     -13.359   6.997  13.089  1.00  0.00     0.051 C 
BRANCH  32  34
HETATM   34  O2  UNL     1     -15.157   7.294  14.674  1.00  0.00    -0.385 OA
HETATM   35  H14 UNL     1     -14.421   7.544  15.257  1.00  0.00     0.210 HD
ENDBRANCH  32  34
BRANCH  32  36
HETATM   36  C8  UNL     1     -14.755   9.085  13.152  1.00  0.00     0.204 C 
BRANCH  36  37
HETATM   37  O3  UNL     1     -13.909   9.452  12.058  1.00  0.00    -0.398 OA
HETATM   38  H17 UNL     1     -14.173   8.862  11.319  1.00  0.00     0.209 HD
ENDBRANCH  36  37
ENDBRANCH  32  36
ENDBRANCH  29  32
ENDBRANCH  28  29
ENDBRANCH  27  28
ENDBRANCH  25  27
ENDBRANCH   1  25
TORSDOF 9
ENDMDL
MODEL 7
REMARK minimizedAffinity -7.70223999
REMARK CNNscore 0.24357985
REMARK CNNaffinity 6.3198266
REMARK  9 active torsions:
REMARK  status: ('A' for Active; 'I' for Inactive)
REMARK    1  A    between atoms: C2_2  and  C3_3 
REMARK    2  A    between atoms: C2_2  and  C9_12 
REMARK    3  A    between atoms: C3_3  and  C4_4 
REMARK    4  A    between atoms: C4_4  and  C5_5 
REMARK    5  A    between atoms: C5_5  and  O1_6 
REMARK    6  A    between atoms: C5_5  and  C6_7 
REMARK    7  A    between atoms: C6_7  and  O2_9 
REMARK    8  A    between atoms: C6_7  and  C8_10 
REMARK    9  A    between atoms: C8_10  and  O3_11 
ROOT
HETATM    1  C9  UNL     1      -0.534   9.382  14.499  1.00  0.00    -0.002 C 
HETATM    2  C10 UNL     1       0.170   8.237  13.722  1.00  0.00     0.007 C 
HETATM    3  C11 UNL     1      -0.917   7.211  13.347  1.00  0.00     0.015 C 
HETATM    4  C12 UNL     1      -2.257   7.944  13.560  1.00  0.00    -0.005 C 
HETATM    5  C13 UNL     1      -2.515   8.800  12.281  1.00  0.00     0.021 C 
HETATM    6  C14 UNL     1      -3.551   7.164  13.760  1.00  0.00    -0.000 C 
HETATM    7  C15 UNL     1      -4.570   7.674  14.502  1.00  0.00    -0.060 C 
HETATM    8  C16 UNL     1      -4.423   9.028  15.208  1.00  0.00     0.036 C 
HETATM    9  C17 UNL     1      -3.062   9.748  15.112  1.00  0.00     0.015 C 
HETATM   10  C18 UNL     1      -1.914   8.762  14.873  1.00  0.00    -0.028 C 
HETATM   11  C19 UNL     1      -1.776   7.858  16.132  1.00  0.00     0.016 C 
HETATM   12  C20 UNL     1      -5.903   6.911  14.738  1.00  0.00    -0.014 C 
HETATM   13  C21 UNL     1      -5.721   6.159  16.077  1.00  0.00     0.020 C 
HETATM   14  C22 UNL     1      -7.109   7.879  14.847  1.00  0.00     0.021 C 
HETATM   15  C23 UNL     1      -8.450   7.171  14.953  1.00  0.00     0.080 C 
HETATM   16  C24 UNL     1      -8.673   6.256  13.775  1.00  0.00     0.135 C 
HETATM   17  O4  UNL     1      -9.764   6.259  13.199  1.00  0.00    -0.297 OA
HETATM   18  C25 UNL     1      -7.556   5.266  13.414  1.00  0.00     0.018 C 
HETATM   19  C26 UNL     1      -7.796   4.804  11.953  1.00  0.00     0.023 C 
HETATM   20  C27 UNL     1      -7.713   4.027  14.309  1.00  0.00     0.023 C 
HETATM   21  C28 UNL     1      -6.163   5.984  13.502  1.00  0.00     0.020 C 
HETATM   22  C29 UNL     1      -4.971   5.046  13.294  1.00  0.00     0.090 C 
HETATM   23  C30 UNL     1      -3.697   5.831  13.090  1.00  0.00     0.157 C 
HETATM   24  O5  UNL     1      -2.795   5.359  12.401  1.00  0.00    -0.293 OA
ENDROOT
BRANCH   1  25
HETATM   25  C2  UNL     1       0.395  10.103  15.525  1.00  0.00    -0.014 C 
HETATM   26  C1  UNL     1      -0.060  10.109  16.989  1.00  0.00     0.010 C 
BRANCH  25  27
HETATM   27  C3  UNL     1       0.748  11.532  15.060  1.00  0.00     0.007 C 
BRANCH  27  28
HETATM   28  C4  UNL     1       0.044  12.693  15.780  1.00  0.00     0.035 C 
BRANCH  28  29
HETATM   29  C5  UNL     1      -1.086  13.439  15.044  1.00  0.00     0.154 C 
BRANCH  29  30
HETATM   30  O1  UNL     1      -1.469  12.656  13.909  1.00  0.00    -0.392 OA
HETATM   31  H10 UNL     1      -2.282  13.051  13.536  1.00  0.00     0.210 HD
ENDBRANCH  29  30
BRANCH  29  32
HETATM   32  C6  UNL     1      -2.310  13.898  15.909  1.00  0.00     0.101 C 
HETATM   33  C7  UNL     1      -2.000  15.188  16.675  1.00  0.00     0.051 C 
BRANCH  32  34
HETATM   34  O2  UNL     1      -2.671  12.874  16.852  1.00  0.00    -0.385 OA
HETATM   35  H14 UNL     1      -3.304  13.248  17.487  1.00  0.00     0.210 HD
ENDBRANCH  32  34
BRANCH  32  36
HETATM   36  C8  UNL     1      -3.553  14.114  15.016  1.00  0.00     0.204 C 
BRANCH  36  37
HETATM   37  O3  UNL     1      -4.398  12.960  15.069  1.00  0.00    -0.398 OA
HETATM   38  H17 UNL     1      -4.483  12.747  16.023  1.00  0.00     0.209 HD
ENDBRANCH  36  37
ENDBRANCH  32  36
ENDBRANCH  29  32
ENDBRANCH  28  29
ENDBRANCH  27  28
ENDBRANCH  25  27
ENDBRANCH   1  25
TORSDOF 9
ENDMDL
MODEL 8
REMARK minimizedAffinity -7.16008282
REMARK CNNscore 0.229736224
REMARK CNNaffinity 6.46377325
REMARK  9 active torsions:
REMARK  status: ('A' for Active; 'I' for Inactive)
REMARK    1  A    between atoms: C2_2  and  C3_3 
REMARK    2  A    between atoms: C2_2  and  C9_12 
REMARK    3  A    between atoms: C3_3  and  C4_4 
REMARK    4  A    between atoms: C4_4  and  C5_5 
REMARK    5  A    between atoms: C5_5  and  O1_6 
REMARK    6  A    between atoms: C5_5  and  C6_7 
REMARK    7  A    between atoms: C6_7  and  O2_9 
REMARK    8  A    between atoms: C6_7  and  C8_10 
REMARK    9  A    between atoms: C8_10  and  O3_11 
ROOT
HETATM    1  C9  UNL     1      -9.461  -7.803  -4.058  1.00  0.00    -0.002 C 
HETATM    2  C10 UNL     1     -10.795  -7.750  -3.264  1.00  0.00     0.007 C 
HETATM    3  C11 UNL     1     -10.515  -8.348  -1.871  1.00  0.00     0.015 C 
HETATM    4  C12 UNL     1      -8.979  -8.376  -1.744  1.00  0.00    -0.005 C 
HETATM    5  C13 UNL     1      -8.533  -6.946  -1.303  1.00  0.00     0.021 C 
HETATM    6  C14 UNL     1      -8.294  -9.308  -0.750  1.00  0.00    -0.000 C 
HETATM    7  C15 UNL     1      -7.047  -9.796  -0.991  1.00  0.00    -0.060 C 
HETATM    8  C16 UNL     1      -6.317  -9.468  -2.299  1.00  0.00     0.036 C 
HETATM    9  C17 UNL     1      -7.070  -8.635  -3.357  1.00  0.00     0.015 C 
HETATM   10  C18 UNL     1      -8.589  -8.788  -3.223  1.00  0.00    -0.028 C 
HETATM   11  C19 UNL     1      -8.965 -10.260  -3.561  1.00  0.00     0.016 C 
HETATM   12  C20 UNL     1      -6.315 -10.753  -0.010  1.00  0.00    -0.014 C 
HETATM   13  C21 UNL     1      -6.631 -12.182  -0.510  1.00  0.00     0.020 C 
HETATM   14  C22 UNL     1      -4.782 -10.527  -0.022  1.00  0.00     0.021 C 
HETATM   15  C23 UNL     1      -4.036 -11.354   1.013  1.00  0.00     0.080 C 
HETATM   16  C24 UNL     1      -4.552 -11.075   2.403  1.00  0.00     0.135 C 
HETATM   17  O4  UNL     1      -3.754 -10.894   3.324  1.00  0.00    -0.297 OA
HETATM   18  C25 UNL     1      -6.070 -11.146   2.632  1.00  0.00     0.018 C 
HETATM   19  C26 UNL     1      -6.379 -10.379   3.944  1.00  0.00     0.023 C 
HETATM   20  C27 UNL     1      -6.446 -12.616   2.869  1.00  0.00     0.023 C 
HETATM   21  C28 UNL     1      -6.818 -10.447   1.442  1.00  0.00     0.020 C 
HETATM   22  C29 UNL     1      -8.342 -10.583   1.506  1.00  0.00     0.090 C 
HETATM   23  C30 UNL     1      -9.008  -9.650   0.523  1.00  0.00     0.157 C 
HETATM   24  O5  UNL     1     -10.127  -9.206   0.768  1.00  0.00    -0.293 OA
ENDROOT
BRANCH   1  25
HETATM   25  C2  UNL     1      -9.659  -7.920  -5.601  1.00  0.00    -0.014 C 
HETATM   26  C1  UNL     1      -8.392  -8.027  -6.457  1.00  0.00     0.010 C 
BRANCH  25  27
HETATM   27  C3  UNL     1     -10.584  -6.805  -6.138  1.00  0.00     0.007 C 
BRANCH  27  28
HETATM   28  C4  UNL     1      -9.999  -5.385  -6.201  1.00  0.00     0.035 C 
BRANCH  28  29
HETATM   29  C5  UNL     1     -10.178  -4.460  -4.980  1.00  0.00     0.154 C 
BRANCH  29  30
HETATM   30  O1  UNL     1      -8.902  -4.304  -4.352  1.00  0.00    -0.392 OA
HETATM   31  H10 UNL     1      -8.988  -3.602  -3.677  1.00  0.00     0.210 HD
ENDBRANCH  29  30
BRANCH  29  32
HETATM   32  C6  UNL     1     -10.906  -3.095  -5.230  1.00  0.00     0.101 C 
HETATM   33  C7  UNL     1     -10.113  -2.206  -6.192  1.00  0.00     0.051 C 
BRANCH  32  34
HETATM   34  O2  UNL     1     -11.090  -2.389  -3.990  1.00  0.00    -0.385 OA
HETATM   35  H14 UNL     1     -11.375  -1.483  -4.190  1.00  0.00     0.210 HD
ENDBRANCH  32  34
BRANCH  32  36
HETATM   36  C8  UNL     1     -12.323  -3.335  -5.799  1.00  0.00     0.204 C 
BRANCH  36  37
HETATM   37  O3  UNL     1     -13.033  -4.259  -4.968  1.00  0.00    -0.398 OA
HETATM   38  H17 UNL     1     -12.897  -3.937  -4.050  1.00  0.00     0.209 HD
ENDBRANCH  36  37
ENDBRANCH  32  36
ENDBRANCH  29  32
ENDBRANCH  28  29
ENDBRANCH  27  28
ENDBRANCH  25  27
ENDBRANCH   1  25
TORSDOF 9
ENDMDL
MODEL 9
REMARK minimizedAffinity -9.23609829
REMARK CNNscore 0.212249875
REMARK CNNaffinity 6.51571131
REMARK  9 active torsions:
REMARK  status: ('A' for Active; 'I' for Inactive)
REMARK    1  A    between atoms: C2_2  and  C3_3 
REMARK    2  A    between atoms: C2_2  and  C9_12 
REMARK    3  A    between atoms: C3_3  and  C4_4 
REMARK    4  A    between atoms: C4_4  and  C5_5 
REMARK    5  A    between atoms: C5_5  and  O1_6 
REMARK    6  A    between atoms: C5_5  and  C6_7 
REMARK    7  A    between atoms: C6_7  and  O2_9 
REMARK    8  A    between atoms: C6_7  and  C8_10 
REMARK    9  A    between atoms: C8_10  and  O3_11 
ROOT
HETATM    1  C9  UNL     1      -6.216   7.328  15.128  1.00  0.00    -0.002 C 
HETATM    2  C10 UNL     1      -5.879   8.785  15.546  1.00  0.00     0.007 C 
HETATM    3  C11 UNL     1      -4.465   9.090  15.015  1.00  0.00     0.015 C 
HETATM    4  C12 UNL     1      -4.168   7.978  13.989  1.00  0.00    -0.005 C 
HETATM    5  C13 UNL     1      -4.845   8.403  12.649  1.00  0.00     0.021 C 
HETATM    6  C14 UNL     1      -2.734   7.640  13.597  1.00  0.00    -0.000 C 
HETATM    7  C15 UNL     1      -2.391   6.382  13.210  1.00  0.00    -0.060 C 
HETATM    8  C16 UNL     1      -3.429   5.251  13.213  1.00  0.00     0.036 C 
HETATM    9  C17 UNL     1      -4.843   5.571  13.739  1.00  0.00     0.015 C 
HETATM   10  C18 UNL     1      -4.829   6.742  14.728  1.00  0.00    -0.028 C 
HETATM   11  C19 UNL     1      -4.043   6.302  15.997  1.00  0.00     0.016 C 
HETATM   12  C20 UNL     1      -0.942   5.991  12.809  1.00  0.00    -0.014 C 
HETATM   13  C21 UNL     1      -0.289   5.435  14.096  1.00  0.00     0.020 C 
HETATM   14  C22 UNL     1      -0.924   4.901  11.707  1.00  0.00     0.021 C 
HETATM   15  C23 UNL     1       0.469   4.577  11.194  1.00  0.00     0.080 C 
HETATM   16  C24 UNL     1       1.150   5.812  10.659  1.00  0.00     0.135 C 
HETATM   17  O4  UNL     1       1.746   5.761   9.581  1.00  0.00    -0.297 OA
HETATM   18  C25 UNL     1       1.170   7.063  11.550  1.00  0.00     0.018 C 
HETATM   19  C26 UNL     1       1.471   8.280  10.639  1.00  0.00     0.023 C 
HETATM   20  C27 UNL     1       2.347   6.930  12.529  1.00  0.00     0.023 C 
HETATM   21  C28 UNL     1      -0.237   7.259  12.218  1.00  0.00     0.020 C 
HETATM   22  C29 UNL     1      -0.284   8.403  13.235  1.00  0.00     0.090 C 
HETATM   23  C30 UNL     1      -1.709   8.733  13.609  1.00  0.00     0.157 C 
HETATM   24  O5  UNL     1      -2.001   9.881  13.939  1.00  0.00    -0.293 OA
ENDROOT
BRANCH   1  25
HETATM   25  C2  UNL     1      -7.207   6.614  16.100  1.00  0.00    -0.014 C 
HETATM   26  C1  UNL     1      -7.563   5.157  15.783  1.00  0.00     0.010 C 
BRANCH  25  27
HETATM   27  C3  UNL     1      -8.487   7.451  16.316  1.00  0.00     0.007 C 
BRANCH  27  28
HETATM   28  C4  UNL     1      -9.038   8.208  15.097  1.00  0.00     0.035 C 
BRANCH  28  29
HETATM   29  C5  UNL     1     -10.247   7.614  14.347  1.00  0.00     0.154 C 
BRANCH  29  30
HETATM   30  O1  UNL     1     -10.724   6.490  15.093  1.00  0.00    -0.392 OA
HETATM   31  H10 UNL     1     -11.575   6.212  14.701  1.00  0.00     0.210 HD
ENDBRANCH  29  30
BRANCH  29  32
HETATM   32  C6  UNL     1     -11.389   8.610  13.948  1.00  0.00     0.101 C 
HETATM   33  C7  UNL     1     -10.932  10.066  14.080  1.00  0.00     0.051 C 
BRANCH  32  34
HETATM   34  O2  UNL     1     -12.545   8.410  14.779  1.00  0.00    -0.385 OA
HETATM   35  H14 UNL     1     -13.161   9.147  14.635  1.00  0.00     0.210 HD
ENDBRANCH  32  34
BRANCH  32  36
HETATM   36  C8  UNL     1     -11.855   8.346  12.498  1.00  0.00     0.204 C 
BRANCH  36  37
HETATM   37  O3  UNL     1     -11.694   9.530  11.711  1.00  0.00    -0.398 OA
HETATM   38  H17 UNL     1     -10.786   9.849  11.907  1.00  0.00     0.209 HD
ENDBRANCH  36  37
ENDBRANCH  32  36
ENDBRANCH  29  32
ENDBRANCH  28  29
ENDBRANCH  27  28
ENDBRANCH  25  27
ENDBRANCH   1  25
TORSDOF 9
ENDMDL
