MODEL 1
REMARK minimizedAffinity -6.94864845
REMARK CNNscore 0.315673083
REMARK CNNaffinity 6.83006144
REMARK  13 active torsions:
REMARK  status: ('A' for Active; 'I' for Inactive)
REMARK    1  A    between atoms: C3_3  and  O1_4 
REMARK    2  A    between atoms: N1_14  and  O2_16 
REMARK    3  A    between atoms: O2_16  and  C13_17 
REMARK    4  A    between atoms: C13_17  and  C14_18 
REMARK       I    between atoms: C14_18  and  N2_20 
REMARK    5  A    between atoms: N2_20  and  C15_21 
REMARK    6  A    between atoms: C15_21  and  C16_22 
REMARK    7  A    between atoms: C15_21  and  C21_33 
REMARK       I    between atoms: C16_22  and  N3_24 
REMARK    8  A    between atoms: N3_24  and  C17_25 
REMARK    9  A    between atoms: C17_25  and  C18_26 
REMARK   10  A    between atoms: C17_25  and  C20_30 
REMARK   11  A    between atoms: C18_26  and  C19_27 
REMARK   12  A    between atoms: C19_27  and  O6_29 
REMARK   13  A    between atoms: C20_30  and  O8_32 
ROOT
HETATM    1  C1  UNL     1      -3.218   5.369  14.348  1.00  0.00     0.015 C 
HETATM    2  C2  UNL     1      -4.343   5.683  14.059  1.00  0.00    -0.078 C 
HETATM    3  C3  UNL     1      -5.718   6.057  13.682  1.00  0.00     0.128 C 
HETATM    4  C4  UNL     1      -6.380   4.987  12.814  1.00  0.00     0.052 C 
HETATM    5  C5  UNL     1      -7.849   5.398  12.827  1.00  0.00     0.010 C 
HETATM    6  C6  UNL     1      -8.116   5.905  14.258  1.00  0.00     0.002 C 
HETATM    7  C7  UNL     1      -9.109   7.088  14.297  1.00  0.00    -0.004 C 
HETATM    8  C8  UNL     1     -10.498   6.663  13.757  1.00  0.00     0.010 C 
HETATM    9  C9  UNL     1     -11.686   7.259  14.519  1.00  0.00     0.035 C 
HETATM   10  C10 UNL     1     -11.413   8.694  14.871  1.00  0.00    -0.069 C 
HETATM   11  C11 UNL     1     -12.178   9.685  14.376  1.00  0.00     0.030 C 
HETATM   12  C12 UNL     1     -11.842  11.112  14.647  1.00  0.00     0.032 C 
HETATM   13  N1  UNL     1     -12.645  12.122  14.506  1.00  0.00    -0.271 N 
ATOM     14  H1  UNL     1     -12.381  13.090  14.688  1.00  0.00     0.194 HD
HETATM   15  C24 UNL     1     -10.445  11.428  15.158  1.00  0.00     0.060 C 
HETATM   16  C25 UNL     1      -9.507  10.223  15.176  1.00  0.00     0.020 C 
HETATM   17  C26 UNL     1     -10.182   8.947  15.742  1.00  0.00    -0.016 C 
HETATM   18  C27 UNL     1     -10.643   9.169  17.204  1.00  0.00     0.020 C 
HETATM   19  C28 UNL     1      -9.226   7.691  15.719  1.00  0.00     0.002 C 
HETATM   20  C29 UNL     1      -7.860   7.918  16.409  1.00  0.00     0.007 C 
HETATM   21  C30 UNL     1      -6.663   7.625  15.507  1.00  0.00     0.014 C 
HETATM   22  C31 UNL     1      -6.713   6.213  14.883  1.00  0.00     0.003 C 
HETATM   23  C32 UNL     1      -6.448   5.158  15.994  1.00  0.00     0.020 C 
ENDROOT
BRANCH   3  24
HETATM   24  O1  UNL     1      -5.677   7.259  12.906  1.00  0.00    -0.377 OA
HETATM   25  H2  UNL     1      -4.807   7.304  12.471  1.00  0.00     0.211 HD
ENDBRANCH   3  24
BRANCH  13  26
HETATM   26  O2  UNL     1     -13.921  11.724  14.074  1.00  0.00    -0.271 OA
BRANCH  26  27
HETATM   27  C13 UNL     1     -13.983  11.862  12.658  1.00  0.00     0.303 C 
BRANCH  27  28
HETATM   28  C14 UNL     1     -14.072  13.345  12.326  1.00  0.00     0.244 C 
HETATM   29  O3  UNL     1     -14.941  14.067  12.810  1.00  0.00    -0.271 OA
HETATM   30  N2  UNL     1     -13.125  13.784  11.412  1.00  0.00    -0.346 N 
HETATM   31  H16 UNL     1     -12.343  13.163  11.255  1.00  0.00     0.163 HD
BRANCH  30  32
HETATM   32  C15 UNL     1     -12.889  15.211  11.136  1.00  0.00     0.180 C 
BRANCH  32  33
HETATM   33  C16 UNL     1     -13.486  15.506   9.723  1.00  0.00     0.241 C 
HETATM   34  O4  UNL     1     -12.896  15.231   8.676  1.00  0.00    -0.271 OA
HETATM   35  N3  UNL     1     -14.769  16.026   9.702  1.00  0.00    -0.344 N 
HETATM   36  H18 UNL     1     -15.103  16.489  10.532  1.00  0.00     0.163 HD
BRANCH  35  37
HETATM   37  C17 UNL     1     -15.355  16.460   8.424  1.00  0.00     0.192 C 
BRANCH  37  38
HETATM   38  C18 UNL     1     -14.489  17.522   7.752  1.00  0.00     0.146 C 
BRANCH  38  39
HETATM   39  C19 UNL     1     -14.498  18.802   8.537  1.00  0.00     0.141 C 
HETATM   40  O5  UNL     1     -14.816  18.952   9.702  1.00  0.00    -0.650 OA
BRANCH  39  41
HETATM   41  O6  UNL     1     -14.038  19.839   7.813  1.00  0.00    -0.776 OA
HETATM   42  H22 UNL     1     -14.082  20.606   8.422  1.00  0.00     0.167 HD
ENDBRANCH  39  41
ENDBRANCH  38  39
ENDBRANCH  37  38
BRANCH  37  43
HETATM   43  C20 UNL     1     -15.515  15.287   7.448  1.00  0.00     0.164 C 
HETATM   44  O7  UNL     1     -16.266  14.334   7.594  1.00  0.00    -0.648 OA
BRANCH  43  45
HETATM   45  O8  UNL     1     -14.793  15.408   6.316  1.00  0.00    -0.775 OA
HETATM   46  H23 UNL     1     -14.952  14.566   5.837  1.00  0.00     0.167 HD
ENDBRANCH  43  45
ENDBRANCH  37  43
ENDBRANCH  35  37
ENDBRANCH  32  33
BRANCH  32  47
HETATM   47  C21 UNL     1     -11.428  15.674  11.397  1.00  0.00     0.009 C 
HETATM   48  C22 UNL     1     -11.019  15.411  12.856  1.00  0.00     0.012 C 
HETATM   49  C23 UNL     1     -11.185  17.160  11.110  1.00  0.00     0.012 C 
ENDBRANCH  32  47
ENDBRANCH  30  32
ENDBRANCH  27  28
ENDBRANCH  26  27
ENDBRANCH  13  26
TORSDOF 13
ENDMDL
MODEL 2
REMARK minimizedAffinity -8.03861618
REMARK CNNscore 0.181083828
REMARK CNNaffinity 6.11774302
REMARK  13 active torsions:
REMARK  status: ('A' for Active; 'I' for Inactive)
REMARK    1  A    between atoms: C3_3  and  O1_4 
REMARK    2  A    between atoms: N1_14  and  O2_16 
REMARK    3  A    between atoms: O2_16  and  C13_17 
REMARK    4  A    between atoms: C13_17  and  C14_18 
REMARK       I    between atoms: C14_18  and  N2_20 
REMARK    5  A    between atoms: N2_20  and  C15_21 
REMARK    6  A    between atoms: C15_21  and  C16_22 
REMARK    7  A    between atoms: C15_21  and  C21_33 
REMARK       I    between atoms: C16_22  and  N3_24 
REMARK    8  A    between atoms: N3_24  and  C17_25 
REMARK    9  A    between atoms: C17_25  and  C18_26 
REMARK   10  A    between atoms: C17_25  and  C20_30 
REMARK   11  A    between atoms: C18_26  and  C19_27 
REMARK   12  A    between atoms: C19_27  and  O6_29 
REMARK   13  A    between atoms: C20_30  and  O8_32 
ROOT
HETATM    1  C1  UNL     1      -7.858   6.206  14.494  1.00  0.00     0.015 C 
HETATM    2  C2  UNL     1      -6.665   6.310  14.608  1.00  0.00    -0.078 C 
HETATM    3  C3  UNL     1      -5.201   6.412  14.745  1.00  0.00     0.128 C 
HETATM    4  C4  UNL     1      -4.475   5.393  13.866  1.00  0.00     0.052 C 
HETATM    5  C5  UNL     1      -3.031   5.883  13.896  1.00  0.00     0.010 C 
HETATM    6  C6  UNL     1      -3.123   7.422  13.868  1.00  0.00     0.002 C 
HETATM    7  C7  UNL     1      -2.025   8.102  14.716  1.00  0.00    -0.004 C 
HETATM    8  C8  UNL     1      -0.616   7.775  14.162  1.00  0.00     0.010 C 
HETATM    9  C9  UNL     1       0.371   8.946  14.202  1.00  0.00     0.035 C 
HETATM   10  C10 UNL     1       0.217   9.714  15.484  1.00  0.00    -0.069 C 
HETATM   11  C11 UNL     1       1.228   9.790  16.371  1.00  0.00     0.030 C 
HETATM   12  C12 UNL     1       1.036  10.467  17.685  1.00  0.00     0.032 C 
HETATM   13  N1  UNL     1       1.983  10.880  18.472  1.00  0.00    -0.271 N 
ATOM     14  H1  UNL     1       1.820  11.329  19.373  1.00  0.00     0.194 HD
HETATM   15  C24 UNL     1      -0.388  10.728  18.149  1.00  0.00     0.060 C 
HETATM   16  C25 UNL     1      -1.454  10.104  17.250  1.00  0.00     0.020 C 
HETATM   17  C26 UNL     1      -1.165  10.316  15.743  1.00  0.00    -0.016 C 
HETATM   18  C27 UNL     1      -1.124  11.825  15.395  1.00  0.00     0.020 C 
HETATM   19  C28 UNL     1      -2.243   9.632  14.813  1.00  0.00     0.002 C 
HETATM   20  C29 UNL     1      -3.703  10.030  15.134  1.00  0.00     0.007 C 
HETATM   21  C30 UNL     1      -4.614   8.838  15.418  1.00  0.00     0.014 C 
HETATM   22  C31 UNL     1      -4.588   7.780  14.292  1.00  0.00     0.003 C 
HETATM   23  C32 UNL     1      -5.315   8.354  13.042  1.00  0.00     0.020 C 
ENDROOT
BRANCH   3  24
HETATM   24  O1  UNL     1      -4.839   6.125  16.101  1.00  0.00    -0.377 OA
HETATM   25  H2  UNL     1      -5.529   5.550  16.479  1.00  0.00     0.211 HD
ENDBRANCH   3  24
BRANCH  13  26
HETATM   26  O2  UNL     1       3.257  10.635  17.936  1.00  0.00    -0.271 OA
BRANCH  26  27
HETATM   27  C13 UNL     1       3.964  11.869  17.868  1.00  0.00     0.303 C 
BRANCH  27  28
HETATM   28  C14 UNL     1       3.980  12.489  19.258  1.00  0.00     0.244 C 
HETATM   29  O3  UNL     1       3.365  13.523  19.514  1.00  0.00    -0.271 OA
HETATM   30  N2  UNL     1       4.772  11.814  20.177  1.00  0.00    -0.346 N 
HETATM   31  H16 UNL     1       5.046  10.877  19.917  1.00  0.00     0.163 HD
BRANCH  30  32
HETATM   32  C15 UNL     1       4.740  12.107  21.619  1.00  0.00     0.180 C 
BRANCH  32  33
HETATM   33  C16 UNL     1       6.223  12.261  22.085  1.00  0.00     0.241 C 
HETATM   34  O4  UNL     1       6.540  12.433  23.264  1.00  0.00    -0.271 OA
HETATM   35  N3  UNL     1       7.188  12.108  21.104  1.00  0.00    -0.344 N 
HETATM   36  H18 UNL     1       6.910  12.248  20.145  1.00  0.00     0.163 HD
BRANCH  35  37
HETATM   37  C17 UNL     1       8.599  12.370  21.426  1.00  0.00     0.192 C 
BRANCH  37  38
HETATM   38  C18 UNL     1       9.001  13.788  21.030  1.00  0.00     0.146 C 
BRANCH  38  39
HETATM   39  C19 UNL     1       8.441  14.796  21.993  1.00  0.00     0.141 C 
HETATM   40  O5  UNL     1       9.063  15.545  22.724  1.00  0.00    -0.650 OA
BRANCH  39  41
HETATM   41  O6  UNL     1       7.098  14.849  21.939  1.00  0.00    -0.776 OA
HETATM   42  H22 UNL     1       6.850  15.536  22.594  1.00  0.00     0.167 HD
ENDBRANCH  39  41
ENDBRANCH  38  39
ENDBRANCH  37  38
BRANCH  37  43
HETATM   43  C20 UNL     1       8.879  12.195  22.925  1.00  0.00     0.164 C 
HETATM   44  O7  UNL     1       8.982  11.128  23.512  1.00  0.00    -0.648 OA
BRANCH  43  45
HETATM   45  O8  UNL     1       9.091  13.351  23.585  1.00  0.00    -0.775 OA
HETATM   46  H23 UNL     1       9.190  13.079  24.523  1.00  0.00     0.167 HD
ENDBRANCH  43  45
ENDBRANCH  37  43
ENDBRANCH  35  37
ENDBRANCH  32  33
BRANCH  32  47
HETATM   47  C21 UNL     1       3.837  11.146  22.442  1.00  0.00     0.009 C 
HETATM   48  C22 UNL     1       4.684  10.209  23.319  1.00  0.00     0.012 C 
HETATM   49  C23 UNL     1       2.918  10.269  21.584  1.00  0.00     0.012 C 
ENDBRANCH  32  47
ENDBRANCH  30  32
ENDBRANCH  27  28
ENDBRANCH  26  27
ENDBRANCH  13  26
TORSDOF 13
ENDMDL
MODEL 3
REMARK minimizedAffinity -6.76720047
REMARK CNNscore 0.179899737
REMARK CNNaffinity 5.12434196
REMARK  13 active torsions:
REMARK  status: ('A' for Active; 'I' for Inactive)
REMARK    1  A    between atoms: C3_3  and  O1_4 
REMARK    2  A    between atoms: N1_14  and  O2_16 
REMARK    3  A    between atoms: O2_16  and  C13_17 
REMARK    4  A    between atoms: C13_17  and  C14_18 
REMARK       I    between atoms: C14_18  and  N2_20 
REMARK    5  A    between atoms: N2_20  and  C15_21 
REMARK    6  A    between atoms: C15_21  and  C16_22 
REMARK    7  A    between atoms: C15_21  and  C21_33 
REMARK       I    between atoms: C16_22  and  N3_24 
REMARK    8  A    between atoms: N3_24  and  C17_25 
REMARK    9  A    between atoms: C17_25  and  C18_26 
REMARK   10  A    between atoms: C17_25  and  C20_30 
REMARK   11  A    between atoms: C18_26  and  C19_27 
REMARK   12  A    between atoms: C19_27  and  O6_29 
REMARK   13  A    between atoms: C20_30  and  O8_32 
ROOT
HETATM    1  C1  UNL     1      -5.974   5.721  13.750  1.00  0.00     0.015 C 
HETATM    2  C2  UNL     1      -4.901   5.972  14.234  1.00  0.00    -0.078 C 
HETATM    3  C3  UNL     1      -3.582   6.252  14.826  1.00  0.00     0.128 C 
HETATM    4  C4  UNL     1      -2.510   5.290  14.311  1.00  0.00     0.052 C 
HETATM    5  C5  UNL     1      -1.213   5.949  14.766  1.00  0.00     0.010 C 
HETATM    6  C6  UNL     1      -1.441   7.464  14.588  1.00  0.00     0.002 C 
HETATM    7  C7  UNL     1      -0.756   8.305  15.688  1.00  0.00    -0.004 C 
HETATM    8  C8  UNL     1       0.783   8.124  15.645  1.00  0.00     0.010 C 
HETATM    9  C9  UNL     1       1.581   9.406  15.908  1.00  0.00     0.035 C 
HETATM   10  C10 UNL     1       0.939  10.204  17.008  1.00  0.00    -0.069 C 
HETATM   11  C11 UNL     1       1.589  10.437  18.163  1.00  0.00     0.030 C 
HETATM   12  C12 UNL     1       0.910  11.141  19.288  1.00  0.00     0.032 C 
HETATM   13  N1  UNL     1       1.500  11.697  20.303  1.00  0.00    -0.271 N 
ATOM     14  H1  UNL     1       1.006  12.161  21.065  1.00  0.00     0.194 HD
HETATM   15  C24 UNL     1      -0.606  11.250  19.247  1.00  0.00     0.060 C 
HETATM   16  C25 UNL     1      -1.250  10.466  18.105  1.00  0.00     0.020 C 
HETATM   17  C26 UNL     1      -0.504  10.647  16.759  1.00  0.00    -0.016 C 
HETATM   18  C27 UNL     1      -0.499  12.134  16.325  1.00  0.00     0.020 C 
HETATM   19  C28 UNL     1      -1.143   9.801  15.589  1.00  0.00     0.002 C 
HETATM   20  C29 UNL     1      -2.659  10.036  15.389  1.00  0.00     0.007 C 
HETATM   21  C30 UNL     1      -3.490   8.757  15.459  1.00  0.00     0.014 C 
HETATM   22  C31 UNL     1      -2.992   7.663  14.488  1.00  0.00     0.003 C 
HETATM   23  C32 UNL     1      -3.320   8.093  13.029  1.00  0.00     0.020 C 
ENDROOT
BRANCH   3  24
HETATM   24  O1  UNL     1      -3.659   6.068  16.244  1.00  0.00    -0.377 OA
HETATM   25  H2  UNL     1      -4.374   5.432  16.424  1.00  0.00     0.211 HD
ENDBRANCH   3  24
BRANCH  13  26
HETATM   26  O2  UNL     1       2.897  11.583  20.227  1.00  0.00    -0.271 OA
BRANCH  26  27
HETATM   27  C13 UNL     1       3.462  12.888  20.298  1.00  0.00     0.303 C 
BRANCH  27  28
HETATM   28  C14 UNL     1       4.116  13.053  21.662  1.00  0.00     0.244 C 
HETATM   29  O3  UNL     1       3.661  12.512  22.669  1.00  0.00    -0.271 OA
HETATM   30  N2  UNL     1       5.224  13.888  21.670  1.00  0.00    -0.346 N 
HETATM   31  H16 UNL     1       5.626  14.094  20.765  1.00  0.00     0.163 HD
BRANCH  30  32
HETATM   32  C15 UNL     1       6.131  13.995  22.824  1.00  0.00     0.180 C 
BRANCH  32  33
HETATM   33  C16 UNL     1       6.132  15.493  23.265  1.00  0.00     0.241 C 
HETATM   34  O4  UNL     1       5.279  15.971  24.017  1.00  0.00    -0.271 OA
HETATM   35  N3  UNL     1       7.203  16.255  22.830  1.00  0.00    -0.344 N 
HETATM   36  H18 UNL     1       7.710  15.934  22.020  1.00  0.00     0.163 HD
BRANCH  35  37
HETATM   37  C17 UNL     1       7.215  17.703  23.084  1.00  0.00     0.192 C 
BRANCH  37  38
HETATM   38  C18 UNL     1       8.558  18.151  23.657  1.00  0.00     0.146 C 
BRANCH  38  39
HETATM   39  C19 UNL     1       9.549  17.023  23.655  1.00  0.00     0.141 C 
HETATM   40  O5  UNL     1      10.339  16.736  22.775  1.00  0.00    -0.650 OA
BRANCH  39  41
HETATM   41  O6  UNL     1       9.532  16.338  24.813  1.00  0.00    -0.776 OA
HETATM   42  H22 UNL     1      10.215  15.642  24.699  1.00  0.00     0.167 HD
ENDBRANCH  39  41
ENDBRANCH  38  39
ENDBRANCH  37  38
BRANCH  37  43
HETATM   43  C20 UNL     1       6.953  18.505  21.802  1.00  0.00     0.164 C 
HETATM   44  O7  UNL     1       7.759  18.697  20.903  1.00  0.00    -0.648 OA
BRANCH  43  45
HETATM   45  O8  UNL     1       5.687  18.950  21.678  1.00  0.00    -0.775 OA
HETATM   46  H23 UNL     1       5.699  19.486  20.856  1.00  0.00     0.167 HD
ENDBRANCH  43  45
ENDBRANCH  37  43
ENDBRANCH  35  37
ENDBRANCH  32  33
BRANCH  32  47
HETATM   47  C21 UNL     1       7.515  13.321  22.608  1.00  0.00     0.009 C 
HETATM   48  C22 UNL     1       7.843  13.203  21.110  1.00  0.00     0.012 C 
HETATM   49  C23 UNL     1       7.627  11.919  23.216  1.00  0.00     0.012 C 
ENDBRANCH  32  47
ENDBRANCH  30  32
ENDBRANCH  27  28
ENDBRANCH  26  27
ENDBRANCH  13  26
TORSDOF 13
ENDMDL
MODEL 4
REMARK minimizedAffinity -7.85092211
REMARK CNNscore 0.178614363
REMARK CNNaffinity 5.73375559
REMARK  13 active torsions:
REMARK  status: ('A' for Active; 'I' for Inactive)
REMARK    1  A    between atoms: C3_3  and  O1_4 
REMARK    2  A    between atoms: N1_14  and  O2_16 
REMARK    3  A    between atoms: O2_16  and  C13_17 
REMARK    4  A    between atoms: C13_17  and  C14_18 
REMARK       I    between atoms: C14_18  and  N2_20 
REMARK    5  A    between atoms: N2_20  and  C15_21 
REMARK    6  A    between atoms: C15_21  and  C16_22 
REMARK    7  A    between atoms: C15_21  and  C21_33 
REMARK       I    between atoms: C16_22  and  N3_24 
REMARK    8  A    between atoms: N3_24  and  C17_25 
REMARK    9  A    between atoms: C17_25  and  C18_26 
REMARK   10  A    between atoms: C17_25  and  C20_30 
REMARK   11  A    between atoms: C18_26  and  C19_27 
REMARK   12  A    between atoms: C19_27  and  O6_29 
REMARK   13  A    between atoms: C20_30  and  O8_32 
ROOT
HETATM    1  C1  UNL     1      -7.189   6.046  13.955  1.00  0.00     0.015 C 
HETATM    2  C2  UNL     1      -6.064   6.251  14.328  1.00  0.00    -0.078 C 
HETATM    3  C3  UNL     1      -4.681   6.476  14.784  1.00  0.00     0.128 C 
HETATM    4  C4  UNL     1      -3.697   5.520  14.109  1.00  0.00     0.052 C 
HETATM    5  C5  UNL     1      -2.341   6.130  14.449  1.00  0.00     0.010 C 
HETATM    6  C6  UNL     1      -2.550   7.656  14.369  1.00  0.00     0.002 C 
HETATM    7  C7  UNL     1      -1.727   8.428  15.424  1.00  0.00    -0.004 C 
HETATM    8  C8  UNL     1      -0.208   8.219  15.203  1.00  0.00     0.010 C 
HETATM    9  C9  UNL     1       0.646   9.470  15.437  1.00  0.00     0.035 C 
HETATM   10  C10 UNL     1       0.148  10.225  16.637  1.00  0.00    -0.069 C 
HETATM   11  C11 UNL     1       0.926  10.388  17.724  1.00  0.00     0.030 C 
HETATM   12  C12 UNL     1       0.392  11.048  18.949  1.00  0.00     0.032 C 
HETATM   13  N1  UNL     1       1.103  11.541  19.917  1.00  0.00    -0.271 N 
ATOM     14  H1  UNL     1       0.707  11.977  20.750  1.00  0.00     0.194 HD
HETATM   15  C24 UNL     1      -1.116  11.189  19.080  1.00  0.00     0.060 C 
HETATM   16  C25 UNL     1      -1.900  10.476  17.981  1.00  0.00     0.020 C 
HETATM   17  C26 UNL     1      -1.301  10.708  16.570  1.00  0.00    -0.016 C 
HETATM   18  C27 UNL     1      -1.307  12.215  16.210  1.00  0.00     0.020 C 
HETATM   19  C28 UNL     1      -2.086   9.934  15.440  1.00  0.00     0.002 C 
HETATM   20  C29 UNL     1      -3.608  10.208  15.420  1.00  0.00     0.007 C 
HETATM   21  C30 UNL     1      -4.459   8.944  15.520  1.00  0.00     0.014 C 
HETATM   22  C31 UNL     1      -4.097   7.891  14.450  1.00  0.00     0.003 C 
HETATM   23  C32 UNL     1      -4.572   8.398  13.058  1.00  0.00     0.020 C 
ENDROOT
BRANCH   3  24
HETATM   24  O1  UNL     1      -4.608   6.224  16.192  1.00  0.00    -0.377 OA
HETATM   25  H2  UNL     1      -5.315   5.594  16.419  1.00  0.00     0.211 HD
ENDBRANCH   3  24
BRANCH  13  26
HETATM   26  O2  UNL     1       2.480  11.403  19.682  1.00  0.00    -0.271 OA
BRANCH  26  27
HETATM   27  C13 UNL     1       3.030  10.564  20.693  1.00  0.00     0.303 C 
BRANCH  27  28
HETATM   28  C14 UNL     1       3.884  11.422  21.615  1.00  0.00     0.244 C 
HETATM   29  O3  UNL     1       4.070  11.122  22.793  1.00  0.00    -0.271 OA
HETATM   30  N2  UNL     1       4.387  12.573  21.024  1.00  0.00    -0.346 N 
HETATM   31  H16 UNL     1       4.351  12.600  20.014  1.00  0.00     0.163 HD
BRANCH  30  32
HETATM   32  C15 UNL     1       5.417  13.409  21.662  1.00  0.00     0.180 C 
BRANCH  32  33
HETATM   33  C16 UNL     1       6.722  12.554  21.726  1.00  0.00     0.241 C 
HETATM   34  O4  UNL     1       7.004  11.831  22.684  1.00  0.00    -0.271 OA
HETATM   35  N3  UNL     1       7.524  12.584  20.597  1.00  0.00    -0.344 N 
HETATM   36  H18 UNL     1       7.426  13.367  19.971  1.00  0.00     0.163 HD
BRANCH  35  37
HETATM   37  C17 UNL     1       8.835  11.918  20.620  1.00  0.00     0.192 C 
BRANCH  37  38
HETATM   38  C18 UNL     1       9.274  11.514  19.215  1.00  0.00     0.146 C 
BRANCH  38  39
HETATM   39  C19 UNL     1       8.285  10.572  18.591  1.00  0.00     0.141 C 
HETATM   40  O5  UNL     1       7.095  10.484  18.831  1.00  0.00    -0.650 OA
BRANCH  39  41
HETATM   41  O6  UNL     1       8.849   9.813  17.633  1.00  0.00    -0.776 OA
HETATM   42  H22 UNL     1       8.117   9.252  17.299  1.00  0.00     0.167 HD
ENDBRANCH  39  41
ENDBRANCH  38  39
ENDBRANCH  37  38
BRANCH  37  43
HETATM   43  C20 UNL     1       9.920  12.827  21.215  1.00  0.00     0.164 C 
HETATM   44  O7  UNL     1       9.763  13.621  22.131  1.00  0.00    -0.648 OA
BRANCH  43  45
HETATM   45  O8  UNL     1      11.148  12.636  20.692  1.00  0.00    -0.775 OA
HETATM   46  H23 UNL     1      11.702  13.322  21.123  1.00  0.00     0.167 HD
ENDBRANCH  43  45
ENDBRANCH  37  43
ENDBRANCH  35  37
ENDBRANCH  32  33
BRANCH  32  47
HETATM   47  C21 UNL     1       4.953  14.090  22.981  1.00  0.00     0.009 C 
HETATM   48  C22 UNL     1       3.491  14.556  22.876  1.00  0.00     0.012 C 
HETATM   49  C23 UNL     1       5.796  15.304  23.384  1.00  0.00     0.012 C 
ENDBRANCH  32  47
ENDBRANCH  30  32
ENDBRANCH  27  28
ENDBRANCH  26  27
ENDBRANCH  13  26
TORSDOF 13
ENDMDL
MODEL 5
REMARK minimizedAffinity -7.0644207
REMARK CNNscore 0.175595179
REMARK CNNaffinity 5.94506073
REMARK  13 active torsions:
REMARK  status: ('A' for Active; 'I' for Inactive)
REMARK    1  A    between atoms: C3_3  and  O1_4 
REMARK    2  A    between atoms: N1_14  and  O2_16 
REMARK    3  A    between atoms: O2_16  and  C13_17 
REMARK    4  A    between atoms: C13_17  and  C14_18 
REMARK       I    between atoms: C14_18  and  N2_20 
REMARK    5  A    between atoms: N2_20  and  C15_21 
REMARK    6  A    between atoms: C15_21  and  C16_22 
REMARK    7  A    between atoms: C15_21  and  C21_33 
REMARK       I    between atoms: C16_22  and  N3_24 
REMARK    8  A    between atoms: N3_24  and  C17_25 
REMARK    9  A    between atoms: C17_25  and  C18_26 
REMARK   10  A    between atoms: C17_25  and  C20_30 
REMARK   11  A    between atoms: C18_26  and  C19_27 
REMARK   12  A    between atoms: C19_27  and  O6_29 
REMARK   13  A    between atoms: C20_30  and  O8_32 
ROOT
HETATM    1  C1  UNL     1      -6.085   5.373  13.966  1.00  0.00     0.015 C 
HETATM    2  C2  UNL     1      -5.056   5.876  14.335  1.00  0.00    -0.078 C 
HETATM    3  C3  UNL     1      -3.784   6.469  14.785  1.00  0.00     0.128 C 
HETATM    4  C4  UNL     1      -2.580   5.813  14.108  1.00  0.00     0.052 C 
HETATM    5  C5  UNL     1      -1.439   6.768  14.440  1.00  0.00     0.010 C 
HETATM    6  C6  UNL     1      -2.053   8.180  14.357  1.00  0.00     0.002 C 
HETATM    7  C7  UNL     1      -1.467   9.150  15.408  1.00  0.00    -0.004 C 
HETATM    8  C8  UNL     1       0.051   9.359  15.181  1.00  0.00     0.010 C 
HETATM    9  C9  UNL     1       0.535  10.795  15.409  1.00  0.00     0.035 C 
HETATM   10  C10 UNL     1      -0.145  11.391  16.609  1.00  0.00    -0.069 C 
HETATM   11  C11 UNL     1       0.564  11.762  17.692  1.00  0.00     0.030 C 
HETATM   12  C12 UNL     1      -0.125  12.258  18.917  1.00  0.00     0.032 C 
HETATM   13  N1  UNL     1       0.429  12.929  19.882  1.00  0.00    -0.271 N 
ATOM     14  H1  UNL     1      -0.068  13.244  20.715  1.00  0.00     0.194 HD
HETATM   15  C24 UNL     1      -1.615  11.986  19.054  1.00  0.00     0.060 C 
HETATM   16  C25 UNL     1      -2.180  11.083  17.960  1.00  0.00     0.020 C 
HETATM   17  C26 UNL     1      -1.671  11.464  16.546  1.00  0.00    -0.016 C 
HETATM   18  C27 UNL     1      -2.085  12.911  16.182  1.00  0.00     0.020 C 
HETATM   19  C28 UNL     1      -2.220  10.503  15.421  1.00  0.00     0.002 C 
HETATM   20  C29 UNL     1      -3.760  10.354  15.407  1.00  0.00     0.007 C 
HETATM   21  C30 UNL     1      -4.236   8.907  15.514  1.00  0.00     0.014 C 
HETATM   22  C31 UNL     1      -3.606   7.987  14.444  1.00  0.00     0.003 C 
HETATM   23  C32 UNL     1      -4.205   8.343  13.053  1.00  0.00     0.020 C 
ENDROOT
BRANCH   3  24
HETATM   24  O1  UNL     1      -3.641   6.251  16.192  1.00  0.00    -0.377 OA
HETATM   25  H2  UNL     1      -4.150   5.453  16.424  1.00  0.00     0.211 HD
ENDBRANCH   3  24
BRANCH  13  26
HETATM   26  O2  UNL     1       1.791  13.168  19.642  1.00  0.00    -0.271 OA
BRANCH  26  27
HETATM   27  C13 UNL     1       2.556  12.278  20.448  1.00  0.00     0.303 C 
BRANCH  27  28
HETATM   28  C14 UNL     1       3.599  11.608  19.564  1.00  0.00     0.244 C 
HETATM   29  O3  UNL     1       3.527  10.418  19.263  1.00  0.00    -0.271 OA
HETATM   30  N2  UNL     1       4.639  12.441  19.175  1.00  0.00    -0.346 N 
HETATM   31  H16 UNL     1       4.480  13.431  19.298  1.00  0.00     0.163 HD
BRANCH  30  32
HETATM   32  C15 UNL     1       5.615  12.062  18.140  1.00  0.00     0.180 C 
BRANCH  32  33
HETATM   33  C16 UNL     1       6.857  11.472  18.880  1.00  0.00     0.241 C 
HETATM   34  O4  UNL     1       7.240  10.310  18.724  1.00  0.00    -0.271 OA
HETATM   35  N3  UNL     1       7.572  12.357  19.669  1.00  0.00    -0.344 N 
HETATM   36  H18 UNL     1       7.099  13.186  19.993  1.00  0.00     0.163 HD
BRANCH  35  37
HETATM   37  C17 UNL     1       8.673  11.857  20.506  1.00  0.00     0.192 C 
BRANCH  37  38
HETATM   38  C18 UNL     1      10.027  12.299  19.957  1.00  0.00     0.146 C 
BRANCH  38  39
HETATM   39  C19 UNL     1      10.762  11.144  19.340  1.00  0.00     0.141 C 
HETATM   40  O5  UNL     1      11.785  10.620  19.740  1.00  0.00    -0.650 OA
BRANCH  39  41
HETATM   41  O6  UNL     1      10.122  10.661  18.259  1.00  0.00    -0.776 OA
HETATM   42  H22 UNL     1      10.682   9.917  17.951  1.00  0.00     0.167 HD
ENDBRANCH  39  41
ENDBRANCH  38  39
ENDBRANCH  37  38
BRANCH  37  43
HETATM   43  C20 UNL     1       8.558  12.360  21.952  1.00  0.00     0.164 C 
HETATM   44  O7  UNL     1       7.569  12.265  22.664  1.00  0.00    -0.648 OA
BRANCH  43  45
HETATM   45  O8  UNL     1       9.700  12.875  22.450  1.00  0.00    -0.775 OA
HETATM   46  H23 UNL     1       9.449  13.202  23.340  1.00  0.00     0.167 HD
ENDBRANCH  43  45
ENDBRANCH  37  43
ENDBRANCH  35  37
ENDBRANCH  32  33
BRANCH  32  47
HETATM   47  C21 UNL     1       5.882  13.171  17.084  1.00  0.00     0.009 C 
HETATM   48  C22 UNL     1       4.634  13.422  16.220  1.00  0.00     0.012 C 
HETATM   49  C23 UNL     1       7.044  12.859  16.134  1.00  0.00     0.012 C 
ENDBRANCH  32  47
ENDBRANCH  30  32
ENDBRANCH  27  28
ENDBRANCH  26  27
ENDBRANCH  13  26
TORSDOF 13
ENDMDL
MODEL 6
REMARK minimizedAffinity -8.10539532
REMARK CNNscore 0.167115957
REMARK CNNaffinity 5.38017988
REMARK  13 active torsions:
REMARK  status: ('A' for Active; 'I' for Inactive)
REMARK    1  A    between atoms: C3_3  and  O1_4 
REMARK    2  A    between atoms: N1_14  and  O2_16 
REMARK    3  A    between atoms: O2_16  and  C13_17 
REMARK    4  A    between atoms: C13_17  and  C14_18 
REMARK       I    between atoms: C14_18  and  N2_20 
REMARK    5  A    between atoms: N2_20  and  C15_21 
REMARK    6  A    between atoms: C15_21  and  C16_22 
REMARK    7  A    between atoms: C15_21  and  C21_33 
REMARK       I    between atoms: C16_22  and  N3_24 
REMARK    8  A    between atoms: N3_24  and  C17_25 
REMARK    9  A    between atoms: C17_25  and  C18_26 
REMARK   10  A    between atoms: C17_25  and  C20_30 
REMARK   11  A    between atoms: C18_26  and  C19_27 
REMARK   12  A    between atoms: C19_27  and  O6_29 
REMARK   13  A    between atoms: C20_30  and  O8_32 
ROOT
HETATM    1  C1  UNL     1      -6.444   6.230  13.835  1.00  0.00     0.015 C 
HETATM    2  C2  UNL     1      -5.314   6.349  14.231  1.00  0.00    -0.078 C 
HETATM    3  C3  UNL     1      -3.928   6.468  14.717  1.00  0.00     0.128 C 
HETATM    4  C4  UNL     1      -3.034   5.359  14.161  1.00  0.00     0.052 C 
HETATM    5  C5  UNL     1      -1.630   5.852  14.498  1.00  0.00     0.010 C 
HETATM    6  C6  UNL     1      -1.672   7.377  14.281  1.00  0.00     0.002 C 
HETATM    7  C7  UNL     1      -0.801   8.150  15.297  1.00  0.00    -0.004 C 
HETATM    8  C8  UNL     1       0.692   7.765  15.151  1.00  0.00     0.010 C 
HETATM    9  C9  UNL     1       1.669   8.936  15.309  1.00  0.00     0.035 C 
HETATM   10  C10 UNL     1       1.222   9.841  16.422  1.00  0.00    -0.069 C 
HETATM   11  C11 UNL     1       1.983  10.017  17.518  1.00  0.00     0.030 C 
HETATM   12  C12 UNL     1       1.489  10.835  18.662  1.00  0.00     0.032 C 
HETATM   13  N1  UNL     1       2.221  11.335  19.611  1.00  0.00    -0.271 N 
ATOM     14  H1  UNL     1       1.852  11.881  20.389  1.00  0.00     0.194 HD
HETATM   15  C24 UNL     1       0.001  11.144  18.726  1.00  0.00     0.060 C 
HETATM   16  C25 UNL     1      -0.824  10.422  17.663  1.00  0.00     0.020 C 
HETATM   17  C26 UNL     1      -0.165  10.465  16.261  1.00  0.00    -0.016 C 
HETATM   18  C27 UNL     1       0.000  11.926  15.774  1.00  0.00     0.020 C 
HETATM   19  C28 UNL     1      -0.997   9.681  15.172  1.00  0.00     0.002 C 
HETATM   20  C29 UNL     1      -2.480  10.109  15.073  1.00  0.00     0.007 C 
HETATM   21  C30 UNL     1      -3.463   8.954  15.249  1.00  0.00     0.014 C 
HETATM   22  C31 UNL     1      -3.187   7.779  14.286  1.00  0.00     0.003 C 
HETATM   23  C32 UNL     1      -3.566   8.208  12.839  1.00  0.00     0.020 C 
ENDROOT
BRANCH   3  24
HETATM   24  O1  UNL     1      -3.921   6.334  16.142  1.00  0.00    -0.377 OA
HETATM   25  H2  UNL     1      -4.697   5.804  16.397  1.00  0.00     0.211 HD
ENDBRANCH   3  24
BRANCH  13  26
HETATM   26  O2  UNL     1       3.582  11.034  19.439  1.00  0.00    -0.271 OA
BRANCH  26  27
HETATM   27  C13 UNL     1       4.291  12.250  19.223  1.00  0.00     0.303 C 
BRANCH  27  28
HETATM   28  C14 UNL     1       5.609  12.177  19.980  1.00  0.00     0.244 C 
HETATM   29  O3  UNL     1       6.351  11.199  19.898  1.00  0.00    -0.271 OA
HETATM   30  N2  UNL     1       5.868  13.276  20.787  1.00  0.00    -0.346 N 
HETATM   31  H16 UNL     1       5.306  14.096  20.607  1.00  0.00     0.163 HD
BRANCH  30  32
HETATM   32  C15 UNL     1       7.179  13.510  21.413  1.00  0.00     0.180 C 
BRANCH  32  33
HETATM   33  C16 UNL     1       8.264  13.084  20.373  1.00  0.00     0.241 C 
HETATM   34  O4  UNL     1       8.593  13.794  19.420  1.00  0.00    -0.271 OA
HETATM   35  N3  UNL     1       8.908  11.885  20.623  1.00  0.00    -0.344 N 
HETATM   36  H18 UNL     1       8.445  11.217  21.219  1.00  0.00     0.163 HD
BRANCH  35  37
HETATM   37  C17 UNL     1       9.845  11.342  19.627  1.00  0.00     0.192 C 
BRANCH  37  38
HETATM   38  C18 UNL     1       9.601  11.954  18.250  1.00  0.00     0.146 C 
BRANCH  38  39
HETATM   39  C19 UNL     1      10.704  11.594  17.297  1.00  0.00     0.141 C 
HETATM   40  O5  UNL     1      11.560  12.332  16.844  1.00  0.00    -0.650 OA
BRANCH  39  41
HETATM   41  O6  UNL     1      10.708  10.280  17.006  1.00  0.00    -0.776 OA
HETATM   42  H22 UNL     1      11.464  10.164  16.392  1.00  0.00     0.167 HD
ENDBRANCH  39  41
ENDBRANCH  38  39
ENDBRANCH  37  38
BRANCH  37  43
HETATM   43  C20 UNL     1      11.305  11.611  20.017  1.00  0.00     0.164 C 
HETATM   44  O7  UNL     1      11.740  12.658  20.474  1.00  0.00    -0.648 OA
BRANCH  43  45
HETATM   45  O8  UNL     1      12.116  10.542  19.892  1.00  0.00    -0.775 OA
HETATM   46  H23 UNL     1      13.007  10.888  20.114  1.00  0.00     0.167 HD
ENDBRANCH  43  45
ENDBRANCH  37  43
ENDBRANCH  35  37
ENDBRANCH  32  33
BRANCH  32  47
HETATM   47  C21 UNL     1       7.310  12.928  22.849  1.00  0.00     0.009 C 
HETATM   48  C22 UNL     1       8.741  12.431  23.113  1.00  0.00     0.012 C 
HETATM   49  C23 UNL     1       6.357  11.763  23.136  1.00  0.00     0.012 C 
ENDBRANCH  32  47
ENDBRANCH  30  32
ENDBRANCH  27  28
ENDBRANCH  26  27
ENDBRANCH  13  26
TORSDOF 13
ENDMDL
MODEL 7
REMARK minimizedAffinity -8.2810688
REMARK CNNscore 0.166109517
REMARK CNNaffinity 6.76250792
REMARK  13 active torsions:
REMARK  status: ('A' for Active; 'I' for Inactive)
REMARK    1  A    between atoms: C3_3  and  O1_4 
REMARK    2  A    between atoms: N1_14  and  O2_16 
REMARK    3  A    between atoms: O2_16  and  C13_17 
REMARK    4  A    between atoms: C13_17  and  C14_18 
REMARK       I    between atoms: C14_18  and  N2_20 
REMARK    5  A    between atoms: N2_20  and  C15_21 
REMARK    6  A    between atoms: C15_21  and  C16_22 
REMARK    7  A    between atoms: C15_21  and  C21_33 
REMARK       I    between atoms: C16_22  and  N3_24 
REMARK    8  A    between atoms: N3_24  and  C17_25 
REMARK    9  A    between atoms: C17_25  and  C18_26 
REMARK   10  A    between atoms: C17_25  and  C20_30 
REMARK   11  A    between atoms: C18_26  and  C19_27 
REMARK   12  A    between atoms: C19_27  and  O6_29 
REMARK   13  A    between atoms: C20_30  and  O8_32 
ROOT
HETATM    1  C1  UNL     1     -10.055   7.551  14.902  1.00  0.00     0.015 C 
HETATM    2  C2  UNL     1      -8.914   7.263  15.155  1.00  0.00    -0.078 C 
HETATM    3  C3  UNL     1      -7.527   6.896  15.486  1.00  0.00     0.128 C 
HETATM    4  C4  UNL     1      -7.424   5.456  15.992  1.00  0.00     0.052 C 
HETATM    5  C5  UNL     1      -5.924   5.184  15.948  1.00  0.00     0.010 C 
HETATM    6  C6  UNL     1      -5.420   5.890  14.673  1.00  0.00     0.002 C 
HETATM    7  C7  UNL     1      -4.009   6.495  14.843  1.00  0.00    -0.004 C 
HETATM    8  C8  UNL     1      -2.963   5.389  15.128  1.00  0.00     0.010 C 
HETATM    9  C9  UNL     1      -1.612   5.597  14.436  1.00  0.00     0.035 C 
HETATM   10  C10 UNL     1      -1.219   7.047  14.484  1.00  0.00    -0.069 C 
HETATM   11  C11 UNL     1      -0.113   7.442  15.141  1.00  0.00     0.030 C 
HETATM   12  C12 UNL     1       0.217   8.890  15.272  1.00  0.00     0.032 C 
HETATM   13  N1  UNL     1       1.378   9.379  15.589  1.00  0.00    -0.271 N 
ATOM     14  H1  UNL     1       1.569  10.376  15.683  1.00  0.00     0.194 HD
HETATM   15  C24 UNL     1      -0.885   9.898  14.987  1.00  0.00     0.060 C 
HETATM   16  C25 UNL     1      -2.254   9.265  14.752  1.00  0.00     0.020 C 
HETATM   17  C26 UNL     1      -2.190   8.026  13.822  1.00  0.00    -0.016 C 
HETATM   18  C27 UNL     1      -1.636   8.410  12.428  1.00  0.00     0.020 C 
HETATM   19  C28 UNL     1      -3.600   7.346  13.615  1.00  0.00     0.002 C 
HETATM   20  C29 UNL     1      -4.708   8.311  13.134  1.00  0.00     0.007 C 
HETATM   21  C30 UNL     1      -5.937   8.331  14.038  1.00  0.00     0.014 C 
HETATM   22  C31 UNL     1      -6.529   6.925  14.278  1.00  0.00     0.003 C 
HETATM   23  C32 UNL     1      -7.197   6.425  12.965  1.00  0.00     0.020 C 
ENDROOT
BRANCH   3  24
HETATM   24  O1  UNL     1      -7.059   7.742  16.542  1.00  0.00    -0.377 OA
HETATM   25  H2  UNL     1      -7.834   8.039  17.052  1.00  0.00     0.211 HD
ENDBRANCH   3  24
BRANCH  13  26
HETATM   26  O2  UNL     1       2.337   8.373  15.787  1.00  0.00    -0.271 OA
BRANCH  26  27
HETATM   27  C13 UNL     1       3.631   8.943  15.621  1.00  0.00     0.303 C 
BRANCH  27  28
HETATM   28  C14 UNL     1       4.046   8.773  14.166  1.00  0.00     0.244 C 
HETATM   29  O3  UNL     1       3.669   9.549  13.289  1.00  0.00    -0.271 OA
HETATM   30  N2  UNL     1       4.837   7.660  13.922  1.00  0.00    -0.346 N 
HETATM   31  H16 UNL     1       5.255   7.230  14.736  1.00  0.00     0.163 HD
BRANCH  30  32
HETATM   32  C15 UNL     1       5.533   7.444  12.643  1.00  0.00     0.180 C 
BRANCH  32  33
HETATM   33  C16 UNL     1       6.896   8.201  12.733  1.00  0.00     0.241 C 
HETATM   34  O4  UNL     1       7.556   8.512  11.739  1.00  0.00    -0.271 OA
HETATM   35  N3  UNL     1       7.295   8.586  14.001  1.00  0.00    -0.344 N 
HETATM   36  H18 UNL     1       6.903   8.093  14.788  1.00  0.00     0.163 HD
BRANCH  35  37
HETATM   37  C17 UNL     1       8.626   9.183  14.194  1.00  0.00     0.192 C 
BRANCH  37  38
HETATM   38  C18 UNL     1       8.674  10.027  15.465  1.00  0.00     0.146 C 
BRANCH  38  39
HETATM   39  C19 UNL     1       8.181   9.246  16.649  1.00  0.00     0.141 C 
HETATM   40  O5  UNL     1       7.176   8.562  16.718  1.00  0.00    -0.650 OA
BRANCH  39  41
HETATM   41  O6  UNL     1       9.030   9.323  17.691  1.00  0.00    -0.776 OA
HETATM   42  H22 UNL     1       8.613   8.778  18.391  1.00  0.00     0.167 HD
ENDBRANCH  39  41
ENDBRANCH  38  39
ENDBRANCH  37  38
BRANCH  37  43
HETATM   43  C20 UNL     1       9.718   8.109  14.294  1.00  0.00     0.164 C 
HETATM   44  O7  UNL     1      10.306   7.598  13.351  1.00  0.00    -0.648 OA
BRANCH  43  45
HETATM   45  O8  UNL     1      10.069   7.794  15.557  1.00  0.00    -0.775 OA
HETATM   46  H23 UNL     1      10.717   7.064  15.452  1.00  0.00     0.167 HD
ENDBRANCH  43  45
ENDBRANCH  37  43
ENDBRANCH  35  37
ENDBRANCH  32  33
BRANCH  32  47
HETATM   47  C21 UNL     1       4.654   7.717  11.389  1.00  0.00     0.009 C 
HETATM   48  C22 UNL     1       4.434   6.427  10.580  1.00  0.00     0.012 C 
HETATM   49  C23 UNL     1       5.238   8.765  10.436  1.00  0.00     0.012 C 
ENDBRANCH  32  47
ENDBRANCH  30  32
ENDBRANCH  27  28
ENDBRANCH  26  27
ENDBRANCH  13  26
TORSDOF 13
ENDMDL
MODEL 8
REMARK minimizedAffinity -8.21605396
REMARK CNNscore 0.159390971
REMARK CNNaffinity 5.24209595
REMARK  13 active torsions:
REMARK  status: ('A' for Active; 'I' for Inactive)
REMARK    1  A    between atoms: C3_3  and  O1_4 
REMARK    2  A    between atoms: N1_14  and  O2_16 
REMARK    3  A    between atoms: O2_16  and  C13_17 
REMARK    4  A    between atoms: C13_17  and  C14_18 
REMARK       I    between atoms: C14_18  and  N2_20 
REMARK    5  A    between atoms: N2_20  and  C15_21 
REMARK    6  A    between atoms: C15_21  and  C16_22 
REMARK    7  A    between atoms: C15_21  and  C21_33 
REMARK       I    between atoms: C16_22  and  N3_24 
REMARK    8  A    between atoms: N3_24  and  C17_25 
REMARK    9  A    between atoms: C17_25  and  C18_26 
REMARK   10  A    between atoms: C17_25  and  C20_30 
REMARK   11  A    between atoms: C18_26  and  C19_27 
REMARK   12  A    between atoms: C19_27  and  O6_29 
REMARK   13  A    between atoms: C20_30  and  O8_32 
ROOT
HETATM    1  C1  UNL     1      -5.920   6.075  13.868  1.00  0.00     0.015 C 
HETATM    2  C2  UNL     1      -4.833   6.273  14.345  1.00  0.00    -0.078 C 
HETATM    3  C3  UNL     1      -3.497   6.489  14.927  1.00  0.00     0.128 C 
HETATM    4  C4  UNL     1      -2.460   5.530  14.342  1.00  0.00     0.052 C 
HETATM    5  C5  UNL     1      -1.138   6.132  14.807  1.00  0.00     0.010 C 
HETATM    6  C6  UNL     1      -1.330   7.659  14.713  1.00  0.00     0.002 C 
HETATM    7  C7  UNL     1      -0.605   8.424  15.843  1.00  0.00    -0.004 C 
HETATM    8  C8  UNL     1       0.927   8.208  15.762  1.00  0.00     0.010 C 
HETATM    9  C9  UNL     1       1.763   9.453  16.078  1.00  0.00     0.035 C 
HETATM   10  C10 UNL     1       1.160  10.207  17.230  1.00  0.00    -0.069 C 
HETATM   11  C11 UNL     1       1.835  10.363  18.384  1.00  0.00     0.030 C 
HETATM   12  C12 UNL     1       1.194  11.023  19.556  1.00  0.00     0.032 C 
HETATM   13  N1  UNL     1       1.815  11.509  20.588  1.00  0.00    -0.271 N 
ATOM     14  H1  UNL     1       1.346  11.945  21.382  1.00  0.00     0.194 HD
HETATM   15  C24 UNL     1      -0.319  11.171  19.548  1.00  0.00     0.060 C 
HETATM   16  C25 UNL     1      -1.002  10.465  18.379  1.00  0.00     0.020 C 
HETATM   17  C26 UNL     1      -0.275  10.699  17.031  1.00  0.00    -0.016 C 
HETATM   18  C27 UNL     1      -0.239  12.206  16.676  1.00  0.00     0.020 C 
HETATM   19  C28 UNL     1      -0.956   9.932  15.830  1.00  0.00     0.002 C 
HETATM   20  C29 UNL     1      -2.468  10.214  15.671  1.00  0.00     0.007 C 
HETATM   21  C30 UNL     1      -3.331   8.954  15.688  1.00  0.00     0.014 C 
HETATM   22  C31 UNL     1      -2.877   7.902  14.652  1.00  0.00     0.003 C 
HETATM   23  C32 UNL     1      -3.219   8.416  13.225  1.00  0.00     0.020 C 
ENDROOT
BRANCH   3  24
HETATM   24  O1  UNL     1      -3.555   6.233  16.334  1.00  0.00    -0.377 OA
HETATM   25  H2  UNL     1      -4.283   5.606  16.494  1.00  0.00     0.211 HD
ENDBRANCH   3  24
BRANCH  13  26
HETATM   26  O2  UNL     1       3.207  11.365  20.480  1.00  0.00    -0.271 OA
BRANCH  26  27
HETATM   27  C13 UNL     1       3.785  11.573  21.765  1.00  0.00     0.303 C 
BRANCH  27  28
HETATM   28  C14 UNL     1       4.753  12.743  21.671  1.00  0.00     0.244 C 
HETATM   29  O3  UNL     1       4.469  13.858  22.106  1.00  0.00    -0.271 OA
HETATM   30  N2  UNL     1       5.945  12.449  21.023  1.00  0.00    -0.346 N 
HETATM   31  H16 UNL     1       6.152  11.467  20.907  1.00  0.00     0.163 HD
BRANCH  30  32
HETATM   32  C15 UNL     1       7.100  13.361  21.032  1.00  0.00     0.180 C 
BRANCH  32  33
HETATM   33  C16 UNL     1       7.854  13.155  19.680  1.00  0.00     0.241 C 
HETATM   34  O4  UNL     1       7.926  14.028  18.813  1.00  0.00    -0.271 OA
HETATM   35  N3  UNL     1       8.520  11.950  19.533  1.00  0.00    -0.344 N 
HETATM   36  H18 UNL     1       8.223  11.175  20.105  1.00  0.00     0.163 HD
BRANCH  35  37
HETATM   37  C17 UNL     1       9.142  11.616  18.243  1.00  0.00     0.192 C 
BRANCH  37  38
HETATM   38  C18 UNL     1      10.658  11.784  18.301  1.00  0.00     0.146 C 
BRANCH  38  39
HETATM   39  C19 UNL     1      11.210  11.258  19.594  1.00  0.00     0.141 C 
HETATM   40  O5  UNL     1      10.948  11.640  20.720  1.00  0.00    -0.650 OA
BRANCH  39  41
HETATM   41  O6  UNL     1      12.037  10.214  19.400  1.00  0.00    -0.776 OA
HETATM   42  H22 UNL     1      12.324   9.954  20.301  1.00  0.00     0.167 HD
ENDBRANCH  39  41
ENDBRANCH  38  39
ENDBRANCH  37  38
BRANCH  37  43
HETATM   43  C20 UNL     1       8.838  10.171  17.826  1.00  0.00     0.164 C 
HETATM   44  O7  UNL     1       9.668   9.325  17.524  1.00  0.00    -0.648 OA
BRANCH  43  45
HETATM   45  O8  UNL     1       7.533   9.841  17.886  1.00  0.00    -0.775 OA
HETATM   46  H23 UNL     1       7.499   8.925  17.535  1.00  0.00     0.167 HD
ENDBRANCH  43  45
ENDBRANCH  37  43
ENDBRANCH  35  37
ENDBRANCH  32  33
BRANCH  32  47
HETATM   47  C21 UNL     1       7.950  13.296  22.332  1.00  0.00     0.009 C 
HETATM   48  C22 UNL     1       7.657  12.006  23.118  1.00  0.00     0.012 C 
HETATM   49  C23 UNL     1       7.725  14.477  23.283  1.00  0.00     0.012 C 
ENDBRANCH  32  47
ENDBRANCH  30  32
ENDBRANCH  27  28
ENDBRANCH  26  27
ENDBRANCH  13  26
TORSDOF 13
ENDMDL
MODEL 9
REMARK minimizedAffinity -7.21029091
REMARK CNNscore 0.158774927
REMARK CNNaffinity 6.0173893
REMARK  13 active torsions:
REMARK  status: ('A' for Active; 'I' for Inactive)
REMARK    1  A    between atoms: C3_3  and  O1_4 
REMARK    2  A    between atoms: N1_14  and  O2_16 
REMARK    3  A    between atoms: O2_16  and  C13_17 
REMARK    4  A    between atoms: C13_17  and  C14_18 
REMARK       I    between atoms: C14_18  and  N2_20 
REMARK    5  A    between atoms: N2_20  and  C15_21 
REMARK    6  A    between atoms: C15_21  and  C16_22 
REMARK    7  A    between atoms: C15_21  and  C21_33 
REMARK       I    between atoms: C16_22  and  N3_24 
REMARK    8  A    between atoms: N3_24  and  C17_25 
REMARK    9  A    between atoms: C17_25  and  C18_26 
REMARK   10  A    between atoms: C17_25  and  C20_30 
REMARK   11  A    between atoms: C18_26  and  C19_27 
REMARK   12  A    between atoms: C19_27  and  O6_29 
REMARK   13  A    between atoms: C20_30  and  O8_32 
ROOT
HETATM    1  C1  UNL     1      -8.066  -8.967  -3.656  1.00  0.00     0.015 C 
HETATM    2  C2  UNL     1      -7.981  -9.252  -2.490  1.00  0.00    -0.078 C 
HETATM    3  C3  UNL     1      -7.903  -9.594  -1.059  1.00  0.00     0.128 C 
HETATM    4  C4  UNL     1      -9.186 -10.261  -0.563  1.00  0.00     0.052 C 
HETATM    5  C5  UNL     1      -8.776 -10.821   0.795  1.00  0.00     0.010 C 
HETATM    6  C6  UNL     1      -7.332 -11.327   0.608  1.00  0.00     0.002 C 
HETATM    7  C7  UNL     1      -6.456 -11.115   1.863  1.00  0.00    -0.004 C 
HETATM    8  C8  UNL     1      -7.009 -11.920   3.066  1.00  0.00     0.010 C 
HETATM    9  C9  UNL     1      -5.934 -12.561   3.950  1.00  0.00     0.035 C 
HETATM   10  C10 UNL     1      -4.778 -11.618   4.132  1.00  0.00    -0.069 C 
HETATM   11  C11 UNL     1      -4.455 -11.147   5.351  1.00  0.00     0.030 C 
HETATM   12  C12 UNL     1      -3.373 -10.135   5.512  1.00  0.00     0.032 C 
HETATM   13  N1  UNL     1      -2.763  -9.844   6.621  1.00  0.00    -0.271 N 
ATOM     14  H1  UNL     1      -2.034  -9.136   6.702  1.00  0.00     0.194 HD
HETATM   15  C24 UNL     1      -2.912  -9.384   4.273  1.00  0.00     0.060 C 
HETATM   16  C25 UNL     1      -3.753  -9.670   3.030  1.00  0.00     0.020 C 
HETATM   17  C26 UNL     1      -4.066 -11.177   2.852  1.00  0.00    -0.016 C 
HETATM   18  C27 UNL     1      -2.761 -11.998   2.701  1.00  0.00     0.020 C 
HETATM   19  C28 UNL     1      -4.972 -11.467   1.592  1.00  0.00     0.002 C 
HETATM   20  C29 UNL     1      -4.429 -10.880   0.269  1.00  0.00     0.007 C 
HETATM   21  C30 UNL     1      -5.418  -9.963  -0.446  1.00  0.00     0.014 C 
HETATM   22  C31 UNL     1      -6.790 -10.632  -0.688  1.00  0.00     0.003 C 
HETATM   23  C32 UNL     1      -6.633 -11.728  -1.782  1.00  0.00     0.020 C 
ENDROOT
BRANCH   3  24
HETATM   24  O1  UNL     1      -7.738  -8.391  -0.301  1.00  0.00    -0.377 OA
HETATM   25  H2  UNL     1      -8.125  -7.659  -0.814  1.00  0.00     0.211 HD
ENDBRANCH   3  24
BRANCH  13  26
HETATM   26  O2  UNL     1      -3.227 -10.620   7.695  1.00  0.00    -0.271 OA
BRANCH  26  27
HETATM   27  C13 UNL     1      -4.006  -9.790   8.551  1.00  0.00     0.303 C 
BRANCH  27  28
HETATM   28  C14 UNL     1      -5.472 -10.148   8.359  1.00  0.00     0.244 C 
HETATM   29  O3  UNL     1      -5.896 -11.284   8.568  1.00  0.00    -0.271 OA
HETATM   30  N2  UNL     1      -6.261  -9.104   7.896  1.00  0.00    -0.346 N 
HETATM   31  H16 UNL     1      -5.857  -8.181   7.969  1.00  0.00     0.163 HD
BRANCH  30  32
HETATM   32  C15 UNL     1      -7.731  -9.171   7.868  1.00  0.00     0.180 C 
BRANCH  32  33
HETATM   33  C16 UNL     1      -8.227  -8.901   9.324  1.00  0.00     0.241 C 
HETATM   34  O4  UNL     1      -9.311  -8.371   9.576  1.00  0.00    -0.271 OA
HETATM   35  N3  UNL     1      -7.411  -9.369  10.341  1.00  0.00    -0.344 N 
HETATM   36  H18 UNL     1      -6.440  -9.533  10.127  1.00  0.00     0.163 HD
BRANCH  35  37
HETATM   37  C17 UNL     1      -7.731  -9.041  11.738  1.00  0.00     0.192 C 
BRANCH  37  38
HETATM   38  C18 UNL     1      -7.664 -10.281  12.626  1.00  0.00     0.146 C 
BRANCH  38  39
HETATM   39  C19 UNL     1      -8.808 -10.312  13.597  1.00  0.00     0.141 C 
HETATM   40  O5  UNL     1      -8.869  -9.769  14.686  1.00  0.00    -0.650 OA
BRANCH  39  41
HETATM   41  O6  UNL     1      -9.864 -10.991  13.111  1.00  0.00    -0.776 OA
HETATM   42  H22 UNL     1     -10.541 -10.937  13.818  1.00  0.00     0.167 HD
ENDBRANCH  39  41
ENDBRANCH  38  39
ENDBRANCH  37  38
BRANCH  37  43
HETATM   43  C20 UNL     1      -6.765  -7.994  12.309  1.00  0.00     0.164 C 
HETATM   44  O7  UNL     1      -6.525  -6.901  11.818  1.00  0.00    -0.648 OA
BRANCH  43  45
HETATM   45  O8  UNL     1      -6.220  -8.334  13.494  1.00  0.00    -0.775 OA
HETATM   46  H23 UNL     1      -5.591  -7.605  13.688  1.00  0.00     0.167 HD
ENDBRANCH  43  45
ENDBRANCH  37  43
ENDBRANCH  35  37
ENDBRANCH  32  33
BRANCH  32  47
HETATM   47  C21 UNL     1      -8.296 -10.430   7.152  1.00  0.00     0.009 C 
HETATM   48  C22 UNL     1      -8.678 -10.111   5.696  1.00  0.00     0.012 C 
HETATM   49  C23 UNL     1      -9.531 -11.031   7.831  1.00  0.00     0.012 C 
ENDBRANCH  32  47
ENDBRANCH  30  32
ENDBRANCH  27  28
ENDBRANCH  26  27
ENDBRANCH  13  26
TORSDOF 13
ENDMDL
