MODEL 1
REMARK minimizedAffinity -6.87476349
REMARK CNNscore 0.473268896
REMARK CNNaffinity 6.52988625
REMARK  12 active torsions:
REMARK  status: ('A' for Active; 'I' for Inactive)
REMARK    1  A    between atoms: O1_2  and  C2_3 
REMARK    2  A    between atoms: C3_6  and  C4_7 
REMARK    3  A    between atoms: C4_7  and  C5_8 
REMARK    4  A    between atoms: C6_9  and  C8_11 
REMARK    5  A    between atoms: C8_11  and  C9_12 
REMARK    6  A    between atoms: C10_13  and  C11_14 
REMARK    7  A    between atoms: C13_16  and  C14_17 
REMARK    8  A    between atoms: C14_17  and  C16_19 
REMARK    9  A    between atoms: C16_19  and  O2_20 
REMARK   10  A    between atoms: C16_19  and  C18_22 
REMARK   11  A    between atoms: C24_29  and  O4_30 
REMARK   12  A    between atoms: C25_31  and  O5_32 
ROOT
HETATM    1  C5  UNL     1      -4.686   7.792  13.844  1.00  0.00    -0.018 C 
HETATM    2  C6  UNL     1      -3.414   8.194  14.051  1.00  0.00    -0.084 C 
HETATM    3  C7  UNL     1      -2.538   7.722  15.182  1.00  0.00     0.043 C 
ENDROOT
BRANCH   2   4
HETATM    4  C8  UNL     1      -2.780   9.235  13.148  1.00  0.00     0.060 C 
BRANCH   4   5
HETATM    5  C9  UNL     1      -1.387   8.844  12.739  1.00  0.00    -0.022 C 
HETATM    6  C10 UNL     1      -0.964   8.807  11.464  1.00  0.00     0.003 C 
BRANCH   6   7
HETATM    7  C11 UNL     1       0.371   8.425  11.002  1.00  0.00    -0.066 C 
HETATM    8  C12 UNL     1       1.557   8.979  11.750  1.00  0.00     0.048 C 
HETATM    9  C13 UNL     1       0.469   7.620   9.921  1.00  0.00    -0.013 C 
BRANCH   9  10
HETATM   10  C14 UNL     1       1.731   7.060   9.275  1.00  0.00     0.037 C 
HETATM   11  C15 UNL     1       2.894   7.996   9.627  1.00  0.00     0.017 C 
BRANCH  10  12
HETATM   12  C16 UNL     1       1.977   5.591   9.733  1.00  0.00     0.165 C 
BRANCH  12  13
HETATM   13  O2  UNL     1       3.403   5.407   9.826  1.00  0.00    -0.387 OA
HETATM   14  C17 UNL     1       3.847   4.176   9.273  1.00  0.00     0.202 C 
ENDBRANCH  12  13
BRANCH  12  15
HETATM   15  C18 UNL     1       1.338   5.294  11.084  1.00  0.00     0.110 A 
HETATM   16  C19 UNL     1       2.011   5.848  12.306  1.00  0.00     0.051 C 
HETATM   17  O3  UNL     1       0.898   3.928  11.239  1.00  0.00    -0.367 OA
HETATM   18  C20 UNL     1      -0.137   4.904  11.119  1.00  0.00     0.155 A 
HETATM   19  C21 UNL     1      -0.995   5.054  12.324  1.00  0.00     0.042 C 
ENDBRANCH  12  15
ENDBRANCH  10  12
ENDBRANCH   9  10
ENDBRANCH   6   7
ENDBRANCH   4   5
ENDBRANCH   2   4
BRANCH   1  20
HETATM   20  C4  UNL     1      -5.483   6.779  14.624  1.00  0.00     0.085 C 
BRANCH  20  21
HETATM   21  C3  UNL     1      -5.884   5.576  13.796  1.00  0.00     0.023 A 
HETATM   22  N1  UNL     1      -4.857   4.956  13.152  1.00  0.00    -0.337 N 
HETATM   23  C2  UNL     1      -5.110   3.838  12.429  1.00  0.00     0.179 A 
ATOM     24  H1  UNL     1      -3.909   5.328  13.213  1.00  0.00     0.168 HD
HETATM   25  C25 UNL     1      -6.376   3.277  12.317  1.00  0.00     0.153 A 
HETATM   26  C24 UNL     1      -7.412   3.950  12.975  1.00  0.00     0.111 A 
HETATM   27  C22 UNL     1      -7.202   5.114  13.719  1.00  0.00    -0.003 A 
HETATM   28  C23 UNL     1      -8.339   5.775  14.443  1.00  0.00     0.053 C 
BRANCH  23  29
HETATM   29  O1  UNL     1      -4.051   3.253  11.767  1.00  0.00    -0.339 OA
HETATM   30  C1  UNL     1      -3.862   3.739  10.440  1.00  0.00     0.211 C 
ENDBRANCH  23  29
BRANCH  25  31
HETATM   31  O5  UNL     1      -6.784   2.157  11.641  1.00  0.00    -0.349 OA
HETATM   32  C26 UNL     1      -5.859   1.083  11.533  1.00  0.00     0.210 C 
ENDBRANCH  25  31
BRANCH  26  33
HETATM   33  O4  UNL     1      -8.685   3.433  12.896  1.00  0.00    -0.357 OA
HETATM   34  H36 UNL     1      -8.604   2.635  12.336  1.00  0.00     0.217 HD
ENDBRANCH  26  33
ENDBRANCH  20  21
ENDBRANCH   1  20
TORSDOF 12
ENDMDL
MODEL 2
REMARK minimizedAffinity -7.7068758
REMARK CNNscore 0.461479872
REMARK CNNaffinity 6.20190811
REMARK  12 active torsions:
REMARK  status: ('A' for Active; 'I' for Inactive)
REMARK    1  A    between atoms: O1_2  and  C2_3 
REMARK    2  A    between atoms: C3_6  and  C4_7 
REMARK    3  A    between atoms: C4_7  and  C5_8 
REMARK    4  A    between atoms: C6_9  and  C8_11 
REMARK    5  A    between atoms: C8_11  and  C9_12 
REMARK    6  A    between atoms: C10_13  and  C11_14 
REMARK    7  A    between atoms: C13_16  and  C14_17 
REMARK    8  A    between atoms: C14_17  and  C16_19 
REMARK    9  A    between atoms: C16_19  and  O2_20 
REMARK   10  A    between atoms: C16_19  and  C18_22 
REMARK   11  A    between atoms: C24_29  and  O4_30 
REMARK   12  A    between atoms: C25_31  and  O5_32 
ROOT
HETATM    1  C5  UNL     1      -4.723   7.815  13.840  1.00  0.00    -0.018 C 
HETATM    2  C6  UNL     1      -3.445   8.214  14.008  1.00  0.00    -0.084 C 
HETATM    3  C7  UNL     1      -2.553   7.784  15.143  1.00  0.00     0.043 C 
ENDROOT
BRANCH   2   4
HETATM    4  C8  UNL     1      -2.818   9.209  13.050  1.00  0.00     0.060 C 
BRANCH   4   5
HETATM    5  C9  UNL     1      -1.520   8.700  12.487  1.00  0.00    -0.022 C 
HETATM    6  C10 UNL     1      -1.154   8.843  11.202  1.00  0.00     0.003 C 
BRANCH   6   7
HETATM    7  C11 UNL     1       0.085   8.362  10.591  1.00  0.00    -0.066 C 
HETATM    8  C12 UNL     1       0.220   8.477   9.094  1.00  0.00     0.048 C 
HETATM    9  C13 UNL     1       1.027   7.821  11.394  1.00  0.00    -0.013 C 
BRANCH   9  10
HETATM   10  C14 UNL     1       2.401   7.287  11.007  1.00  0.00     0.037 C 
HETATM   11  C15 UNL     1       3.376   7.634  12.139  1.00  0.00     0.017 C 
BRANCH  10  12
HETATM   12  C16 UNL     1       2.334   5.759  10.714  1.00  0.00     0.165 C 
BRANCH  12  13
HETATM   13  O2  UNL     1       0.941   5.402  10.625  1.00  0.00    -0.387 OA
HETATM   14  C17 UNL     1       0.571   4.358  11.514  1.00  0.00     0.202 C 
ENDBRANCH  12  13
BRANCH  12  15
HETATM   15  C18 UNL     1       3.035   5.390   9.412  1.00  0.00     0.110 A 
HETATM   16  C19 UNL     1       3.778   4.087   9.370  1.00  0.00     0.051 C 
HETATM   17  O3  UNL     1       3.755   6.483   8.802  1.00  0.00    -0.367 OA
HETATM   18  C20 UNL     1       2.571   6.062   8.123  1.00  0.00     0.155 A 
HETATM   19  C21 UNL     1       2.800   5.486   6.771  1.00  0.00     0.042 C 
ENDBRANCH  12  15
ENDBRANCH  10  12
ENDBRANCH   9  10
ENDBRANCH   6   7
ENDBRANCH   4   5
ENDBRANCH   2   4
BRANCH   1  20
HETATM   20  C4  UNL     1      -5.514   6.843  14.677  1.00  0.00     0.085 C 
BRANCH  20  21
HETATM   21  C3  UNL     1      -5.909   5.593  13.919  1.00  0.00     0.023 A 
HETATM   22  N1  UNL     1      -4.868   4.880  13.408  1.00  0.00    -0.337 N 
HETATM   23  C2  UNL     1      -5.120   3.717  12.759  1.00  0.00     0.179 A 
ATOM     24  H1  UNL     1      -3.911   5.216  13.513  1.00  0.00     0.168 HD
HETATM   25  C25 UNL     1      -6.399   3.202  12.593  1.00  0.00     0.153 A 
HETATM   26  C24 UNL     1      -7.448   3.969  13.114  1.00  0.00     0.111 A 
HETATM   27  C22 UNL     1      -7.239   5.182  13.777  1.00  0.00    -0.003 A 
HETATM   28  C23 UNL     1      -8.393   5.946  14.356  1.00  0.00     0.053 C 
BRANCH  23  29
HETATM   29  O1  UNL     1      -4.044   3.036  12.230  1.00  0.00    -0.339 OA
HETATM   30  C1  UNL     1      -3.370   3.743  11.191  1.00  0.00     0.211 C 
ENDBRANCH  23  29
BRANCH  25  31
HETATM   31  O5  UNL     1      -6.809   2.047  11.979  1.00  0.00    -0.349 OA
HETATM   32  C26 UNL     1      -5.869   1.376  11.150  1.00  0.00     0.210 C 
ENDBRANCH  25  31
BRANCH  26  33
HETATM   33  O4  UNL     1      -8.735   3.500  12.977  1.00  0.00    -0.357 OA
HETATM   34  H36 UNL     1      -8.650   2.656  12.491  1.00  0.00     0.217 HD
ENDBRANCH  26  33
ENDBRANCH  20  21
ENDBRANCH   1  20
TORSDOF 12
ENDMDL
MODEL 3
REMARK minimizedAffinity -7.85641623
REMARK CNNscore 0.410319239
REMARK CNNaffinity 6.76432943
REMARK  12 active torsions:
REMARK  status: ('A' for Active; 'I' for Inactive)
REMARK    1  A    between atoms: O1_2  and  C2_3 
REMARK    2  A    between atoms: C3_6  and  C4_7 
REMARK    3  A    between atoms: C4_7  and  C5_8 
REMARK    4  A    between atoms: C6_9  and  C8_11 
REMARK    5  A    between atoms: C8_11  and  C9_12 
REMARK    6  A    between atoms: C10_13  and  C11_14 
REMARK    7  A    between atoms: C13_16  and  C14_17 
REMARK    8  A    between atoms: C14_17  and  C16_19 
REMARK    9  A    between atoms: C16_19  and  O2_20 
REMARK   10  A    between atoms: C16_19  and  C18_22 
REMARK   11  A    between atoms: C24_29  and  O4_30 
REMARK   12  A    between atoms: C25_31  and  O5_32 
ROOT
HETATM    1  C5  UNL     1      -0.861   5.122  12.192  1.00  0.00    -0.018 C 
HETATM    2  C6  UNL     1      -1.117   3.832  11.889  1.00  0.00    -0.084 C 
HETATM    3  C7  UNL     1      -0.068   2.801  11.565  1.00  0.00     0.043 C 
ENDROOT
BRANCH   2   4
HETATM    4  C8  UNL     1      -2.546   3.332  11.799  1.00  0.00     0.060 C 
BRANCH   4   5
HETATM    5  C9  UNL     1      -3.480   4.156  12.642  1.00  0.00    -0.022 C 
HETATM    6  C10 UNL     1      -3.626   5.486  12.515  1.00  0.00     0.003 C 
BRANCH   6   7
HETATM    7  C11 UNL     1      -4.505   6.344  13.310  1.00  0.00    -0.066 C 
HETATM    8  C12 UNL     1      -4.128   7.798  13.448  1.00  0.00     0.048 C 
HETATM    9  C13 UNL     1      -5.588   5.787  13.893  1.00  0.00    -0.013 C 
BRANCH   9  10
HETATM   10  C14 UNL     1      -6.663   6.470  14.732  1.00  0.00     0.037 C 
HETATM   11  C15 UNL     1      -6.604   7.974  14.435  1.00  0.00     0.017 C 
BRANCH  10  12
HETATM   12  C16 UNL     1      -8.063   5.851  14.441  1.00  0.00     0.165 C 
BRANCH  12  13
HETATM   13  O2  UNL     1      -8.964   6.942  14.172  1.00  0.00    -0.387 OA
HETATM   14  C17 UNL     1     -10.015   7.050  15.122  1.00  0.00     0.202 C 
ENDBRANCH  12  13
BRANCH  12  15
HETATM   15  C18 UNL     1      -8.038   4.907  13.246  1.00  0.00     0.110 A 
HETATM   16  C19 UNL     1      -8.175   5.513  11.880  1.00  0.00     0.051 C 
HETATM   17  O3  UNL     1      -8.826   3.710  13.425  1.00  0.00    -0.367 OA
HETATM   18  C20 UNL     1      -7.409   3.527  13.424  1.00  0.00     0.155 A 
HETATM   19  C21 UNL     1      -6.887   2.713  12.294  1.00  0.00     0.042 C 
ENDBRANCH  12  15
ENDBRANCH  10  12
ENDBRANCH   9  10
ENDBRANCH   6   7
ENDBRANCH   4   5
ENDBRANCH   2   4
BRANCH   1  20
HETATM   20  C4  UNL     1       0.478   5.799  12.328  1.00  0.00     0.085 C 
BRANCH  20  21
HETATM   21  C3  UNL     1       0.967   6.410  11.031  1.00  0.00     0.023 A 
HETATM   22  N1  UNL     1       1.941   5.702  10.397  1.00  0.00    -0.337 N 
HETATM   23  C2  UNL     1       2.405   6.142   9.201  1.00  0.00     0.179 A 
ATOM     24  H1  UNL     1       2.318   4.852  10.815  1.00  0.00     0.168 HD
HETATM   25  C25 UNL     1       1.925   7.286   8.576  1.00  0.00     0.153 A 
HETATM   26  C24 UNL     1       0.937   8.000   9.264  1.00  0.00     0.111 A 
HETATM   27  C22 UNL     1       0.440   7.595  10.506  1.00  0.00    -0.003 A 
HETATM   28  C23 UNL     1      -0.652   8.371  11.184  1.00  0.00     0.053 C 
BRANCH  23  29
HETATM   29  O1  UNL     1       3.412   5.416   8.601  1.00  0.00    -0.339 OA
HETATM   30  C1  UNL     1       3.758   4.224   9.302  1.00  0.00     0.211 C 
ENDBRANCH  23  29
BRANCH  25  31
HETATM   31  O5  UNL     1       2.279   7.846   7.376  1.00  0.00    -0.349 OA
HETATM   32  C26 UNL     1       1.730   7.272   6.197  1.00  0.00     0.210 C 
ENDBRANCH  25  31
BRANCH  26  33
HETATM   33  O4  UNL     1       0.427   9.140   8.685  1.00  0.00    -0.357 OA
HETATM   34  H36 UNL     1       0.909   9.236   7.839  1.00  0.00     0.217 HD
ENDBRANCH  26  33
ENDBRANCH  20  21
ENDBRANCH   1  20
TORSDOF 12
ENDMDL
MODEL 4
REMARK minimizedAffinity -6.80133915
REMARK CNNscore 0.374626607
REMARK CNNaffinity 6.44704247
REMARK  12 active torsions:
REMARK  status: ('A' for Active; 'I' for Inactive)
REMARK    1  A    between atoms: O1_2  and  C2_3 
REMARK    2  A    between atoms: C3_6  and  C4_7 
REMARK    3  A    between atoms: C4_7  and  C5_8 
REMARK    4  A    between atoms: C6_9  and  C8_11 
REMARK    5  A    between atoms: C8_11  and  C9_12 
REMARK    6  A    between atoms: C10_13  and  C11_14 
REMARK    7  A    between atoms: C13_16  and  C14_17 
REMARK    8  A    between atoms: C14_17  and  C16_19 
REMARK    9  A    between atoms: C16_19  and  O2_20 
REMARK   10  A    between atoms: C16_19  and  C18_22 
REMARK   11  A    between atoms: C24_29  and  O4_30 
REMARK   12  A    between atoms: C25_31  and  O5_32 
ROOT
HETATM    1  C5  UNL     1      -3.885   7.568  14.716  1.00  0.00    -0.018 C 
HETATM    2  C6  UNL     1      -3.750   8.829  15.177  1.00  0.00    -0.084 C 
HETATM    3  C7  UNL     1      -4.699   9.499  16.135  1.00  0.00     0.043 C 
ENDROOT
BRANCH   2   4
HETATM    4  C8  UNL     1      -2.612   9.707  14.692  1.00  0.00     0.060 C 
BRANCH   4   5
HETATM    5  C9  UNL     1      -1.627   8.934  13.859  1.00  0.00    -0.022 C 
HETATM    6  C10 UNL     1      -0.903   9.474  12.864  1.00  0.00     0.003 C 
BRANCH   6   7
HETATM    7  C11 UNL     1       0.059   8.776  12.011  1.00  0.00    -0.066 C 
HETATM    8  C12 UNL     1       1.526   8.960  12.312  1.00  0.00     0.048 C 
HETATM    9  C13 UNL     1      -0.413   8.028  10.991  1.00  0.00    -0.013 C 
BRANCH   9  10
HETATM   10  C14 UNL     1       0.376   7.186   9.995  1.00  0.00     0.037 C 
HETATM   11  C15 UNL     1       1.044   8.142   8.998  1.00  0.00     0.017 C 
BRANCH  10  12
HETATM   12  C16 UNL     1       1.399   6.274  10.736  1.00  0.00     0.165 C 
BRANCH  12  13
HETATM   13  O2  UNL     1       0.937   4.916  10.599  1.00  0.00    -0.387 OA
HETATM   14  C17 UNL     1       0.336   4.406  11.780  1.00  0.00     0.202 C 
ENDBRANCH  12  13
BRANCH  12  15
HETATM   15  C18 UNL     1       2.803   6.393  10.155  1.00  0.00     0.110 A 
HETATM   16  C19 UNL     1       3.000   5.978   8.727  1.00  0.00     0.051 C 
HETATM   17  O3  UNL     1       3.846   5.928  11.039  1.00  0.00    -0.367 OA
HETATM   18  C20 UNL     1       3.790   7.340  10.833  1.00  0.00     0.155 A 
HETATM   19  C21 UNL     1       4.975   7.916  10.145  1.00  0.00     0.042 C 
ENDBRANCH  12  15
ENDBRANCH  10  12
ENDBRANCH   9  10
ENDBRANCH   6   7
ENDBRANCH   4   5
ENDBRANCH   2   4
BRANCH   1  20
HETATM   20  C4  UNL     1      -4.938   6.552  15.076  1.00  0.00     0.085 C 
BRANCH  20  21
HETATM   21  C3  UNL     1      -5.109   5.477  14.021  1.00  0.00     0.023 A 
HETATM   22  N1  UNL     1      -6.374   5.345  13.539  1.00  0.00    -0.337 N 
HETATM   23  C2  UNL     1      -6.614   4.445  12.553  1.00  0.00     0.179 A 
ATOM     24  H1  UNL     1      -7.132   5.914  13.914  1.00  0.00     0.168 HD
HETATM   25  C25 UNL     1      -5.622   3.649  11.996  1.00  0.00     0.153 A 
HETATM   26  C24 UNL     1      -4.336   3.797  12.527  1.00  0.00     0.111 A 
HETATM   27  C22 UNL     1      -4.044   4.699  13.554  1.00  0.00    -0.003 A 
HETATM   28  C23 UNL     1      -2.639   4.853  14.061  1.00  0.00     0.053 C 
BRANCH  23  29
HETATM   29  O1  UNL     1      -7.913   4.317  12.109  1.00  0.00    -0.339 OA
HETATM   30  C1  UNL     1      -8.679   5.514  12.218  1.00  0.00     0.211 C 
ENDBRANCH  23  29
BRANCH  25  31
HETATM   31  O5  UNL     1      -5.705   2.714  10.997  1.00  0.00    -0.349 OA
HETATM   32  C26 UNL     1      -6.039   1.383  11.370  1.00  0.00     0.210 C 
ENDBRANCH  25  31
BRANCH  26  33
HETATM   33  O4  UNL     1      -3.318   3.031  12.006  1.00  0.00    -0.357 OA
HETATM   34  H36 UNL     1      -3.738   2.481  11.315  1.00  0.00     0.217 HD
ENDBRANCH  26  33
ENDBRANCH  20  21
ENDBRANCH   1  20
TORSDOF 12
ENDMDL
MODEL 5
REMARK minimizedAffinity -7.5840497
REMARK CNNscore 0.349970818
REMARK CNNaffinity 6.17279816
REMARK  12 active torsions:
REMARK  status: ('A' for Active; 'I' for Inactive)
REMARK    1  A    between atoms: O1_2  and  C2_3 
REMARK    2  A    between atoms: C3_6  and  C4_7 
REMARK    3  A    between atoms: C4_7  and  C5_8 
REMARK    4  A    between atoms: C6_9  and  C8_11 
REMARK    5  A    between atoms: C8_11  and  C9_12 
REMARK    6  A    between atoms: C10_13  and  C11_14 
REMARK    7  A    between atoms: C13_16  and  C14_17 
REMARK    8  A    between atoms: C14_17  and  C16_19 
REMARK    9  A    between atoms: C16_19  and  O2_20 
REMARK   10  A    between atoms: C16_19  and  C18_22 
REMARK   11  A    between atoms: C24_29  and  O4_30 
REMARK   12  A    between atoms: C25_31  and  O5_32 
ROOT
HETATM    1  C5  UNL     1      -4.761   7.433  14.795  1.00  0.00    -0.018 C 
HETATM    2  C6  UNL     1      -3.608   8.053  14.463  1.00  0.00    -0.084 C 
HETATM    3  C7  UNL     1      -3.335   8.702  13.132  1.00  0.00     0.043 C 
ENDROOT
BRANCH   2   4
HETATM    4  C8  UNL     1      -2.446   8.086  15.437  1.00  0.00     0.060 C 
BRANCH   4   5
HETATM    5  C9  UNL     1      -1.231   7.396  14.879  1.00  0.00    -0.022 C 
HETATM    6  C10 UNL     1      -0.123   8.041  14.476  1.00  0.00     0.003 C 
BRANCH   6   7
HETATM    7  C11 UNL     1       1.082   7.432  13.915  1.00  0.00    -0.066 C 
HETATM    8  C12 UNL     1       2.262   7.236  14.835  1.00  0.00     0.048 C 
HETATM    9  C13 UNL     1       1.084   7.100  12.606  1.00  0.00    -0.013 C 
BRANCH   9  10
HETATM   10  C14 UNL     1       2.194   6.427  11.805  1.00  0.00     0.037 C 
HETATM   11  C15 UNL     1       1.665   5.072  11.318  1.00  0.00     0.017 C 
BRANCH  10  12
HETATM   12  C16 UNL     1       2.665   7.348  10.640  1.00  0.00     0.165 C 
BRANCH  12  13
HETATM   13  O2  UNL     1       4.034   7.003  10.351  1.00  0.00    -0.387 OA
HETATM   14  C17 UNL     1       4.960   8.009  10.735  1.00  0.00     0.202 C 
ENDBRANCH  12  13
BRANCH  12  15
HETATM   15  C18 UNL     1       1.821   7.165   9.384  1.00  0.00     0.110 A 
HETATM   16  C19 UNL     1       0.373   7.551   9.460  1.00  0.00     0.051 C 
HETATM   17  O3  UNL     1       2.049   5.915   8.699  1.00  0.00    -0.367 OA
HETATM   18  C20 UNL     1       2.534   7.084   8.037  1.00  0.00     0.155 A 
HETATM   19  C21 UNL     1       1.871   7.386   6.741  1.00  0.00     0.042 C 
ENDBRANCH  12  15
ENDBRANCH  10  12
ENDBRANCH   9  10
ENDBRANCH   6   7
ENDBRANCH   4   5
ENDBRANCH   2   4
BRANCH   1  20
HETATM   20  C4  UNL     1      -6.016   7.296  13.972  1.00  0.00     0.085 C 
BRANCH  20  21
HETATM   21  C3  UNL     1      -6.250   5.882  13.481  1.00  0.00     0.023 A 
HETATM   22  N1  UNL     1      -5.119   5.183  13.190  1.00  0.00    -0.337 N 
HETATM   23  C2  UNL     1      -5.226   3.890  12.794  1.00  0.00     0.179 A 
ATOM     24  H1  UNL     1      -4.204   5.625  13.268  1.00  0.00     0.168 HD
HETATM   25  C25 UNL     1      -6.443   3.230  12.679  1.00  0.00     0.153 A 
HETATM   26  C24 UNL     1      -7.586   3.984  12.968  1.00  0.00     0.111 A 
HETATM   27  C22 UNL     1      -7.527   5.323  13.364  1.00  0.00    -0.003 A 
HETATM   28  C23 UNL     1      -8.780   6.076  13.706  1.00  0.00     0.053 C 
BRANCH  23  29
HETATM   29  O1  UNL     1      -4.062   3.222  12.479  1.00  0.00    -0.339 OA
HETATM   30  C1  UNL     1      -3.201   3.946  11.604  1.00  0.00     0.211 C 
ENDBRANCH  23  29
BRANCH  25  31
HETATM   31  O5  UNL     1      -6.709   1.938  12.308  1.00  0.00    -0.349 OA
HETATM   32  C26 UNL     1      -6.145   1.476  11.087  1.00  0.00     0.210 C 
ENDBRANCH  25  31
BRANCH  26  33
HETATM   33  O4  UNL     1      -8.816   3.374  12.871  1.00  0.00    -0.357 OA
HETATM   34  H36 UNL     1      -8.627   2.458  12.583  1.00  0.00     0.217 HD
ENDBRANCH  26  33
ENDBRANCH  20  21
ENDBRANCH   1  20
TORSDOF 12
ENDMDL
MODEL 6
REMARK minimizedAffinity -7.01065254
REMARK CNNscore 0.227392986
REMARK CNNaffinity 6.43491364
REMARK  12 active torsions:
REMARK  status: ('A' for Active; 'I' for Inactive)
REMARK    1  A    between atoms: O1_2  and  C2_3 
REMARK    2  A    between atoms: C3_6  and  C4_7 
REMARK    3  A    between atoms: C4_7  and  C5_8 
REMARK    4  A    between atoms: C6_9  and  C8_11 
REMARK    5  A    between atoms: C8_11  and  C9_12 
REMARK    6  A    between atoms: C10_13  and  C11_14 
REMARK    7  A    between atoms: C13_16  and  C14_17 
REMARK    8  A    between atoms: C14_17  and  C16_19 
REMARK    9  A    between atoms: C16_19  and  O2_20 
REMARK   10  A    between atoms: C16_19  and  C18_22 
REMARK   11  A    between atoms: C24_29  and  O4_30 
REMARK   12  A    between atoms: C25_31  and  O5_32 
ROOT
HETATM    1  C5  UNL     1      -3.264   7.448  14.082  1.00  0.00    -0.018 C 
HETATM    2  C6  UNL     1      -2.298   7.342  13.145  1.00  0.00    -0.084 C 
HETATM    3  C7  UNL     1      -1.715   6.042  12.656  1.00  0.00     0.043 C 
ENDROOT
BRANCH   2   4
HETATM    4  C8  UNL     1      -1.673   8.585  12.542  1.00  0.00     0.060 C 
BRANCH   4   5
HETATM    5  C9  UNL     1      -0.391   8.272  11.820  1.00  0.00    -0.022 C 
HETATM    6  C10 UNL     1      -0.234   8.386  10.491  1.00  0.00     0.003 C 
BRANCH   6   7
HETATM    7  C11 UNL     1       0.979   8.086   9.730  1.00  0.00    -0.066 C 
HETATM    8  C12 UNL     1       0.885   8.102   8.225  1.00  0.00     0.048 C 
HETATM    9  C13 UNL     1       2.107   7.789  10.412  1.00  0.00    -0.013 C 
BRANCH   9  10
HETATM   10  C14 UNL     1       3.492   7.480   9.854  1.00  0.00     0.037 C 
HETATM   11  C15 UNL     1       3.955   8.698   9.045  1.00  0.00     0.017 C 
BRANCH  10  12
HETATM   12  C16 UNL     1       4.476   7.107  11.003  1.00  0.00     0.165 C 
BRANCH  12  13
HETATM   13  O2  UNL     1       5.783   6.963  10.414  1.00  0.00    -0.387 OA
HETATM   14  C17 UNL     1       6.617   6.050  11.114  1.00  0.00     0.202 C 
ENDBRANCH  12  13
BRANCH  12  15
HETATM   15  C18 UNL     1       4.524   8.173  12.090  1.00  0.00     0.110 A 
HETATM   16  C19 UNL     1       5.172   9.482  11.748  1.00  0.00     0.051 C 
HETATM   17  O3  UNL     1       4.893   7.669  13.391  1.00  0.00    -0.367 OA
HETATM   18  C20 UNL     1       3.531   8.075  13.246  1.00  0.00     0.155 A 
HETATM   19  C21 UNL     1       3.135   9.237  14.084  1.00  0.00     0.042 C 
ENDBRANCH  12  15
ENDBRANCH  10  12
ENDBRANCH   9  10
ENDBRANCH   6   7
ENDBRANCH   4   5
ENDBRANCH   2   4
BRANCH   1  20
HETATM   20  C4  UNL     1      -4.000   6.340  14.791  1.00  0.00     0.085 C 
BRANCH  20  21
HETATM   21  C3  UNL     1      -5.441   6.205  14.344  1.00  0.00     0.023 A 
HETATM   22  N1  UNL     1      -6.309   7.067  14.941  1.00  0.00    -0.337 N 
HETATM   23  C2  UNL     1      -7.612   7.057  14.566  1.00  0.00     0.179 A 
ATOM     24  H1  UNL     1      -5.984   7.711  15.662  1.00  0.00     0.168 HD
HETATM   25  C25 UNL     1      -8.112   6.211  13.584  1.00  0.00     0.153 A 
HETATM   26  C24 UNL     1      -7.197   5.326  13.004  1.00  0.00     0.111 A 
HETATM   27  C22 UNL     1      -5.848   5.288  13.369  1.00  0.00    -0.003 A 
HETATM   28  C23 UNL     1      -4.896   4.350  12.686  1.00  0.00     0.053 C 
BRANCH  23  29
HETATM   29  O1  UNL     1      -8.468   7.923  15.213  1.00  0.00    -0.339 OA
HETATM   30  C1  UNL     1      -8.666   7.615  16.590  1.00  0.00     0.211 C 
ENDBRANCH  23  29
BRANCH  25  31
HETATM   31  O5  UNL     1      -9.386   6.094  13.092  1.00  0.00    -0.349 OA
HETATM   32  C26 UNL     1     -10.423   6.773  13.787  1.00  0.00     0.210 C 
ENDBRANCH  25  31
BRANCH  26  33
HETATM   33  O4  UNL     1      -7.644   4.468  12.024  1.00  0.00    -0.357 OA
HETATM   34  H36 UNL     1      -8.598   4.660  11.930  1.00  0.00     0.217 HD
ENDBRANCH  26  33
ENDBRANCH  20  21
ENDBRANCH   1  20
TORSDOF 12
ENDMDL
MODEL 7
REMARK minimizedAffinity -7.55136681
REMARK CNNscore 0.202279553
REMARK CNNaffinity 5.68708038
REMARK  12 active torsions:
REMARK  status: ('A' for Active; 'I' for Inactive)
REMARK    1  A    between atoms: O1_2  and  C2_3 
REMARK    2  A    between atoms: C3_6  and  C4_7 
REMARK    3  A    between atoms: C4_7  and  C5_8 
REMARK    4  A    between atoms: C6_9  and  C8_11 
REMARK    5  A    between atoms: C8_11  and  C9_12 
REMARK    6  A    between atoms: C10_13  and  C11_14 
REMARK    7  A    between atoms: C13_16  and  C14_17 
REMARK    8  A    between atoms: C14_17  and  C16_19 
REMARK    9  A    between atoms: C16_19  and  O2_20 
REMARK   10  A    between atoms: C16_19  and  C18_22 
REMARK   11  A    between atoms: C24_29  and  O4_30 
REMARK   12  A    between atoms: C25_31  and  O5_32 
ROOT
HETATM    1  C5  UNL     1      -6.654   4.855  13.618  1.00  0.00    -0.018 C 
HETATM    2  C6  UNL     1      -6.675   3.761  12.827  1.00  0.00    -0.084 C 
HETATM    3  C7  UNL     1      -7.538   2.549  13.060  1.00  0.00     0.043 C 
ENDROOT
BRANCH   2   4
HETATM    4  C8  UNL     1      -5.746   3.659  11.633  1.00  0.00     0.060 C 
BRANCH   4   5
HETATM    5  C9  UNL     1      -4.309   3.872  12.022  1.00  0.00    -0.022 C 
HETATM    6  C10 UNL     1      -3.265   3.515  11.256  1.00  0.00     0.003 C 
BRANCH   6   7
HETATM    7  C11 UNL     1      -1.849   3.683  11.582  1.00  0.00    -0.066 C 
HETATM    8  C12 UNL     1      -0.974   2.455  11.559  1.00  0.00     0.048 C 
HETATM    9  C13 UNL     1      -1.408   4.917  11.907  1.00  0.00    -0.013 C 
BRANCH   9  10
HETATM   10  C14 UNL     1       0.014   5.351  12.248  1.00  0.00     0.037 C 
HETATM   11  C15 UNL     1       0.961   4.688  11.239  1.00  0.00     0.017 C 
BRANCH  10  12
HETATM   12  C16 UNL     1       0.128   6.904  12.255  1.00  0.00     0.165 C 
BRANCH  12  13
HETATM   13  O2  UNL     1       1.013   7.262  13.333  1.00  0.00    -0.387 OA
HETATM   14  C17 UNL     1       0.649   6.680  14.576  1.00  0.00     0.202 C 
ENDBRANCH  12  13
BRANCH  12  15
HETATM   15  C18 UNL     1       0.681   7.447  10.943  1.00  0.00     0.110 A 
HETATM   16  C19 UNL     1       1.833   6.715  10.320  1.00  0.00     0.051 C 
HETATM   17  O3  UNL     1       0.830   8.883  10.918  1.00  0.00    -0.367 OA
HETATM   18  C20 UNL     1      -0.213   8.352  10.099  1.00  0.00     0.155 A 
HETATM   19  C21 UNL     1      -0.023   8.557   8.638  1.00  0.00     0.042 C 
ENDBRANCH  12  15
ENDBRANCH  10  12
ENDBRANCH   9  10
ENDBRANCH   6   7
ENDBRANCH   4   5
ENDBRANCH   2   4
BRANCH   1  20
HETATM   20  C4  UNL     1      -7.493   5.139  14.838  1.00  0.00     0.085 C 
BRANCH  20  21
HETATM   21  C3  UNL     1      -8.330   6.394  14.701  1.00  0.00     0.023 A 
HETATM   22  N1  UNL     1      -9.575   6.198  14.187  1.00  0.00    -0.337 N 
HETATM   23  C2  UNL     1     -10.418   7.254  14.077  1.00  0.00     0.179 A 
ATOM     24  H1  UNL     1      -9.871   5.268  13.889  1.00  0.00     0.168 HD
HETATM   25  C25 UNL     1     -10.077   8.541  14.476  1.00  0.00     0.153 A 
HETATM   26  C24 UNL     1      -8.783   8.711  14.982  1.00  0.00     0.111 A 
HETATM   27  C22 UNL     1      -7.875   7.655  15.100  1.00  0.00    -0.003 A 
HETATM   28  C23 UNL     1      -6.513   7.879  15.690  1.00  0.00     0.053 C 
BRANCH  23  29
HETATM   29  O1  UNL     1     -11.660   7.024  13.525  1.00  0.00    -0.339 OA
HETATM   30  C1  UNL     1     -12.526   6.254  14.356  1.00  0.00     0.211 C 
ENDBRANCH  23  29
BRANCH  25  31
HETATM   31  O5  UNL     1     -10.815   9.695  14.440  1.00  0.00    -0.349 OA
HETATM   32  C26 UNL     1     -11.975   9.708  13.618  1.00  0.00     0.210 C 
ENDBRANCH  25  31
BRANCH  26  33
HETATM   33  O4  UNL     1      -8.399   9.967  15.393  1.00  0.00    -0.357 OA
HETATM   34  H36 UNL     1      -9.172  10.541  15.223  1.00  0.00     0.217 HD
ENDBRANCH  26  33
ENDBRANCH  20  21
ENDBRANCH   1  20
TORSDOF 12
ENDMDL
MODEL 8
REMARK minimizedAffinity -6.87122536
REMARK CNNscore 0.188867927
REMARK CNNaffinity 5.64191437
REMARK  12 active torsions:
REMARK  status: ('A' for Active; 'I' for Inactive)
REMARK    1  A    between atoms: O1_2  and  C2_3 
REMARK    2  A    between atoms: C3_6  and  C4_7 
REMARK    3  A    between atoms: C4_7  and  C5_8 
REMARK    4  A    between atoms: C6_9  and  C8_11 
REMARK    5  A    between atoms: C8_11  and  C9_12 
REMARK    6  A    between atoms: C10_13  and  C11_14 
REMARK    7  A    between atoms: C13_16  and  C14_17 
REMARK    8  A    between atoms: C14_17  and  C16_19 
REMARK    9  A    between atoms: C16_19  and  O2_20 
REMARK   10  A    between atoms: C16_19  and  C18_22 
REMARK   11  A    between atoms: C24_29  and  O4_30 
REMARK   12  A    between atoms: C25_31  and  O5_32 
ROOT
HETATM    1  C5  UNL     1      -4.606   7.841  13.086  1.00  0.00    -0.018 C 
HETATM    2  C6  UNL     1      -3.341   7.840  13.555  1.00  0.00    -0.084 C 
HETATM    3  C7  UNL     1      -2.925   7.313  14.903  1.00  0.00     0.043 C 
ENDROOT
BRANCH   2   4
HETATM    4  C8  UNL     1      -2.218   8.449  12.737  1.00  0.00     0.060 C 
BRANCH   4   5
HETATM    5  C9  UNL     1      -0.911   8.431  13.482  1.00  0.00    -0.022 C 
HETATM    6  C10 UNL     1       0.283   8.248  12.894  1.00  0.00     0.003 C 
BRANCH   6   7
HETATM    7  C11 UNL     1       1.584   8.208  13.562  1.00  0.00    -0.066 C 
HETATM    8  C12 UNL     1       1.669   7.499  14.890  1.00  0.00     0.048 C 
HETATM    9  C13 UNL     1       2.629   8.824  12.968  1.00  0.00    -0.013 C 
BRANCH   9  10
HETATM   10  C14 UNL     1       4.076   8.892  13.441  1.00  0.00     0.037 C 
HETATM   11  C15 UNL     1       4.123   8.373  14.884  1.00  0.00     0.017 C 
BRANCH  10  12
HETATM   12  C16 UNL     1       5.006   8.092  12.481  1.00  0.00     0.165 C 
BRANCH  12  13
HETATM   13  O2  UNL     1       4.216   7.717  11.336  1.00  0.00    -0.387 OA
HETATM   14  C17 UNL     1       4.476   6.397  10.882  1.00  0.00     0.202 C 
ENDBRANCH  12  13
BRANCH  12  15
HETATM   15  C18 UNL     1       6.205   8.913  12.023  1.00  0.00     0.110 A 
HETATM   16  C19 UNL     1       5.986   9.902  10.915  1.00  0.00     0.051 C 
HETATM   17  O3  UNL     1       7.421   8.149  11.880  1.00  0.00    -0.367 OA
HETATM   18  C20 UNL     1       7.388   9.064  12.976  1.00  0.00     0.155 A 
HETATM   19  C21 UNL     1       8.371  10.176  12.890  1.00  0.00     0.042 C 
ENDBRANCH  12  15
ENDBRANCH  10  12
ENDBRANCH   9  10
ENDBRANCH   6   7
ENDBRANCH   4   5
ENDBRANCH   2   4
BRANCH   1  20
HETATM   20  C4  UNL     1      -5.844   7.288  13.743  1.00  0.00     0.085 C 
BRANCH  20  21
HETATM   21  C3  UNL     1      -6.159   5.869  13.316  1.00  0.00     0.023 A 
HETATM   22  N1  UNL     1      -5.072   5.113  13.000  1.00  0.00    -0.337 N 
HETATM   23  C2  UNL     1      -5.249   3.813  12.658  1.00  0.00     0.179 A 
ATOM     24  H1  UNL     1      -4.136   5.518  13.021  1.00  0.00     0.168 HD
HETATM   25  C25 UNL     1      -6.496   3.202  12.621  1.00  0.00     0.153 A 
HETATM   26  C24 UNL     1      -7.593   4.013  12.933  1.00  0.00     0.111 A 
HETATM   27  C22 UNL     1      -7.462   5.361  13.276  1.00  0.00    -0.003 A 
HETATM   28  C23 UNL     1      -8.665   6.178  13.645  1.00  0.00     0.053 C 
BRANCH  23  29
HETATM   29  O1  UNL     1      -4.129   3.086  12.316  1.00  0.00    -0.339 OA
HETATM   30  C1  UNL     1      -2.928   3.852  12.298  1.00  0.00     0.211 C 
ENDBRANCH  23  29
BRANCH  25  31
HETATM   31  O5  UNL     1      -6.832   1.910  12.310  1.00  0.00    -0.349 OA
HETATM   32  C26 UNL     1      -6.205   1.324  11.176  1.00  0.00     0.210 C 
ENDBRANCH  25  31
BRANCH  26  33
HETATM   33  O4  UNL     1      -8.850   3.452  12.913  1.00  0.00    -0.357 OA
HETATM   34  H36 UNL     1      -8.712   2.520  12.650  1.00  0.00     0.217 HD
ENDBRANCH  26  33
ENDBRANCH  20  21
ENDBRANCH   1  20
TORSDOF 12
ENDMDL
MODEL 9
REMARK minimizedAffinity -6.92835283
REMARK CNNscore 0.180074945
REMARK CNNaffinity 6.26643991
REMARK  12 active torsions:
REMARK  status: ('A' for Active; 'I' for Inactive)
REMARK    1  A    between atoms: O1_2  and  C2_3 
REMARK    2  A    between atoms: C3_6  and  C4_7 
REMARK    3  A    between atoms: C4_7  and  C5_8 
REMARK    4  A    between atoms: C6_9  and  C8_11 
REMARK    5  A    between atoms: C8_11  and  C9_12 
REMARK    6  A    between atoms: C10_13  and  C11_14 
REMARK    7  A    between atoms: C13_16  and  C14_17 
REMARK    8  A    between atoms: C14_17  and  C16_19 
REMARK    9  A    between atoms: C16_19  and  O2_20 
REMARK   10  A    between atoms: C16_19  and  C18_22 
REMARK   11  A    between atoms: C24_29  and  O4_30 
REMARK   12  A    between atoms: C25_31  and  O5_32 
ROOT
HETATM    1  C5  UNL     1      -8.902   6.371  14.083  1.00  0.00    -0.018 C 
HETATM    2  C6  UNL     1      -8.030   5.372  14.337  1.00  0.00    -0.084 C 
HETATM    3  C7  UNL     1      -7.484   5.035  15.700  1.00  0.00     0.043 C 
ENDROOT
BRANCH   2   4
HETATM    4  C8  UNL     1      -7.480   4.525  13.206  1.00  0.00     0.060 C 
BRANCH   4   5
HETATM    5  C9  UNL     1      -5.978   4.574  13.151  1.00  0.00    -0.022 C 
HETATM    6  C10 UNL     1      -5.234   3.812  12.332  1.00  0.00     0.003 C 
BRANCH   6   7
HETATM    7  C11 UNL     1      -3.774   3.804  12.239  1.00  0.00    -0.066 C 
HETATM    8  C12 UNL     1      -3.097   2.485  11.961  1.00  0.00     0.048 C 
HETATM    9  C13 UNL     1      -3.113   4.966  12.430  1.00  0.00    -0.013 C 
BRANCH   9  10
HETATM   10  C14 UNL     1      -1.612   5.220  12.351  1.00  0.00     0.037 C 
HETATM   11  C15 UNL     1      -1.120   4.706  10.992  1.00  0.00     0.017 C 
BRANCH  10  12
HETATM   12  C16 UNL     1      -1.297   6.729  12.578  1.00  0.00     0.165 C 
BRANCH  12  13
HETATM   13  O2  UNL     1      -1.373   6.972  13.996  1.00  0.00    -0.387 OA
HETATM   14  C17 UNL     1      -1.040   5.836  14.779  1.00  0.00     0.202 C 
ENDBRANCH  12  13
BRANCH  12  15
HETATM   15  C18 UNL     1       0.088   7.111  12.071  1.00  0.00     0.110 A 
HETATM   16  C19 UNL     1       1.243   6.252  12.495  1.00  0.00     0.051 C 
HETATM   17  O3  UNL     1       0.368   8.526  12.136  1.00  0.00    -0.367 OA
HETATM   18  C20 UNL     1       0.188   7.988  10.825  1.00  0.00     0.155 A 
HETATM   19  C21 UNL     1       1.394   8.043   9.958  1.00  0.00     0.042 C 
ENDBRANCH  12  15
ENDBRANCH  10  12
ENDBRANCH   9  10
ENDBRANCH   6   7
ENDBRANCH   4   5
ENDBRANCH   2   4
BRANCH   1  20
HETATM   20  C4  UNL     1      -9.554   7.311  15.064  1.00  0.00     0.085 C 
BRANCH  20  21
HETATM   21  C3  UNL     1     -10.975   7.672  14.683  1.00  0.00     0.023 A 
HETATM   22  N1  UNL     1     -11.826   6.615  14.581  1.00  0.00    -0.337 N 
HETATM   23  C2  UNL     1     -13.132   6.844  14.297  1.00  0.00     0.179 A 
ATOM     24  H1  UNL     1     -11.486   5.663  14.717  1.00  0.00     0.168 HD
HETATM   25  C25 UNL     1     -13.656   8.118  14.112  1.00  0.00     0.153 A 
HETATM   26  C24 UNL     1     -12.749   9.180  14.205  1.00  0.00     0.111 A 
HETATM   27  C22 UNL     1     -11.392   8.992  14.480  1.00  0.00    -0.003 A 
HETATM   28  C23 UNL     1     -10.468  10.168  14.613  1.00  0.00     0.053 C 
BRANCH  23  29
HETATM   29  O1  UNL     1     -13.959   5.748  14.173  1.00  0.00    -0.339 OA
HETATM   30  C1  UNL     1     -14.965   5.669  15.180  1.00  0.00     0.211 C 
ENDBRANCH  23  29
BRANCH  25  31
HETATM   31  O5  UNL     1     -14.940   8.507  13.835  1.00  0.00    -0.349 OA
HETATM   32  C26 UNL     1     -15.399   8.352  12.498  1.00  0.00     0.210 C 
ENDBRANCH  25  31
BRANCH  26  33
HETATM   33  O4  UNL     1     -13.220  10.462  14.031  1.00  0.00    -0.357 OA
HETATM   34  H36 UNL     1     -14.177  10.362  13.851  1.00  0.00     0.217 HD
ENDBRANCH  26  33
ENDBRANCH  20  21
ENDBRANCH   1  20
TORSDOF 12
ENDMDL
