MODEL 1
REMARK minimizedAffinity -7.99286032
REMARK CNNscore 0.852226973
REMARK CNNaffinity 6.91044664
REMARK  7 active torsions:
REMARK  status: ('A' for Active; 'I' for Inactive)
REMARK    1  A    between atoms: C2_2  and  C30_33 
REMARK    2  A    between atoms: C3_3  and  C4_4 
REMARK    3  A    between atoms: C4_4  and  C5_5 
REMARK    4  A    between atoms: C5_5  and  C6_6 
REMARK    5  A    between atoms: C6_6  and  C8_8 
REMARK    6  A    between atoms: C15_15  and  O1_16 
REMARK    7  A    between atoms: C30_33  and  O5_35 
ROOT
HETATM    1  C8  UNL     1       4.597  56.016  -8.325  1.00  0.00    -0.002 C 
HETATM    2  C9  UNL     1       5.465  55.091  -9.216  1.00  0.00     0.007 C 
HETATM    3  C10 UNL     1       4.518  54.224 -10.063  1.00  0.00     0.015 C 
HETATM    4  C11 UNL     1       3.136  54.887  -9.931  1.00  0.00    -0.005 C 
HETATM    5  C12 UNL     1       3.087  56.048 -10.971  1.00  0.00     0.021 C 
HETATM    6  C13 UNL     1       1.869  54.075 -10.184  1.00  0.00     0.002 C 
HETATM    7  C14 UNL     1       0.695  54.377  -9.563  1.00  0.00    -0.032 C 
HETATM    8  C15 UNL     1       0.641  55.560  -8.575  1.00  0.00     0.149 C 
HETATM    9  C16 UNL     1       1.974  56.244  -8.177  1.00  0.00     0.047 C 
HETATM   10  C17 UNL     1       3.190  55.335  -8.419  1.00  0.00    -0.026 C 
HETATM   11  C18 UNL     1       3.146  54.129  -7.427  1.00  0.00     0.016 C 
HETATM   12  C19 UNL     1      -0.638  53.616  -9.859  1.00  0.00    -0.012 C 
HETATM   13  C20 UNL     1      -0.885  52.596  -8.720  1.00  0.00     0.021 C 
HETATM   14  C21 UNL     1      -1.827  54.616  -9.938  1.00  0.00     0.021 C 
HETATM   15  C22 UNL     1      -3.072  54.149 -10.685  1.00  0.00     0.080 C 
HETATM   16  C23 UNL     1      -3.082  52.679 -11.010  1.00  0.00     0.135 C 
HETATM   17  O2  UNL     1      -4.107  52.015 -10.835  1.00  0.00    -0.297 OA
HETATM   18  C24 UNL     1      -1.831  52.088 -11.670  1.00  0.00     0.018 C 
HETATM   19  C25 UNL     1      -2.040  52.209 -13.196  1.00  0.00     0.023 C 
HETATM   20  C26 UNL     1      -1.752  50.583 -11.331  1.00  0.00     0.023 C 
HETATM   21  C27 UNL     1      -0.557  52.906 -11.256  1.00  0.00     0.020 C 
HETATM   22  C28 UNL     1       0.731  52.093 -11.379  1.00  0.00     0.090 C 
HETATM   23  C29 UNL     1       1.936  52.971 -11.193  1.00  0.00     0.157 C 
HETATM   24  O3  UNL     1       2.957  52.754 -11.842  1.00  0.00    -0.293 OA
ENDROOT
BRANCH   1  25
HETATM   25  C6  UNL     1       5.236  56.280  -6.923  1.00  0.00    -0.014 C 
HETATM   26  C7  UNL     1       5.118  57.755  -6.513  1.00  0.00     0.010 C 
BRANCH  25  27
HETATM   27  C5  UNL     1       6.747  55.907  -6.861  1.00  0.00     0.008 C 
BRANCH  27  28
HETATM   28  C4  UNL     1       7.632  56.652  -5.850  1.00  0.00     0.028 C 
BRANCH  28  29
HETATM   29  C3  UNL     1       9.000  56.062  -5.633  1.00  0.00    -0.013 C 
HETATM   30  C2  UNL     1      10.096  56.645  -5.104  1.00  0.00     0.008 C 
HETATM   31  C1  UNL     1      11.381  55.891  -4.926  1.00  0.00     0.055 C 
BRANCH  30  32
HETATM   32  C30 UNL     1      10.096  58.070  -4.696  1.00  0.00     0.171 C 
HETATM   33  O4  UNL     1      10.392  59.033  -5.378  1.00  0.00    -0.646 OA
BRANCH  32  34
HETATM   34  O5  UNL     1       9.727  58.209  -3.411  1.00  0.00    -0.773 OA
HETATM   35  H44 UNL     1       9.765  59.178  -3.270  1.00  0.00     0.167 HD
ENDBRANCH  32  34
ENDBRANCH  30  32
ENDBRANCH  28  29
ENDBRANCH  27  28
ENDBRANCH  25  27
ENDBRANCH   1  25
BRANCH   8  36
HETATM   36  O1  UNL     1      -0.009  55.156  -7.374  1.00  0.00    -0.391 OA
HETATM   37  H22 UNL     1       0.597  54.575  -6.886  1.00  0.00     0.210 HD
ENDBRANCH   8  36
TORSDOF 7
ENDMDL
MODEL 2
REMARK minimizedAffinity -7.31254864
REMARK CNNscore 0.827374279
REMARK CNNaffinity 7.039186
REMARK  7 active torsions:
REMARK  status: ('A' for Active; 'I' for Inactive)
REMARK    1  A    between atoms: C2_2  and  C30_33 
REMARK    2  A    between atoms: C3_3  and  C4_4 
REMARK    3  A    between atoms: C4_4  and  C5_5 
REMARK    4  A    between atoms: C5_5  and  C6_6 
REMARK    5  A    between atoms: C6_6  and  C8_8 
REMARK    6  A    between atoms: C15_15  and  O1_16 
REMARK    7  A    between atoms: C30_33  and  O5_35 
ROOT
HETATM    1  C8  UNL     1       4.775  56.371  -8.321  1.00  0.00    -0.002 C 
HETATM    2  C9  UNL     1       5.653  55.396  -9.148  1.00  0.00     0.007 C 
HETATM    3  C10 UNL     1       4.715  54.462  -9.930  1.00  0.00     0.015 C 
HETATM    4  C11 UNL     1       3.325  55.117  -9.843  1.00  0.00    -0.005 C 
HETATM    5  C12 UNL     1       3.262  56.203 -10.960  1.00  0.00     0.021 C 
HETATM    6  C13 UNL     1       2.067  54.275 -10.037  1.00  0.00     0.002 C 
HETATM    7  C14 UNL     1       0.891  54.606  -9.436  1.00  0.00    -0.032 C 
HETATM    8  C15 UNL     1       0.825  55.855  -8.532  1.00  0.00     0.149 C 
HETATM    9  C16 UNL     1       2.150  56.579  -8.185  1.00  0.00     0.047 C 
HETATM   10  C17 UNL     1       3.376  55.669  -8.365  1.00  0.00    -0.026 C 
HETATM   11  C18 UNL     1       3.347  54.535  -7.292  1.00  0.00     0.016 C 
HETATM   12  C19 UNL     1      -0.434  53.812  -9.677  1.00  0.00    -0.012 C 
HETATM   13  C20 UNL     1      -0.668  52.871  -8.469  1.00  0.00     0.021 C 
HETATM   14  C21 UNL     1      -1.634  54.791  -9.822  1.00  0.00     0.021 C 
HETATM   15  C22 UNL     1      -2.874  54.259 -10.533  1.00  0.00     0.080 C 
HETATM   16  C23 UNL     1      -2.868  52.770 -10.755  1.00  0.00     0.135 C 
HETATM   17  O2  UNL     1      -3.885  52.108 -10.533  1.00  0.00    -0.297 OA
HETATM   18  C24 UNL     1      -1.611  52.149 -11.375  1.00  0.00     0.018 C 
HETATM   19  C25 UNL     1      -1.822  52.161 -12.905  1.00  0.00     0.023 C 
HETATM   20  C26 UNL     1      -1.515  50.672 -10.933  1.00  0.00     0.023 C 
HETATM   21  C27 UNL     1      -0.346  53.008 -11.020  1.00  0.00     0.020 C 
HETATM   22  C28 UNL     1       0.952  52.203 -11.090  1.00  0.00     0.090 C 
HETATM   23  C29 UNL     1       2.146  53.104 -10.967  1.00  0.00     0.157 C 
HETATM   24  O3  UNL     1       3.169  52.855 -11.601  1.00  0.00    -0.293 OA
ENDROOT
BRANCH   1  25
HETATM   25  C6  UNL     1       5.412  56.739  -6.942  1.00  0.00    -0.014 C 
HETATM   26  C7  UNL     1       5.881  55.490  -6.181  1.00  0.00     0.010 C 
BRANCH  25  27
HETATM   27  C5  UNL     1       4.434  57.507  -6.004  1.00  0.00     0.008 C 
BRANCH  27  28
HETATM   28  C4  UNL     1       4.993  58.069  -4.687  1.00  0.00     0.028 C 
BRANCH  28  29
HETATM   29  C3  UNL     1       4.177  59.167  -4.058  1.00  0.00    -0.013 C 
HETATM   30  C2  UNL     1       4.583  60.381  -3.632  1.00  0.00     0.008 C 
HETATM   31  C1  UNL     1       3.620  61.377  -3.057  1.00  0.00     0.055 C 
BRANCH  30  32
HETATM   32  C30 UNL     1       6.008  60.785  -3.684  1.00  0.00     0.171 C 
HETATM   33  O4  UNL     1       6.928  60.180  -4.204  1.00  0.00    -0.646 OA
BRANCH  32  34
HETATM   34  O5  UNL     1       6.210  61.952  -3.050  1.00  0.00    -0.773 OA
HETATM   35  H44 UNL     1       7.171  62.105  -3.158  1.00  0.00     0.167 HD
ENDBRANCH  32  34
ENDBRANCH  30  32
ENDBRANCH  28  29
ENDBRANCH  27  28
ENDBRANCH  25  27
ENDBRANCH   1  25
BRANCH   8  36
HETATM   36  O1  UNL     1       0.181  55.527  -7.305  1.00  0.00    -0.391 OA
HETATM   37  H22 UNL     1       0.793  54.988  -6.779  1.00  0.00     0.210 HD
ENDBRANCH   8  36
TORSDOF 7
ENDMDL
MODEL 3
REMARK minimizedAffinity -8.13664818
REMARK CNNscore 0.796217799
REMARK CNNaffinity 6.47323847
REMARK  7 active torsions:
REMARK  status: ('A' for Active; 'I' for Inactive)
REMARK    1  A    between atoms: C2_2  and  C30_33 
REMARK    2  A    between atoms: C3_3  and  C4_4 
REMARK    3  A    between atoms: C4_4  and  C5_5 
REMARK    4  A    between atoms: C5_5  and  C6_6 
REMARK    5  A    between atoms: C6_6  and  C8_8 
REMARK    6  A    between atoms: C15_15  and  O1_16 
REMARK    7  A    between atoms: C30_33  and  O5_35 
ROOT
HETATM    1  C8  UNL     1     -12.739  45.838 -27.255  1.00  0.00    -0.002 C 
HETATM    2  C9  UNL     1     -13.274  44.922 -28.386  1.00  0.00     0.007 C 
HETATM    3  C10 UNL     1     -12.201  44.852 -29.486  1.00  0.00     0.015 C 
HETATM    4  C11 UNL     1     -10.924  45.420 -28.843  1.00  0.00    -0.005 C 
HETATM    5  C12 UNL     1     -10.258  44.256 -28.046  1.00  0.00     0.021 C 
HETATM    6  C13 UNL     1      -9.811  45.987 -29.719  1.00  0.00     0.002 C 
HETATM    7  C14 UNL     1      -8.985  46.971 -29.270  1.00  0.00    -0.032 C 
HETATM    8  C15 UNL     1      -9.177  47.535 -27.846  1.00  0.00     0.149 C 
HETATM    9  C16 UNL     1     -10.430  47.094 -27.048  1.00  0.00     0.047 C 
HETATM   10  C17 UNL     1     -11.550  46.570 -27.962  1.00  0.00    -0.026 C 
HETATM   11  C18 UNL     1     -12.119  47.747 -28.817  1.00  0.00     0.016 C 
HETATM   12  C19 UNL     1      -7.786  47.519 -30.111  1.00  0.00    -0.012 C 
HETATM   13  C20 UNL     1      -8.209  48.866 -30.749  1.00  0.00     0.021 C 
HETATM   14  C21 UNL     1      -6.540  47.733 -29.205  1.00  0.00     0.021 C 
HETATM   15  C22 UNL     1      -5.183  47.780 -29.900  1.00  0.00     0.080 C 
HETATM   16  C23 UNL     1      -5.260  47.886 -31.399  1.00  0.00     0.135 C 
HETATM   17  O2  UNL     1      -4.523  48.670 -32.002  1.00  0.00    -0.297 OA
HETATM   18  C24 UNL     1      -6.184  46.907 -32.135  1.00  0.00     0.018 C 
HETATM   19  C25 UNL     1      -5.327  45.669 -32.479  1.00  0.00     0.023 C 
HETATM   20  C26 UNL     1      -6.629  47.549 -33.468  1.00  0.00     0.023 C 
HETATM   21  C27 UNL     1      -7.371  46.473 -31.204  1.00  0.00     0.020 C 
HETATM   22  C28 UNL     1      -8.590  45.993 -31.990  1.00  0.00     0.090 C 
HETATM   23  C29 UNL     1      -9.609  45.380 -31.073  1.00  0.00     0.157 C 
HETATM   24  O3  UNL     1     -10.275  44.419 -31.452  1.00  0.00    -0.293 OA
ENDROOT
BRANCH   1  25
HETATM   25  C6  UNL     1     -13.867  46.676 -26.571  1.00  0.00    -0.014 C 
HETATM   26  C7  UNL     1     -13.565  46.932 -25.087  1.00  0.00     0.010 C 
BRANCH  25  27
HETATM   27  C5  UNL     1     -15.265  45.992 -26.643  1.00  0.00     0.008 C 
BRANCH  27  28
HETATM   28  C4  UNL     1     -16.149  46.026 -25.386  1.00  0.00     0.028 C 
BRANCH  28  29
HETATM   29  C3  UNL     1     -17.346  45.114 -25.415  1.00  0.00    -0.013 C 
HETATM   30  C2  UNL     1     -18.562  45.300 -24.861  1.00  0.00     0.008 C 
HETATM   31  C1  UNL     1     -19.663  44.294 -25.022  1.00  0.00     0.055 C 
BRANCH  30  32
HETATM   32  C30 UNL     1     -18.866  46.498 -24.044  1.00  0.00     0.171 C 
HETATM   33  O4  UNL     1     -18.852  46.587 -22.830  1.00  0.00    -0.646 OA
BRANCH  32  34
HETATM   34  O5  UNL     1     -19.196  47.547 -24.817  1.00  0.00    -0.773 OA
HETATM   35  H44 UNL     1     -19.367  48.261 -24.168  1.00  0.00     0.167 HD
ENDBRANCH  32  34
ENDBRANCH  30  32
ENDBRANCH  28  29
ENDBRANCH  27  28
ENDBRANCH  25  27
ENDBRANCH   1  25
BRANCH   8  36
HETATM   36  O1  UNL     1      -9.173  48.958 -27.886  1.00  0.00    -0.391 OA
HETATM   37  H22 UNL     1     -10.010  49.250 -28.283  1.00  0.00     0.210 HD
ENDBRANCH   8  36
TORSDOF 7
ENDMDL
MODEL 4
REMARK minimizedAffinity -7.13512897
REMARK CNNscore 0.618056536
REMARK CNNaffinity 6.88726568
REMARK  7 active torsions:
REMARK  status: ('A' for Active; 'I' for Inactive)
REMARK    1  A    between atoms: C2_2  and  C30_33 
REMARK    2  A    between atoms: C3_3  and  C4_4 
REMARK    3  A    between atoms: C4_4  and  C5_5 
REMARK    4  A    between atoms: C5_5  and  C6_6 
REMARK    5  A    between atoms: C6_6  and  C8_8 
REMARK    6  A    between atoms: C15_15  and  O1_16 
REMARK    7  A    between atoms: C30_33  and  O5_35 
ROOT
HETATM    1  C8  UNL     1      -3.129  51.283 -11.742  1.00  0.00    -0.002 C 
HETATM    2  C9  UNL     1      -3.773  51.115 -10.342  1.00  0.00     0.007 C 
HETATM    3  C10 UNL     1      -2.910  51.887  -9.329  1.00  0.00     0.015 C 
HETATM    4  C11 UNL     1      -1.993  52.784 -10.177  1.00  0.00    -0.005 C 
HETATM    5  C12 UNL     1      -2.810  54.063 -10.535  1.00  0.00     0.021 C 
HETATM    6  C13 UNL     1      -0.680  53.302  -9.599  1.00  0.00     0.002 C 
HETATM    7  C14 UNL     1       0.389  53.577 -10.397  1.00  0.00    -0.032 C 
HETATM    8  C15 UNL     1       0.278  53.353 -11.920  1.00  0.00     0.149 C 
HETATM    9  C16 UNL     1      -0.985  52.640 -12.465  1.00  0.00     0.047 C 
HETATM   10  C17 UNL     1      -1.699  51.810 -11.384  1.00  0.00    -0.026 C 
HETATM   11  C18 UNL     1      -0.801  50.598 -10.980  1.00  0.00     0.016 C 
HETATM   12  C19 UNL     1       1.721  54.184  -9.848  1.00  0.00    -0.012 C 
HETATM   13  C20 UNL     1       2.760  53.043  -9.711  1.00  0.00     0.021 C 
HETATM   14  C21 UNL     1       2.260  55.275 -10.816  1.00  0.00     0.021 C 
HETATM   15  C22 UNL     1       3.235  56.292 -10.232  1.00  0.00     0.080 C 
HETATM   16  C23 UNL     1       3.755  55.936  -8.865  1.00  0.00     0.135 C 
HETATM   17  O2  UNL     1       4.953  56.070  -8.606  1.00  0.00    -0.297 OA
HETATM   18  C24 UNL     1       2.730  55.532  -7.798  1.00  0.00     0.018 C 
HETATM   19  C25 UNL     1       2.318  56.830  -7.070  1.00  0.00     0.023 C 
HETATM   20  C26 UNL     1       3.424  54.619  -6.762  1.00  0.00     0.023 C 
HETATM   21  C27 UNL     1       1.465  54.892  -8.471  1.00  0.00     0.020 C 
HETATM   22  C28 UNL     1       0.692  53.976  -7.523  1.00  0.00     0.090 C 
HETATM   23  C29 UNL     1      -0.620  53.567  -8.127  1.00  0.00     0.157 C 
HETATM   24  O3  UNL     1      -1.607  53.428  -7.408  1.00  0.00    -0.293 OA
ENDROOT
BRANCH   1  25
HETATM   25  C6  UNL     1      -3.282  50.011 -12.637  1.00  0.00    -0.014 C 
HETATM   26  C7  UNL     1      -3.107  48.720 -11.825  1.00  0.00     0.010 C 
BRANCH  25  27
HETATM   27  C5  UNL     1      -2.253  49.959 -13.806  1.00  0.00     0.008 C 
BRANCH  27  28
HETATM   28  C4  UNL     1      -2.668  50.561 -15.158  1.00  0.00     0.028 C 
BRANCH  28  29
HETATM   29  C3  UNL     1      -2.658  49.604 -16.320  1.00  0.00    -0.013 C 
HETATM   30  C2  UNL     1      -2.260  49.825 -17.590  1.00  0.00     0.008 C 
HETATM   31  C1  UNL     1      -2.282  48.736 -18.622  1.00  0.00     0.055 C 
BRANCH  30  32
HETATM   32  C30 UNL     1      -1.805  51.161 -18.039  1.00  0.00     0.171 C 
HETATM   33  O4  UNL     1      -0.669  51.600 -18.022  1.00  0.00    -0.646 OA
BRANCH  32  34
HETATM   34  O5  UNL     1      -2.833  51.903 -18.486  1.00  0.00    -0.773 OA
HETATM   35  H44 UNL     1      -2.407  52.745 -18.750  1.00  0.00     0.167 HD
ENDBRANCH  32  34
ENDBRANCH  30  32
ENDBRANCH  28  29
ENDBRANCH  27  28
ENDBRANCH  25  27
ENDBRANCH   1  25
BRANCH   8  36
HETATM   36  O1  UNL     1       1.413  52.630 -12.385  1.00  0.00    -0.391 OA
HETATM   37  H22 UNL     1       1.327  51.711 -12.087  1.00  0.00     0.210 HD
ENDBRANCH   8  36
TORSDOF 7
ENDMDL
MODEL 5
REMARK minimizedAffinity -9.34386158
REMARK CNNscore 0.600958288
REMARK CNNaffinity 6.80574179
REMARK  7 active torsions:
REMARK  status: ('A' for Active; 'I' for Inactive)
REMARK    1  A    between atoms: C2_2  and  C30_33 
REMARK    2  A    between atoms: C3_3  and  C4_4 
REMARK    3  A    between atoms: C4_4  and  C5_5 
REMARK    4  A    between atoms: C5_5  and  C6_6 
REMARK    5  A    between atoms: C6_6  and  C8_8 
REMARK    6  A    between atoms: C15_15  and  O1_16 
REMARK    7  A    between atoms: C30_33  and  O5_35 
ROOT
HETATM    1  C8  UNL     1      -2.631  50.043 -21.926  1.00  0.00    -0.002 C 
HETATM    2  C9  UNL     1      -2.123  51.452 -22.326  1.00  0.00     0.007 C 
HETATM    3  C10 UNL     1      -1.207  51.961 -21.200  1.00  0.00     0.015 C 
HETATM    4  C11 UNL     1      -0.900  50.725 -20.337  1.00  0.00    -0.005 C 
HETATM    5  C12 UNL     1       0.278  49.970 -21.025  1.00  0.00     0.021 C 
HETATM    6  C13 UNL     1      -0.467  50.893 -18.883  1.00  0.00     0.002 C 
HETATM    7  C14 UNL     1      -0.732  49.940 -17.948  1.00  0.00    -0.032 C 
HETATM    8  C15 UNL     1      -1.494  48.663 -18.359  1.00  0.00     0.149 C 
HETATM    9  C16 UNL     1      -2.100  48.599 -19.784  1.00  0.00     0.047 C 
HETATM   10  C17 UNL     1      -2.298  49.995 -20.397  1.00  0.00    -0.026 C 
HETATM   11  C18 UNL     1      -3.414  50.757 -19.614  1.00  0.00     0.016 C 
HETATM   12  C19 UNL     1      -0.234  50.044 -16.469  1.00  0.00    -0.012 C 
HETATM   13  C20 UNL     1      -1.415  50.518 -15.586  1.00  0.00     0.021 C 
HETATM   14  C21 UNL     1       0.277  48.663 -15.970  1.00  0.00     0.021 C 
HETATM   15  C22 UNL     1       1.228  48.670 -14.778  1.00  0.00     0.080 C 
HETATM   16  C23 UNL     1       1.327  49.997 -14.075  1.00  0.00     0.135 C 
HETATM   17  O2  UNL     1       1.313  50.046 -12.843  1.00  0.00    -0.297 OA
HETATM   18  C24 UNL     1       1.570  51.242 -14.937  1.00  0.00     0.018 C 
HETATM   19  C25 UNL     1       3.101  51.419 -15.034  1.00  0.00     0.023 C 
HETATM   20  C26 UNL     1       1.006  52.476 -14.199  1.00  0.00     0.023 C 
HETATM   21  C27 UNL     1       0.981  51.032 -16.377  1.00  0.00     0.020 C 
HETATM   22  C28 UNL     1       0.667  52.350 -17.084  1.00  0.00     0.090 C 
HETATM   23  C29 UNL     1       0.323  52.114 -18.526  1.00  0.00     0.157 C 
HETATM   24  O3  UNL     1       0.665  52.931 -19.378  1.00  0.00    -0.293 OA
ENDROOT
BRANCH   1  25
HETATM   25  C6  UNL     1      -4.092  49.767 -22.407  1.00  0.00    -0.014 C 
HETATM   26  C7  UNL     1      -4.559  48.353 -22.029  1.00  0.00     0.010 C 
BRANCH  25  27
HETATM   27  C5  UNL     1      -4.264  49.907 -23.950  1.00  0.00     0.008 C 
BRANCH  27  28
HETATM   28  C4  UNL     1      -3.398  49.017 -24.855  1.00  0.00     0.028 C 
BRANCH  28  29
HETATM   29  C3  UNL     1      -4.093  48.467 -26.072  1.00  0.00    -0.013 C 
HETATM   30  C2  UNL     1      -3.965  48.847 -27.360  1.00  0.00     0.008 C 
HETATM   31  C1  UNL     1      -4.714  48.159 -28.463  1.00  0.00     0.055 C 
BRANCH  30  32
HETATM   32  C30 UNL     1      -3.095  49.982 -27.751  1.00  0.00     0.171 C 
HETATM   33  O4  UNL     1      -2.121  50.404 -27.157  1.00  0.00    -0.646 OA
BRANCH  32  34
HETATM   34  O5  UNL     1      -3.519  50.552 -28.892  1.00  0.00    -0.773 OA
HETATM   35  H44 UNL     1      -2.871  51.272 -29.039  1.00  0.00     0.167 HD
ENDBRANCH  32  34
ENDBRANCH  30  32
ENDBRANCH  28  29
ENDBRANCH  27  28
ENDBRANCH  25  27
ENDBRANCH   1  25
BRANCH   8  36
HETATM   36  O1  UNL     1      -2.546  48.411 -17.433  1.00  0.00    -0.391 OA
HETATM   37  H22 UNL     1      -3.246  49.065 -17.588  1.00  0.00     0.210 HD
ENDBRANCH   8  36
TORSDOF 7
ENDMDL
MODEL 6
REMARK minimizedAffinity -7.24362326
REMARK CNNscore 0.591407895
REMARK CNNaffinity 5.94632959
REMARK  7 active torsions:
REMARK  status: ('A' for Active; 'I' for Inactive)
REMARK    1  A    between atoms: C2_2  and  C30_33 
REMARK    2  A    between atoms: C3_3  and  C4_4 
REMARK    3  A    between atoms: C4_4  and  C5_5 
REMARK    4  A    between atoms: C5_5  and  C6_6 
REMARK    5  A    between atoms: C6_6  and  C8_8 
REMARK    6  A    between atoms: C15_15  and  O1_16 
REMARK    7  A    between atoms: C30_33  and  O5_35 
ROOT
HETATM    1  C8  UNL     1     -14.584  45.349 -25.192  1.00  0.00    -0.002 C 
HETATM    2  C9  UNL     1     -14.685  43.894 -25.719  1.00  0.00     0.007 C 
HETATM    3  C10 UNL     1     -13.515  43.661 -26.691  1.00  0.00     0.015 C 
HETATM    4  C11 UNL     1     -12.550  44.834 -26.452  1.00  0.00    -0.005 C 
HETATM    5  C12 UNL     1     -11.670  44.457 -25.220  1.00  0.00     0.021 C 
HETATM    6  C13 UNL     1     -11.557  45.243 -27.537  1.00  0.00     0.002 C 
HETATM    7  C14 UNL     1     -11.118  46.526 -27.650  1.00  0.00    -0.032 C 
HETATM    8  C15 UNL     1     -11.637  47.597 -26.668  1.00  0.00     0.149 C 
HETATM    9  C16 UNL     1     -12.790  47.212 -25.707  1.00  0.00     0.047 C 
HETATM   10  C17 UNL     1     -13.588  45.998 -26.211  1.00  0.00    -0.026 C 
HETATM   11  C18 UNL     1     -14.372  46.388 -27.504  1.00  0.00     0.016 C 
HETATM   12  C19 UNL     1     -10.042  46.963 -28.698  1.00  0.00    -0.012 C 
HETATM   13  C20 UNL     1     -10.764  47.641 -29.889  1.00  0.00     0.021 C 
HETATM   14  C21 UNL     1      -9.033  47.957 -28.058  1.00  0.00     0.021 C 
HETATM   15  C22 UNL     1      -7.677  48.099 -28.742  1.00  0.00     0.080 C 
HETATM   16  C23 UNL     1      -7.602  47.460 -30.103  1.00  0.00     0.135 C 
HETATM   17  O2  UNL     1      -7.063  48.057 -31.038  1.00  0.00    -0.297 OA
HETATM   18  C24 UNL     1      -8.101  46.016 -30.238  1.00  0.00     0.018 C 
HETATM   19  C25 UNL     1      -6.883  45.103 -29.977  1.00  0.00     0.023 C 
HETATM   20  C26 UNL     1      -8.553  45.780 -31.697  1.00  0.00     0.023 C 
HETATM   21  C27 UNL     1      -9.210  45.719 -29.167  1.00  0.00     0.020 C 
HETATM   22  C28 UNL     1     -10.130  44.569 -29.575  1.00  0.00     0.090 C 
HETATM   23  C29 UNL     1     -11.024  44.172 -28.437  1.00  0.00     0.157 C 
HETATM   24  O3  UNL     1     -11.327  42.991 -28.279  1.00  0.00    -0.293 OA
ENDROOT
BRANCH   1  25
HETATM   25  C6  UNL     1     -15.982  46.005 -24.953  1.00  0.00    -0.014 C 
HETATM   26  C7  UNL     1     -15.860  47.361 -24.243  1.00  0.00     0.010 C 
BRANCH  25  27
HETATM   27  C5  UNL     1     -16.932  45.120 -24.091  1.00  0.00     0.008 C 
BRANCH  27  28
HETATM   28  C4  UNL     1     -16.579  44.917 -22.609  1.00  0.00     0.028 C 
BRANCH  28  29
HETATM   29  C3  UNL     1     -17.129  45.955 -21.667  1.00  0.00    -0.013 C 
HETATM   30  C2  UNL     1     -18.359  46.025 -21.115  1.00  0.00     0.008 C 
HETATM   31  C1  UNL     1     -18.731  47.119 -20.159  1.00  0.00     0.055 C 
BRANCH  30  32
HETATM   32  C30 UNL     1     -19.414  45.039 -21.445  1.00  0.00     0.171 C 
HETATM   33  O4  UNL     1     -19.901  44.815 -22.538  1.00  0.00    -0.646 OA
BRANCH  32  34
HETATM   34  O5  UNL     1     -19.824  44.377 -20.349  1.00  0.00    -0.773 OA
HETATM   35  H44 UNL     1     -20.507  43.766 -20.696  1.00  0.00     0.167 HD
ENDBRANCH  32  34
ENDBRANCH  30  32
ENDBRANCH  28  29
ENDBRANCH  27  28
ENDBRANCH  25  27
ENDBRANCH   1  25
BRANCH   8  36
HETATM   36  O1  UNL     1     -12.048  48.754 -27.390  1.00  0.00    -0.391 OA
HETATM   37  H22 UNL     1     -12.880  48.545 -27.844  1.00  0.00     0.210 HD
ENDBRANCH   8  36
TORSDOF 7
ENDMDL
MODEL 7
REMARK minimizedAffinity -7.37673473
REMARK CNNscore 0.43585068
REMARK CNNaffinity 5.76039743
REMARK  7 active torsions:
REMARK  status: ('A' for Active; 'I' for Inactive)
REMARK    1  A    between atoms: C2_2  and  C30_33 
REMARK    2  A    between atoms: C3_3  and  C4_4 
REMARK    3  A    between atoms: C4_4  and  C5_5 
REMARK    4  A    between atoms: C5_5  and  C6_6 
REMARK    5  A    between atoms: C6_6  and  C8_8 
REMARK    6  A    between atoms: C15_15  and  O1_16 
REMARK    7  A    between atoms: C30_33  and  O5_35 
ROOT
HETATM    1  C8  UNL     1     -13.283  46.593 -25.336  1.00  0.00    -0.002 C 
HETATM    2  C9  UNL     1     -12.439  45.534 -24.579  1.00  0.00     0.007 C 
HETATM    3  C10 UNL     1     -11.138  45.314 -25.370  1.00  0.00     0.015 C 
HETATM    4  C11 UNL     1     -11.066  46.484 -26.366  1.00  0.00    -0.005 C 
HETATM    5  C12 UNL     1     -10.456  47.697 -25.599  1.00  0.00     0.021 C 
HETATM    6  C13 UNL     1     -10.230  46.358 -27.637  1.00  0.00     0.002 C 
HETATM    7  C14 UNL     1     -10.553  47.041 -28.770  1.00  0.00    -0.032 C 
HETATM    8  C15 UNL     1     -11.795  47.957 -28.777  1.00  0.00     0.149 C 
HETATM    9  C16 UNL     1     -12.741  47.918 -27.550  1.00  0.00     0.047 C 
HETATM   10  C17 UNL     1     -12.592  46.619 -26.740  1.00  0.00    -0.026 C 
HETATM   11  C18 UNL     1     -13.119  45.415 -27.584  1.00  0.00     0.016 C 
HETATM   12  C19 UNL     1      -9.676  46.997 -30.063  1.00  0.00    -0.012 C 
HETATM   13  C20 UNL     1     -10.335  46.022 -31.070  1.00  0.00     0.021 C 
HETATM   14  C21 UNL     1      -9.568  48.414 -30.694  1.00  0.00     0.021 C 
HETATM   15  C22 UNL     1      -8.393  48.662 -31.635  1.00  0.00     0.080 C 
HETATM   16  C23 UNL     1      -7.652  47.415 -32.038  1.00  0.00     0.135 C 
HETATM   17  O2  UNL     1      -7.319  47.248 -33.214  1.00  0.00    -0.297 OA
HETATM   18  C24 UNL     1      -7.228  46.449 -30.925  1.00  0.00     0.018 C 
HETATM   19  C25 UNL     1      -5.817  46.887 -30.476  1.00  0.00     0.023 C 
HETATM   20  C26 UNL     1      -7.105  45.028 -31.520  1.00  0.00     0.023 C 
HETATM   21  C27 UNL     1      -8.214  46.551 -29.708  1.00  0.00     0.020 C 
HETATM   22  C28 UNL     1      -8.222  45.288 -28.849  1.00  0.00     0.090 C 
HETATM   23  C29 UNL     1      -8.998  45.510 -27.583  1.00  0.00     0.157 C 
HETATM   24  O3  UNL     1      -8.632  44.974 -26.539  1.00  0.00    -0.293 OA
ENDROOT
BRANCH   1  25
HETATM   25  C6  UNL     1     -14.820  46.327 -25.235  1.00  0.00    -0.014 C 
HETATM   26  C7  UNL     1     -15.533  47.416 -24.420  1.00  0.00     0.010 C 
BRANCH  25  27
HETATM   27  C5  UNL     1     -15.161  44.960 -24.569  1.00  0.00     0.008 C 
BRANCH  27  28
HETATM   28  C4  UNL     1     -16.622  44.695 -24.175  1.00  0.00     0.028 C 
BRANCH  28  29
HETATM   29  C3  UNL     1     -17.559  44.425 -25.322  1.00  0.00    -0.013 C 
HETATM   30  C2  UNL     1     -18.710  45.056 -25.638  1.00  0.00     0.008 C 
HETATM   31  C1  UNL     1     -19.508  44.677 -26.850  1.00  0.00     0.055 C 
BRANCH  30  32
HETATM   32  C30 UNL     1     -19.258  46.139 -24.789  1.00  0.00     0.171 C 
HETATM   33  O4  UNL     1     -19.113  47.339 -24.936  1.00  0.00    -0.646 OA
BRANCH  32  34
HETATM   34  O5  UNL     1     -19.968  45.643 -23.761  1.00  0.00    -0.773 OA
HETATM   35  H44 UNL     1     -20.272  46.445 -23.288  1.00  0.00     0.167 HD
ENDBRANCH  32  34
ENDBRANCH  30  32
ENDBRANCH  28  29
ENDBRANCH  27  28
ENDBRANCH  25  27
ENDBRANCH   1  25
BRANCH   8  36
HETATM   36  O1  UNL     1     -12.581  47.694 -29.935  1.00  0.00    -0.391 OA
HETATM   37  H22 UNL     1     -13.022  46.838 -29.810  1.00  0.00     0.210 HD
ENDBRANCH   8  36
TORSDOF 7
ENDMDL
MODEL 8
REMARK minimizedAffinity -9.49700546
REMARK CNNscore 0.426532894
REMARK CNNaffinity 6.71924162
REMARK  7 active torsions:
REMARK  status: ('A' for Active; 'I' for Inactive)
REMARK    1  A    between atoms: C2_2  and  C30_33 
REMARK    2  A    between atoms: C3_3  and  C4_4 
REMARK    3  A    between atoms: C4_4  and  C5_5 
REMARK    4  A    between atoms: C5_5  and  C6_6 
REMARK    5  A    between atoms: C6_6  and  C8_8 
REMARK    6  A    between atoms: C15_15  and  O1_16 
REMARK    7  A    between atoms: C30_33  and  O5_35 
ROOT
HETATM    1  C8  UNL     1      -1.171  51.007 -23.044  1.00  0.00    -0.002 C 
HETATM    2  C9  UNL     1      -0.562  52.431 -23.103  1.00  0.00     0.007 C 
HETATM    3  C10 UNL     1       0.026  52.752 -21.719  1.00  0.00     0.015 C 
HETATM    4  C11 UNL     1       0.081  51.404 -20.979  1.00  0.00    -0.005 C 
HETATM    5  C12 UNL     1       1.393  50.690 -21.429  1.00  0.00     0.021 C 
HETATM    6  C13 UNL     1       0.113  51.367 -19.454  1.00  0.00     0.002 C 
HETATM    7  C14 UNL     1      -0.401  50.316 -18.758  1.00  0.00    -0.032 C 
HETATM    8  C15 UNL     1      -1.038  49.136 -19.522  1.00  0.00     0.149 C 
HETATM    9  C16 UNL     1      -1.243  49.281 -21.051  1.00  0.00     0.047 C 
HETATM   10  C17 UNL     1      -1.257  50.751 -21.502  1.00  0.00    -0.026 C 
HETATM   11  C18 UNL     1      -2.534  51.456 -20.944  1.00  0.00     0.016 C 
HETATM   12  C19 UNL     1      -0.313  50.209 -17.200  1.00  0.00    -0.012 C 
HETATM   13  C20 UNL     1      -1.682  50.619 -16.603  1.00  0.00     0.021 C 
HETATM   14  C21 UNL     1       0.034  48.753 -16.775  1.00  0.00     0.021 C 
HETATM   15  C22 UNL     1       0.634  48.566 -15.385  1.00  0.00     0.080 C 
HETATM   16  C23 UNL     1       0.555  49.788 -14.509  1.00  0.00     0.135 C 
HETATM   17  O2  UNL     1       0.214  49.681 -13.329  1.00  0.00    -0.297 OA
HETATM   18  C24 UNL     1       1.030  51.120 -15.102  1.00  0.00     0.018 C 
HETATM   19  C25 UNL     1       2.533  51.239 -14.769  1.00  0.00     0.023 C 
HETATM   20  C26 UNL     1       0.301  52.275 -14.379  1.00  0.00     0.023 C 
HETATM   21  C27 UNL     1       0.843  51.121 -16.661  1.00  0.00     0.020 C 
HETATM   22  C28 UNL     1       0.742  52.531 -17.241  1.00  0.00     0.090 C 
HETATM   23  C29 UNL     1       0.791  52.495 -18.741  1.00  0.00     0.157 C 
HETATM   24  O3  UNL     1       1.356  53.397 -19.356  1.00  0.00    -0.293 OA
ENDROOT
BRANCH   1  25
HETATM   25  C6  UNL     1      -2.454  50.860 -23.924  1.00  0.00    -0.014 C 
HETATM   26  C7  UNL     1      -2.799  49.387 -24.187  1.00  0.00     0.010 C 
BRANCH  25  27
HETATM   27  C5  UNL     1      -2.324  51.554 -25.314  1.00  0.00     0.008 C 
BRANCH  27  28
HETATM   28  C4  UNL     1      -1.639  50.773 -26.447  1.00  0.00     0.028 C 
BRANCH  28  29
HETATM   29  C3  UNL     1      -0.137  50.709 -26.369  1.00  0.00    -0.013 C 
HETATM   30  C2  UNL     1       0.765  51.660 -26.687  1.00  0.00     0.008 C 
HETATM   31  C1  UNL     1       2.238  51.438 -26.511  1.00  0.00     0.055 C 
BRANCH  30  32
HETATM   32  C30 UNL     1       0.350  52.966 -27.251  1.00  0.00     0.171 C 
HETATM   33  O4  UNL     1       0.292  54.035 -26.673  1.00  0.00    -0.646 OA
BRANCH  32  34
HETATM   34  O5  UNL     1       0.004  52.851 -28.544  1.00  0.00    -0.773 OA
HETATM   35  H44 UNL     1      -0.243  53.766 -28.795  1.00  0.00     0.167 HD
ENDBRANCH  32  34
ENDBRANCH  30  32
ENDBRANCH  28  29
ENDBRANCH  27  28
ENDBRANCH  25  27
ENDBRANCH   1  25
BRANCH   8  36
HETATM   36  O1  UNL     1      -2.301  48.816 -18.948  1.00  0.00    -0.391 OA
HETATM   37  H22 UNL     1      -2.928  49.515 -19.192  1.00  0.00     0.210 HD
ENDBRANCH   8  36
TORSDOF 7
ENDMDL
MODEL 9
REMARK minimizedAffinity -7.43274784
REMARK CNNscore 0.399923503
REMARK CNNaffinity 5.64843941
REMARK  7 active torsions:
REMARK  status: ('A' for Active; 'I' for Inactive)
REMARK    1  A    between atoms: C2_2  and  C30_33 
REMARK    2  A    between atoms: C3_3  and  C4_4 
REMARK    3  A    between atoms: C4_4  and  C5_5 
REMARK    4  A    between atoms: C5_5  and  C6_6 
REMARK    5  A    between atoms: C6_6  and  C8_8 
REMARK    6  A    between atoms: C15_15  and  O1_16 
REMARK    7  A    between atoms: C30_33  and  O5_35 
ROOT
HETATM    1  C8  UNL     1     -14.253  45.072 -24.892  1.00  0.00    -0.002 C 
HETATM    2  C9  UNL     1     -14.541  43.710 -25.574  1.00  0.00     0.007 C 
HETATM    3  C10 UNL     1     -13.675  43.624 -26.843  1.00  0.00     0.015 C 
HETATM    4  C11 UNL     1     -12.639  44.752 -26.703  1.00  0.00    -0.005 C 
HETATM    5  C12 UNL     1     -11.483  44.201 -25.814  1.00  0.00     0.021 C 
HETATM    6  C13 UNL     1     -11.950  45.318 -27.941  1.00  0.00     0.002 C 
HETATM    7  C14 UNL     1     -11.509  46.606 -27.983  1.00  0.00    -0.032 C 
HETATM    8  C15 UNL     1     -11.714  47.520 -26.757  1.00  0.00     0.149 C 
HETATM    9  C16 UNL     1     -12.589  46.994 -25.591  1.00  0.00     0.047 C 
HETATM   10  C17 UNL     1     -13.535  45.865 -26.034  1.00  0.00    -0.026 C 
HETATM   11  C18 UNL     1     -14.615  46.440 -27.005  1.00  0.00     0.016 C 
HETATM   12  C19 UNL     1     -10.729  47.193 -29.205  1.00  0.00    -0.012 C 
HETATM   13  C20 UNL     1     -11.712  48.037 -30.054  1.00  0.00     0.021 C 
HETATM   14  C21 UNL     1      -9.552  48.086 -28.719  1.00  0.00     0.021 C 
HETATM   15  C22 UNL     1      -8.418  48.330 -29.709  1.00  0.00     0.080 C 
HETATM   16  C23 UNL     1      -8.725  47.897 -31.118  1.00  0.00     0.135 C 
HETATM   17  O2  UNL     1      -8.427  48.626 -32.067  1.00  0.00    -0.297 OA
HETATM   18  C24 UNL     1      -9.294  46.487 -31.321  1.00  0.00     0.018 C 
HETATM   19  C25 UNL     1      -8.084  45.549 -31.522  1.00  0.00     0.023 C 
HETATM   20  C26 UNL     1     -10.119  46.467 -32.627  1.00  0.00     0.023 C 
HETATM   21  C27 UNL     1     -10.094  46.034 -30.049  1.00  0.00     0.020 C 
HETATM   22  C28 UNL     1     -11.130  44.954 -30.359  1.00  0.00     0.090 C 
HETATM   23  C29 UNL     1     -11.710  44.392 -29.093  1.00  0.00     0.157 C 
HETATM   24  O3  UNL     1     -12.004  43.200 -29.031  1.00  0.00    -0.293 OA
ENDROOT
BRANCH   1  25
HETATM   25  C6  UNL     1     -15.515  45.682 -24.201  1.00  0.00    -0.014 C 
HETATM   26  C7  UNL     1     -16.721  45.722 -25.152  1.00  0.00     0.010 C 
BRANCH  25  27
HETATM   27  C5  UNL     1     -15.288  47.136 -23.689  1.00  0.00     0.008 C 
BRANCH  27  28
HETATM   28  C4  UNL     1     -14.488  47.326 -22.391  1.00  0.00     0.028 C 
BRANCH  28  29
HETATM   29  C3  UNL     1     -15.276  47.159 -21.119  1.00  0.00    -0.013 C 
HETATM   30  C2  UNL     1     -15.075  47.744 -19.919  1.00  0.00     0.008 C 
HETATM   31  C1  UNL     1     -15.989  47.489 -18.757  1.00  0.00     0.055 C 
BRANCH  30  32
HETATM   32  C30 UNL     1     -13.926  48.648 -19.680  1.00  0.00     0.171 C 
HETATM   33  O4  UNL     1     -13.798  49.797 -20.063  1.00  0.00    -0.646 OA
BRANCH  32  34
HETATM   34  O5  UNL     1     -12.965  48.039 -18.966  1.00  0.00    -0.773 OA
HETATM   35  H44 UNL     1     -12.277  48.730 -18.876  1.00  0.00     0.167 HD
ENDBRANCH  32  34
ENDBRANCH  30  32
ENDBRANCH  28  29
ENDBRANCH  27  28
ENDBRANCH  25  27
ENDBRANCH   1  25
BRANCH   8  36
HETATM   36  O1  UNL     1     -12.257  48.769 -27.173  1.00  0.00    -0.391 OA
HETATM   37  H22 UNL     1     -13.186  48.626 -27.417  1.00  0.00     0.210 HD
ENDBRANCH   8  36
TORSDOF 7
ENDMDL
