MODEL 1
REMARK minimizedAffinity -10.6038189
REMARK  4 active torsions:
REMARK  status: ('A' for Active; 'I' for Inactive)
REMARK    1  A    between atoms: C3_3  and  C4_4 
REMARK    2  A    between atoms: C4_4  and  O1_5 
REMARK    3  A    between atoms: C6_9  and  C7_10 
REMARK    4  A    between atoms: C7_10  and  C9_12 
ROOT
HETATM    1  C9  UNL     1      -0.409  50.948 -19.427  1.00  0.00     0.000 C 
HETATM    2  C10 UNL     1      -0.737  49.498 -18.964  1.00  0.00     0.006 C 
HETATM    3  C11 UNL     1      -1.567  48.839 -20.076  1.00  0.00     0.006 C 
HETATM    4  C12 UNL     1      -1.510  49.846 -21.215  1.00  0.00    -0.001 C 
HETATM    5  C13 UNL     1      -2.551  49.741 -22.340  1.00  0.00     0.000 C 
HETATM    6  C14 UNL     1      -2.640  48.331 -22.946  1.00  0.00     0.010 C 
HETATM    7  C15 UNL     1      -3.722  48.251 -24.023  1.00  0.00     0.036 C 
HETATM    8  C16 UNL     1      -3.588  49.346 -25.057  1.00  0.00    -0.063 A 
HETATM    9  C17 UNL     1      -3.533  49.036 -26.364  1.00  0.00     0.058 A 
HETATM   10  C18 UNL     1      -3.367  50.069 -27.409  1.00  0.00     0.172 A 
HETATM   11  O4  UNL     1      -3.357  49.778 -28.600  1.00  0.00    -0.289 OA
HETATM   12  C19 UNL     1      -3.202  51.463 -26.962  1.00  0.00     0.052 A 
HETATM   13  C20 UNL     1      -3.253  51.780 -25.661  1.00  0.00    -0.008 A 
HETATM   14  C21 UNL     1      -3.485  50.786 -24.524  1.00  0.00     0.005 A 
HETATM   15  C22 UNL     1      -4.866  51.175 -23.939  1.00  0.00     0.025 C 
HETATM   16  C23 UNL     1      -2.299  50.841 -23.448  1.00  0.00    -0.025 C 
HETATM   17  C24 UNL     1      -0.939  50.593 -24.183  1.00  0.00     0.017 C 
HETATM   18  C25 UNL     1      -2.185  52.236 -22.750  1.00  0.00     0.012 C 
HETATM   19  C26 UNL     1      -1.209  52.289 -21.555  1.00  0.00     0.011 C 
HETATM   20  C27 UNL     1      -1.524  51.222 -20.490  1.00  0.00    -0.036 C 
HETATM   21  C28 UNL     1      -2.868  51.554 -19.795  1.00  0.00     0.016 C 
ENDROOT
BRANCH   1  22
HETATM   22  C7  UNL     1      -0.206  51.932 -18.230  1.00  0.00     0.016 C 
HETATM   23  C8  UNL     1       0.211  53.326 -18.727  1.00  0.00     0.013 C 
BRANCH  22  24
HETATM   24  C6  UNL     1       0.867  51.469 -17.192  1.00  0.00     0.140 C 
HETATM   25  O3  UNL     1       0.223  51.098 -15.962  1.00  0.00    -0.311 OA
HETATM   26  C5  UNL     1       0.966  50.782 -14.873  1.00  0.00     0.292 C 
HETATM   27  C3  UNL     1       2.424  51.090 -14.928  1.00  0.00     0.042 C 
HETATM   28  O2  UNL     1       0.449  50.279 -13.883  1.00  0.00    -0.260 OA
HETATM   29  C2  UNL     1       2.904  51.922 -15.880  1.00  0.00    -0.067 C 
HETATM   30  C1  UNL     1       4.338  52.356 -15.999  1.00  0.00     0.044 C 
HETATM   31  C29 UNL     1       1.974  52.487 -16.925  1.00  0.00     0.067 C 
BRANCH  27  32
HETATM   32  C4  UNL     1       3.251  50.416 -13.872  1.00  0.00     0.209 C 
BRANCH  32  33
HETATM   33  O1  UNL     1       4.613  50.290 -14.267  1.00  0.00    -0.396 OA
HETATM   34  H6  UNL     1       4.709  50.643 -15.170  1.00  0.00     0.209 HD
ENDBRANCH  32  33
ENDBRANCH  27  32
ENDBRANCH  22  24
ENDBRANCH   1  22
TORSDOF 4
ENDMDL
MODEL 2
REMARK minimizedAffinity -10.2881145
REMARK  4 active torsions:
REMARK  status: ('A' for Active; 'I' for Inactive)
REMARK    1  A    between atoms: C3_3  and  C4_4 
REMARK    2  A    between atoms: C4_4  and  O1_5 
REMARK    3  A    between atoms: C6_9  and  C7_10 
REMARK    4  A    between atoms: C7_10  and  C9_12 
ROOT
HETATM    1  C9  UNL     1      -6.330  49.436 -22.901  1.00  0.00     0.000 C 
HETATM    2  C10 UNL     1      -7.016  49.512 -21.506  1.00  0.00     0.006 C 
HETATM    3  C11 UNL     1      -5.964  50.015 -20.505  1.00  0.00     0.006 C 
HETATM    4  C12 UNL     1      -4.786  50.406 -21.384  1.00  0.00    -0.001 C 
HETATM    5  C13 UNL     1      -3.404  50.561 -20.732  1.00  0.00     0.000 C 
HETATM    6  C14 UNL     1      -3.420  51.487 -19.505  1.00  0.00     0.010 C 
HETATM    7  C15 UNL     1      -2.040  51.574 -18.852  1.00  0.00     0.036 C 
HETATM    8  C16 UNL     1      -0.951  51.907 -19.846  1.00  0.00    -0.063 A 
HETATM    9  C17 UNL     1      -0.127  52.946 -19.621  1.00  0.00     0.058 A 
HETATM   10  C18 UNL     1       0.929  53.331 -20.581  1.00  0.00     0.172 A 
HETATM   11  O4  UNL     1       1.699  54.256 -20.349  1.00  0.00    -0.289 OA
HETATM   12  C19 UNL     1       1.014  52.565 -21.837  1.00  0.00     0.052 A 
HETATM   13  C20 UNL     1       0.195  51.530 -22.069  1.00  0.00    -0.008 A 
HETATM   14  C21 UNL     1      -0.879  51.027 -21.106  1.00  0.00     0.005 A 
HETATM   15  C22 UNL     1      -0.389  49.621 -20.675  1.00  0.00     0.025 C 
HETATM   16  C23 UNL     1      -2.325  51.014 -21.795  1.00  0.00    -0.025 C 
HETATM   17  C24 UNL     1      -2.639  52.450 -22.334  1.00  0.00     0.017 C 
HETATM   18  C25 UNL     1      -2.396  50.048 -23.023  1.00  0.00     0.012 C 
HETATM   19  C26 UNL     1      -3.814  49.827 -23.596  1.00  0.00     0.011 C 
HETATM   20  C27 UNL     1      -4.813  49.350 -22.526  1.00  0.00    -0.036 C 
HETATM   21  C28 UNL     1      -4.447  47.916 -22.067  1.00  0.00     0.016 C 
ENDROOT
BRANCH   1  22
HETATM   22  C7  UNL     1      -6.971  48.357 -23.831  1.00  0.00     0.016 C 
HETATM   23  C8  UNL     1      -6.669  46.938 -23.319  1.00  0.00     0.013 C 
BRANCH  22  24
HETATM   24  C6  UNL     1      -6.494  48.424 -25.318  1.00  0.00     0.140 C 
HETATM   25  O3  UNL     1      -7.335  47.593 -26.135  1.00  0.00    -0.311 OA
HETATM   26  C5  UNL     1      -7.034  47.397 -27.443  1.00  0.00     0.292 C 
HETATM   27  C3  UNL     1      -5.690  47.844 -27.909  1.00  0.00     0.042 C 
HETATM   28  O2  UNL     1      -7.833  46.859 -28.198  1.00  0.00    -0.260 OA
HETATM   29  C2  UNL     1      -4.723  48.133 -27.008  1.00  0.00    -0.067 C 
HETATM   30  C1  UNL     1      -3.317  48.532 -27.355  1.00  0.00     0.044 C 
HETATM   31  C29 UNL     1      -5.025  48.065 -25.532  1.00  0.00     0.067 C 
BRANCH  27  32
HETATM   32  C4  UNL     1      -5.537  47.932 -29.400  1.00  0.00     0.209 C 
BRANCH  32  33
HETATM   33  O1  UNL     1      -4.960  49.170 -29.800  1.00  0.00    -0.396 OA
HETATM   34  H6  UNL     1      -4.819  49.719 -29.007  1.00  0.00     0.209 HD
ENDBRANCH  32  33
ENDBRANCH  27  32
ENDBRANCH  22  24
ENDBRANCH   1  22
TORSDOF 4
ENDMDL
MODEL 3
REMARK minimizedAffinity -9.80076313
REMARK  4 active torsions:
REMARK  status: ('A' for Active; 'I' for Inactive)
REMARK    1  A    between atoms: C3_3  and  C4_4 
REMARK    2  A    between atoms: C4_4  and  O1_5 
REMARK    3  A    between atoms: C6_9  and  C7_10 
REMARK    4  A    between atoms: C7_10  and  C9_12 
ROOT
HETATM    1  C9  UNL     1      -0.742  51.088 -21.507  1.00  0.00     0.000 C 
HETATM    2  C10 UNL     1      -1.145  51.801 -20.184  1.00  0.00     0.006 C 
HETATM    3  C11 UNL     1      -2.628  51.491 -19.930  1.00  0.00     0.006 C 
HETATM    4  C12 UNL     1      -2.967  50.453 -20.989  1.00  0.00    -0.001 C 
HETATM    5  C13 UNL     1      -4.445  50.203 -21.324  1.00  0.00     0.000 C 
HETATM    6  C14 UNL     1      -5.304  49.923 -20.081  1.00  0.00     0.010 C 
HETATM    7  C15 UNL     1      -6.776  49.733 -20.449  1.00  0.00     0.036 C 
HETATM    8  C16 UNL     1      -6.968  48.722 -21.556  1.00  0.00    -0.063 A 
HETATM    9  C17 UNL     1      -7.811  47.688 -21.386  1.00  0.00     0.058 A 
HETATM   10  C18 UNL     1      -8.004  46.654 -22.426  1.00  0.00     0.172 A 
HETATM   11  O4  UNL     1      -8.803  45.737 -22.276  1.00  0.00    -0.289 OA
HETATM   12  C19 UNL     1      -7.189  46.765 -23.649  1.00  0.00     0.052 A 
HETATM   13  C20 UNL     1      -6.346  47.791 -23.824  1.00  0.00    -0.008 A 
HETATM   14  C21 UNL     1      -6.133  48.932 -22.831  1.00  0.00     0.005 A 
HETATM   15  C22 UNL     1      -6.681  50.188 -23.555  1.00  0.00     0.025 C 
HETATM   16  C23 UNL     1      -4.593  49.062 -22.409  1.00  0.00    -0.025 C 
HETATM   17  C24 UNL     1      -4.109  47.685 -21.842  1.00  0.00     0.017 C 
HETATM   18  C25 UNL     1      -3.664  49.400 -23.621  1.00  0.00     0.012 C 
HETATM   19  C26 UNL     1      -2.207  49.750 -23.248  1.00  0.00     0.011 C 
HETATM   20  C27 UNL     1      -2.122  50.892 -22.218  1.00  0.00    -0.036 C 
HETATM   21  C28 UNL     1      -2.593  52.219 -22.865  1.00  0.00     0.016 C 
ENDROOT
BRANCH   1  22
HETATM   22  C7  UNL     1       0.428  51.810 -22.250  1.00  0.00     0.016 C 
HETATM   23  C8  UNL     1       0.975  52.979 -21.413  1.00  0.00     0.013 C 
BRANCH  22  24
HETATM   24  C6  UNL     1       0.042  52.384 -23.652  1.00  0.00     0.140 C 
HETATM   25  O3  UNL     1       0.270  51.388 -24.663  1.00  0.00    -0.311 OA
HETATM   26  C5  UNL     1       0.124  51.703 -25.974  1.00  0.00     0.292 C 
HETATM   27  C3  UNL     1      -0.013  53.147 -26.318  1.00  0.00     0.042 C 
HETATM   28  O2  UNL     1       0.122  50.831 -26.833  1.00  0.00    -0.260 OA
HETATM   29  C2  UNL     1       0.311  54.093 -25.407  1.00  0.00    -0.067 C 
HETATM   30  C1  UNL     1       0.275  55.575 -25.657  1.00  0.00     0.044 C 
HETATM   31  C29 UNL     1       0.748  53.687 -24.022  1.00  0.00     0.067 C 
BRANCH  27  32
HETATM   32  C4  UNL     1      -0.518  53.419 -27.705  1.00  0.00     0.209 C 
BRANCH  32  33
HETATM   33  O1  UNL     1      -1.939  53.387 -27.767  1.00  0.00    -0.396 OA
HETATM   34  H6  UNL     1      -2.284  53.156 -26.885  1.00  0.00     0.209 HD
ENDBRANCH  32  33
ENDBRANCH  27  32
ENDBRANCH  22  24
ENDBRANCH   1  22
TORSDOF 4
ENDMDL
MODEL 4
REMARK minimizedAffinity -9.74179935
REMARK  4 active torsions:
REMARK  status: ('A' for Active; 'I' for Inactive)
REMARK    1  A    between atoms: C3_3  and  C4_4 
REMARK    2  A    between atoms: C4_4  and  O1_5 
REMARK    3  A    between atoms: C6_9  and  C7_10 
REMARK    4  A    between atoms: C7_10  and  C9_12 
ROOT
HETATM    1  C9  UNL     1      -0.540  52.700 -21.794  1.00  0.00     0.000 C 
HETATM    2  C10 UNL     1       0.436  52.452 -22.980  1.00  0.00     0.006 C 
HETATM    3  C11 UNL     1      -0.211  51.400 -23.893  1.00  0.00     0.006 C 
HETATM    4  C12 UNL     1      -1.611  51.235 -23.321  1.00  0.00    -0.001 C 
HETATM    5  C13 UNL     1      -2.415  49.983 -23.699  1.00  0.00     0.000 C 
HETATM    6  C14 UNL     1      -2.483  49.749 -25.217  1.00  0.00     0.010 C 
HETATM    7  C15 UNL     1      -3.245  48.466 -25.552  1.00  0.00     0.036 C 
HETATM    8  C16 UNL     1      -4.592  48.401 -24.869  1.00  0.00    -0.063 A 
HETATM    9  C17 UNL     1      -5.705  48.179 -25.592  1.00  0.00     0.058 A 
HETATM   10  C18 UNL     1      -7.048  48.142 -24.973  1.00  0.00     0.172 A 
HETATM   11  O4  UNL     1      -8.050  47.901 -25.635  1.00  0.00    -0.289 OA
HETATM   12  C19 UNL     1      -7.135  48.417 -23.528  1.00  0.00     0.052 A 
HETATM   13  C20 UNL     1      -6.031  48.641 -22.802  1.00  0.00    -0.008 A 
HETATM   14  C21 UNL     1      -4.604  48.635 -23.348  1.00  0.00     0.005 A 
HETATM   15  C22 UNL     1      -3.934  47.410 -22.675  1.00  0.00     0.025 C 
HETATM   16  C23 UNL     1      -3.855  50.018 -23.045  1.00  0.00    -0.025 C 
HETATM   17  C24 UNL     1      -4.708  51.192 -23.632  1.00  0.00     0.017 C 
HETATM   18  C25 UNL     1      -3.702  50.295 -21.514  1.00  0.00     0.012 C 
HETATM   19  C26 UNL     1      -2.802  51.498 -21.156  1.00  0.00     0.011 C 
HETATM   20  C27 UNL     1      -1.401  51.394 -21.788  1.00  0.00    -0.036 C 
HETATM   21  C28 UNL     1      -0.617  50.228 -21.136  1.00  0.00     0.016 C 
ENDROOT
BRANCH   1  22
HETATM   22  C7  UNL     1       0.195  53.161 -20.494  1.00  0.00     0.016 C 
HETATM   23  C8  UNL     1       1.705  53.317 -20.740  1.00  0.00     0.013 C 
BRANCH  22  24
HETATM   24  C6  UNL     1       0.021  52.192 -19.280  1.00  0.00     0.140 C 
HETATM   25  O3  UNL     1      -1.351  52.194 -18.851  1.00  0.00    -0.311 OA
HETATM   26  C5  UNL     1      -1.714  51.521 -17.731  1.00  0.00     0.292 C 
HETATM   27  C3  UNL     1      -0.621  51.025 -16.847  1.00  0.00     0.042 C 
HETATM   28  O2  UNL     1      -2.895  51.347 -17.458  1.00  0.00    -0.260 OA
HETATM   29  C2  UNL     1       0.637  51.498 -16.996  1.00  0.00    -0.067 C 
HETATM   30  C1  UNL     1       1.805  51.123 -16.128  1.00  0.00     0.044 C 
HETATM   31  C29 UNL     1       0.947  52.479 -18.099  1.00  0.00     0.067 C 
BRANCH  27  32
HETATM   32  C4  UNL     1      -1.046  50.003 -15.832  1.00  0.00     0.209 C 
BRANCH  32  33
HETATM   33  O1  UNL     1      -1.846  50.579 -14.805  1.00  0.00    -0.396 OA
HETATM   34  H6  UNL     1      -1.917  51.537 -14.966  1.00  0.00     0.209 HD
ENDBRANCH  32  33
ENDBRANCH  27  32
ENDBRANCH  22  24
ENDBRANCH   1  22
TORSDOF 4
ENDMDL
MODEL 5
REMARK minimizedAffinity -9.68949223
REMARK  4 active torsions:
REMARK  status: ('A' for Active; 'I' for Inactive)
REMARK    1  A    between atoms: C3_3  and  C4_4 
REMARK    2  A    between atoms: C4_4  and  O1_5 
REMARK    3  A    between atoms: C6_9  and  C7_10 
REMARK    4  A    between atoms: C7_10  and  C9_12 
ROOT
HETATM    1  C9  UNL     1      -0.723  51.269 -25.024  1.00  0.00     0.000 C 
HETATM    2  C10 UNL     1       0.271  52.461 -24.909  1.00  0.00     0.006 C 
HETATM    3  C11 UNL     1       0.506  52.719 -23.413  1.00  0.00     0.006 C 
HETATM    4  C12 UNL     1      -0.186  51.548 -22.731  1.00  0.00    -0.001 C 
HETATM    5  C13 UNL     1      -0.527  51.666 -21.238  1.00  0.00     0.000 C 
HETATM    6  C14 UNL     1       0.677  52.083 -20.379  1.00  0.00     0.010 C 
HETATM    7  C15 UNL     1       0.288  52.242 -18.909  1.00  0.00     0.036 C 
HETATM    8  C16 UNL     1      -0.449  51.035 -18.373  1.00  0.00    -0.063 A 
HETATM    9  C17 UNL     1      -0.016  50.422 -17.257  1.00  0.00     0.058 A 
HETATM   10  C18 UNL     1      -0.682  49.218 -16.716  1.00  0.00     0.172 A 
HETATM   11  O4  UNL     1      -0.304  48.690 -15.677  1.00  0.00    -0.289 OA
HETATM   12  C19 UNL     1      -1.816  48.670 -17.481  1.00  0.00     0.052 A 
HETATM   13  C20 UNL     1      -2.251  49.274 -18.595  1.00  0.00    -0.008 A 
HETATM   14  C21 UNL     1      -1.662  50.554 -19.187  1.00  0.00     0.005 A 
HETATM   15  C22 UNL     1      -2.786  51.610 -19.032  1.00  0.00     0.025 C 
HETATM   16  C23 UNL     1      -1.197  50.337 -20.705  1.00  0.00    -0.025 C 
HETATM   17  C24 UNL     1      -0.188  49.142 -20.756  1.00  0.00     0.017 C 
HETATM   18  C25 UNL     1      -2.386  49.962 -21.650  1.00  0.00     0.012 C 
HETATM   19  C26 UNL     1      -2.043  49.953 -23.156  1.00  0.00     0.011 C 
HETATM   20  C27 UNL     1      -1.429  51.284 -23.628  1.00  0.00    -0.036 C 
HETATM   21  C28 UNL     1      -2.497  52.405 -23.570  1.00  0.00     0.016 C 
ENDROOT
BRANCH   1  22
HETATM   22  C7  UNL     1      -1.574  51.317 -26.334  1.00  0.00     0.016 C 
HETATM   23  C8  UNL     1      -2.356  52.637 -26.436  1.00  0.00     0.013 C 
BRANCH  22  24
HETATM   24  C6  UNL     1      -2.609  50.154 -26.471  1.00  0.00     0.140 C 
HETATM   25  O3  UNL     1      -3.051  50.056 -27.836  1.00  0.00    -0.311 OA
HETATM   26  C5  UNL     1      -4.046  49.197 -28.169  1.00  0.00     0.292 C 
HETATM   27  C3  UNL     1      -4.818  48.580 -27.053  1.00  0.00     0.042 C 
HETATM   28  O2  UNL     1      -4.302  48.958 -29.342  1.00  0.00    -0.260 OA
HETATM   29  C2  UNL     1      -4.733  49.096 -25.805  1.00  0.00    -0.067 C 
HETATM   30  C1  UNL     1      -5.508  48.601 -24.617  1.00  0.00     0.044 C 
HETATM   31  C29 UNL     1      -3.808  50.255 -25.531  1.00  0.00     0.067 C 
BRANCH  27  32
HETATM   32  C4  UNL     1      -5.651  47.393 -27.443  1.00  0.00     0.209 C 
BRANCH  32  33
HETATM   33  O1  UNL     1      -6.981  47.770 -27.782  1.00  0.00    -0.396 OA
HETATM   34  H6  UNL     1      -7.076  48.730 -27.650  1.00  0.00     0.209 HD
ENDBRANCH  32  33
ENDBRANCH  27  32
ENDBRANCH  22  24
ENDBRANCH   1  22
TORSDOF 4
ENDMDL
MODEL 6
REMARK minimizedAffinity -9.59912395
REMARK  4 active torsions:
REMARK  status: ('A' for Active; 'I' for Inactive)
REMARK    1  A    between atoms: C3_3  and  C4_4 
REMARK    2  A    between atoms: C4_4  and  O1_5 
REMARK    3  A    between atoms: C6_9  and  C7_10 
REMARK    4  A    between atoms: C7_10  and  C9_12 
ROOT
HETATM    1  C9  UNL     1      -7.096  49.077 -22.296  1.00  0.00     0.000 C 
HETATM    2  C10 UNL     1      -7.462  49.254 -20.794  1.00  0.00     0.006 C 
HETATM    3  C11 UNL     1      -6.219  49.807 -20.081  1.00  0.00     0.006 C 
HETATM    4  C12 UNL     1      -5.259  50.123 -21.219  1.00  0.00    -0.001 C 
HETATM    5  C13 UNL     1      -3.769  50.302 -20.893  1.00  0.00     0.000 C 
HETATM    6  C14 UNL     1      -3.519  51.306 -19.758  1.00  0.00     0.010 C 
HETATM    7  C15 UNL     1      -2.031  51.417 -19.426  1.00  0.00     0.036 C 
HETATM    8  C16 UNL     1      -1.184  51.668 -20.653  1.00  0.00    -0.063 A 
HETATM    9  C17 UNL     1      -0.331  52.708 -20.683  1.00  0.00     0.058 A 
HETATM   10  C18 UNL     1       0.491  53.015 -21.873  1.00  0.00     0.172 A 
HETATM   11  O4  UNL     1       1.293  53.942 -21.876  1.00  0.00    -0.289 OA
HETATM   12  C19 UNL     1       0.301  52.166 -23.063  1.00  0.00     0.052 A 
HETATM   13  C20 UNL     1      -0.547  51.130 -23.042  1.00  0.00    -0.008 A 
HETATM   14  C21 UNL     1      -1.386  50.706 -21.837  1.00  0.00     0.005 A 
HETATM   15  C22 UNL     1      -0.813  49.325 -21.428  1.00  0.00     0.025 C 
HETATM   16  C23 UNL     1      -2.947  50.668 -22.194  1.00  0.00    -0.025 C 
HETATM   17  C24 UNL     1      -3.371  52.070 -22.747  1.00  0.00     0.017 C 
HETATM   18  C25 UNL     1      -3.283  49.624 -23.309  1.00  0.00     0.012 C 
HETATM   19  C26 UNL     1      -4.791  49.385 -23.545  1.00  0.00     0.011 C 
HETATM   20  C27 UNL     1      -5.533  48.995 -22.253  1.00  0.00    -0.036 C 
HETATM   21  C28 UNL     1      -5.075  47.589 -21.789  1.00  0.00     0.016 C 
ENDROOT
BRANCH   1  22
HETATM   22  C7  UNL     1      -7.922  47.947 -22.990  1.00  0.00     0.016 C 
HETATM   23  C8  UNL     1      -7.251  46.576 -22.801  1.00  0.00     0.013 C 
BRANCH  22  24
HETATM   24  C6  UNL     1      -8.129  48.153 -24.526  1.00  0.00     0.140 C 
HETATM   25  O3  UNL     1      -9.533  48.270 -24.814  1.00  0.00    -0.311 OA
HETATM   26  C5  UNL     1      -9.961  48.330 -26.100  1.00  0.00     0.292 C 
HETATM   27  C3  UNL     1      -8.970  48.006 -27.165  1.00  0.00     0.042 C 
HETATM   28  O2  UNL     1     -11.120  48.623 -26.363  1.00  0.00    -0.260 OA
HETATM   29  C2  UNL     1      -7.812  47.384 -26.846  1.00  0.00    -0.067 C 
HETATM   30  C1  UNL     1      -6.767  46.952 -27.836  1.00  0.00     0.044 C 
HETATM   31  C29 UNL     1      -7.495  47.077 -25.404  1.00  0.00     0.067 C 
BRANCH  27  32
HETATM   32  C4  UNL     1      -9.375  48.421 -28.550  1.00  0.00     0.209 C 
BRANCH  32  33
HETATM   33  O1  UNL     1      -8.732  49.626 -28.951  1.00  0.00    -0.396 OA
HETATM   34  H6  UNL     1      -8.184  49.947 -28.212  1.00  0.00     0.209 HD
ENDBRANCH  32  33
ENDBRANCH  27  32
ENDBRANCH  22  24
ENDBRANCH   1  22
TORSDOF 4
ENDMDL
MODEL 7
REMARK minimizedAffinity -9.58843994
REMARK  4 active torsions:
REMARK  status: ('A' for Active; 'I' for Inactive)
REMARK    1  A    between atoms: C3_3  and  C4_4 
REMARK    2  A    between atoms: C4_4  and  O1_5 
REMARK    3  A    between atoms: C6_9  and  C7_10 
REMARK    4  A    between atoms: C7_10  and  C9_12 
ROOT
HETATM    1  C9  UNL     1      -4.473  48.391 -25.570  1.00  0.00     0.000 C 
HETATM    2  C10 UNL     1      -3.405  49.230 -26.330  1.00  0.00     0.006 C 
HETATM    3  C11 UNL     1      -2.495  49.876 -25.276  1.00  0.00     0.006 C 
HETATM    4  C12 UNL     1      -2.934  49.228 -23.971  1.00  0.00    -0.001 C 
HETATM    5  C13 UNL     1      -2.550  49.907 -22.649  1.00  0.00     0.000 C 
HETATM    6  C14 UNL     1      -1.050  50.224 -22.549  1.00  0.00     0.010 C 
HETATM    7  C15 UNL     1      -0.716  50.947 -21.244  1.00  0.00     0.036 C 
HETATM    8  C16 UNL     1      -1.264  50.231 -20.031  1.00  0.00    -0.063 A 
HETATM    9  C17 UNL     1      -0.449  49.913 -19.010  1.00  0.00     0.058 A 
HETATM   10  C18 UNL     1      -0.932  49.181 -17.819  1.00  0.00     0.172 A 
HETATM   11  O4  UNL     1      -0.189  48.929 -16.878  1.00  0.00    -0.289 OA
HETATM   12  C19 UNL     1      -2.343  48.756 -17.813  1.00  0.00     0.052 A 
HETATM   13  C20 UNL     1      -3.161  49.068 -18.827  1.00  0.00    -0.008 A 
HETATM   14  C21 UNL     1      -2.760  49.873 -20.063  1.00  0.00     0.005 A 
HETATM   15  C22 UNL     1      -3.566  51.192 -19.948  1.00  0.00     0.025 C 
HETATM   16  C23 UNL     1      -3.056  49.061 -21.412  1.00  0.00    -0.025 C 
HETATM   17  C24 UNL     1      -2.320  47.681 -21.340  1.00  0.00     0.017 C 
HETATM   18  C25 UNL     1      -4.576  48.751 -21.605  1.00  0.00     0.012 C 
HETATM   19  C26 UNL     1      -4.951  48.165 -22.984  1.00  0.00     0.011 C 
HETATM   20  C27 UNL     1      -4.468  49.048 -24.150  1.00  0.00    -0.036 C 
HETATM   21  C28 UNL     1      -5.261  50.378 -24.164  1.00  0.00     0.016 C 
ENDROOT
BRANCH   1  22
HETATM   22  C7  UNL     1      -5.810  48.252 -26.366  1.00  0.00     0.016 C 
HETATM   23  C8  UNL     1      -6.837  47.419 -25.580  1.00  0.00     0.013 C 
BRANCH  22  24
HETATM   24  C6  UNL     1      -5.655  47.588 -27.773  1.00  0.00     0.140 C 
HETATM   25  O3  UNL     1      -5.367  48.597 -28.756  1.00  0.00    -0.311 OA
HETATM   26  C5  UNL     1      -5.315  48.271 -30.071  1.00  0.00     0.292 C 
HETATM   27  C3  UNL     1      -5.820  46.923 -30.461  1.00  0.00     0.042 C 
HETATM   28  O2  UNL     1      -4.884  49.063 -30.899  1.00  0.00    -0.260 OA
HETATM   29  C2  UNL     1      -6.573  46.206 -29.596  1.00  0.00    -0.067 C 
HETATM   30  C1  UNL     1      -7.188  44.869 -29.896  1.00  0.00     0.044 C 
HETATM   31  C29 UNL     1      -6.848  46.743 -28.214  1.00  0.00     0.067 C 
BRANCH  27  32
HETATM   32  C4  UNL     1      -5.424  46.476 -31.838  1.00  0.00     0.209 C 
BRANCH  32  33
HETATM   33  O1  UNL     1      -4.036  46.676 -32.081  1.00  0.00    -0.396 OA
HETATM   34  H6  UNL     1      -3.641  47.102 -31.299  1.00  0.00     0.209 HD
ENDBRANCH  32  33
ENDBRANCH  27  32
ENDBRANCH  22  24
ENDBRANCH   1  22
TORSDOF 4
ENDMDL
MODEL 8
REMARK minimizedAffinity -9.56176853
REMARK  4 active torsions:
REMARK  status: ('A' for Active; 'I' for Inactive)
REMARK    1  A    between atoms: C3_3  and  C4_4 
REMARK    2  A    between atoms: C4_4  and  O1_5 
REMARK    3  A    between atoms: C6_9  and  C7_10 
REMARK    4  A    between atoms: C7_10  and  C9_12 
ROOT
HETATM    1  C9  UNL     1      -2.713  49.975 -23.882  1.00  0.00     0.000 C 
HETATM    2  C10 UNL     1      -2.972  49.056 -25.110  1.00  0.00     0.006 C 
HETATM    3  C11 UNL     1      -4.201  48.194 -24.787  1.00  0.00     0.006 C 
HETATM    4  C12 UNL     1      -4.728  48.785 -23.488  1.00  0.00    -0.001 C 
HETATM    5  C13 UNL     1      -5.691  47.946 -22.637  1.00  0.00     0.000 C 
HETATM    6  C14 UNL     1      -6.884  47.403 -23.439  1.00  0.00     0.010 C 
HETATM    7  C15 UNL     1      -7.790  46.529 -22.572  1.00  0.00     0.036 C 
HETATM    8  C16 UNL     1      -8.188  47.212 -21.283  1.00  0.00    -0.063 A 
HETATM    9  C17 UNL     1      -9.487  47.317 -20.949  1.00  0.00     0.058 A 
HETATM   10  C18 UNL     1      -9.926  48.007 -19.717  1.00  0.00     0.172 A 
HETATM   11  O4  UNL     1     -11.109  48.064 -19.402  1.00  0.00    -0.289 OA
HETATM   12  C19 UNL     1      -8.884  48.634 -18.884  1.00  0.00     0.052 A 
HETATM   13  C20 UNL     1      -7.589  48.535 -19.212  1.00  0.00    -0.008 A 
HETATM   14  C21 UNL     1      -7.045  47.788 -20.429  1.00  0.00     0.005 A 
HETATM   15  C22 UNL     1      -6.250  46.598 -19.836  1.00  0.00     0.025 C 
HETATM   16  C23 UNL     1      -6.159  48.748 -21.357  1.00  0.00    -0.025 C 
HETATM   17  C24 UNL     1      -7.018  49.993 -21.760  1.00  0.00     0.017 C 
HETATM   18  C25 UNL     1      -4.893  49.295 -20.619  1.00  0.00     0.012 C 
HETATM   19  C26 UNL     1      -3.888  50.047 -21.519  1.00  0.00     0.011 C 
HETATM   20  C27 UNL     1      -3.438  49.205 -22.728  1.00  0.00    -0.036 C 
HETATM   21  C28 UNL     1      -2.575  48.013 -22.244  1.00  0.00     0.016 C 
ENDROOT
BRANCH   1  22
HETATM   22  C7  UNL     1      -1.211  50.378 -23.734  1.00  0.00     0.016 C 
HETATM   23  C8  UNL     1      -0.945  51.023 -22.364  1.00  0.00     0.013 C 
BRANCH  22  24
HETATM   24  C6  UNL     1      -0.704  51.378 -24.823  1.00  0.00     0.140 C 
HETATM   25  O3  UNL     1      -1.821  51.883 -25.575  1.00  0.00    -0.311 OA
HETATM   26  C5  UNL     1      -1.611  52.673 -26.657  1.00  0.00     0.292 C 
HETATM   27  C3  UNL     1      -0.216  52.767 -27.174  1.00  0.00     0.042 C 
HETATM   28  O2  UNL     1      -2.539  53.268 -27.190  1.00  0.00    -0.260 OA
HETATM   29  C2  UNL     1       0.714  51.868 -26.779  1.00  0.00    -0.067 C 
HETATM   30  C1  UNL     1       2.131  51.822 -27.277  1.00  0.00     0.044 C 
HETATM   31  C29 UNL     1       0.356  50.811 -25.765  1.00  0.00     0.067 C 
BRANCH  27  32
HETATM   32  C4  UNL     1       0.028  53.901 -28.127  1.00  0.00     0.209 C 
BRANCH  32  33
HETATM   33  O1  UNL     1      -0.297  55.159 -27.547  1.00  0.00    -0.396 OA
HETATM   34  H6  UNL     1      -0.649  55.007 -26.651  1.00  0.00     0.209 HD
ENDBRANCH  32  33
ENDBRANCH  27  32
ENDBRANCH  22  24
ENDBRANCH   1  22
TORSDOF 4
ENDMDL
MODEL 9
REMARK minimizedAffinity -9.44721317
REMARK  4 active torsions:
REMARK  status: ('A' for Active; 'I' for Inactive)
REMARK    1  A    between atoms: C3_3  and  C4_4 
REMARK    2  A    between atoms: C4_4  and  O1_5 
REMARK    3  A    between atoms: C6_9  and  C7_10 
REMARK    4  A    between atoms: C7_10  and  C9_12 
ROOT
HETATM    1  C9  UNL     1      -4.352  49.723 -24.786  1.00  0.00     0.000 C 
HETATM    2  C10 UNL     1      -5.329  48.516 -24.685  1.00  0.00     0.006 C 
HETATM    3  C11 UNL     1      -5.302  48.025 -23.230  1.00  0.00     0.006 C 
HETATM    4  C12 UNL     1      -4.483  49.083 -22.506  1.00  0.00    -0.001 C 
HETATM    5  C13 UNL     1      -3.888  48.737 -21.133  1.00  0.00     0.000 C 
HETATM    6  C14 UNL     1      -4.929  48.177 -20.151  1.00  0.00     0.010 C 
HETATM    7  C15 UNL     1      -4.290  47.794 -18.816  1.00  0.00     0.036 C 
HETATM    8  C16 UNL     1      -3.453  48.912 -18.236  1.00  0.00    -0.063 A 
HETATM    9  C17 UNL     1      -3.673  49.338 -16.980  1.00  0.00     0.058 A 
HETATM   10  C18 UNL     1      -2.904  50.451 -16.383  1.00  0.00     0.172 A 
HETATM   11  O4  UNL     1      -3.087  50.805 -15.224  1.00  0.00    -0.289 OA
HETATM   12  C19 UNL     1      -1.914  51.125 -17.240  1.00  0.00     0.052 A 
HETATM   13  C20 UNL     1      -1.690  50.708 -18.494  1.00  0.00    -0.008 A 
HETATM   14  C21 UNL     1      -2.393  49.529 -19.166  1.00  0.00     0.005 A 
HETATM   15  C22 UNL     1      -1.276  48.476 -19.376  1.00  0.00     0.025 C 
HETATM   16  C23 UNL     1      -3.114  49.975 -20.525  1.00  0.00    -0.025 C 
HETATM   17  C24 UNL     1      -4.098  51.151 -20.211  1.00  0.00     0.017 C 
HETATM   18  C25 UNL     1      -2.103  50.507 -21.594  1.00  0.00     0.012 C 
HETATM   19  C26 UNL     1      -2.705  50.748 -22.996  1.00  0.00     0.011 C 
HETATM   20  C27 UNL     1      -3.413  49.499 -23.555  1.00  0.00    -0.036 C 
HETATM   21  C28 UNL     1      -2.368  48.397 -23.861  1.00  0.00     0.016 C 
ENDROOT
BRANCH   1  22
HETATM   22  C7  UNL     1      -3.745  49.891 -26.216  1.00  0.00     0.016 C 
HETATM   23  C8  UNL     1      -3.269  48.540 -26.776  1.00  0.00     0.013 C 
BRANCH  22  24
HETATM   24  C6  UNL     1      -2.533  50.876 -26.288  1.00  0.00     0.140 C 
HETATM   25  O3  UNL     1      -2.841  51.960 -27.180  1.00  0.00    -0.311 OA
HETATM   26  C5  UNL     1      -1.889  52.873 -27.496  1.00  0.00     0.292 C 
HETATM   27  C3  UNL     1      -0.485  52.557 -27.108  1.00  0.00     0.042 C 
HETATM   28  O2  UNL     1      -2.180  53.903 -28.091  1.00  0.00    -0.260 OA
HETATM   29  C2  UNL     1      -0.148  51.297 -26.750  1.00  0.00    -0.067 C 
HETATM   30  C1  UNL     1       1.241  50.846 -26.400  1.00  0.00     0.044 C 
HETATM   31  C29 UNL     1      -1.208  50.226 -26.682  1.00  0.00     0.067 C 
BRANCH  27  32
HETATM   32  C4  UNL     1       0.459  53.724 -27.156  1.00  0.00     0.209 C 
BRANCH  32  33
HETATM   33  O1  UNL     1       0.065  54.761 -26.264  1.00  0.00    -0.396 OA
HETATM   34  H6  UNL     1      -0.768  54.500 -25.832  1.00  0.00     0.209 HD
ENDBRANCH  32  33
ENDBRANCH  27  32
ENDBRANCH  22  24
ENDBRANCH   1  22
TORSDOF 4
ENDMDL
