MODEL 1
REMARK minimizedAffinity -8.43497658
REMARK  10 active torsions:
REMARK  status: ('A' for Active; 'I' for Inactive)
REMARK    1  A    between atoms: C5_5  and  C6_6 
REMARK    2  A    between atoms: C6_6  and  C8_8 
REMARK    3  A    between atoms: C8_8  and  O1_9 
REMARK    4  A    between atoms: O1_9  and  C9_10 
REMARK    5  A    between atoms: C17_20  and  O4_21 
REMARK    6  A    between atoms: C19_23  and  O5_24 
REMARK    7  A    between atoms: O5_24  and  C20_25 
REMARK    8  A    between atoms: C20_25  and  C21_27 
REMARK    9  A    between atoms: C21_27  and  C22_28 
REMARK   10  A    between atoms: C24_30  and  O7_32 
ROOT
HETATM    1  C1  UNL     1      -2.701   8.278  16.556  1.00  0.00     0.015 C 
HETATM    2  C2  UNL     1      -2.658   8.297  15.214  1.00  0.00    -0.082 C 
HETATM    3  C3  UNL     1      -3.832   8.780  14.399  1.00  0.00     0.034 C 
HETATM    4  C4  UNL     1      -3.853   8.196  12.983  1.00  0.00     0.010 C 
HETATM    5  C5  UNL     1      -3.313   6.754  12.900  1.00  0.00    -0.001 C 
HETATM    6  C11 UNL     1      -1.828   6.685  13.428  1.00  0.00     0.033 C 
HETATM    7  C12 UNL     1      -0.768   6.897  12.323  1.00  0.00     0.163 C 
HETATM    8  O3  UNL     1      -0.475   8.302  12.320  1.00  0.00    -0.376 OA
HETATM    9  C13 UNL     1      -0.779   8.871  13.594  1.00  0.00     0.134 C 
HETATM   10  C14 UNL     1       0.452   9.566  14.203  1.00  0.00     0.068 C 
HETATM   11  C15 UNL     1       1.592   8.683  14.669  1.00  0.00    -0.058 C 
HETATM   12  C16 UNL     1       1.695   8.393  15.984  1.00  0.00     0.017 C 
HETATM   13  C17 UNL     1       2.668   8.269  13.670  1.00  0.00     0.149 C 
HETATM   14  C18 UNL     1       2.318   8.033  12.193  1.00  0.00     0.072 C 
HETATM   15  C19 UNL     1       1.783   6.649  11.755  1.00  0.00     0.171 C 
HETATM   16  C24 UNL     1       0.547   6.047  12.497  1.00  0.00     0.107 C 
HETATM   17  C25 UNL     1       0.272   4.627  11.952  1.00  0.00     0.051 C 
HETATM   18  C26 UNL     1      -1.463   7.786  14.442  1.00  0.00     0.050 C 
ENDROOT
BRANCH   5  19
HETATM   19  C6  UNL     1      -4.223   5.708  13.643  1.00  0.00     0.010 C 
HETATM   20  C7  UNL     1      -5.650   6.211  13.912  1.00  0.00     0.012 C 
BRANCH  19  21
HETATM   21  C8  UNL     1      -4.308   4.359  12.886  1.00  0.00     0.183 C 
BRANCH  21  22
HETATM   22  O1  UNL     1      -5.586   4.189  12.244  1.00  0.00    -0.321 OA
BRANCH  22  23
HETATM   23  C9  UNL     1      -6.074   2.927  12.146  1.00  0.00     0.254 C 
HETATM   24  C10 UNL     1      -7.343   2.808  12.933  1.00  0.00     0.126 C 
HETATM   25  O2  UNL     1      -5.570   2.013  11.511  1.00  0.00    -0.266 OA
ENDBRANCH  22  23
ENDBRANCH  21  22
ENDBRANCH  19  21
ENDBRANCH   5  19
BRANCH  16  26
HETATM   26  O7  UNL     1       0.889   5.875  13.888  1.00  0.00    -0.385 OA
HETATM   27  H39 UNL     1       1.172   4.952  14.020  1.00  0.00     0.210 HD
ENDBRANCH  16  26
BRANCH  15  28
HETATM   28  O5  UNL     1       1.490   6.771  10.338  1.00  0.00    -0.313 OA
BRANCH  28  29
HETATM   29  C20 UNL     1       2.409   6.297   9.457  1.00  0.00     0.259 C 
HETATM   30  O6  UNL     1       2.638   5.118   9.230  1.00  0.00    -0.265 OA
BRANCH  29  31
HETATM   31  C21 UNL     1       3.114   7.441   8.773  1.00  0.00     0.111 C 
BRANCH  31  32
HETATM   32  C22 UNL     1       2.250   8.098   7.702  1.00  0.00     0.005 C 
HETATM   33  C23 UNL     1       1.866   7.133   6.587  1.00  0.00     0.005 C 
ENDBRANCH  31  32
ENDBRANCH  29  31
ENDBRANCH  28  29
ENDBRANCH  15  28
BRANCH  13  34
HETATM   34  O4  UNL     1       3.358   7.115  14.155  1.00  0.00    -0.391 OA
HETATM   35  H25 UNL     1       2.642   6.500  14.406  1.00  0.00     0.210 HD
ENDBRANCH  13  34
TORSDOF 10
ENDMDL
MODEL 2
REMARK minimizedAffinity -8.2996769
REMARK  10 active torsions:
REMARK  status: ('A' for Active; 'I' for Inactive)
REMARK    1  A    between atoms: C5_5  and  C6_6 
REMARK    2  A    between atoms: C6_6  and  C8_8 
REMARK    3  A    between atoms: C8_8  and  O1_9 
REMARK    4  A    between atoms: O1_9  and  C9_10 
REMARK    5  A    between atoms: C17_20  and  O4_21 
REMARK    6  A    between atoms: C19_23  and  O5_24 
REMARK    7  A    between atoms: O5_24  and  C20_25 
REMARK    8  A    between atoms: C20_25  and  C21_27 
REMARK    9  A    between atoms: C21_27  and  C22_28 
REMARK   10  A    between atoms: C24_30  and  O7_32 
ROOT
HETATM    1  C1  UNL     1      -2.174   8.384  16.498  1.00  0.00     0.015 C 
HETATM    2  C2  UNL     1      -2.113   8.413  15.157  1.00  0.00    -0.082 C 
HETATM    3  C3  UNL     1      -3.275   8.903  14.330  1.00  0.00     0.034 C 
HETATM    4  C4  UNL     1      -3.278   8.330  12.910  1.00  0.00     0.010 C 
HETATM    5  C5  UNL     1      -2.738   6.888  12.823  1.00  0.00    -0.001 C 
HETATM    6  C11 UNL     1      -1.260   6.813  13.371  1.00  0.00     0.033 C 
HETATM    7  C12 UNL     1      -0.185   7.033  12.282  1.00  0.00     0.163 C 
HETATM    8  O3  UNL     1       0.109   8.437  12.293  1.00  0.00    -0.376 OA
HETATM    9  C13 UNL     1      -0.212   8.997  13.567  1.00  0.00     0.134 C 
HETATM   10  C14 UNL     1       1.011   9.686  14.197  1.00  0.00     0.068 C 
HETATM   11  C15 UNL     1       2.145   8.799  14.672  1.00  0.00    -0.058 C 
HETATM   12  C16 UNL     1       2.230   8.499  15.986  1.00  0.00     0.017 C 
HETATM   13  C17 UNL     1       3.234   8.391  13.685  1.00  0.00     0.149 C 
HETATM   14  C18 UNL     1       2.904   8.166  12.202  1.00  0.00     0.072 C 
HETATM   15  C19 UNL     1       2.374   6.786  11.747  1.00  0.00     0.171 C 
HETATM   16  C24 UNL     1       1.127   6.180  12.467  1.00  0.00     0.107 C 
HETATM   17  C25 UNL     1       0.858   4.764  11.908  1.00  0.00     0.051 C 
HETATM   18  C26 UNL     1      -0.908   7.907  14.397  1.00  0.00     0.050 C 
ENDROOT
BRANCH   5  19
HETATM   19  C6  UNL     1      -3.659   5.837  13.546  1.00  0.00     0.010 C 
HETATM   20  C7  UNL     1      -5.122   6.288  13.681  1.00  0.00     0.012 C 
BRANCH  19  21
HETATM   21  C8  UNL     1      -3.629   4.453  12.852  1.00  0.00     0.183 C 
BRANCH  21  22
HETATM   22  O1  UNL     1      -2.676   4.419  11.772  1.00  0.00    -0.321 OA
BRANCH  22  23
HETATM   23  C9  UNL     1      -2.507   3.239  11.124  1.00  0.00     0.254 C 
HETATM   24  C10 UNL     1      -3.338   2.176  11.772  1.00  0.00     0.126 C 
HETATM   25  O2  UNL     1      -1.790   3.055  10.151  1.00  0.00    -0.266 OA
ENDBRANCH  22  23
ENDBRANCH  21  22
ENDBRANCH  19  21
ENDBRANCH   5  19
BRANCH  16  26
HETATM   26  O7  UNL     1       1.450   5.997  13.862  1.00  0.00    -0.385 OA
HETATM   27  H39 UNL     1       1.730   5.073  13.990  1.00  0.00     0.210 HD
ENDBRANCH  16  26
BRANCH  15  28
HETATM   28  O5  UNL     1       2.099   6.918  10.327  1.00  0.00    -0.313 OA
BRANCH  28  29
HETATM   29  C20 UNL     1       3.052   6.496   9.455  1.00  0.00     0.259 C 
HETATM   30  O6  UNL     1       4.232   6.317   9.719  1.00  0.00    -0.265 OA
BRANCH  29  31
HETATM   31  C21 UNL     1       2.446   6.258   8.094  1.00  0.00     0.111 C 
BRANCH  31  32
HETATM   32  C22 UNL     1       2.219   7.555   7.326  1.00  0.00     0.005 C 
HETATM   33  C23 UNL     1       3.028   8.717   7.888  1.00  0.00     0.005 C 
ENDBRANCH  31  32
ENDBRANCH  29  31
ENDBRANCH  28  29
ENDBRANCH  15  28
BRANCH  13  34
HETATM   34  O4  UNL     1       3.916   7.233  14.171  1.00  0.00    -0.391 OA
HETATM   35  H25 UNL     1       3.196   6.617  14.408  1.00  0.00     0.210 HD
ENDBRANCH  13  34
TORSDOF 10
ENDMDL
MODEL 3
REMARK minimizedAffinity -8.05172539
REMARK  10 active torsions:
REMARK  status: ('A' for Active; 'I' for Inactive)
REMARK    1  A    between atoms: C5_5  and  C6_6 
REMARK    2  A    between atoms: C6_6  and  C8_8 
REMARK    3  A    between atoms: C8_8  and  O1_9 
REMARK    4  A    between atoms: O1_9  and  C9_10 
REMARK    5  A    between atoms: C17_20  and  O4_21 
REMARK    6  A    between atoms: C19_23  and  O5_24 
REMARK    7  A    between atoms: O5_24  and  C20_25 
REMARK    8  A    between atoms: C20_25  and  C21_27 
REMARK    9  A    between atoms: C21_27  and  C22_28 
REMARK   10  A    between atoms: C24_30  and  O7_32 
ROOT
HETATM    1  C1  UNL     1      -2.216   8.433  16.538  1.00  0.00     0.015 C 
HETATM    2  C2  UNL     1      -2.083   8.568  15.208  1.00  0.00    -0.082 C 
HETATM    3  C3  UNL     1      -3.181   9.167  14.367  1.00  0.00     0.034 C 
HETATM    4  C4  UNL     1      -3.128   8.712  12.906  1.00  0.00     0.010 C 
HETATM    5  C5  UNL     1      -2.633   7.262  12.728  1.00  0.00    -0.001 C 
HETATM    6  C11 UNL     1      -1.191   7.087  13.341  1.00  0.00     0.033 C 
HETATM    7  C12 UNL     1      -0.052   7.353  12.329  1.00  0.00     0.163 C 
HETATM    8  O3  UNL     1       0.289   8.739  12.472  1.00  0.00    -0.376 OA
HETATM    9  C13 UNL     1      -0.080   9.206  13.770  1.00  0.00     0.134 C 
HETATM   10  C14 UNL     1       1.130   9.795  14.516  1.00  0.00     0.068 C 
HETATM   11  C15 UNL     1       2.206   8.830  14.972  1.00  0.00    -0.058 C 
HETATM   12  C16 UNL     1       2.210   8.421  16.259  1.00  0.00     0.017 C 
HETATM   13  C17 UNL     1       3.332   8.461  14.011  1.00  0.00     0.149 C 
HETATM   14  C18 UNL     1       3.073   8.370  12.499  1.00  0.00     0.072 C 
HETATM   15  C19 UNL     1       2.521   7.053  11.905  1.00  0.00     0.171 C 
HETATM   16  C24 UNL     1       1.219   6.438  12.509  1.00  0.00     0.107 C 
HETATM   17  C25 UNL     1       0.932   5.084  11.822  1.00  0.00     0.051 C 
HETATM   18  C26 UNL     1      -0.857   8.080  14.471  1.00  0.00     0.050 C 
ENDROOT
BRANCH   5  19
HETATM   19  C6  UNL     1      -3.627   6.192  13.313  1.00  0.00     0.010 C 
HETATM   20  C7  UNL     1      -3.096   5.476  14.566  1.00  0.00     0.012 C 
BRANCH  19  21
HETATM   21  C8  UNL     1      -5.016   6.794  13.639  1.00  0.00     0.183 C 
BRANCH  21  22
HETATM   22  O1  UNL     1      -6.084   5.972  13.132  1.00  0.00    -0.321 OA
BRANCH  22  23
HETATM   23  C9  UNL     1      -7.340   6.236  13.573  1.00  0.00     0.254 C 
HETATM   24  C10 UNL     1      -8.345   5.626  12.645  1.00  0.00     0.126 C 
HETATM   25  O2  UNL     1      -7.627   6.869  14.578  1.00  0.00    -0.266 OA
ENDBRANCH  22  23
ENDBRANCH  21  22
ENDBRANCH  19  21
ENDBRANCH   5  19
BRANCH  16  26
HETATM   26  O7  UNL     1       1.460   6.131  13.898  1.00  0.00    -0.385 OA
HETATM   27  H39 UNL     1       1.702   5.189  13.964  1.00  0.00     0.210 HD
ENDBRANCH  16  26
BRANCH  15  28
HETATM   28  O5  UNL     1       2.328   7.310  10.489  1.00  0.00    -0.313 OA
BRANCH  28  29
HETATM   29  C20 UNL     1       3.407   7.198   9.671  1.00  0.00     0.259 C 
HETATM   30  O6  UNL     1       4.284   6.351   9.758  1.00  0.00    -0.265 OA
BRANCH  29  31
HETATM   31  C21 UNL     1       3.372   8.270   8.611  1.00  0.00     0.111 C 
BRANCH  31  32
HETATM   32  C22 UNL     1       2.201   8.098   7.650  1.00  0.00     0.005 C 
HETATM   33  C23 UNL     1       2.187   6.727   6.985  1.00  0.00     0.005 C 
ENDBRANCH  31  32
ENDBRANCH  29  31
ENDBRANCH  28  29
ENDBRANCH  15  28
BRANCH  13  34
HETATM   34  O4  UNL     1       3.947   7.242  14.433  1.00  0.00    -0.391 OA
HETATM   35  H25 UNL     1       3.195   6.637  14.581  1.00  0.00     0.210 HD
ENDBRANCH  13  34
TORSDOF 10
ENDMDL
MODEL 4
REMARK minimizedAffinity -7.6252985
REMARK  10 active torsions:
REMARK  status: ('A' for Active; 'I' for Inactive)
REMARK    1  A    between atoms: C5_5  and  C6_6 
REMARK    2  A    between atoms: C6_6  and  C8_8 
REMARK    3  A    between atoms: C8_8  and  O1_9 
REMARK    4  A    between atoms: O1_9  and  C9_10 
REMARK    5  A    between atoms: C17_20  and  O4_21 
REMARK    6  A    between atoms: C19_23  and  O5_24 
REMARK    7  A    between atoms: O5_24  and  C20_25 
REMARK    8  A    between atoms: C20_25  and  C21_27 
REMARK    9  A    between atoms: C21_27  and  C22_28 
REMARK   10  A    between atoms: C24_30  and  O7_32 
ROOT
HETATM    1  C1  UNL     1      -0.509   5.095  11.098  1.00  0.00     0.015 C 
HETATM    2  C2  UNL     1      -0.422   6.425  11.262  1.00  0.00    -0.082 C 
HETATM    3  C3  UNL     1      -0.078   7.336  10.111  1.00  0.00     0.034 C 
HETATM    4  C4  UNL     1       0.547   8.658  10.565  1.00  0.00     0.010 C 
HETATM    5  C5  UNL     1       1.431   8.526  11.822  1.00  0.00    -0.001 C 
HETATM    6  C11 UNL     1       0.599   7.946  13.029  1.00  0.00     0.033 C 
HETATM    7  C12 UNL     1      -0.070   9.035  13.899  1.00  0.00     0.163 C 
HETATM    8  O3  UNL     1      -1.387   9.220  13.360  1.00  0.00    -0.376 OA
HETATM    9  C13 UNL     1      -1.802   8.046  12.660  1.00  0.00     0.134 C 
HETATM   10  C14 UNL     1      -3.125   7.499  13.224  1.00  0.00     0.068 C 
HETATM   11  C15 UNL     1      -3.090   6.880  14.607  1.00  0.00    -0.058 C 
HETATM   12  C16 UNL     1      -3.035   5.535  14.718  1.00  0.00     0.017 C 
HETATM   13  C17 UNL     1      -3.264   7.777  15.829  1.00  0.00     0.149 C 
HETATM   14  C18 UNL     1      -2.733   9.219  15.825  1.00  0.00     0.072 C 
HETATM   15  C19 UNL     1      -1.256   9.481  16.199  1.00  0.00     0.171 C 
HETATM   16  C24 UNL     1      -0.134   8.704  15.439  1.00  0.00     0.107 C 
HETATM   17  C25 UNL     1       1.237   9.058  16.059  1.00  0.00     0.051 C 
HETATM   18  C26 UNL     1      -0.607   7.081  12.612  1.00  0.00     0.050 C 
ENDROOT
BRANCH   5  19
HETATM   19  C6  UNL     1       2.733   7.677  11.577  1.00  0.00     0.010 C 
HETATM   20  C7  UNL     1       2.475   6.165  11.484  1.00  0.00     0.012 C 
BRANCH  19  21
HETATM   21  C8  UNL     1       3.499   8.128  10.309  1.00  0.00     0.183 C 
BRANCH  21  22
HETATM   22  O1  UNL     1       3.193   7.292   9.177  1.00  0.00    -0.321 OA
BRANCH  22  23
HETATM   23  C9  UNL     1       2.887   7.909   8.008  1.00  0.00     0.254 C 
HETATM   24  C10 UNL     1       2.058   7.000   7.153  1.00  0.00     0.126 C 
HETATM   25  O2  UNL     1       3.223   9.039   7.686  1.00  0.00    -0.266 OA
ENDBRANCH  22  23
ENDBRANCH  21  22
ENDBRANCH  19  21
ENDBRANCH   5  19
BRANCH  16  26
HETATM   26  O7  UNL     1      -0.317   7.292  15.672  1.00  0.00    -0.385 OA
HETATM   27  H39 UNL     1       0.267   7.026  16.406  1.00  0.00     0.210 HD
ENDBRANCH  16  26
BRANCH  15  28
HETATM   28  O5  UNL     1      -1.055  10.910  16.037  1.00  0.00    -0.313 OA
BRANCH  28  29
HETATM   29  C20 UNL     1      -1.358  11.716  17.088  1.00  0.00     0.259 C 
HETATM   30  O6  UNL     1      -1.749  12.872  17.011  1.00  0.00    -0.265 OA
BRANCH  29  31
HETATM   31  C21 UNL     1      -1.157  10.977  18.387  1.00  0.00     0.111 C 
BRANCH  31  32
HETATM   32  C22 UNL     1      -0.296  11.760  19.373  1.00  0.00     0.005 C 
HETATM   33  C23 UNL     1       0.826  10.919  19.967  1.00  0.00     0.005 C 
ENDBRANCH  31  32
ENDBRANCH  29  31
ENDBRANCH  28  29
ENDBRANCH  15  28
BRANCH  13  34
HETATM   34  O4  UNL     1      -2.754   7.117  16.989  1.00  0.00    -0.391 OA
HETATM   35  H25 UNL     1      -1.869   6.808  16.715  1.00  0.00     0.210 HD
ENDBRANCH  13  34
TORSDOF 10
ENDMDL
MODEL 5
REMARK minimizedAffinity -7.53593063
REMARK  10 active torsions:
REMARK  status: ('A' for Active; 'I' for Inactive)
REMARK    1  A    between atoms: C5_5  and  C6_6 
REMARK    2  A    between atoms: C6_6  and  C8_8 
REMARK    3  A    between atoms: C8_8  and  O1_9 
REMARK    4  A    between atoms: O1_9  and  C9_10 
REMARK    5  A    between atoms: C17_20  and  O4_21 
REMARK    6  A    between atoms: C19_23  and  O5_24 
REMARK    7  A    between atoms: O5_24  and  C20_25 
REMARK    8  A    between atoms: C20_25  and  C21_27 
REMARK    9  A    between atoms: C21_27  and  C22_28 
REMARK   10  A    between atoms: C24_30  and  O7_32 
ROOT
HETATM    1  C1  UNL     1       2.583   9.470  12.872  1.00  0.00     0.015 C 
HETATM    2  C2  UNL     1       1.825   8.384  13.096  1.00  0.00    -0.082 C 
HETATM    3  C3  UNL     1       2.330   6.999  12.780  1.00  0.00     0.034 C 
HETATM    4  C4  UNL     1       1.199   5.997  12.529  1.00  0.00     0.010 C 
HETATM    5  C5  UNL     1      -0.034   6.616  11.840  1.00  0.00    -0.001 C 
HETATM    6  C11 UNL     1      -0.620   7.797  12.705  1.00  0.00     0.033 C 
HETATM    7  C12 UNL     1      -1.700   7.347  13.716  1.00  0.00     0.163 C 
HETATM    8  O3  UNL     1      -1.007   7.077  14.943  1.00  0.00    -0.376 OA
HETATM    9  C13 UNL     1       0.220   7.807  14.986  1.00  0.00     0.134 C 
HETATM   10  C14 UNL     1       0.290   8.707  16.233  1.00  0.00     0.068 C 
HETATM   11  C15 UNL     1      -0.634   9.907  16.281  1.00  0.00    -0.058 C 
HETATM   12  C16 UNL     1      -0.141  11.122  15.958  1.00  0.00     0.017 C 
HETATM   13  C17 UNL     1      -2.049   9.736  16.827  1.00  0.00     0.149 C 
HETATM   14  C18 UNL     1      -2.816   8.421  16.620  1.00  0.00     0.072 C 
HETATM   15  C19 UNL     1      -3.604   8.205  15.308  1.00  0.00     0.171 C 
HETATM   16  C24 UNL     1      -2.866   8.384  13.943  1.00  0.00     0.107 C 
HETATM   17  C25 UNL     1      -3.882   8.218  12.791  1.00  0.00     0.051 C 
HETATM   18  C26 UNL     1       0.411   8.485  13.620  1.00  0.00     0.050 C 
ENDROOT
BRANCH   5  19
HETATM   19  C6  UNL     1       0.250   7.085  10.366  1.00  0.00     0.010 C 
HETATM   20  C7  UNL     1      -0.248   8.508  10.064  1.00  0.00     0.012 C 
BRANCH  19  21
HETATM   21  C8  UNL     1       1.751   6.998   9.999  1.00  0.00     0.183 C 
BRANCH  21  22
HETATM   22  O1  UNL     1       2.066   5.760   9.334  1.00  0.00    -0.321 OA
BRANCH  22  23
HETATM   23  C9  UNL     1       2.666   5.836   8.120  1.00  0.00     0.254 C 
HETATM   24  C10 UNL     1       2.474   7.204   7.540  1.00  0.00     0.126 C 
HETATM   25  O2  UNL     1       3.281   4.935   7.569  1.00  0.00    -0.266 OA
ENDBRANCH  22  23
ENDBRANCH  21  22
ENDBRANCH  19  21
ENDBRANCH   5  19
BRANCH  16  26
HETATM   26  O7  UNL     1      -2.392   9.744  13.856  1.00  0.00    -0.385 OA
HETATM   27  H39 UNL     1      -3.043  10.261  13.348  1.00  0.00     0.210 HD
ENDBRANCH  16  26
BRANCH  15  28
HETATM   28  O5  UNL     1      -4.151   6.862  15.393  1.00  0.00    -0.313 OA
BRANCH  28  29
HETATM   29  C20 UNL     1      -5.496   6.716  15.270  1.00  0.00     0.259 C 
HETATM   30  O6  UNL     1      -6.342   7.365  15.867  1.00  0.00    -0.265 OA
BRANCH  29  31
HETATM   31  C21 UNL     1      -5.814   5.634  14.268  1.00  0.00     0.111 C 
BRANCH  31  32
HETATM   32  C22 UNL     1      -7.293   5.265  14.262  1.00  0.00     0.005 C 
HETATM   33  C23 UNL     1      -7.529   3.800  13.917  1.00  0.00     0.005 C 
ENDBRANCH  31  32
ENDBRANCH  29  31
ENDBRANCH  28  29
ENDBRANCH  15  28
BRANCH  13  34
HETATM   34  O4  UNL     1      -2.875  10.811  16.373  1.00  0.00    -0.391 OA
HETATM   35  H25 UNL     1      -2.708  10.845  15.411  1.00  0.00     0.210 HD
ENDBRANCH  13  34
TORSDOF 10
ENDMDL
MODEL 6
REMARK minimizedAffinity -7.39249325
REMARK  10 active torsions:
REMARK  status: ('A' for Active; 'I' for Inactive)
REMARK    1  A    between atoms: C5_5  and  C6_6 
REMARK    2  A    between atoms: C6_6  and  C8_8 
REMARK    3  A    between atoms: C8_8  and  O1_9 
REMARK    4  A    between atoms: O1_9  and  C9_10 
REMARK    5  A    between atoms: C17_20  and  O4_21 
REMARK    6  A    between atoms: C19_23  and  O5_24 
REMARK    7  A    between atoms: O5_24  and  C20_25 
REMARK    8  A    between atoms: C20_25  and  C21_27 
REMARK    9  A    between atoms: C21_27  and  C22_28 
REMARK   10  A    between atoms: C24_30  and  O7_32 
ROOT
HETATM    1  C1  UNL     1       3.244   5.263   9.648  1.00  0.00     0.015 C 
HETATM    2  C2  UNL     1       3.199   6.474  10.227  1.00  0.00    -0.082 C 
HETATM    3  C3  UNL     1       3.930   7.652   9.636  1.00  0.00     0.034 C 
HETATM    4  C4  UNL     1       4.263   8.728  10.675  1.00  0.00     0.010 C 
HETATM    5  C5  UNL     1       4.582   8.160  12.073  1.00  0.00    -0.001 C 
HETATM    6  C11 UNL     1       3.367   7.318  12.622  1.00  0.00     0.033 C 
HETATM    7  C12 UNL     1       2.360   8.152  13.447  1.00  0.00     0.163 C 
HETATM    8  O3  UNL     1       1.358   8.594  12.520  1.00  0.00    -0.376 OA
HETATM    9  C13 UNL     1       1.307   7.716  11.394  1.00  0.00     0.134 C 
HETATM   10  C14 UNL     1      -0.105   7.135  11.203  1.00  0.00     0.068 C 
HETATM   11  C15 UNL     1      -0.594   6.136  12.232  1.00  0.00    -0.058 C 
HETATM   12  C16 UNL     1      -0.526   4.818  11.943  1.00  0.00     0.017 C 
HETATM   13  C17 UNL     1      -1.277   6.644  13.498  1.00  0.00     0.149 C 
HETATM   14  C18 UNL     1      -0.853   7.975  14.138  1.00  0.00     0.072 C 
HETATM   15  C19 UNL     1       0.341   7.994  15.119  1.00  0.00     0.171 C 
HETATM   16  C24 UNL     1       1.707   7.388  14.661  1.00  0.00     0.107 C 
HETATM   17  C25 UNL     1       2.702   7.432  15.842  1.00  0.00     0.051 C 
HETATM   18  C26 UNL     1       2.466   6.715  11.527  1.00  0.00     0.050 C 
ENDROOT
BRANCH   5  19
HETATM   19  C6  UNL     1       5.911   7.319  12.111  1.00  0.00     0.010 C 
HETATM   20  C7  UNL     1       6.696   7.343  10.790  1.00  0.00     0.012 C 
BRANCH  19  21
HETATM   21  C8  UNL     1       6.855   7.762  13.256  1.00  0.00     0.183 C 
BRANCH  21  22
HETATM   22  O1  UNL     1       8.216   7.896  12.802  1.00  0.00    -0.321 OA
BRANCH  22  23
HETATM   23  C9  UNL     1       9.195   7.864  13.741  1.00  0.00     0.254 C 
HETATM   24  C10 UNL     1       8.596   7.640  15.096  1.00  0.00     0.126 C 
HETATM   25  O2  UNL     1      10.392   7.992  13.530  1.00  0.00    -0.266 OA
ENDBRANCH  22  23
ENDBRANCH  21  22
ENDBRANCH  19  21
ENDBRANCH   5  19
BRANCH  16  26
HETATM   26  O7  UNL     1       1.509   5.990  14.365  1.00  0.00    -0.385 OA
HETATM   27  H39 UNL     1       1.766   5.473  15.150  1.00  0.00     0.210 HD
ENDBRANCH  16  26
BRANCH  15  28
HETATM   28  O5  UNL     1       0.525   9.386  15.488  1.00  0.00    -0.313 OA
BRANCH  28  29
HETATM   29  C20 UNL     1       0.310   9.733  16.785  1.00  0.00     0.259 C 
HETATM   30  O6  UNL     1       1.171   9.857  17.643  1.00  0.00    -0.265 OA
BRANCH  29  31
HETATM   31  C21 UNL     1      -1.162   9.961  17.026  1.00  0.00     0.111 C 
BRANCH  31  32
HETATM   32  C22 UNL     1      -1.430  10.660  18.354  1.00  0.00     0.005 C 
HETATM   33  C23 UNL     1      -2.477  11.760  18.235  1.00  0.00     0.005 C 
ENDBRANCH  31  32
ENDBRANCH  29  31
ENDBRANCH  28  29
ENDBRANCH  15  28
BRANCH  13  34
HETATM   34  O4  UNL     1      -1.240   5.631  14.506  1.00  0.00    -0.391 OA
HETATM   35  H25 UNL     1      -0.306   5.347  14.519  1.00  0.00     0.210 HD
ENDBRANCH  13  34
TORSDOF 10
ENDMDL
MODEL 7
REMARK minimizedAffinity -7.31838989
REMARK  10 active torsions:
REMARK  status: ('A' for Active; 'I' for Inactive)
REMARK    1  A    between atoms: C5_5  and  C6_6 
REMARK    2  A    between atoms: C6_6  and  C8_8 
REMARK    3  A    between atoms: C8_8  and  O1_9 
REMARK    4  A    between atoms: O1_9  and  C9_10 
REMARK    5  A    between atoms: C17_20  and  O4_21 
REMARK    6  A    between atoms: C19_23  and  O5_24 
REMARK    7  A    between atoms: O5_24  and  C20_25 
REMARK    8  A    between atoms: C20_25  and  C21_27 
REMARK    9  A    between atoms: C21_27  and  C22_28 
REMARK   10  A    between atoms: C24_30  and  O7_32 
ROOT
HETATM    1  C1  UNL     1      -0.856   4.832  11.098  1.00  0.00     0.015 C 
HETATM    2  C2  UNL     1      -0.461   6.104  11.271  1.00  0.00    -0.082 C 
HETATM    3  C3  UNL     1       0.077   6.920  10.123  1.00  0.00     0.034 C 
HETATM    4  C4  UNL     1       0.996   8.057  10.580  1.00  0.00     0.010 C 
HETATM    5  C5  UNL     1       1.835   7.711  11.828  1.00  0.00    -0.001 C 
HETATM    6  C11 UNL     1       0.899   7.329  13.039  1.00  0.00     0.033 C 
HETATM    7  C12 UNL     1       0.509   8.536  13.923  1.00  0.00     0.163 C 
HETATM    8  O3  UNL     1      -0.732   9.027  13.398  1.00  0.00    -0.376 OA
HETATM    9  C13 UNL     1      -1.414   7.989  12.693  1.00  0.00     0.134 C 
HETATM   10  C14 UNL     1      -2.824   7.759  13.266  1.00  0.00     0.068 C 
HETATM   11  C15 UNL     1      -2.924   7.136  14.644  1.00  0.00    -0.058 C 
HETATM   12  C16 UNL     1      -3.182   5.814  14.744  1.00  0.00     0.017 C 
HETATM   13  C17 UNL     1      -2.875   8.038  15.874  1.00  0.00     0.149 C 
HETATM   14  C18 UNL     1      -2.023   9.316  15.876  1.00  0.00     0.072 C 
HETATM   15  C19 UNL     1      -0.522   9.223  16.238  1.00  0.00     0.171 C 
HETATM   16  C24 UNL     1       0.382   8.214  15.461  1.00  0.00     0.107 C 
HETATM   17  C25 UNL     1       1.803   8.234  16.070  1.00  0.00     0.051 C 
HETATM   18  C26 UNL     1      -0.477   6.772  12.626  1.00  0.00     0.050 C 
ENDROOT
BRANCH   5  19
HETATM   19  C6  UNL     1       2.901   6.585  11.564  1.00  0.00     0.010 C 
HETATM   20  C7  UNL     1       2.946   6.107  10.104  1.00  0.00     0.012 C 
BRANCH  19  21
HETATM   21  C8  UNL     1       4.327   7.014  11.989  1.00  0.00     0.183 C 
BRANCH  21  22
HETATM   22  O1  UNL     1       5.264   6.900  10.901  1.00  0.00    -0.321 OA
BRANCH  22  23
HETATM   23  C9  UNL     1       6.482   7.474  11.061  1.00  0.00     0.254 C 
HETATM   24  C10 UNL     1       6.388   8.949  10.816  1.00  0.00     0.126 C 
HETATM   25  O2  UNL     1       7.513   6.892  11.365  1.00  0.00    -0.266 OA
ENDBRANCH  22  23
ENDBRANCH  21  22
ENDBRANCH  19  21
ENDBRANCH   5  19
BRANCH  16  26
HETATM   26  O7  UNL     1      -0.123   6.881  15.686  1.00  0.00    -0.385 OA
HETATM   27  H39 UNL     1       0.388   6.480  16.411  1.00  0.00     0.210 HD
ENDBRANCH  16  26
BRANCH  15  28
HETATM   28  O5  UNL     1       0.004  10.568  16.084  1.00  0.00    -0.313 OA
BRANCH  28  29
HETATM   29  C20 UNL     1      -0.036  11.392  17.164  1.00  0.00     0.259 C 
HETATM   30  O6  UNL     1      -0.466  12.536  17.172  1.00  0.00    -0.265 OA
BRANCH  29  31
HETATM   31  C21 UNL     1       0.518  10.689  18.378  1.00  0.00     0.111 C 
BRANCH  31  32
HETATM   32  C22 UNL     1       0.108  11.370  19.679  1.00  0.00     0.005 C 
HETATM   33  C23 UNL     1       1.295  11.648  20.593  1.00  0.00     0.005 C 
ENDBRANCH  31  32
ENDBRANCH  29  31
ENDBRANCH  28  29
ENDBRANCH  15  28
BRANCH  13  34
HETATM   34  O4  UNL     1      -2.524   7.266  17.025  1.00  0.00    -0.391 OA
HETATM   35  H25 UNL     1      -1.737   6.762  16.740  1.00  0.00     0.210 HD
ENDBRANCH  13  34
TORSDOF 10
ENDMDL
MODEL 8
REMARK minimizedAffinity -7.27849722
REMARK  10 active torsions:
REMARK  status: ('A' for Active; 'I' for Inactive)
REMARK    1  A    between atoms: C5_5  and  C6_6 
REMARK    2  A    between atoms: C6_6  and  C8_8 
REMARK    3  A    between atoms: C8_8  and  O1_9 
REMARK    4  A    between atoms: O1_9  and  C9_10 
REMARK    5  A    between atoms: C17_20  and  O4_21 
REMARK    6  A    between atoms: C19_23  and  O5_24 
REMARK    7  A    between atoms: O5_24  and  C20_25 
REMARK    8  A    between atoms: C20_25  and  C21_27 
REMARK    9  A    between atoms: C21_27  and  C22_28 
REMARK   10  A    between atoms: C24_30  and  O7_32 
ROOT
HETATM    1  C1  UNL     1      -6.709   6.457  16.633  1.00  0.00     0.015 C 
HETATM    2  C2  UNL     1      -6.479   6.721  15.336  1.00  0.00    -0.082 C 
HETATM    3  C3  UNL     1      -7.580   6.630  14.310  1.00  0.00     0.034 C 
HETATM    4  C4  UNL     1      -7.055   6.372  12.895  1.00  0.00     0.010 C 
HETATM    5  C5  UNL     1      -5.798   5.480  12.855  1.00  0.00    -0.001 C 
HETATM    6  C11 UNL     1      -4.629   6.127  13.692  1.00  0.00     0.033 C 
HETATM    7  C12 UNL     1      -3.712   7.054  12.861  1.00  0.00     0.163 C 
HETATM    8  O3  UNL     1      -4.255   8.375  12.999  1.00  0.00    -0.376 OA
HETATM    9  C13 UNL     1      -5.016   8.471  14.204  1.00  0.00     0.134 C 
HETATM   10  C14 UNL     1      -4.492   9.603  15.106  1.00  0.00     0.068 C 
HETATM   11  C15 UNL     1      -3.142   9.403  15.763  1.00  0.00    -0.058 C 
HETATM   12  C16 UNL     1      -3.097   8.998  17.050  1.00  0.00     0.017 C 
HETATM   13  C17 UNL     1      -1.879   9.802  15.005  1.00  0.00     0.149 C 
HETATM   14  C18 UNL     1      -1.806   9.666  13.476  1.00  0.00     0.072 C 
HETATM   15  C19 UNL     1      -1.405   8.307  12.857  1.00  0.00     0.171 C 
HETATM   16  C24 UNL     1      -2.192   7.023  13.274  1.00  0.00     0.107 C 
HETATM   17  C25 UNL     1      -1.542   5.791  12.606  1.00  0.00     0.051 C 
HETATM   18  C26 UNL     1      -5.100   7.065  14.820  1.00  0.00     0.050 C 
ENDROOT
BRANCH   5  19
HETATM   19  C6  UNL     1      -6.072   4.002  13.320  1.00  0.00     0.010 C 
HETATM   20  C7  UNL     1      -7.537   3.736  13.699  1.00  0.00     0.012 C 
BRANCH  19  21
HETATM   21  C8  UNL     1      -5.637   2.961  12.260  1.00  0.00     0.183 C 
BRANCH  21  22
HETATM   22  O1  UNL     1      -4.211   2.761  12.263  1.00  0.00    -0.321 OA
BRANCH  22  23
HETATM   23  C9  UNL     1      -3.535   3.054  11.124  1.00  0.00     0.254 C 
HETATM   24  C10 UNL     1      -2.142   2.510  11.202  1.00  0.00     0.126 C 
HETATM   25  O2  UNL     1      -3.982   3.665  10.164  1.00  0.00    -0.266 OA
ENDBRANCH  22  23
ENDBRANCH  21  22
ENDBRANCH  19  21
ENDBRANCH   5  19
BRANCH  16  26
HETATM   26  O7  UNL     1      -2.030   6.831  14.695  1.00  0.00    -0.385 OA
HETATM   27  H39 UNL     1      -1.305   6.195  14.835  1.00  0.00     0.210 HD
ENDBRANCH  16  26
BRANCH  15  28
HETATM   28  O5  UNL     1      -1.494   8.488  11.419  1.00  0.00    -0.313 OA
BRANCH  28  29
HETATM   29  C20 UNL     1      -0.338   8.678  10.730  1.00  0.00     0.259 C 
HETATM   30  O6  UNL     1      -0.253   8.975   9.548  1.00  0.00    -0.265 OA
BRANCH  29  31
HETATM   31  C21 UNL     1       0.849   8.482  11.640  1.00  0.00     0.111 C 
BRANCH  31  32
HETATM   32  C22 UNL     1       1.833   7.452  11.096  1.00  0.00     0.005 C 
HETATM   33  C23 UNL     1       1.148   6.361  10.283  1.00  0.00     0.005 C 
ENDBRANCH  31  32
ENDBRANCH  29  31
ENDBRANCH  28  29
ENDBRANCH  15  28
BRANCH  13  34
HETATM   34  O4  UNL     1      -0.747   9.133  15.567  1.00  0.00    -0.391 OA
HETATM   35  H25 UNL     1      -1.028   8.198  15.620  1.00  0.00     0.210 HD
ENDBRANCH  13  34
TORSDOF 10
ENDMDL
MODEL 9
REMARK minimizedAffinity -7.19383478
REMARK  10 active torsions:
REMARK  status: ('A' for Active; 'I' for Inactive)
REMARK    1  A    between atoms: C5_5  and  C6_6 
REMARK    2  A    between atoms: C6_6  and  C8_8 
REMARK    3  A    between atoms: C8_8  and  O1_9 
REMARK    4  A    between atoms: O1_9  and  C9_10 
REMARK    5  A    between atoms: C17_20  and  O4_21 
REMARK    6  A    between atoms: C19_23  and  O5_24 
REMARK    7  A    between atoms: O5_24  and  C20_25 
REMARK    8  A    between atoms: C20_25  and  C21_27 
REMARK    9  A    between atoms: C21_27  and  C22_28 
REMARK   10  A    between atoms: C24_30  and  O7_32 
ROOT
HETATM    1  C1  UNL     1      -2.814   3.863   9.981  1.00  0.00     0.015 C 
HETATM    2  C2  UNL     1      -2.779   4.017  11.315  1.00  0.00    -0.082 C 
HETATM    3  C3  UNL     1      -3.334   2.963  12.240  1.00  0.00     0.034 C 
HETATM    4  C4  UNL     1      -3.752   3.527  13.601  1.00  0.00     0.010 C 
HETATM    5  C5  UNL     1      -4.315   4.961  13.531  1.00  0.00    -0.001 C 
HETATM    6  C11 UNL     1      -3.254   5.946  12.906  1.00  0.00     0.033 C 
HETATM    7  C12 UNL     1      -2.333   6.609  13.955  1.00  0.00     0.163 C 
HETATM    8  O3  UNL     1      -1.175   5.768  14.055  1.00  0.00    -0.376 OA
HETATM    9  C13 UNL     1      -1.011   5.013  12.854  1.00  0.00     0.134 C 
HETATM   10  C14 UNL     1       0.374   5.256  12.227  1.00  0.00     0.068 C 
HETATM   11  C15 UNL     1       0.634   6.619  11.618  1.00  0.00    -0.058 C 
HETATM   12  C16 UNL     1       0.527   6.766  10.280  1.00  0.00     0.017 C 
HETATM   13  C17 UNL     1       1.149   7.745  12.509  1.00  0.00     0.149 C 
HETATM   14  C18 UNL     1       0.720   7.840  13.981  1.00  0.00     0.072 C 
HETATM   15  C19 UNL     1      -0.607   8.551  14.337  1.00  0.00     0.171 C 
HETATM   16  C24 UNL     1      -1.923   8.096  13.628  1.00  0.00     0.107 C 
HETATM   17  C25 UNL     1      -3.081   9.018  14.071  1.00  0.00     0.051 C 
HETATM   18  C26 UNL     1      -2.238   5.270  11.965  1.00  0.00     0.050 C 
ENDROOT
BRANCH   5  19
HETATM   19  C6  UNL     1      -5.686   5.050  12.765  1.00  0.00     0.010 C 
HETATM   20  C7  UNL     1      -6.411   3.701  12.634  1.00  0.00     0.012 C 
BRANCH  19  21
HETATM   21  C8  UNL     1      -6.655   6.072  13.409  1.00  0.00     0.183 C 
BRANCH  21  22
HETATM   22  O1  UNL     1      -6.315   6.335  14.783  1.00  0.00    -0.321 OA
BRANCH  22  23
HETATM   23  C9  UNL     1      -7.180   5.906  15.736  1.00  0.00     0.254 C 
HETATM   24  C10 UNL     1      -7.501   7.027  16.676  1.00  0.00     0.126 C 
HETATM   25  O2  UNL     1      -7.643   4.779  15.825  1.00  0.00    -0.266 OA
ENDBRANCH  22  23
ENDBRANCH  21  22
ENDBRANCH  19  21
ENDBRANCH   5  19
BRANCH  16  26
HETATM   26  O7  UNL     1      -1.773   8.306  12.208  1.00  0.00    -0.385 OA
HETATM   27  H39 UNL     1      -2.179   9.163  11.984  1.00  0.00     0.210 HD
ENDBRANCH  16  26
BRANCH  15  28
HETATM   28  O5  UNL     1      -0.755   8.413  15.775  1.00  0.00    -0.313 OA
BRANCH  28  29
HETATM   29  C20 UNL     1      -0.126   9.321  16.567  1.00  0.00     0.259 C 
HETATM   30  O6  UNL     1       0.989   9.195  17.050  1.00  0.00    -0.265 OA
BRANCH  29  31
HETATM   31  C21 UNL     1      -1.000  10.534  16.764  1.00  0.00     0.111 C 
BRANCH  31  32
HETATM   32  C22 UNL     1      -1.529  10.643  18.190  1.00  0.00     0.005 C 
HETATM   33  C23 UNL     1      -0.567  11.374  19.117  1.00  0.00     0.005 C 
ENDBRANCH  31  32
ENDBRANCH  29  31
ENDBRANCH  28  29
ENDBRANCH  15  28
BRANCH  13  34
HETATM   34  O4  UNL     1       0.894   9.007  11.888  1.00  0.00    -0.391 OA
HETATM   35  H25 UNL     1      -0.048   8.958  11.633  1.00  0.00     0.210 HD
ENDBRANCH  13  34
TORSDOF 10
ENDMDL
