MODEL 1
REMARK minimizedAffinity -5.91778612
REMARK CNNscore 0.466144204
REMARK CNNaffinity 5.27346182
REMARK  6 active torsions:
REMARK  status: ('A' for Active; 'I' for Inactive)
REMARK    1  A    between atoms: C9_10  and  C10_11 
REMARK    2  A    between atoms: C11_13  and  O3_14 
REMARK    3  A    between atoms: C12_15  and  C13_16 
REMARK    4  A    between atoms: C14_18  and  O5_19 
REMARK    5  A    between atoms: C16_21  and  C17_22 
REMARK    6  A    between atoms: C17_22  and  C18_23 
ROOT
HETATM    1  C1  UNL     1     -10.169  40.682 -26.339  1.00  0.00     0.043 C 
HETATM    2  C2  UNL     1     -10.394  42.105 -26.788  1.00  0.00    -0.087 C 
HETATM    3  C3  UNL     1     -10.890  42.347 -28.017  1.00  0.00    -0.024 C 
HETATM    4  C4  UNL     1     -11.178  43.678 -28.637  1.00  0.00     0.030 C 
HETATM    5  C5  UNL     1     -12.667  43.981 -28.805  1.00  0.00     0.042 C 
HETATM    6  C6  UNL     1     -13.621  43.933 -27.567  1.00  0.00     0.069 C 
HETATM    7  C7  UNL     1     -13.928  42.459 -27.207  1.00  0.00     0.047 C 
HETATM    8  O1  UNL     1     -14.882  44.413 -28.149  1.00  0.00    -0.338 OA
HETATM    9  C8  UNL     1     -15.780  44.957 -27.278  1.00  0.00     0.095 A 
HETATM   10  C9  UNL     1     -17.137  44.643 -27.403  1.00  0.00     0.070 A 
HETATM   11  C11 UNL     1     -18.063  45.168 -26.488  1.00  0.00     0.097 A 
HETATM   12  C12 UNL     1     -17.625  46.029 -25.476  1.00  0.00     0.069 A 
HETATM   13  C14 UNL     1     -16.266  46.373 -25.392  1.00  0.00     0.091 A 
HETATM   14  C15 UNL     1     -15.338  45.849 -26.303  1.00  0.00     0.015 A 
HETATM   15  C16 UNL     1     -13.866  46.172 -26.265  1.00  0.00     0.032 C 
HETATM   16  C21 UNL     1     -13.090  44.815 -26.350  1.00  0.00     0.034 C 
HETATM   17  C22 UNL     1     -13.195  44.097 -25.003  1.00  0.00     0.006 A 
HETATM   18  C23 UNL     1     -12.114  43.280 -24.276  1.00  0.00    -0.001 A 
HETATM   19  C24 UNL     1     -10.624  43.110 -24.420  1.00  0.00     0.010 C 
HETATM   20  C25 UNL     1      -9.992  43.182 -25.804  1.00  0.00     0.034 C 
HETATM   21  C26 UNL     1     -12.612  44.611 -23.696  1.00  0.00    -0.039 A 
HETATM   22  C27 UNL     1     -13.492  44.538 -22.468  1.00  0.00     0.015 C 
HETATM   23  C28 UNL     1     -11.705  45.823 -23.682  1.00  0.00     0.015 C 
ENDROOT
BRANCH  15  24
HETATM   24  C17 UNL     1     -13.391  47.171 -27.349  1.00  0.00     0.014 C 
BRANCH  24  25
HETATM   25  C18 UNL     1     -11.863  47.209 -27.593  1.00  0.00    -0.022 C 
HETATM   26  C19 UNL     1     -11.151  48.125 -26.590  1.00  0.00     0.009 C 
HETATM   27  C20 UNL     1     -11.572  47.713 -29.012  1.00  0.00     0.009 C 
ENDBRANCH  24  25
ENDBRANCH  15  24
BRANCH  13  28
HETATM   28  O5  UNL     1     -15.796  47.223 -24.422  1.00  0.00    -0.359 OA
HETATM   29  H15 UNL     1     -16.538  47.440 -23.813  1.00  0.00     0.217 HD
ENDBRANCH  13  28
BRANCH  10  30
HETATM   30  C10 UNL     1     -17.576  43.742 -28.485  1.00  0.00     0.275 C 
HETATM   31  O2  UNL     1     -16.765  43.014 -29.048  1.00  0.00    -0.301 OA
ENDBRANCH  10  30
BRANCH  12  32
HETATM   32  C13 UNL     1     -18.600  46.562 -24.500  1.00  0.00     0.275 C 
HETATM   33  O4  UNL     1     -19.430  47.400 -24.843  1.00  0.00    -0.301 OA
ENDBRANCH  12  32
BRANCH  11  34
HETATM   34  O3  UNL     1     -19.399  44.857 -26.552  1.00  0.00    -0.359 OA
HETATM   35  H13 UNL     1     -19.549  44.247 -27.317  1.00  0.00     0.217 HD
ENDBRANCH  11  34
TORSDOF 6
ENDMDL
MODEL 2
REMARK minimizedAffinity -5.59668398
REMARK CNNscore 0.416222215
REMARK CNNaffinity 5.842978
REMARK  6 active torsions:
REMARK  status: ('A' for Active; 'I' for Inactive)
REMARK    1  A    between atoms: C9_10  and  C10_11 
REMARK    2  A    between atoms: C11_13  and  O3_14 
REMARK    3  A    between atoms: C12_15  and  C13_16 
REMARK    4  A    between atoms: C14_18  and  O5_19 
REMARK    5  A    between atoms: C16_21  and  C17_22 
REMARK    6  A    between atoms: C17_22  and  C18_23 
ROOT
HETATM    1  C1  UNL     1       4.679  55.965 -11.642  1.00  0.00     0.043 C 
HETATM    2  C2  UNL     1       4.516  55.058 -10.447  1.00  0.00    -0.087 C 
HETATM    3  C3  UNL     1       5.371  55.158  -9.411  1.00  0.00    -0.024 C 
HETATM    4  C4  UNL     1       5.371  54.353  -8.150  1.00  0.00     0.030 C 
HETATM    5  C5  UNL     1       4.962  55.140  -6.904  1.00  0.00     0.042 C 
HETATM    6  C6  UNL     1       3.591  55.890  -6.867  1.00  0.00     0.069 C 
HETATM    7  C7  UNL     1       3.690  57.192  -7.698  1.00  0.00     0.047 C 
HETATM    8  O1  UNL     1       3.557  56.371  -5.479  1.00  0.00    -0.338 OA
HETATM    9  C8  UNL     1       2.322  56.632  -4.961  1.00  0.00     0.095 A 
HETATM   10  C9  UNL     1       2.129  57.782  -4.187  1.00  0.00     0.070 A 
HETATM   11  C11 UNL     1       0.854  58.078  -3.682  1.00  0.00     0.097 A 
HETATM   12  C12 UNL     1      -0.210  57.204  -3.929  1.00  0.00     0.069 A 
HETATM   13  C14 UNL     1       0.010  56.029  -4.668  1.00  0.00     0.091 A 
HETATM   14  C15 UNL     1       1.282  55.730  -5.176  1.00  0.00     0.015 A 
HETATM   15  C16 UNL     1       1.583  54.492  -5.980  1.00  0.00     0.032 C 
HETATM   16  C21 UNL     1       2.366  54.947  -7.257  1.00  0.00     0.034 C 
HETATM   17  C22 UNL     1       1.389  55.611  -8.229  1.00  0.00     0.006 A 
HETATM   18  C23 UNL     1       1.356  55.505  -9.763  1.00  0.00    -0.001 A 
HETATM   19  C24 UNL     1       1.996  54.604 -10.787  1.00  0.00     0.010 C 
HETATM   20  C25 UNL     1       3.391  54.049 -10.530  1.00  0.00     0.034 C 
HETATM   21  C26 UNL     1       0.228  54.905  -8.913  1.00  0.00    -0.039 A 
HETATM   22  C27 UNL     1      -1.103  55.622  -8.934  1.00  0.00     0.015 C 
HETATM   23  C28 UNL     1       0.070  53.403  -8.807  1.00  0.00     0.015 C 
ENDROOT
BRANCH  15  24
HETATM   24  C17 UNL     1       2.343  53.384  -5.208  1.00  0.00     0.014 C 
BRANCH  24  25
HETATM   25  C18 UNL     1       1.816  51.944  -5.425  1.00  0.00    -0.022 C 
HETATM   26  C19 UNL     1       2.358  51.331  -6.722  1.00  0.00     0.009 C 
HETATM   27  C20 UNL     1       0.283  51.953  -5.487  1.00  0.00     0.009 C 
ENDBRANCH  24  25
ENDBRANCH  15  24
BRANCH  13  28
HETATM   28  O5  UNL     1      -1.003  55.138  -4.923  1.00  0.00    -0.359 OA
HETATM   29  H15 UNL     1      -1.845  55.519  -4.582  1.00  0.00     0.217 HD
ENDBRANCH  13  28
BRANCH  10  30
HETATM   30  C10 UNL     1       3.269  58.683  -3.931  1.00  0.00     0.275 C 
HETATM   31  O2  UNL     1       3.078  59.798  -3.458  1.00  0.00    -0.301 OA
ENDBRANCH  10  30
BRANCH  12  32
HETATM   32  C13 UNL     1      -1.557  57.531  -3.415  1.00  0.00     0.275 C 
HETATM   33  O4  UNL     1      -2.004  58.671  -3.520  1.00  0.00    -0.301 OA
ENDBRANCH  12  32
BRANCH  11  34
HETATM   34  O3  UNL     1       0.612  59.214  -2.949  1.00  0.00    -0.359 OA
HETATM   35  H13 UNL     1       1.457  59.722  -2.858  1.00  0.00     0.217 HD
ENDBRANCH  11  34
TORSDOF 6
ENDMDL
MODEL 3
REMARK minimizedAffinity -5.63011169
REMARK CNNscore 0.309259325
REMARK CNNaffinity 5.2181735
REMARK  6 active torsions:
REMARK  status: ('A' for Active; 'I' for Inactive)
REMARK    1  A    between atoms: C9_10  and  C10_11 
REMARK    2  A    between atoms: C11_13  and  O3_14 
REMARK    3  A    between atoms: C12_15  and  C13_16 
REMARK    4  A    between atoms: C14_18  and  O5_19 
REMARK    5  A    between atoms: C16_21  and  C17_22 
REMARK    6  A    between atoms: C17_22  and  C18_23 
ROOT
HETATM    1  C1  UNL     1      -0.895  53.242  -4.840  1.00  0.00     0.043 C 
HETATM    2  C2  UNL     1      -0.307  54.055  -5.968  1.00  0.00    -0.087 C 
HETATM    3  C3  UNL     1      -0.438  55.395  -5.964  1.00  0.00    -0.024 C 
HETATM    4  C4  UNL     1       0.071  56.363  -6.985  1.00  0.00     0.030 C 
HETATM    5  C5  UNL     1       1.229  57.235  -6.498  1.00  0.00     0.042 C 
HETATM    6  C6  UNL     1       2.527  56.570  -5.935  1.00  0.00     0.069 C 
HETATM    7  C7  UNL     1       2.265  56.059  -4.497  1.00  0.00     0.047 C 
HETATM    8  O1  UNL     1       3.390  57.742  -5.729  1.00  0.00    -0.338 OA
HETATM    9  C8  UNL     1       4.734  57.506  -5.716  1.00  0.00     0.095 A 
HETATM   10  C9  UNL     1       5.535  58.142  -4.763  1.00  0.00     0.070 A 
HETATM   11  C11 UNL     1       6.913  57.876  -4.718  1.00  0.00     0.097 A 
HETATM   12  C12 UNL     1       7.480  57.000  -5.649  1.00  0.00     0.069 A 
HETATM   13  C14 UNL     1       6.670  56.405  -6.631  1.00  0.00     0.091 A 
HETATM   14  C15 UNL     1       5.294  56.667  -6.678  1.00  0.00     0.015 A 
HETATM   15  C16 UNL     1       4.368  56.057  -7.700  1.00  0.00     0.032 C 
HETATM   16  C21 UNL     1       3.137  55.480  -6.925  1.00  0.00     0.034 C 
HETATM   17  C22 UNL     1       3.556  54.195  -6.210  1.00  0.00     0.006 A 
HETATM   18  C23 UNL     1       2.746  52.900  -6.030  1.00  0.00    -0.001 A 
HETATM   19  C24 UNL     1       1.492  52.329  -6.642  1.00  0.00     0.010 C 
HETATM   20  C25 UNL     1       0.371  53.267  -7.068  1.00  0.00     0.034 C 
HETATM   21  C26 UNL     1       4.005  52.919  -6.907  1.00  0.00    -0.039 A 
HETATM   22  C27 UNL     1       5.232  52.226  -6.359  1.00  0.00     0.015 C 
HETATM   23  C28 UNL     1       3.889  52.781  -8.410  1.00  0.00     0.015 C 
ENDROOT
BRANCH  15  24
HETATM   24  C17 UNL     1       3.932  57.016  -8.835  1.00  0.00     0.014 C 
BRANCH  24  25
HETATM   25  C18 UNL     1       3.686  56.347 -10.210  1.00  0.00    -0.022 C 
HETATM   26  C19 UNL     1       2.352  55.593 -10.243  1.00  0.00     0.009 C 
HETATM   27  C20 UNL     1       4.818  55.359 -10.520  1.00  0.00     0.009 C 
ENDBRANCH  24  25
ENDBRANCH  15  24
BRANCH  13  28
HETATM   28  O5  UNL     1       7.188  55.549  -7.570  1.00  0.00    -0.359 OA
HETATM   29  H15 UNL     1       8.138  55.397  -7.362  1.00  0.00     0.217 HD
ENDBRANCH  13  28
BRANCH  10  30
HETATM   30  C10 UNL     1       4.916  59.071  -3.798  1.00  0.00     0.275 C 
HETATM   31  O2  UNL     1       5.235  60.255  -3.792  1.00  0.00    -0.301 OA
ENDBRANCH  10  30
BRANCH  12  32
HETATM   32  C13 UNL     1       8.928  56.704  -5.584  1.00  0.00     0.275 C 
HETATM   33  O4  UNL     1       9.320  55.582  -5.272  1.00  0.00    -0.301 OA
ENDBRANCH  12  32
BRANCH  11  34
HETATM   34  O3  UNL     1       7.730  58.451  -3.776  1.00  0.00    -0.359 OA
HETATM   35  H13 UNL     1       7.186  59.043  -3.198  1.00  0.00     0.217 HD
ENDBRANCH  11  34
TORSDOF 6
ENDMDL
MODEL 4
REMARK minimizedAffinity -5.30044079
REMARK CNNscore 0.255993366
REMARK CNNaffinity 5.73259974
REMARK  6 active torsions:
REMARK  status: ('A' for Active; 'I' for Inactive)
REMARK    1  A    between atoms: C9_10  and  C10_11 
REMARK    2  A    between atoms: C11_13  and  O3_14 
REMARK    3  A    between atoms: C12_15  and  C13_16 
REMARK    4  A    between atoms: C14_18  and  O5_19 
REMARK    5  A    between atoms: C16_21  and  C17_22 
REMARK    6  A    between atoms: C17_22  and  C18_23 
ROOT
HETATM    1  C1  UNL     1       6.334  38.721 -22.077  1.00  0.00     0.043 C 
HETATM    2  C2  UNL     1       7.763  38.309 -21.823  1.00  0.00    -0.087 C 
HETATM    3  C3  UNL     1       8.440  37.628 -22.768  1.00  0.00    -0.024 C 
HETATM    4  C4  UNL     1       9.851  37.136 -22.700  1.00  0.00     0.030 C 
HETATM    5  C5  UNL     1      10.818  37.880 -23.622  1.00  0.00     0.042 C 
HETATM    6  C6  UNL     1      10.960  39.433 -23.518  1.00  0.00     0.069 C 
HETATM    7  C7  UNL     1       9.744  40.110 -24.195  1.00  0.00     0.047 C 
HETATM    8  O1  UNL     1      12.061  39.690 -24.458  1.00  0.00    -0.338 OA
HETATM    9  C8  UNL     1      12.767  40.840 -24.260  1.00  0.00     0.095 A 
HETATM   10  C9  UNL     1      13.128  41.624 -25.361  1.00  0.00     0.070 A 
HETATM   11  C11 UNL     1      13.821  42.829 -25.164  1.00  0.00     0.097 A 
HETATM   12  C12 UNL     1      14.174  43.221 -23.868  1.00  0.00     0.069 A 
HETATM   13  C14 UNL     1      13.845  42.401 -22.777  1.00  0.00     0.091 A 
HETATM   14  C15 UNL     1      13.152  41.198 -22.969  1.00  0.00     0.015 A 
HETATM   15  C16 UNL     1      12.763  40.275 -21.842  1.00  0.00     0.032 C 
HETATM   16  C21 UNL     1      11.250  39.924 -22.029  1.00  0.00     0.034 C 
HETATM   17  C22 UNL     1      10.405  41.135 -21.627  1.00  0.00     0.006 A 
HETATM   18  C23 UNL     1       9.064  41.149 -20.875  1.00  0.00    -0.001 A 
HETATM   19  C24 UNL     1       8.274  40.143 -20.078  1.00  0.00     0.010 C 
HETATM   20  C25 UNL     1       8.326  38.672 -20.465  1.00  0.00     0.034 C 
HETATM   21  C26 UNL     1      10.332  41.716 -20.223  1.00  0.00    -0.039 A 
HETATM   22  C27 UNL     1      10.421  43.219 -20.091  1.00  0.00     0.015 C 
HETATM   23  C28 UNL     1      10.977  40.996 -19.058  1.00  0.00     0.015 C 
ENDROOT
BRANCH  15  24
HETATM   24  C17 UNL     1      13.635  39.000 -21.716  1.00  0.00     0.014 C 
BRANCH  24  25
HETATM   25  C18 UNL     1      14.054  38.624 -20.274  1.00  0.00    -0.022 C 
HETATM   26  C19 UNL     1      12.923  37.912 -19.522  1.00  0.00     0.009 C 
HETATM   27  C20 UNL     1      14.444  39.887 -19.496  1.00  0.00     0.009 C 
ENDBRANCH  24  25
ENDBRANCH  15  24
BRANCH  13  28
HETATM   28  O5  UNL     1      14.183  42.742 -21.491  1.00  0.00    -0.359 OA
HETATM   29  H15 UNL     1      14.585  43.641 -21.504  1.00  0.00     0.217 HD
ENDBRANCH  13  28
BRANCH  10  30
HETATM   30  C10 UNL     1      12.755  41.183 -26.719  1.00  0.00     0.275 C 
HETATM   31  O2  UNL     1      12.308  41.990 -27.526  1.00  0.00    -0.301 OA
ENDBRANCH  10  30
BRANCH  12  32
HETATM   32  C13 UNL     1      14.884  44.503 -23.662  1.00  0.00     0.275 C 
HETATM   33  O4  UNL     1      15.312  44.805 -22.551  1.00  0.00    -0.301 OA
ENDBRANCH  12  32
BRANCH  11  34
HETATM   34  O3  UNL     1      14.164  43.646 -26.213  1.00  0.00    -0.359 OA
HETATM   35  H13 UNL     1      13.851  43.232 -27.056  1.00  0.00     0.217 HD
ENDBRANCH  11  34
TORSDOF 6
ENDMDL
MODEL 5
REMARK minimizedAffinity -6.75642443
REMARK CNNscore 0.235841557
REMARK CNNaffinity 5.67547607
REMARK  6 active torsions:
REMARK  status: ('A' for Active; 'I' for Inactive)
REMARK    1  A    between atoms: C9_10  and  C10_11 
REMARK    2  A    between atoms: C11_13  and  O3_14 
REMARK    3  A    between atoms: C12_15  and  C13_16 
REMARK    4  A    between atoms: C14_18  and  O5_19 
REMARK    5  A    between atoms: C16_21  and  C17_22 
REMARK    6  A    between atoms: C17_22  and  C18_23 
ROOT
HETATM    1  C1  UNL     1       6.816  53.824  -9.169  1.00  0.00     0.043 C 
HETATM    2  C2  UNL     1       5.594  54.680  -8.938  1.00  0.00    -0.087 C 
HETATM    3  C3  UNL     1       5.034  55.338  -9.971  1.00  0.00    -0.024 C 
HETATM    4  C4  UNL     1       3.832  56.227  -9.939  1.00  0.00     0.030 C 
HETATM    5  C5  UNL     1       2.601  55.640 -10.632  1.00  0.00     0.042 C 
HETATM    6  C6  UNL     1       2.045  54.247 -10.193  1.00  0.00     0.069 C 
HETATM    7  C7  UNL     1       2.944  53.126 -10.770  1.00  0.00     0.047 C 
HETATM    8  O1  UNL     1       0.821  54.152 -11.001  1.00  0.00    -0.338 OA
HETATM    9  C8  UNL     1      -0.151  53.320 -10.527  1.00  0.00     0.095 A 
HETATM   10  C9  UNL     1      -0.835  52.484 -11.416  1.00  0.00     0.070 A 
HETATM   11  C11 UNL     1      -1.809  51.597 -10.932  1.00  0.00     0.097 A 
HETATM   12  C12 UNL     1      -2.113  51.578  -9.567  1.00  0.00     0.069 A 
HETATM   13  C14 UNL     1      -1.452  52.457  -8.693  1.00  0.00     0.091 A 
HETATM   14  C15 UNL     1      -0.477  53.343  -9.172  1.00  0.00     0.015 A 
HETATM   15  C16 UNL     1       0.274  54.307  -8.288  1.00  0.00     0.032 C 
HETATM   16  C21 UNL     1       1.796  54.154  -8.621  1.00  0.00     0.034 C 
HETATM   17  C22 UNL     1       2.309  52.848  -8.013  1.00  0.00     0.006 A 
HETATM   18  C23 UNL     1       3.668  52.582  -7.343  1.00  0.00    -0.001 A 
HETATM   19  C24 UNL     1       4.788  53.443  -6.819  1.00  0.00     0.010 C 
HETATM   20  C25 UNL     1       5.105  54.763  -7.508  1.00  0.00     0.034 C 
HETATM   21  C26 UNL     1       2.371  52.548  -6.523  1.00  0.00    -0.039 A 
HETATM   22  C27 UNL     1       1.882  51.191  -6.068  1.00  0.00     0.015 C 
HETATM   23  C28 UNL     1       2.083  53.633  -5.507  1.00  0.00     0.015 C 
ENDROOT
BRANCH  15  24
HETATM   24  C17 UNL     1      -0.190  55.781  -8.394  1.00  0.00     0.014 C 
BRANCH  24  25
HETATM   25  C18 UNL     1       0.064  56.648  -7.135  1.00  0.00    -0.022 C 
HETATM   26  C19 UNL     1       1.522  57.116  -7.053  1.00  0.00     0.009 C 
HETATM   27  C20 UNL     1      -0.266  55.843  -5.872  1.00  0.00     0.009 C 
ENDBRANCH  24  25
ENDBRANCH  15  24
BRANCH  13  28
HETATM   28  O5  UNL     1      -1.728  52.481  -7.349  1.00  0.00    -0.359 OA
HETATM   29  H15 UNL     1      -2.363  51.755  -7.150  1.00  0.00     0.217 HD
ENDBRANCH  13  28
BRANCH  10  30
HETATM   30  C10 UNL     1      -0.504  52.529 -12.853  1.00  0.00     0.275 C 
HETATM   31  O2  UNL     1      -1.217  51.953 -13.667  1.00  0.00    -0.301 OA
ENDBRANCH  10  30
BRANCH  12  32
HETATM   32  C13 UNL     1      -3.124  50.627  -9.058  1.00  0.00     0.275 C 
HETATM   33  O4  UNL     1      -4.249  50.589  -9.551  1.00  0.00    -0.301 OA
ENDBRANCH  12  32
BRANCH  11  34
HETATM   34  O3  UNL     1      -2.478  50.733 -11.765  1.00  0.00    -0.359 OA
HETATM   35  H13 UNL     1      -2.157  50.869 -12.692  1.00  0.00     0.217 HD
ENDBRANCH  11  34
TORSDOF 6
ENDMDL
MODEL 6
REMARK minimizedAffinity -6.31202888
REMARK CNNscore 0.231152251
REMARK CNNaffinity 5.30663729
REMARK  6 active torsions:
REMARK  status: ('A' for Active; 'I' for Inactive)
REMARK    1  A    between atoms: C9_10  and  C10_11 
REMARK    2  A    between atoms: C11_13  and  O3_14 
REMARK    3  A    between atoms: C12_15  and  C13_16 
REMARK    4  A    between atoms: C14_18  and  O5_19 
REMARK    5  A    between atoms: C16_21  and  C17_22 
REMARK    6  A    between atoms: C17_22  and  C18_23 
ROOT
HETATM    1  C1  UNL     1      -7.469  42.863 -33.845  1.00  0.00     0.043 C 
HETATM    2  C2  UNL     1      -8.660  43.657 -33.366  1.00  0.00    -0.087 C 
HETATM    3  C3  UNL     1      -9.640  43.040 -32.678  1.00  0.00    -0.024 C 
HETATM    4  C4  UNL     1     -10.889  43.652 -32.126  1.00  0.00     0.030 C 
HETATM    5  C5  UNL     1     -10.917  43.748 -30.600  1.00  0.00     0.042 C 
HETATM    6  C6  UNL     1      -9.771  44.492 -29.841  1.00  0.00     0.069 C 
HETATM    7  C7  UNL     1      -8.512  43.592 -29.793  1.00  0.00     0.047 C 
HETATM    8  O1  UNL     1     -10.267  44.461 -28.458  1.00  0.00    -0.338 OA
HETATM    9  C8  UNL     1      -9.781  45.422 -27.621  1.00  0.00     0.095 A 
HETATM   10  C9  UNL     1      -9.413  45.077 -26.316  1.00  0.00     0.070 A 
HETATM   11  C11 UNL     1      -8.876  46.051 -25.460  1.00  0.00     0.097 A 
HETATM   12  C12 UNL     1      -8.743  47.370 -25.908  1.00  0.00     0.069 A 
HETATM   13  C14 UNL     1      -9.159  47.711 -27.206  1.00  0.00     0.091 A 
HETATM   14  C15 UNL     1      -9.694  46.741 -28.064  1.00  0.00     0.015 A 
HETATM   15  C16 UNL     1     -10.155  47.039 -29.468  1.00  0.00     0.032 C 
HETATM   16  C21 UNL     1      -9.514  45.961 -30.406  1.00  0.00     0.034 C 
HETATM   17  C22 UNL     1      -8.029  46.278 -30.586  1.00  0.00     0.006 A 
HETATM   18  C23 UNL     1      -7.177  46.143 -31.859  1.00  0.00    -0.001 A 
HETATM   19  C24 UNL     1      -7.468  45.947 -33.325  1.00  0.00     0.010 C 
HETATM   20  C25 UNL     1      -8.676  45.122 -33.746  1.00  0.00     0.034 C 
HETATM   21  C26 UNL     1      -7.483  47.525 -31.266  1.00  0.00    -0.039 A 
HETATM   22  C27 UNL     1      -6.343  48.244 -30.580  1.00  0.00     0.015 C 
HETATM   23  C28 UNL     1      -8.411  48.477 -31.989  1.00  0.00     0.015 C 
ENDROOT
BRANCH  15  24
HETATM   24  C17 UNL     1     -11.692  47.112 -29.647  1.00  0.00     0.014 C 
BRANCH  24  25
HETATM   25  C18 UNL     1     -12.521  46.864 -28.362  1.00  0.00    -0.022 C 
HETATM   26  C19 UNL     1     -13.867  46.199 -28.675  1.00  0.00     0.009 C 
HETATM   27  C20 UNL     1     -12.784  48.195 -27.646  1.00  0.00     0.009 C 
ENDBRANCH  24  25
ENDBRANCH  15  24
BRANCH  13  28
HETATM   28  O5  UNL     1      -9.057  48.995 -27.681  1.00  0.00    -0.359 OA
HETATM   29  H15 UNL     1      -8.591  49.539 -27.006  1.00  0.00     0.217 HD
ENDBRANCH  13  28
BRANCH  10  30
HETATM   30  C10 UNL     1      -9.575  43.682 -25.862  1.00  0.00     0.275 C 
HETATM   31  O2  UNL     1     -10.065  43.445 -24.764  1.00  0.00    -0.301 OA
ENDBRANCH  10  30
BRANCH  12  32
HETATM   32  C13 UNL     1      -8.155  48.389 -25.012  1.00  0.00     0.275 C 
HETATM   33  O4  UNL     1      -8.827  49.344 -24.631  1.00  0.00    -0.301 OA
ENDBRANCH  12  32
BRANCH  11  34
HETATM   34  O3  UNL     1      -8.470  45.748 -24.184  1.00  0.00    -0.359 OA
HETATM   35  H13 UNL     1      -8.631  44.785 -24.016  1.00  0.00     0.217 HD
ENDBRANCH  11  34
TORSDOF 6
ENDMDL
MODEL 7
REMARK minimizedAffinity -5.92424822
REMARK CNNscore 0.228831306
REMARK CNNaffinity 4.93138885
REMARK  6 active torsions:
REMARK  status: ('A' for Active; 'I' for Inactive)
REMARK    1  A    between atoms: C9_10  and  C10_11 
REMARK    2  A    between atoms: C11_13  and  O3_14 
REMARK    3  A    between atoms: C12_15  and  C13_16 
REMARK    4  A    between atoms: C14_18  and  O5_19 
REMARK    5  A    between atoms: C16_21  and  C17_22 
REMARK    6  A    between atoms: C17_22  and  C18_23 
ROOT
HETATM    1  C1  UNL     1      14.044  63.729 -44.414  1.00  0.00     0.043 C 
HETATM    2  C2  UNL     1      13.212  63.495 -43.176  1.00  0.00    -0.087 C 
HETATM    3  C3  UNL     1      12.443  62.393 -43.087  1.00  0.00    -0.024 C 
HETATM    4  C4  UNL     1      11.557  61.992 -41.950  1.00  0.00     0.030 C 
HETATM    5  C5  UNL     1      12.058  60.781 -41.162  1.00  0.00     0.042 C 
HETATM    6  C6  UNL     1      13.488  60.796 -40.531  1.00  0.00     0.069 C 
HETATM    7  C7  UNL     1      14.545  60.555 -41.636  1.00  0.00     0.047 C 
HETATM    8  O1  UNL     1      13.488  59.535 -39.777  1.00  0.00    -0.338 OA
HETATM    9  C8  UNL     1      14.362  59.457 -38.732  1.00  0.00     0.095 A 
HETATM   10  C9  UNL     1      15.094  58.282 -38.532  1.00  0.00     0.070 A 
HETATM   11  C11 UNL     1      16.023  58.207 -37.482  1.00  0.00     0.097 A 
HETATM   12  C12 UNL     1      16.187  59.298 -36.623  1.00  0.00     0.069 A 
HETATM   13  C14 UNL     1      15.412  60.455 -36.808  1.00  0.00     0.091 A 
HETATM   14  C15 UNL     1      14.484  60.534 -37.855  1.00  0.00     0.015 A 
HETATM   15  C16 UNL     1      13.626  61.747 -38.113  1.00  0.00     0.032 C 
HETATM   16  C21 UNL     1      13.749  62.089 -39.635  1.00  0.00     0.034 C 
HETATM   17  C22 UNL     1      15.117  62.725 -39.892  1.00  0.00     0.006 A 
HETATM   18  C23 UNL     1      15.460  63.885 -40.842  1.00  0.00    -0.001 A 
HETATM   19  C24 UNL     1      14.667  64.924 -41.592  1.00  0.00     0.010 C 
HETATM   20  C25 UNL     1      13.282  64.575 -42.118  1.00  0.00     0.034 C 
HETATM   21  C26 UNL     1      15.576  64.058 -39.321  1.00  0.00    -0.039 A 
HETATM   22  C27 UNL     1      16.972  64.119 -38.742  1.00  0.00     0.015 C 
HETATM   23  C28 UNL     1      14.606  64.953 -38.580  1.00  0.00     0.015 C 
ENDROOT
BRANCH  15  24
HETATM   24  C17 UNL     1      12.146  61.599 -37.677  1.00  0.00     0.014 C 
BRANCH  24  25
HETATM   25  C18 UNL     1      11.567  62.795 -36.882  1.00  0.00    -0.022 C 
HETATM   26  C19 UNL     1      12.534  63.274 -35.793  1.00  0.00     0.009 C 
HETATM   27  C20 UNL     1      10.243  62.392 -36.222  1.00  0.00     0.009 C 
ENDBRANCH  24  25
ENDBRANCH  15  24
BRANCH  13  28
HETATM   28  O5  UNL     1      15.533  61.543 -35.980  1.00  0.00    -0.359 OA
HETATM   29  H15 UNL     1      16.273  61.375 -35.353  1.00  0.00     0.217 HD
ENDBRANCH  13  28
BRANCH  10  30
HETATM   30  C10 UNL     1      14.894  57.140 -39.445  1.00  0.00     0.275 C 
HETATM   31  O2  UNL     1      13.793  56.934 -39.942  1.00  0.00    -0.301 OA
ENDBRANCH  10  30
BRANCH  12  32
HETATM   32  C13 UNL     1      17.184  59.224 -35.532  1.00  0.00     0.275 C 
HETATM   33  O4  UNL     1      17.022  58.448 -34.593  1.00  0.00    -0.301 OA
ENDBRANCH  12  32
BRANCH  11  34
HETATM   34  O3  UNL     1      16.788  57.085 -37.272  1.00  0.00    -0.359 OA
HETATM   35  H13 UNL     1      16.554  56.406 -37.954  1.00  0.00     0.217 HD
ENDBRANCH  11  34
TORSDOF 6
ENDMDL
MODEL 8
REMARK minimizedAffinity -5.49337149
REMARK CNNscore 0.212849438
REMARK CNNaffinity 4.74316597
REMARK  6 active torsions:
REMARK  status: ('A' for Active; 'I' for Inactive)
REMARK    1  A    between atoms: C9_10  and  C10_11 
REMARK    2  A    between atoms: C11_13  and  O3_14 
REMARK    3  A    between atoms: C12_15  and  C13_16 
REMARK    4  A    between atoms: C14_18  and  O5_19 
REMARK    5  A    between atoms: C16_21  and  C17_22 
REMARK    6  A    between atoms: C17_22  and  C18_23 
ROOT
HETATM    1  C1  UNL     1       0.334  56.699  -5.194  1.00  0.00     0.043 C 
HETATM    2  C2  UNL     1       1.424  56.328  -6.169  1.00  0.00    -0.087 C 
HETATM    3  C3  UNL     1       2.001  57.285  -6.921  1.00  0.00    -0.024 C 
HETATM    4  C4  UNL     1       3.088  57.114  -7.935  1.00  0.00     0.030 C 
HETATM    5  C5  UNL     1       4.437  57.697  -7.512  1.00  0.00     0.042 C 
HETATM    6  C6  UNL     1       5.102  57.241  -6.173  1.00  0.00     0.069 C 
HETATM    7  C7  UNL     1       4.393  57.930  -4.981  1.00  0.00     0.047 C 
HETATM    8  O1  UNL     1       6.400  57.927  -6.242  1.00  0.00    -0.338 OA
HETATM    9  C8  UNL     1       7.410  57.382  -5.505  1.00  0.00     0.095 A 
HETATM   10  C9  UNL     1       8.264  58.220  -4.781  1.00  0.00     0.070 A 
HETATM   11  C11 UNL     1       9.282  57.666  -3.989  1.00  0.00     0.097 A 
HETATM   12  C12 UNL     1       9.456  56.279  -3.956  1.00  0.00     0.069 A 
HETATM   13  C14 UNL     1       8.621  55.452  -4.725  1.00  0.00     0.091 A 
HETATM   14  C15 UNL     1       7.602  56.001  -5.515  1.00  0.00     0.015 A 
HETATM   15  C16 UNL     1       6.668  55.171  -6.359  1.00  0.00     0.032 C 
HETATM   16  C21 UNL     1       5.211  55.655  -6.052  1.00  0.00     0.034 C 
HETATM   17  C22 UNL     1       4.793  55.133  -4.676  1.00  0.00     0.006 A 
HETATM   18  C23 UNL     1       3.416  54.605  -4.240  1.00  0.00    -0.001 A 
HETATM   19  C24 UNL     1       2.161  54.172  -4.953  1.00  0.00     0.010 C 
HETATM   20  C25 UNL     1       1.764  54.855  -6.254  1.00  0.00     0.034 C 
HETATM   21  C26 UNL     1       4.625  53.664  -4.319  1.00  0.00    -0.039 A 
HETATM   22  C27 UNL     1       5.218  53.198  -3.008  1.00  0.00     0.015 C 
HETATM   23  C28 UNL     1       4.691  52.598  -5.392  1.00  0.00     0.015 C 
ENDROOT
BRANCH  15  24
HETATM   24  C17 UNL     1       6.970  55.194  -7.878  1.00  0.00     0.014 C 
BRANCH  24  25
HETATM   25  C18 UNL     1       5.989  54.385  -8.761  1.00  0.00    -0.022 C 
HETATM   26  C19 UNL     1       6.593  53.045  -9.199  1.00  0.00     0.009 C 
HETATM   27  C20 UNL     1       5.626  55.193 -10.014  1.00  0.00     0.009 C 
ENDBRANCH  24  25
ENDBRANCH  15  24
BRANCH  13  28
HETATM   28  O5  UNL     1       8.765  54.087  -4.730  1.00  0.00    -0.359 OA
HETATM   29  H15 UNL     1       9.456  53.845  -4.072  1.00  0.00     0.217 HD
ENDBRANCH  13  28
BRANCH  10  30
HETATM   30  C10 UNL     1       8.068  59.682  -4.841  1.00  0.00     0.275 C 
HETATM   31  O2  UNL     1       7.840  60.315  -3.816  1.00  0.00    -0.301 OA
ENDBRANCH  10  30
BRANCH  12  32
HETATM   32  C13 UNL     1      10.515  55.697  -3.103  1.00  0.00     0.275 C 
HETATM   33  O4  UNL     1      11.367  54.956  -3.587  1.00  0.00    -0.301 OA
ENDBRANCH  12  32
BRANCH  11  34
HETATM   34  O3  UNL     1      10.120  58.451  -3.234  1.00  0.00    -0.359 OA
HETATM   35  H13 UNL     1       9.874  59.401  -3.367  1.00  0.00     0.217 HD
ENDBRANCH  11  34
TORSDOF 6
ENDMDL
MODEL 9
REMARK minimizedAffinity -6.21073389
REMARK CNNscore 0.208330691
REMARK CNNaffinity 5.62552977
REMARK  6 active torsions:
REMARK  status: ('A' for Active; 'I' for Inactive)
REMARK    1  A    between atoms: C9_10  and  C10_11 
REMARK    2  A    between atoms: C11_13  and  O3_14 
REMARK    3  A    between atoms: C12_15  and  C13_16 
REMARK    4  A    between atoms: C14_18  and  O5_19 
REMARK    5  A    between atoms: C16_21  and  C17_22 
REMARK    6  A    between atoms: C17_22  and  C18_23 
ROOT
HETATM    1  C1  UNL     1      -2.193  50.515 -23.064  1.00  0.00     0.043 C 
HETATM    2  C2  UNL     1      -2.637  49.074 -23.003  1.00  0.00    -0.087 C 
HETATM    3  C3  UNL     1      -2.359  48.335 -21.911  1.00  0.00    -0.024 C 
HETATM    4  C4  UNL     1      -2.712  46.902 -21.668  1.00  0.00     0.030 C 
HETATM    5  C5  UNL     1      -3.787  46.695 -20.601  1.00  0.00     0.042 C 
HETATM    6  C6  UNL     1      -5.175  47.401 -20.740  1.00  0.00     0.069 C 
HETATM    7  C7  UNL     1      -5.036  48.894 -20.357  1.00  0.00     0.047 C 
HETATM    8  O1  UNL     1      -5.912  46.824 -19.607  1.00  0.00    -0.338 OA
HETATM    9  C8  UNL     1      -7.273  46.833 -19.706  1.00  0.00     0.095 A 
HETATM   10  C9  UNL     1      -8.042  47.177 -18.590  1.00  0.00     0.070 A 
HETATM   11  C11 UNL     1      -9.441  47.226 -18.693  1.00  0.00     0.097 A 
HETATM   12  C12 UNL     1     -10.059  46.898 -19.905  1.00  0.00     0.069 A 
HETATM   13  C14 UNL     1      -9.275  46.509 -21.004  1.00  0.00     0.091 A 
HETATM   14  C15 UNL     1      -7.878  46.461 -20.906  1.00  0.00     0.015 A 
HETATM   15  C16 UNL     1      -6.980  46.058 -22.048  1.00  0.00     0.032 C 
HETATM   16  C21 UNL     1      -5.856  47.141 -22.159  1.00  0.00     0.034 C 
HETATM   17  C22 UNL     1      -6.446  48.410 -22.776  1.00  0.00     0.006 A 
HETATM   18  C23 UNL     1      -5.792  49.367 -23.787  1.00  0.00    -0.001 A 
HETATM   19  C24 UNL     1      -4.583  49.312 -24.685  1.00  0.00     0.010 C 
HETATM   20  C25 UNL     1      -3.347  48.547 -24.231  1.00  0.00     0.034 C 
HETATM   21  C26 UNL     1      -7.000  48.511 -24.190  1.00  0.00    -0.039 A 
HETATM   22  C27 UNL     1      -8.320  49.228 -24.366  1.00  0.00     0.015 C 
HETATM   23  C28 UNL     1      -6.832  47.367 -25.166  1.00  0.00     0.015 C 
ENDROOT
BRANCH  15  24
HETATM   24  C17 UNL     1      -6.390  44.630 -21.938  1.00  0.00     0.014 C 
BRANCH  24  25
HETATM   25  C18 UNL     1      -7.179  43.527 -22.686  1.00  0.00    -0.022 C 
HETATM   26  C19 UNL     1      -7.859  44.073 -23.947  1.00  0.00     0.009 C 
HETATM   27  C20 UNL     1      -8.252  42.936 -21.764  1.00  0.00     0.009 C 
ENDBRANCH  24  25
ENDBRANCH  15  24
BRANCH  13  28
HETATM   28  O5  UNL     1      -9.841  46.168 -22.207  1.00  0.00    -0.359 OA
HETATM   29  H15 UNL     1     -10.811  46.330 -22.152  1.00  0.00     0.217 HD
ENDBRANCH  13  28
BRANCH  10  30
HETATM   30  C10 UNL     1      -7.369  47.507 -17.319  1.00  0.00     0.275 C 
HETATM   31  O2  UNL     1      -7.658  46.901 -16.293  1.00  0.00    -0.301 OA
ENDBRANCH  10  30
BRANCH  12  32
HETATM   32  C13 UNL     1     -11.532  46.973 -20.017  1.00  0.00     0.275 C 
HETATM   33  O4  UNL     1     -12.116  48.038 -19.832  1.00  0.00    -0.301 OA
ENDBRANCH  12  32
BRANCH  11  34
HETATM   34  O3  UNL     1     -10.232  47.594 -17.632  1.00  0.00    -0.359 OA
HETATM   35  H13 UNL     1      -9.653  47.789 -16.853  1.00  0.00     0.217 HD
ENDBRANCH  11  34
TORSDOF 6
ENDMDL
