MODEL 1
REMARK minimizedAffinity -8.42159081
REMARK CNNscore 0.307817549
REMARK CNNaffinity 7.35441971
REMARK  10 active torsions:
REMARK  status: ('A' for Active; 'I' for Inactive)
REMARK    1  A    between atoms: C12_14  and  C13_15 
REMARK    2  A    between atoms: C13_15  and  C15_17 
REMARK    3  A    between atoms: C15_17  and  C16_18 
REMARK    4  A    between atoms: C16_18  and  C17_19 
REMARK    5  A    between atoms: C18_20  and  C20_22 
REMARK    6  A    between atoms: C20_22  and  O3_23 
REMARK    7  A    between atoms: C26_29  and  C27_30 
REMARK    8  A    between atoms: C27_30  and  C28_31 
REMARK    9  A    between atoms: C28_31  and  C29_32 
REMARK   10  A    between atoms: C29_32  and  O5_34 
ROOT
HETATM    1  C1  UNL     1       2.052   7.013  10.647  1.00  0.00     0.025 C 
HETATM    2  C2  UNL     1       1.815   7.412  11.902  1.00  0.00     0.015 C 
HETATM    3  C3  UNL     1       2.467   8.630  12.446  1.00  0.00     0.289 C 
HETATM    4  O1  UNL     1       3.415   9.222  11.966  1.00  0.00    -0.260 OA
HETATM    5  O2  UNL     1       1.831   8.947  13.610  1.00  0.00    -0.311 OA
HETATM    6  C4  UNL     1       0.651   8.134  13.758  1.00  0.00     0.142 C 
HETATM    7  C5  UNL     1      -0.551   8.928  13.262  1.00  0.00     0.039 C 
HETATM    8  C6  UNL     1      -1.881   8.160  13.233  1.00  0.00     0.006 C 
HETATM    9  C7  UNL     1      -1.750   6.687  12.746  1.00  0.00    -0.027 A 
HETATM   10  C8  UNL     1      -3.064   5.870  12.834  1.00  0.00     0.011 C 
HETATM   11  C9  UNL     1      -3.955   6.121  14.063  1.00  0.00     0.011 C 
HETATM   12  C10 UNL     1      -4.133   7.621  14.328  1.00  0.00    -0.032 C 
HETATM   13  C11 UNL     1      -4.903   8.244  13.127  1.00  0.00     0.016 C 
HETATM   14  C12 UNL     1      -4.854   7.996  15.662  1.00  0.00    -0.002 C 
HETATM   15  C21 UNL     1      -4.307   9.412  15.978  1.00  0.00     0.006 C 
HETATM   16  C22 UNL     1      -3.060   9.624  15.089  1.00  0.00     0.011 C 
HETATM   17  C23 UNL     1      -2.693   8.222  14.566  1.00  0.00    -0.032 C 
HETATM   18  C24 UNL     1      -1.884   7.519  15.702  1.00  0.00     0.016 C 
HETATM   19  C25 UNL     1      -1.092   6.456  11.404  1.00  0.00     0.022 A 
HETATM   20  C26 UNL     1      -0.318   6.042  12.631  1.00  0.00    -0.021 A 
HETATM   21  C31 UNL     1       0.930   6.864  12.976  1.00  0.00     0.063 C 
ENDROOT
BRANCH  14  22
HETATM   22  C13 UNL     1      -6.402   7.806  15.783  1.00  0.00    -0.014 C 
HETATM   23  C14 UNL     1      -7.041   8.178  14.430  1.00  0.00     0.010 C 
BRANCH  22  24
HETATM   24  C15 UNL     1      -6.864   6.387  16.200  1.00  0.00     0.008 C 
BRANCH  24  25
HETATM   25  C16 UNL     1      -7.910   5.747  15.274  1.00  0.00     0.028 C 
BRANCH  25  26
HETATM   26  C17 UNL     1      -7.450   4.516  14.543  1.00  0.00    -0.022 C 
HETATM   27  C18 UNL     1      -7.590   4.259  13.225  1.00  0.00    -0.064 C 
HETATM   28  C19 UNL     1      -8.320   5.146  12.255  1.00  0.00     0.045 C 
BRANCH  27  29
HETATM   29  C20 UNL     1      -7.031   2.999  12.617  1.00  0.00     0.197 C 
BRANCH  29  30
HETATM   30  O3  UNL     1      -8.018   1.981  12.676  1.00  0.00    -0.397 OA
HETATM   31  H29 UNL     1      -8.829   2.363  12.296  1.00  0.00     0.209 HD
ENDBRANCH  29  30
ENDBRANCH  27  29
ENDBRANCH  25  26
ENDBRANCH  24  25
ENDBRANCH  22  24
ENDBRANCH  14  22
BRANCH  20  32
HETATM   32  C27 UNL     1      -0.161   4.550  12.972  1.00  0.00     0.021 C 
BRANCH  32  33
HETATM   33  C28 UNL     1       0.023   3.626  11.765  1.00  0.00     0.112 C 
BRANCH  33  34
HETATM   34  C29 UNL     1      -1.192   2.824  11.369  1.00  0.00     0.258 C 
HETATM   35  O4  UNL     1      -2.254   2.857  11.984  1.00  0.00    -0.265 OA
BRANCH  34  36
HETATM   36  O5  UNL     1      -0.948   2.034  10.291  1.00  0.00    -0.326 OA
HETATM   37  C30 UNL     1      -0.760   0.657  10.614  1.00  0.00     0.213 C 
ENDBRANCH  34  36
ENDBRANCH  33  34
ENDBRANCH  32  33
ENDBRANCH  20  32
TORSDOF 10
ENDMDL
MODEL 2
REMARK minimizedAffinity -8.61040783
REMARK CNNscore 0.284909457
REMARK CNNaffinity 7.24968529
REMARK  10 active torsions:
REMARK  status: ('A' for Active; 'I' for Inactive)
REMARK    1  A    between atoms: C12_14  and  C13_15 
REMARK    2  A    between atoms: C13_15  and  C15_17 
REMARK    3  A    between atoms: C15_17  and  C16_18 
REMARK    4  A    between atoms: C16_18  and  C17_19 
REMARK    5  A    between atoms: C18_20  and  C20_22 
REMARK    6  A    between atoms: C20_22  and  O3_23 
REMARK    7  A    between atoms: C26_29  and  C27_30 
REMARK    8  A    between atoms: C27_30  and  C28_31 
REMARK    9  A    between atoms: C28_31  and  C29_32 
REMARK   10  A    between atoms: C29_32  and  O5_34 
ROOT
HETATM    1  C1  UNL     1       2.531   5.844   9.732  1.00  0.00     0.025 C 
HETATM    2  C2  UNL     1       2.457   6.077  11.048  1.00  0.00     0.015 C 
HETATM    3  C3  UNL     1       3.419   6.992  11.711  1.00  0.00     0.289 C 
HETATM    4  O1  UNL     1       4.465   7.406  11.249  1.00  0.00    -0.260 OA
HETATM    5  O2  UNL     1       2.934   7.260  12.957  1.00  0.00    -0.311 OA
HETATM    6  C4  UNL     1       1.593   6.747  13.080  1.00  0.00     0.142 C 
HETATM    7  C5  UNL     1       0.613   7.881  12.807  1.00  0.00     0.039 C 
HETATM    8  C6  UNL     1      -0.868   7.477  12.774  1.00  0.00     0.006 C 
HETATM    9  C7  UNL     1      -1.137   6.118  12.064  1.00  0.00    -0.027 A 
HETATM   10  C8  UNL     1      -2.611   5.644  12.138  1.00  0.00     0.011 C 
HETATM   11  C9  UNL     1      -3.356   5.900  13.459  1.00  0.00     0.011 C 
HETATM   12  C10 UNL     1      -3.136   7.333  13.958  1.00  0.00    -0.032 C 
HETATM   13  C11 UNL     1      -3.772   8.314  12.929  1.00  0.00     0.016 C 
HETATM   14  C12 UNL     1      -3.681   7.649  15.387  1.00  0.00    -0.002 C 
HETATM   15  C21 UNL     1      -2.779   8.816  15.863  1.00  0.00     0.006 C 
HETATM   16  C22 UNL     1      -1.557   8.861  14.917  1.00  0.00     0.011 C 
HETATM   17  C23 UNL     1      -1.582   7.517  14.163  1.00  0.00    -0.032 C 
HETATM   18  C24 UNL     1      -0.931   6.461  15.112  1.00  0.00     0.016 C 
HETATM   19  C25 UNL     1      -0.616   5.957  10.654  1.00  0.00     0.022 A 
HETATM   20  C26 UNL     1       0.077   5.170  11.738  1.00  0.00    -0.021 A 
HETATM   21  C31 UNL     1       1.507   5.594  12.097  1.00  0.00     0.063 C 
ENDROOT
BRANCH  14  22
HETATM   22  C13 UNL     1      -5.220   7.826  15.605  1.00  0.00    -0.014 C 
HETATM   23  C14 UNL     1      -5.805   8.530  14.364  1.00  0.00     0.010 C 
BRANCH  22  24
HETATM   24  C15 UNL     1      -6.004   6.518  15.875  1.00  0.00     0.008 C 
BRANCH  24  25
HETATM   25  C16 UNL     1      -6.990   6.112  14.767  1.00  0.00     0.028 C 
BRANCH  25  26
HETATM   26  C17 UNL     1      -6.771   4.744  14.186  1.00  0.00    -0.022 C 
HETATM   27  C18 UNL     1      -7.435   4.190  13.149  1.00  0.00    -0.064 C 
HETATM   28  C19 UNL     1      -8.591   4.833  12.434  1.00  0.00     0.045 C 
BRANCH  27  29
HETATM   29  C20 UNL     1      -7.071   2.820  12.637  1.00  0.00     0.197 C 
BRANCH  29  30
HETATM   30  O3  UNL     1      -8.236   2.009  12.624  1.00  0.00    -0.397 OA
HETATM   31  H29 UNL     1      -8.919   2.517  12.152  1.00  0.00     0.209 HD
ENDBRANCH  29  30
ENDBRANCH  27  29
ENDBRANCH  25  26
ENDBRANCH  24  25
ENDBRANCH  22  24
ENDBRANCH  14  22
BRANCH  20  32
HETATM   32  C27 UNL     1      -0.136   3.650  11.839  1.00  0.00     0.021 C 
BRANCH  32  33
HETATM   33  C28 UNL     1      -1.289   3.100  10.997  1.00  0.00     0.112 C 
BRANCH  33  34
HETATM   34  C29 UNL     1      -1.331   1.599  10.852  1.00  0.00     0.258 C 
HETATM   35  O4  UNL     1      -0.504   0.957  10.211  1.00  0.00    -0.265 OA
BRANCH  34  36
HETATM   36  O5  UNL     1      -2.414   1.060  11.470  1.00  0.00    -0.326 OA
HETATM   37  C30 UNL     1      -3.490   1.980  11.658  1.00  0.00     0.213 C 
ENDBRANCH  34  36
ENDBRANCH  33  34
ENDBRANCH  32  33
ENDBRANCH  20  32
TORSDOF 10
ENDMDL
MODEL 3
REMARK minimizedAffinity -6.56554794
REMARK CNNscore 0.261460423
REMARK CNNaffinity 6.39975357
REMARK  10 active torsions:
REMARK  status: ('A' for Active; 'I' for Inactive)
REMARK    1  A    between atoms: C12_14  and  C13_15 
REMARK    2  A    between atoms: C13_15  and  C15_17 
REMARK    3  A    between atoms: C15_17  and  C16_18 
REMARK    4  A    between atoms: C16_18  and  C17_19 
REMARK    5  A    between atoms: C18_20  and  C20_22 
REMARK    6  A    between atoms: C20_22  and  O3_23 
REMARK    7  A    between atoms: C26_29  and  C27_30 
REMARK    8  A    between atoms: C27_30  and  C28_31 
REMARK    9  A    between atoms: C28_31  and  C29_32 
REMARK   10  A    between atoms: C29_32  and  O5_34 
ROOT
HETATM    1  C1  UNL     1      -0.132  13.156  19.670  1.00  0.00     0.025 C 
HETATM    2  C2  UNL     1      -0.123  13.205  18.333  1.00  0.00     0.015 C 
HETATM    3  C3  UNL     1       1.032  13.787  17.603  1.00  0.00     0.289 C 
HETATM    4  O1  UNL     1       1.919  14.472  18.075  1.00  0.00    -0.260 OA
HETATM    5  O2  UNL     1       0.899  13.444  16.290  1.00  0.00    -0.311 OA
HETATM    6  C4  UNL     1      -0.164  12.482  16.142  1.00  0.00     0.142 C 
HETATM    7  C5  UNL     1       0.446  11.087  16.111  1.00  0.00     0.039 C 
HETATM    8  C6  UNL     1      -0.563   9.928  16.082  1.00  0.00     0.006 C 
HETATM    9  C7  UNL     1      -1.800  10.144  17.002  1.00  0.00    -0.027 A 
HETATM   10  C8  UNL     1      -2.880   9.040  16.883  1.00  0.00     0.011 C 
HETATM   11  C9  UNL     1      -3.148   8.481  15.474  1.00  0.00     0.011 C 
HETATM   12  C10 UNL     1      -1.840   8.157  14.743  1.00  0.00    -0.032 C 
HETATM   13  C11 UNL     1      -1.119   7.010  15.511  1.00  0.00     0.016 C 
HETATM   14  C12 UNL     1      -1.979   7.769  13.237  1.00  0.00    -0.002 C 
HETATM   15  C21 UNL     1      -0.604   8.162  12.638  1.00  0.00     0.006 C 
HETATM   16  C22 UNL     1       0.093   9.080  13.667  1.00  0.00     0.011 C 
HETATM   17  C23 UNL     1      -1.017   9.500  14.650  1.00  0.00    -0.032 C 
HETATM   18  C24 UNL     1      -1.788  10.679  13.975  1.00  0.00     0.016 C 
HETATM   19  C25 UNL     1      -1.536  10.448  18.460  1.00  0.00     0.022 A 
HETATM   20  C26 UNL     1      -2.065  11.574  17.606  1.00  0.00    -0.021 A 
HETATM   21  C31 UNL     1      -1.103  12.730  17.308  1.00  0.00     0.063 C 
ENDROOT
BRANCH  14  22
HETATM   22  C13 UNL     1      -2.529   6.357  12.850  1.00  0.00    -0.014 C 
HETATM   23  C14 UNL     1      -1.327   5.436  12.559  1.00  0.00     0.010 C 
BRANCH  22  24
HETATM   24  C15 UNL     1      -3.446   5.691  13.906  1.00  0.00     0.008 C 
BRANCH  24  25
HETATM   25  C16 UNL     1      -4.918   5.548  13.489  1.00  0.00     0.028 C 
BRANCH  25  26
HETATM   26  C17 UNL     1      -5.292   4.211  12.913  1.00  0.00    -0.022 C 
HETATM   27  C18 UNL     1      -6.541   3.750  12.684  1.00  0.00    -0.064 C 
HETATM   28  C19 UNL     1      -7.802   4.482  13.050  1.00  0.00     0.045 C 
BRANCH  27  29
HETATM   29  C20 UNL     1      -6.766   2.401  12.050  1.00  0.00     0.197 C 
BRANCH  29  30
HETATM   30  O3  UNL     1      -7.871   1.774  12.682  1.00  0.00    -0.397 OA
HETATM   31  H29 UNL     1      -8.597   2.422  12.671  1.00  0.00     0.209 HD
ENDBRANCH  29  30
ENDBRANCH  27  29
ENDBRANCH  25  26
ENDBRANCH  24  25
ENDBRANCH  22  24
ENDBRANCH  14  22
BRANCH  20  32
HETATM   32  C27 UNL     1      -3.523  12.039  17.768  1.00  0.00     0.021 C 
BRANCH  32  33
HETATM   33  C28 UNL     1      -3.905  12.496  19.178  1.00  0.00     0.112 C 
BRANCH  33  34
HETATM   34  C29 UNL     1      -4.105  13.981  19.348  1.00  0.00     0.258 C 
HETATM   35  O4  UNL     1      -3.262  14.817  19.037  1.00  0.00    -0.265 OA
BRANCH  34  36
HETATM   36  O5  UNL     1      -5.298  14.268  19.930  1.00  0.00    -0.326 OA
HETATM   37  C30 UNL     1      -5.641  13.398  21.008  1.00  0.00     0.213 C 
ENDBRANCH  34  36
ENDBRANCH  33  34
ENDBRANCH  32  33
ENDBRANCH  20  32
TORSDOF 10
ENDMDL
MODEL 4
REMARK minimizedAffinity -6.40801001
REMARK CNNscore 0.259671837
REMARK CNNaffinity 6.43652201
REMARK  10 active torsions:
REMARK  status: ('A' for Active; 'I' for Inactive)
REMARK    1  A    between atoms: C12_14  and  C13_15 
REMARK    2  A    between atoms: C13_15  and  C15_17 
REMARK    3  A    between atoms: C15_17  and  C16_18 
REMARK    4  A    between atoms: C16_18  and  C17_19 
REMARK    5  A    between atoms: C18_20  and  C20_22 
REMARK    6  A    between atoms: C20_22  and  O3_23 
REMARK    7  A    between atoms: C26_29  and  C27_30 
REMARK    8  A    between atoms: C27_30  and  C28_31 
REMARK    9  A    between atoms: C28_31  and  C29_32 
REMARK   10  A    between atoms: C29_32  and  O5_34 
ROOT
HETATM    1  C1  UNL     1      -3.931   3.998  10.780  1.00  0.00     0.025 C 
HETATM    2  C2  UNL     1      -3.116   4.160  11.830  1.00  0.00     0.015 C 
HETATM    3  C3  UNL     1      -1.659   3.911  11.703  1.00  0.00     0.289 C 
HETATM    4  O1  UNL     1      -1.097   3.328  10.795  1.00  0.00    -0.260 OA
HETATM    5  O2  UNL     1      -1.059   4.425  12.815  1.00  0.00    -0.311 OA
HETATM    6  C4  UNL     1      -2.014   5.196  13.571  1.00  0.00     0.142 C 
HETATM    7  C5  UNL     1      -1.854   6.664  13.201  1.00  0.00     0.039 C 
HETATM    8  C6  UNL     1      -2.884   7.617  13.827  1.00  0.00     0.006 C 
HETATM    9  C7  UNL     1      -4.332   7.046  13.866  1.00  0.00    -0.027 A 
HETATM   10  C8  UNL     1      -5.350   7.948  14.608  1.00  0.00     0.011 C 
HETATM   11  C9  UNL     1      -4.848   8.663  15.875  1.00  0.00     0.011 C 
HETATM   12  C10 UNL     1      -3.484   9.322  15.642  1.00  0.00    -0.032 C 
HETATM   13  C11 UNL     1      -3.657  10.444  14.577  1.00  0.00     0.016 C 
HETATM   14  C12 UNL     1      -2.785   9.908  16.910  1.00  0.00    -0.002 C 
HETATM   15  C21 UNL     1      -1.280   9.863  16.542  1.00  0.00     0.006 C 
HETATM   16  C22 UNL     1      -1.142   8.933  15.315  1.00  0.00     0.011 C 
HETATM   17  C23 UNL     1      -2.481   8.176  15.229  1.00  0.00    -0.032 C 
HETATM   18  C24 UNL     1      -2.394   6.999  16.252  1.00  0.00     0.016 C 
HETATM   19  C25 UNL     1      -4.925   6.570  12.558  1.00  0.00     0.022 A 
HETATM   20  C26 UNL     1      -4.559   5.516  13.573  1.00  0.00    -0.021 A 
HETATM   21  C31 UNL     1      -3.371   4.608  13.234  1.00  0.00     0.063 C 
ENDROOT
BRANCH  14  22
HETATM   22  C13 UNL     1      -3.308  11.245  17.532  1.00  0.00    -0.014 C 
HETATM   23  C14 UNL     1      -3.642  10.988  19.015  1.00  0.00     0.010 C 
BRANCH  22  24
HETATM   24  C15 UNL     1      -2.341  12.449  17.421  1.00  0.00     0.008 C 
BRANCH  24  25
HETATM   25  C16 UNL     1      -1.761  12.941  18.757  1.00  0.00     0.028 C 
BRANCH  25  26
HETATM   26  C17 UNL     1      -0.266  13.101  18.785  1.00  0.00    -0.022 C 
HETATM   27  C18 UNL     1       0.631  12.230  19.295  1.00  0.00    -0.064 C 
HETATM   28  C19 UNL     1       0.275  10.957  20.011  1.00  0.00     0.045 C 
BRANCH  27  29
HETATM   29  C20 UNL     1       2.111  12.501  19.206  1.00  0.00     0.197 C 
BRANCH  29  30
HETATM   30  O3  UNL     1       2.494  13.331  20.292  1.00  0.00    -0.397 OA
HETATM   31  H29 UNL     1       2.144  12.909  21.097  1.00  0.00     0.209 HD
ENDBRANCH  29  30
ENDBRANCH  27  29
ENDBRANCH  25  26
ENDBRANCH  24  25
ENDBRANCH  22  24
ENDBRANCH  14  22
BRANCH  20  32
HETATM   32  C27 UNL     1      -5.667   4.782  14.350  1.00  0.00     0.021 C 
BRANCH  32  33
HETATM   33  C28 UNL     1      -7.042   4.787  13.678  1.00  0.00     0.112 C 
BRANCH  33  34
HETATM   34  C29 UNL     1      -7.427   3.510  12.974  1.00  0.00     0.258 C 
HETATM   35  O4  UNL     1      -8.581   3.096  12.907  1.00  0.00    -0.265 OA
BRANCH  34  36
HETATM   36  O5  UNL     1      -6.344   2.861  12.475  1.00  0.00    -0.326 OA
HETATM   37  C30 UNL     1      -6.652   1.613  11.854  1.00  0.00     0.213 C 
ENDBRANCH  34  36
ENDBRANCH  33  34
ENDBRANCH  32  33
ENDBRANCH  20  32
TORSDOF 10
ENDMDL
MODEL 5
REMARK minimizedAffinity -6.22966957
REMARK CNNscore 0.258089662
REMARK CNNaffinity 6.12701941
REMARK  10 active torsions:
REMARK  status: ('A' for Active; 'I' for Inactive)
REMARK    1  A    between atoms: C12_14  and  C13_15 
REMARK    2  A    between atoms: C13_15  and  C15_17 
REMARK    3  A    between atoms: C15_17  and  C16_18 
REMARK    4  A    between atoms: C16_18  and  C17_19 
REMARK    5  A    between atoms: C18_20  and  C20_22 
REMARK    6  A    between atoms: C20_22  and  O3_23 
REMARK    7  A    between atoms: C26_29  and  C27_30 
REMARK    8  A    between atoms: C27_30  and  C28_31 
REMARK    9  A    between atoms: C28_31  and  C29_32 
REMARK   10  A    between atoms: C29_32  and  O5_34 
ROOT
HETATM    1  C1  UNL     1     -12.287  13.679  22.032  1.00  0.00     0.025 C 
HETATM    2  C2  UNL     1     -11.801  12.738  22.849  1.00  0.00     0.015 C 
HETATM    3  C3  UNL     1     -11.549  13.033  24.281  1.00  0.00     0.289 C 
HETATM    4  O1  UNL     1     -11.502  14.133  24.799  1.00  0.00    -0.260 OA
HETATM    5  O2  UNL     1     -11.341  11.843  24.913  1.00  0.00    -0.311 OA
HETATM    6  C4  UNL     1     -11.657  10.756  24.021  1.00  0.00     0.142 C 
HETATM    7  C5  UNL     1     -13.079  10.291  24.307  1.00  0.00     0.039 C 
HETATM    8  C6  UNL     1     -13.623   9.214  23.355  1.00  0.00     0.006 C 
HETATM    9  C7  UNL     1     -13.231   9.431  21.864  1.00  0.00    -0.027 A 
HETATM   10  C8  UNL     1     -13.670   8.283  20.920  1.00  0.00     0.011 C 
HETATM   11  C9  UNL     1     -13.555   6.851  21.470  1.00  0.00     0.011 C 
HETATM   12  C10 UNL     1     -14.132   6.748  22.887  1.00  0.00    -0.032 C 
HETATM   13  C11 UNL     1     -15.659   7.042  22.818  1.00  0.00     0.016 C 
HETATM   14  C12 UNL     1     -13.894   5.391  23.622  1.00  0.00    -0.002 C 
HETATM   15  C21 UNL     1     -13.939   5.784  25.121  1.00  0.00     0.006 C 
HETATM   16  C22 UNL     1     -13.803   7.322  25.190  1.00  0.00     0.011 C 
HETATM   17  C23 UNL     1     -13.313   7.747  23.793  1.00  0.00    -0.032 C 
HETATM   18  C24 UNL     1     -11.768   7.514  23.771  1.00  0.00     0.016 C 
HETATM   19  C25 UNL     1     -13.575  10.767  21.244  1.00  0.00     0.022 A 
HETATM   20  C26 UNL     1     -12.117  10.486  21.511  1.00  0.00    -0.021 A 
HETATM   21  C31 UNL     1     -11.445  11.303  22.621  1.00  0.00     0.063 C 
ENDROOT
BRANCH  14  22
HETATM   22  C13 UNL     1     -14.725   4.132  23.208  1.00  0.00    -0.014 C 
HETATM   23  C14 UNL     1     -13.836   3.237  22.322  1.00  0.00     0.010 C 
BRANCH  22  24
HETATM   24  C15 UNL     1     -15.290   3.296  24.384  1.00  0.00     0.008 C 
BRANCH  24  25
HETATM   25  C16 UNL     1     -14.598   1.943  24.610  1.00  0.00     0.028 C 
BRANCH  25  26
HETATM   26  C17 UNL     1     -13.904   1.792  25.935  1.00  0.00    -0.022 C 
HETATM   27  C18 UNL     1     -12.574   1.694  26.145  1.00  0.00    -0.064 C 
HETATM   28  C19 UNL     1     -11.539   1.638  25.056  1.00  0.00     0.045 C 
BRANCH  27  29
HETATM   29  C20 UNL     1     -12.014   1.599  27.541  1.00  0.00     0.197 C 
BRANCH  29  30
HETATM   30  O3  UNL     1     -13.089   1.501  28.463  1.00  0.00    -0.397 OA
HETATM   31  H29 UNL     1     -13.662   0.783  28.140  1.00  0.00     0.209 HD
ENDBRANCH  29  30
ENDBRANCH  27  29
ENDBRANCH  25  26
ENDBRANCH  24  25
ENDBRANCH  22  24
ENDBRANCH  14  22
BRANCH  20  32
HETATM   32  C27 UNL     1     -11.168  10.180  20.339  1.00  0.00     0.021 C 
BRANCH  32  33
HETATM   33  C28 UNL     1     -11.100  11.262  19.260  1.00  0.00     0.112 C 
BRANCH  33  34
HETATM   34  C29 UNL     1     -10.911  10.763  17.849  1.00  0.00     0.258 C 
HETATM   35  O4  UNL     1     -10.877  11.501  16.869  1.00  0.00    -0.265 OA
BRANCH  34  36
HETATM   36  O5  UNL     1     -10.837   9.408  17.797  1.00  0.00    -0.326 OA
HETATM   37  C30 UNL     1     -10.146   8.909  16.652  1.00  0.00     0.213 C 
ENDBRANCH  34  36
ENDBRANCH  33  34
ENDBRANCH  32  33
ENDBRANCH  20  32
TORSDOF 10
ENDMDL
MODEL 6
REMARK minimizedAffinity -8.12826633
REMARK CNNscore 0.25706774
REMARK CNNaffinity 6.7406497
REMARK  10 active torsions:
REMARK  status: ('A' for Active; 'I' for Inactive)
REMARK    1  A    between atoms: C12_14  and  C13_15 
REMARK    2  A    between atoms: C13_15  and  C15_17 
REMARK    3  A    between atoms: C15_17  and  C16_18 
REMARK    4  A    between atoms: C16_18  and  C17_19 
REMARK    5  A    between atoms: C18_20  and  C20_22 
REMARK    6  A    between atoms: C20_22  and  O3_23 
REMARK    7  A    between atoms: C26_29  and  C27_30 
REMARK    8  A    between atoms: C27_30  and  C28_31 
REMARK    9  A    between atoms: C28_31  and  C29_32 
REMARK   10  A    between atoms: C29_32  and  O5_34 
ROOT
HETATM    1  C1  UNL     1      -7.707   5.571  15.969  1.00  0.00     0.025 C 
HETATM    2  C2  UNL     1      -7.322   6.663  15.298  1.00  0.00     0.015 C 
HETATM    3  C3  UNL     1      -7.915   7.989  15.602  1.00  0.00     0.289 C 
HETATM    4  O1  UNL     1      -8.922   8.203  16.250  1.00  0.00    -0.260 OA
HETATM    5  O2  UNL     1      -7.143   8.931  14.988  1.00  0.00    -0.311 OA
HETATM    6  C4  UNL     1      -5.944   8.320  14.473  1.00  0.00     0.142 C 
HETATM    7  C5  UNL     1      -4.823   8.525  15.483  1.00  0.00     0.039 C 
HETATM    8  C6  UNL     1      -3.498   7.824  15.147  1.00  0.00     0.006 C 
HETATM    9  C7  UNL     1      -3.671   6.394  14.556  1.00  0.00    -0.027 A 
HETATM   10  C8  UNL     1      -2.346   5.733  14.099  1.00  0.00     0.011 C 
HETATM   11  C9  UNL     1      -1.313   6.647  13.419  1.00  0.00     0.011 C 
HETATM   12  C10 UNL     1      -1.121   7.952  14.201  1.00  0.00    -0.032 C 
HETATM   13  C11 UNL     1      -0.513   7.606  15.592  1.00  0.00     0.016 C 
HETATM   14  C12 UNL     1      -0.244   9.041  13.504  1.00  0.00    -0.002 C 
HETATM   15  C21 UNL     1      -0.764  10.366  14.119  1.00  0.00     0.006 C 
HETATM   16  C22 UNL     1      -2.114  10.049  14.802  1.00  0.00     0.011 C 
HETATM   17  C23 UNL     1      -2.527   8.667  14.260  1.00  0.00    -0.032 C 
HETATM   18  C24 UNL     1      -3.181   8.913  12.863  1.00  0.00     0.016 C 
HETATM   19  C25 UNL     1      -4.488   5.407  15.359  1.00  0.00     0.022 A 
HETATM   20  C26 UNL     1      -5.098   5.929  14.082  1.00  0.00    -0.021 A 
HETATM   21  C31 UNL     1      -6.303   6.867  14.222  1.00  0.00     0.063 C 
ENDROOT
BRANCH  14  22
HETATM   22  C13 UNL     1       1.309   8.863  13.448  1.00  0.00    -0.014 C 
HETATM   23  C14 UNL     1       1.886   9.230  14.830  1.00  0.00     0.010 C 
BRANCH  22  24
HETATM   24  C15 UNL     1       1.799   7.451  13.042  1.00  0.00     0.008 C 
BRANCH  24  25
HETATM   25  C16 UNL     1       1.731   7.149  11.537  1.00  0.00     0.028 C 
BRANCH  25  26
HETATM   26  C17 UNL     1       2.597   6.011  11.073  1.00  0.00    -0.022 C 
HETATM   27  C18 UNL     1       2.905   5.697   9.797  1.00  0.00    -0.064 C 
HETATM   28  C19 UNL     1       2.357   6.402   8.587  1.00  0.00     0.045 C 
BRANCH  27  29
HETATM   29  C20 UNL     1       3.833   4.552   9.481  1.00  0.00     0.197 C 
BRANCH  29  30
HETATM   30  O3  UNL     1       3.171   3.330   9.768  1.00  0.00    -0.397 OA
HETATM   31  H29 UNL     1       2.310   3.372   9.316  1.00  0.00     0.209 HD
ENDBRANCH  29  30
ENDBRANCH  27  29
ENDBRANCH  25  26
ENDBRANCH  24  25
ENDBRANCH  22  24
ENDBRANCH  14  22
BRANCH  20  32
HETATM   32  C27 UNL     1      -5.195   5.015  12.848  1.00  0.00     0.021 C 
BRANCH  32  33
HETATM   33  C28 UNL     1      -5.983   3.720  13.060  1.00  0.00     0.112 C 
BRANCH  33  34
HETATM   34  C29 UNL     1      -7.436   3.770  12.659  1.00  0.00     0.258 C 
HETATM   35  O4  UNL     1      -8.251   2.904  12.960  1.00  0.00    -0.265 OA
BRANCH  34  36
HETATM   36  O5  UNL     1      -7.711   4.855  11.888  1.00  0.00    -0.326 OA
HETATM   37  C30 UNL     1      -8.909   5.538  12.257  1.00  0.00     0.213 C 
ENDBRANCH  34  36
ENDBRANCH  33  34
ENDBRANCH  32  33
ENDBRANCH  20  32
TORSDOF 10
ENDMDL
MODEL 7
REMARK minimizedAffinity -7.29085922
REMARK CNNscore 0.24056989
REMARK CNNaffinity 6.5312233
REMARK  10 active torsions:
REMARK  status: ('A' for Active; 'I' for Inactive)
REMARK    1  A    between atoms: C12_14  and  C13_15 
REMARK    2  A    between atoms: C13_15  and  C15_17 
REMARK    3  A    between atoms: C15_17  and  C16_18 
REMARK    4  A    between atoms: C16_18  and  C17_19 
REMARK    5  A    between atoms: C18_20  and  C20_22 
REMARK    6  A    between atoms: C20_22  and  O3_23 
REMARK    7  A    between atoms: C26_29  and  C27_30 
REMARK    8  A    between atoms: C27_30  and  C28_31 
REMARK    9  A    between atoms: C28_31  and  C29_32 
REMARK   10  A    between atoms: C29_32  and  O5_34 
ROOT
HETATM    1  C1  UNL     1      -7.871   5.672  16.076  1.00  0.00     0.025 C 
HETATM    2  C2  UNL     1      -7.466   6.729  15.362  1.00  0.00     0.015 C 
HETATM    3  C3  UNL     1      -8.071   8.067  15.577  1.00  0.00     0.289 C 
HETATM    4  O1  UNL     1      -9.099   8.311  16.181  1.00  0.00    -0.260 OA
HETATM    5  O2  UNL     1      -7.282   8.978  14.940  1.00  0.00    -0.311 OA
HETATM    6  C4  UNL     1      -6.067   8.345  14.496  1.00  0.00     0.142 C 
HETATM    7  C5  UNL     1      -4.978   8.607  15.529  1.00  0.00     0.039 C 
HETATM    8  C6  UNL     1      -3.642   7.894  15.272  1.00  0.00     0.006 C 
HETATM    9  C7  UNL     1      -3.793   6.435  14.751  1.00  0.00    -0.027 A 
HETATM   10  C8  UNL     1      -2.454   5.754  14.371  1.00  0.00     0.011 C 
HETATM   11  C9  UNL     1      -1.401   6.636  13.678  1.00  0.00     0.011 C 
HETATM   12  C10 UNL     1      -1.236   7.981  14.396  1.00  0.00    -0.032 C 
HETATM   13  C11 UNL     1      -0.673   7.709  15.822  1.00  0.00     0.016 C 
HETATM   14  C12 UNL     1      -0.340   9.035  13.672  1.00  0.00    -0.002 C 
HETATM   15  C21 UNL     1      -0.881  10.388  14.201  1.00  0.00     0.006 C 
HETATM   16  C22 UNL     1      -2.252  10.102  14.856  1.00  0.00     0.011 C 
HETATM   17  C23 UNL     1      -2.644   8.692  14.374  1.00  0.00    -0.032 C 
HETATM   18  C24 UNL     1      -3.254   8.863  12.945  1.00  0.00     0.016 C 
HETATM   19  C25 UNL     1      -4.634   5.487  15.578  1.00  0.00     0.022 A 
HETATM   20  C26 UNL     1      -5.204   5.940  14.257  1.00  0.00    -0.021 A 
HETATM   21  C31 UNL     1      -6.415   6.880  14.309  1.00  0.00     0.063 C 
ENDROOT
BRANCH  14  22
HETATM   22  C13 UNL     1       1.215   8.860  13.675  1.00  0.00    -0.014 C 
HETATM   23  C14 UNL     1       1.705   8.889  12.214  1.00  0.00     0.010 C 
BRANCH  22  24
HETATM   24  C15 UNL     1       1.997   9.909  14.503  1.00  0.00     0.008 C 
BRANCH  24  25
HETATM   25  C16 UNL     1       2.720   9.352  15.740  1.00  0.00     0.028 C 
BRANCH  25  26
HETATM   26  C17 UNL     1       4.007   8.630  15.458  1.00  0.00    -0.022 C 
HETATM   27  C18 UNL     1       5.252   9.152  15.494  1.00  0.00    -0.064 C 
HETATM   28  C19 UNL     1       5.564  10.601  15.750  1.00  0.00     0.045 C 
BRANCH  27  29
HETATM   29  C20 UNL     1       6.463   8.292  15.238  1.00  0.00     0.197 C 
BRANCH  29  30
HETATM   30  O3  UNL     1       7.128   8.054  16.469  1.00  0.00    -0.397 OA
HETATM   31  H29 UNL     1       6.450   7.733  17.089  1.00  0.00     0.209 HD
ENDBRANCH  29  30
ENDBRANCH  27  29
ENDBRANCH  25  26
ENDBRANCH  24  25
ENDBRANCH  22  24
ENDBRANCH  14  22
BRANCH  20  32
HETATM   32  C27 UNL     1      -5.260   4.964  13.069  1.00  0.00     0.021 C 
BRANCH  32  33
HETATM   33  C28 UNL     1      -6.667   4.526  12.655  1.00  0.00     0.112 C 
BRANCH  33  34
HETATM   34  C29 UNL     1      -6.896   3.036  12.602  1.00  0.00     0.258 C 
HETATM   35  O4  UNL     1      -7.884   2.487  13.079  1.00  0.00    -0.265 OA
BRANCH  34  36
HETATM   36  O5  UNL     1      -5.858   2.385  12.015  1.00  0.00    -0.326 OA
HETATM   37  C30 UNL     1      -5.715   2.662  10.622  1.00  0.00     0.213 C 
ENDBRANCH  34  36
ENDBRANCH  33  34
ENDBRANCH  32  33
ENDBRANCH  20  32
TORSDOF 10
ENDMDL
MODEL 8
REMARK minimizedAffinity -6.26443434
REMARK CNNscore 0.230967864
REMARK CNNaffinity 6.21197891
REMARK  10 active torsions:
REMARK  status: ('A' for Active; 'I' for Inactive)
REMARK    1  A    between atoms: C12_14  and  C13_15 
REMARK    2  A    between atoms: C13_15  and  C15_17 
REMARK    3  A    between atoms: C15_17  and  C16_18 
REMARK    4  A    between atoms: C16_18  and  C17_19 
REMARK    5  A    between atoms: C18_20  and  C20_22 
REMARK    6  A    between atoms: C20_22  and  O3_23 
REMARK    7  A    between atoms: C26_29  and  C27_30 
REMARK    8  A    between atoms: C27_30  and  C28_31 
REMARK    9  A    between atoms: C28_31  and  C29_32 
REMARK   10  A    between atoms: C29_32  and  O5_34 
ROOT
HETATM    1  C1  UNL     1       1.327  13.179  20.133  1.00  0.00     0.025 C 
HETATM    2  C2  UNL     1       1.120  13.279  18.815  1.00  0.00     0.015 C 
HETATM    3  C3  UNL     1       2.249  13.540  17.888  1.00  0.00     0.289 C 
HETATM    4  O1  UNL     1       3.363  13.926  18.189  1.00  0.00    -0.260 OA
HETATM    5  O2  UNL     1       1.801  13.302  16.622  1.00  0.00    -0.311 OA
HETATM    6  C4  UNL     1       0.499  12.688  16.673  1.00  0.00     0.142 C 
HETATM    7  C5  UNL     1       0.669  11.179  16.549  1.00  0.00     0.039 C 
HETATM    8  C6  UNL     1      -0.618  10.356  16.710  1.00  0.00     0.006 C 
HETATM    9  C7  UNL     1      -1.565  10.875  17.831  1.00  0.00    -0.027 A 
HETATM   10  C8  UNL     1      -2.919  10.128  17.914  1.00  0.00     0.011 C 
HETATM   11  C9  UNL     1      -3.573   9.726  16.581  1.00  0.00     0.011 C 
HETATM   12  C10 UNL     1      -2.558   9.074  15.634  1.00  0.00    -0.032 C 
HETATM   13  C11 UNL     1      -2.075   7.740  16.275  1.00  0.00     0.016 C 
HETATM   14  C12 UNL     1      -3.059   8.804  14.180  1.00  0.00    -0.002 C 
HETATM   15  C21 UNL     1      -1.753   8.815  13.344  1.00  0.00     0.006 C 
HETATM   16  C22 UNL     1      -0.656   9.455  14.226  1.00  0.00     0.011 C 
HETATM   17  C23 UNL     1      -1.414  10.133  15.384  1.00  0.00    -0.032 C 
HETATM   18  C24 UNL     1      -1.919  11.508  14.844  1.00  0.00     0.016 C 
HETATM   19  C25 UNL     1      -0.979  11.032  19.217  1.00  0.00     0.022 A 
HETATM   20  C26 UNL     1      -1.302  12.295  18.458  1.00  0.00    -0.021 A 
HETATM   21  C31 UNL     1      -0.116  13.143  17.983  1.00  0.00     0.063 C 
ENDROOT
BRANCH  14  22
HETATM   22  C13 UNL     1      -4.047   7.622  13.910  1.00  0.00    -0.014 C 
HETATM   23  C14 UNL     1      -5.349   8.206  13.327  1.00  0.00     0.010 C 
BRANCH  22  24
HETATM   24  C15 UNL     1      -3.511   6.514  12.969  1.00  0.00     0.008 C 
BRANCH  24  25
HETATM   25  C16 UNL     1      -3.955   5.087  13.328  1.00  0.00     0.028 C 
BRANCH  25  26
HETATM   26  C17 UNL     1      -3.053   3.993  12.829  1.00  0.00    -0.022 C 
HETATM   27  C18 UNL     1      -3.213   3.264  11.703  1.00  0.00    -0.064 C 
HETATM   28  C19 UNL     1      -4.391   3.371  10.776  1.00  0.00     0.045 C 
BRANCH  27  29
HETATM   29  C20 UNL     1      -2.196   2.228  11.299  1.00  0.00     0.197 C 
BRANCH  29  30
HETATM   30  O3  UNL     1      -1.873   2.409   9.928  1.00  0.00    -0.397 OA
HETATM   31  H29 UNL     1      -1.648   3.350   9.822  1.00  0.00     0.209 HD
ENDBRANCH  29  30
ENDBRANCH  27  29
ENDBRANCH  25  26
ENDBRANCH  24  25
ENDBRANCH  22  24
ENDBRANCH  14  22
BRANCH  20  32
HETATM   32  C27 UNL     1      -2.516  13.147  18.869  1.00  0.00     0.021 C 
BRANCH  32  33
HETATM   33  C28 UNL     1      -3.061  14.069  17.775  1.00  0.00     0.112 C 
BRANCH  33  34
HETATM   34  C29 UNL     1      -4.456  13.753  17.294  1.00  0.00     0.258 C 
HETATM   35  O4  UNL     1      -4.700  12.917  16.429  1.00  0.00    -0.265 OA
BRANCH  34  36
HETATM   36  O5  UNL     1      -5.388  14.539  17.893  1.00  0.00    -0.326 OA
HETATM   37  C30 UNL     1      -6.134  13.876  18.913  1.00  0.00     0.213 C 
ENDBRANCH  34  36
ENDBRANCH  33  34
ENDBRANCH  32  33
ENDBRANCH  20  32
TORSDOF 10
ENDMDL
MODEL 9
REMARK minimizedAffinity -6.46240044
REMARK CNNscore 0.20740214
REMARK CNNaffinity 6.29097748
REMARK  10 active torsions:
REMARK  status: ('A' for Active; 'I' for Inactive)
REMARK    1  A    between atoms: C12_14  and  C13_15 
REMARK    2  A    between atoms: C13_15  and  C15_17 
REMARK    3  A    between atoms: C15_17  and  C16_18 
REMARK    4  A    between atoms: C16_18  and  C17_19 
REMARK    5  A    between atoms: C18_20  and  C20_22 
REMARK    6  A    between atoms: C20_22  and  O3_23 
REMARK    7  A    between atoms: C26_29  and  C27_30 
REMARK    8  A    between atoms: C27_30  and  C28_31 
REMARK    9  A    between atoms: C28_31  and  C29_32 
REMARK   10  A    between atoms: C29_32  and  O5_34 
ROOT
HETATM    1  C1  UNL     1       1.352  13.169  20.026  1.00  0.00     0.025 C 
HETATM    2  C2  UNL     1       1.114  13.281  18.713  1.00  0.00     0.015 C 
HETATM    3  C3  UNL     1       2.219  13.561  17.763  1.00  0.00     0.289 C 
HETATM    4  O1  UNL     1       3.336  13.954  18.043  1.00  0.00    -0.260 OA
HETATM    5  O2  UNL     1       1.743  13.334  16.506  1.00  0.00    -0.311 OA
HETATM    6  C4  UNL     1       0.447  12.708  16.581  1.00  0.00     0.142 C 
HETATM    7  C5  UNL     1       0.627  11.202  16.435  1.00  0.00     0.039 C 
HETATM    8  C6  UNL     1      -0.649  10.366  16.618  1.00  0.00     0.006 C 
HETATM    9  C7  UNL     1      -1.573  10.866  17.766  1.00  0.00    -0.027 A 
HETATM   10  C8  UNL     1      -2.919  10.105  17.873  1.00  0.00     0.011 C 
HETATM   11  C9  UNL     1      -3.601   9.712  16.551  1.00  0.00     0.011 C 
HETATM   12  C10 UNL     1      -2.603   9.080  15.574  1.00  0.00    -0.032 C 
HETATM   13  C11 UNL     1      -2.094   7.743  16.188  1.00  0.00     0.016 C 
HETATM   14  C12 UNL     1      -3.136   8.822  14.129  1.00  0.00    -0.002 C 
HETATM   15  C21 UNL     1      -1.850   8.853  13.263  1.00  0.00     0.006 C 
HETATM   16  C22 UNL     1      -0.738   9.493  14.125  1.00  0.00     0.011 C 
HETATM   17  C23 UNL     1      -1.474  10.151  15.309  1.00  0.00    -0.032 C 
HETATM   18  C24 UNL     1      -2.003  11.528  14.796  1.00  0.00     0.016 C 
HETATM   19  C25 UNL     1      -0.956  11.012  19.140  1.00  0.00     0.022 A 
HETATM   20  C26 UNL     1      -1.308  12.281  18.403  1.00  0.00    -0.021 A 
HETATM   21  C31 UNL     1      -0.140  13.144  17.910  1.00  0.00     0.063 C 
ENDROOT
BRANCH  14  22
HETATM   22  C13 UNL     1      -4.120   7.634  13.869  1.00  0.00    -0.014 C 
HETATM   23  C14 UNL     1      -5.366   8.190  13.151  1.00  0.00     0.010 C 
BRANCH  22  24
HETATM   24  C15 UNL     1      -3.534   6.457  13.050  1.00  0.00     0.008 C 
BRANCH  24  25
HETATM   25  C16 UNL     1      -3.862   5.059  13.598  1.00  0.00     0.028 C 
BRANCH  25  26
HETATM   26  C17 UNL     1      -5.009   4.360  12.924  1.00  0.00    -0.022 C 
HETATM   27  C18 UNL     1      -6.304   4.377  13.305  1.00  0.00    -0.064 C 
HETATM   28  C19 UNL     1      -6.820   5.050  14.548  1.00  0.00     0.045 C 
BRANCH  27  29
HETATM   29  C20 UNL     1      -7.361   3.668  12.498  1.00  0.00     0.197 C 
BRANCH  29  30
HETATM   30  O3  UNL     1      -8.566   3.632  13.248  1.00  0.00    -0.397 OA
HETATM   31  H29 UNL     1      -8.735   4.545  13.538  1.00  0.00     0.209 HD
ENDBRANCH  29  30
ENDBRANCH  27  29
ENDBRANCH  25  26
ENDBRANCH  24  25
ENDBRANCH  22  24
ENDBRANCH  14  22
BRANCH  20  32
HETATM   32  C27 UNL     1      -2.519  13.118  18.852  1.00  0.00     0.021 C 
BRANCH  32  33
HETATM   33  C28 UNL     1      -2.269  14.626  18.936  1.00  0.00     0.112 C 
BRANCH  33  34
HETATM   34  C29 UNL     1      -2.362  15.224  20.318  1.00  0.00     0.258 C 
HETATM   35  O4  UNL     1      -3.412  15.620  20.814  1.00  0.00    -0.265 OA
BRANCH  34  36
HETATM   36  O5  UNL     1      -1.144  15.316  20.912  1.00  0.00    -0.326 OA
HETATM   37  C30 UNL     1      -0.509  16.582  20.739  1.00  0.00     0.213 C 
ENDBRANCH  34  36
ENDBRANCH  33  34
ENDBRANCH  32  33
ENDBRANCH  20  32
TORSDOF 10
ENDMDL
