MODEL 1
REMARK minimizedAffinity -7.48211145
REMARK CNNscore 0.828166425
REMARK CNNaffinity 7.08618307
REMARK  6 active torsions:
REMARK  status: ('A' for Active; 'I' for Inactive)
REMARK    1  A    between atoms: C2_2  and  C3_3 
REMARK    2  A    between atoms: C4_5  and  C5_6 
REMARK    3  A    between atoms: C5_6  and  C6_7 
REMARK    4  A    between atoms: C6_7  and  C7_8 
REMARK    5  A    between atoms: C7_8  and  C9_10 
REMARK    6  A    between atoms: C30_32  and  O3_33 
ROOT
HETATM    1  C9  UNL     1       2.774  12.649  20.132  1.00  0.00    -0.002 C 
HETATM    2  C10 UNL     1       3.785  11.739  19.377  1.00  0.00     0.007 C 
HETATM    3  C11 UNL     1       3.006  10.994  18.276  1.00  0.00     0.015 C 
HETATM    4  C12 UNL     1       1.663  11.737  18.165  1.00  0.00    -0.010 C 
HETATM    5  C13 UNL     1       1.903  12.988  17.260  1.00  0.00     0.021 C 
HETATM    6  C14 UNL     1       0.457  11.012  17.562  1.00  0.00    -0.039 C 
HETATM    7  C15 UNL     1      -0.800  11.386  17.929  1.00  0.00    -0.066 C 
HETATM    8  C16 UNL     1      -1.027  12.469  18.994  1.00  0.00     0.036 C 
HETATM    9  C17 UNL     1       0.204  13.037  19.731  1.00  0.00     0.015 C 
HETATM   10  C18 UNL     1       1.394  12.072  19.683  1.00  0.00    -0.029 C 
HETATM   11  C19 UNL     1       1.053  10.815  20.541  1.00  0.00     0.016 C 
HETATM   12  C20 UNL     1      -2.073  10.739  17.314  1.00  0.00    -0.015 C 
HETATM   13  C21 UNL     1      -2.675   9.807  18.393  1.00  0.00     0.020 C 
HETATM   14  C22 UNL     1      -3.101  11.836  16.937  1.00  0.00     0.021 C 
HETATM   15  C23 UNL     1      -4.252  11.397  16.037  1.00  0.00     0.080 C 
HETATM   16  C24 UNL     1      -4.260   9.933  15.667  1.00  0.00     0.135 C 
HETATM   17  O2  UNL     1      -5.336   9.333  15.580  1.00  0.00    -0.297 OA
HETATM   18  C25 UNL     1      -2.935   9.254  15.306  1.00  0.00     0.018 C 
HETATM   19  C26 UNL     1      -3.039   7.760  15.680  1.00  0.00     0.023 C 
HETATM   20  C27 UNL     1      -2.800   9.342  13.773  1.00  0.00     0.023 C 
HETATM   21  C28 UNL     1      -1.728   9.989  15.982  1.00  0.00     0.016 C 
HETATM   22  C29 UNL     1      -0.490   9.097  16.166  1.00  0.00     0.043 C 
HETATM   23  C30 UNL     1       0.735   9.922  16.554  1.00  0.00     0.148 C 
ENDROOT
BRANCH   1  24
HETATM   24  C7  UNL     1       3.103  12.767  21.649  1.00  0.00    -0.014 C 
HETATM   25  C8  UNL     1       2.649  14.100  22.252  1.00  0.00     0.010 C 
BRANCH  24  26
HETATM   26  C6  UNL     1       4.607  12.544  21.962  1.00  0.00     0.008 C 
BRANCH  26  27
HETATM   27  C5  UNL     1       4.914  11.422  22.962  1.00  0.00     0.028 C 
BRANCH  27  28
HETATM   28  C4  UNL     1       4.204  10.154  22.570  1.00  0.00    -0.017 C 
HETATM   29  C2  UNL     1       3.225   9.515  23.239  1.00  0.00    -0.028 C 
HETATM   30  C1  UNL     1       2.597   9.915  24.537  1.00  0.00     0.051 C 
BRANCH  29  31
HETATM   31  C3  UNL     1       2.670   8.264  22.633  1.00  0.00     0.265 C 
HETATM   32  O1  UNL     1       1.502   7.907  22.744  1.00  0.00    -0.302 OA
ENDBRANCH  29  31
ENDBRANCH  27  28
ENDBRANCH  26  27
ENDBRANCH  24  26
ENDBRANCH   1  24
BRANCH  23  33
HETATM   33  O3  UNL     1       1.263  10.534  15.381  1.00  0.00    -0.391 OA
HETATM   34  H46 UNL     1       1.551   9.821  14.788  1.00  0.00     0.210 HD
ENDBRANCH  23  33
TORSDOF 6
ENDMDL
MODEL 2
REMARK minimizedAffinity -6.33728933
REMARK CNNscore 0.764582217
REMARK CNNaffinity 6.90594435
REMARK  6 active torsions:
REMARK  status: ('A' for Active; 'I' for Inactive)
REMARK    1  A    between atoms: C2_2  and  C3_3 
REMARK    2  A    between atoms: C4_5  and  C5_6 
REMARK    3  A    between atoms: C5_6  and  C6_7 
REMARK    4  A    between atoms: C6_7  and  C7_8 
REMARK    5  A    between atoms: C7_8  and  C9_10 
REMARK    6  A    between atoms: C30_32  and  O3_33 
ROOT
HETATM    1  C9  UNL     1     -15.427   6.012  24.018  1.00  0.00    -0.002 C 
HETATM    2  C10 UNL     1     -14.830   5.948  25.453  1.00  0.00     0.007 C 
HETATM    3  C11 UNL     1     -13.925   7.181  25.635  1.00  0.00     0.015 C 
HETATM    4  C12 UNL     1     -14.287   8.118  24.469  1.00  0.00    -0.010 C 
HETATM    5  C13 UNL     1     -15.572   8.900  24.890  1.00  0.00     0.021 C 
HETATM    6  C14 UNL     1     -13.279   9.180  24.024  1.00  0.00    -0.039 C 
HETATM    7  C15 UNL     1     -13.301   9.626  22.738  1.00  0.00    -0.066 C 
HETATM    8  C16 UNL     1     -14.266   9.025  21.706  1.00  0.00     0.036 C 
HETATM    9  C17 UNL     1     -15.128   7.816  22.129  1.00  0.00     0.015 C 
HETATM   10  C18 UNL     1     -14.513   7.065  23.315  1.00  0.00    -0.029 C 
HETATM   11  C19 UNL     1     -13.197   6.376  22.842  1.00  0.00     0.016 C 
HETATM   12  C20 UNL     1     -12.350  10.746  22.229  1.00  0.00    -0.015 C 
HETATM   13  C21 UNL     1     -11.274  10.065  21.351  1.00  0.00     0.020 C 
HETATM   14  C22 UNL     1     -13.142  11.776  21.383  1.00  0.00     0.021 C 
HETATM   15  C23 UNL     1     -12.430  13.092  21.087  1.00  0.00     0.080 C 
HETATM   16  C24 UNL     1     -11.022  13.199  21.623  1.00  0.00     0.135 C 
HETATM   17  O2  UNL     1     -10.161  13.783  20.960  1.00  0.00    -0.297 OA
HETATM   18  C25 UNL     1     -10.725  12.669  23.030  1.00  0.00     0.018 C 
HETATM   19  C26 UNL     1      -9.250  12.214  23.074  1.00  0.00     0.023 C 
HETATM   20  C27 UNL     1     -10.871  13.866  23.990  1.00  0.00     0.023 C 
HETATM   21  C28 UNL     1     -11.741  11.547  23.431  1.00  0.00     0.016 C 
HETATM   22  C29 UNL     1     -11.206  10.588  24.506  1.00  0.00     0.043 C 
HETATM   23  C30 UNL     1     -12.320   9.704  25.065  1.00  0.00     0.148 C 
ENDROOT
BRANCH   1  24
HETATM   24  C7  UNL     1     -15.602   4.600  23.387  1.00  0.00    -0.014 C 
HETATM   25  C8  UNL     1     -16.998   4.384  22.794  1.00  0.00     0.010 C 
BRANCH  24  26
HETATM   26  C6  UNL     1     -15.278   3.449  24.377  1.00  0.00     0.008 C 
BRANCH  26  27
HETATM   27  C5  UNL     1     -13.874   2.843  24.248  1.00  0.00     0.028 C 
BRANCH  27  28
HETATM   28  C4  UNL     1     -13.350   2.429  25.597  1.00  0.00    -0.017 C 
HETATM   29  C2  UNL     1     -12.252   1.697  25.867  1.00  0.00    -0.028 C 
HETATM   30  C1  UNL     1     -11.277   1.120  24.888  1.00  0.00     0.051 C 
BRANCH  29  31
HETATM   31  C3  UNL     1     -11.935   1.423  27.304  1.00  0.00     0.265 C 
HETATM   32  O1  UNL     1     -12.755   1.489  28.213  1.00  0.00    -0.302 OA
ENDBRANCH  29  31
ENDBRANCH  27  28
ENDBRANCH  26  27
ENDBRANCH  24  26
ENDBRANCH   1  24
BRANCH  23  33
HETATM   33  O3  UNL     1     -13.069  10.461  26.012  1.00  0.00    -0.391 OA
HETATM   34  H46 UNL     1     -12.468  10.691  26.740  1.00  0.00     0.210 HD
ENDBRANCH  23  33
TORSDOF 6
ENDMDL
MODEL 3
REMARK minimizedAffinity -7.13765049
REMARK CNNscore 0.700891435
REMARK CNNaffinity 6.93202639
REMARK  6 active torsions:
REMARK  status: ('A' for Active; 'I' for Inactive)
REMARK    1  A    between atoms: C2_2  and  C3_3 
REMARK    2  A    between atoms: C4_5  and  C5_6 
REMARK    3  A    between atoms: C5_6  and  C6_7 
REMARK    4  A    between atoms: C6_7  and  C7_8 
REMARK    5  A    between atoms: C7_8  and  C9_10 
REMARK    6  A    between atoms: C30_32  and  O3_33 
ROOT
HETATM    1  C9  UNL     1      -1.494  10.014  16.348  1.00  0.00    -0.002 C 
HETATM    2  C10 UNL     1      -0.162   9.966  17.151  1.00  0.00     0.007 C 
HETATM    3  C11 UNL     1       0.951   9.535  16.178  1.00  0.00     0.015 C 
HETATM    4  C12 UNL     1       0.338   9.691  14.774  1.00  0.00    -0.010 C 
HETATM    5  C13 UNL     1       0.469  11.198  14.381  1.00  0.00     0.021 C 
HETATM    6  C14 UNL     1       0.935   8.903  13.607  1.00  0.00    -0.039 C 
HETATM    7  C15 UNL     1       0.148   8.584  12.543  1.00  0.00    -0.066 C 
HETATM    8  C16 UNL     1      -1.348   8.933  12.530  1.00  0.00     0.036 C 
HETATM    9  C17 UNL     1      -1.966   9.545  13.804  1.00  0.00     0.015 C 
HETATM   10  C18 UNL     1      -1.140   9.215  15.054  1.00  0.00    -0.029 C 
HETATM   11  C19 UNL     1      -1.253   7.687  15.339  1.00  0.00     0.016 C 
HETATM   12  C20 UNL     1       0.698   7.839  11.294  1.00  0.00    -0.015 C 
HETATM   13  C21 UNL     1       0.173   6.385  11.363  1.00  0.00     0.020 C 
HETATM   14  C22 UNL     1       0.187   8.519   9.998  1.00  0.00     0.021 C 
HETATM   15  C23 UNL     1       0.888   8.114   8.705  1.00  0.00     0.080 C 
HETATM   16  C24 UNL     1       1.964   7.065   8.856  1.00  0.00     0.135 C 
HETATM   17  O2  UNL     1       2.104   6.207   7.979  1.00  0.00    -0.297 OA
HETATM   18  C25 UNL     1       2.924   7.157  10.046  1.00  0.00     0.018 C 
HETATM   19  C26 UNL     1       3.388   5.728  10.405  1.00  0.00     0.023 C 
HETATM   20  C27 UNL     1       4.160   7.936   9.554  1.00  0.00     0.023 C 
HETATM   21  C28 UNL     1       2.262   7.922  11.241  1.00  0.00     0.016 C 
HETATM   22  C29 UNL     1       2.871   7.572  12.608  1.00  0.00     0.043 C 
HETATM   23  C30 UNL     1       2.399   8.542  13.690  1.00  0.00     0.148 C 
ENDROOT
BRANCH   1  24
HETATM   24  C7  UNL     1      -2.718   9.584  17.209  1.00  0.00    -0.014 C 
HETATM   25  C8  UNL     1      -4.056   9.869  16.520  1.00  0.00     0.010 C 
BRANCH  24  26
HETATM   26  C6  UNL     1      -2.718  10.222  18.624  1.00  0.00     0.008 C 
BRANCH  26  27
HETATM   27  C5  UNL     1      -3.948  11.074  18.964  1.00  0.00     0.028 C 
BRANCH  27  28
HETATM   28  C4  UNL     1      -3.593  12.536  18.974  1.00  0.00    -0.017 C 
HETATM   29  C2  UNL     1      -4.232  13.536  19.610  1.00  0.00    -0.028 C 
HETATM   30  C1  UNL     1      -5.453  13.437  20.471  1.00  0.00     0.051 C 
BRANCH  29  31
HETATM   31  C3  UNL     1      -3.673  14.919  19.472  1.00  0.00     0.265 C 
HETATM   32  O1  UNL     1      -3.094  15.328  18.472  1.00  0.00    -0.302 OA
ENDBRANCH  29  31
ENDBRANCH  27  28
ENDBRANCH  26  27
ENDBRANCH  24  26
ENDBRANCH   1  24
BRANCH  23  33
HETATM   33  O3  UNL     1       3.155   9.746  13.583  1.00  0.00    -0.391 OA
HETATM   34  H46 UNL     1       4.083   9.521  13.758  1.00  0.00     0.210 HD
ENDBRANCH  23  33
TORSDOF 6
ENDMDL
MODEL 4
REMARK minimizedAffinity -6.59231472
REMARK CNNscore 0.671344519
REMARK CNNaffinity 7.09245634
REMARK  6 active torsions:
REMARK  status: ('A' for Active; 'I' for Inactive)
REMARK    1  A    between atoms: C2_2  and  C3_3 
REMARK    2  A    between atoms: C4_5  and  C5_6 
REMARK    3  A    between atoms: C5_6  and  C6_7 
REMARK    4  A    between atoms: C6_7  and  C7_8 
REMARK    5  A    between atoms: C7_8  and  C9_10 
REMARK    6  A    between atoms: C30_32  and  O3_33 
ROOT
HETATM    1  C9  UNL     1      -9.780   8.119  14.482  1.00  0.00    -0.002 C 
HETATM    2  C10 UNL     1     -10.561   6.805  14.194  1.00  0.00     0.007 C 
HETATM    3  C11 UNL     1     -12.024   7.189  13.903  1.00  0.00     0.015 C 
HETATM    4  C12 UNL     1     -11.999   8.710  13.666  1.00  0.00    -0.010 C 
HETATM    5  C13 UNL     1     -11.561   8.936  12.183  1.00  0.00     0.021 C 
HETATM    6  C14 UNL     1     -13.287   9.515  13.847  1.00  0.00    -0.039 C 
HETATM    7  C15 UNL     1     -13.211  10.832  14.183  1.00  0.00    -0.066 C 
HETATM    8  C16 UNL     1     -11.857  11.504  14.459  1.00  0.00     0.036 C 
HETATM    9  C17 UNL     1     -10.592  10.620  14.468  1.00  0.00     0.015 C 
HETATM   10  C18 UNL     1     -10.927   9.148  14.737  1.00  0.00    -0.029 C 
HETATM   11  C19 UNL     1     -11.430   9.010  16.206  1.00  0.00     0.016 C 
HETATM   12  C20 UNL     1     -14.473  11.730  14.324  1.00  0.00    -0.015 C 
HETATM   13  C21 UNL     1     -14.695  11.967  15.837  1.00  0.00     0.020 C 
HETATM   14  C22 UNL     1     -14.247  13.086  13.609  1.00  0.00     0.021 C 
HETATM   15  C23 UNL     1     -15.490  13.940  13.379  1.00  0.00     0.080 C 
HETATM   16  C24 UNL     1     -16.776  13.366  13.922  1.00  0.00     0.135 C 
HETATM   17  O2  UNL     1     -17.620  14.121  14.415  1.00  0.00    -0.297 OA
HETATM   18  C25 UNL     1     -17.048  11.868  13.751  1.00  0.00     0.018 C 
HETATM   19  C26 UNL     1     -17.938  11.400  14.922  1.00  0.00     0.023 C 
HETATM   20  C27 UNL     1     -17.867  11.715  12.454  1.00  0.00     0.023 C 
HETATM   21  C28 UNL     1     -15.708  11.068  13.622  1.00  0.00     0.016 C 
HETATM   22  C29 UNL     1     -15.832   9.590  14.024  1.00  0.00     0.043 C 
HETATM   23  C30 UNL     1     -14.594   8.796  13.610  1.00  0.00     0.148 C 
ENDROOT
BRANCH   1  24
HETATM   24  C7  UNL     1      -8.668   7.923  15.553  1.00  0.00    -0.014 C 
HETATM   25  C8  UNL     1      -7.430   8.784  15.287  1.00  0.00     0.010 C 
BRANCH  24  26
HETATM   26  C6  UNL     1      -8.241   6.440  15.719  1.00  0.00     0.008 C 
BRANCH  26  27
HETATM   27  C5  UNL     1      -7.036   6.001  14.875  1.00  0.00     0.028 C 
BRANCH  27  28
HETATM   28  C4  UNL     1      -7.401   4.834  13.999  1.00  0.00    -0.017 C 
HETATM   29  C2  UNL     1      -6.585   4.107  13.210  1.00  0.00    -0.028 C 
HETATM   30  C1  UNL     1      -5.111   4.281  13.017  1.00  0.00     0.051 C 
BRANCH  29  31
HETATM   31  C3  UNL     1      -7.191   2.980  12.434  1.00  0.00     0.265 C 
HETATM   32  O1  UNL     1      -7.864   2.085  12.934  1.00  0.00    -0.302 OA
ENDBRANCH  29  31
ENDBRANCH  27  28
ENDBRANCH  26  27
ENDBRANCH  24  26
ENDBRANCH   1  24
BRANCH  23  33
HETATM   33  O3  UNL     1     -14.686   8.499  12.220  1.00  0.00    -0.391 OA
HETATM   34  H46 UNL     1     -15.466   7.934  12.096  1.00  0.00     0.210 HD
ENDBRANCH  23  33
TORSDOF 6
ENDMDL
MODEL 5
REMARK minimizedAffinity -6.25901651
REMARK CNNscore 0.652863801
REMARK CNNaffinity 6.56040049
REMARK  6 active torsions:
REMARK  status: ('A' for Active; 'I' for Inactive)
REMARK    1  A    between atoms: C2_2  and  C3_3 
REMARK    2  A    between atoms: C4_5  and  C5_6 
REMARK    3  A    between atoms: C5_6  and  C6_7 
REMARK    4  A    between atoms: C6_7  and  C7_8 
REMARK    5  A    between atoms: C7_8  and  C9_10 
REMARK    6  A    between atoms: C30_32  and  O3_33 
ROOT
HETATM    1  C9  UNL     1      -0.752  11.641  18.390  1.00  0.00    -0.002 C 
HETATM    2  C10 UNL     1      -1.925  10.720  18.832  1.00  0.00     0.007 C 
HETATM    3  C11 UNL     1      -3.232  11.353  18.318  1.00  0.00     0.015 C 
HETATM    4  C12 UNL     1      -2.787  12.411  17.292  1.00  0.00    -0.010 C 
HETATM    5  C13 UNL     1      -2.526  11.663  15.945  1.00  0.00     0.021 C 
HETATM    6  C14 UNL     1      -3.733  13.564  16.952  1.00  0.00    -0.039 C 
HETATM    7  C15 UNL     1      -3.216  14.747  16.518  1.00  0.00    -0.066 C 
HETATM    8  C16 UNL     1      -1.698  14.969  16.440  1.00  0.00     0.036 C 
HETATM    9  C17 UNL     1      -0.770  13.862  16.982  1.00  0.00     0.015 C 
HETATM   10  C18 UNL     1      -1.486  12.962  17.996  1.00  0.00    -0.029 C 
HETATM   11  C19 UNL     1      -1.785  13.794  19.280  1.00  0.00     0.016 C 
HETATM   12  C20 UNL     1      -4.115  15.943  16.095  1.00  0.00    -0.015 C 
HETATM   13  C21 UNL     1      -4.029  16.998  17.224  1.00  0.00     0.020 C 
HETATM   14  C22 UNL     1      -3.601  16.554  14.767  1.00  0.00     0.021 C 
HETATM   15  C23 UNL     1      -4.551  17.514  14.057  1.00  0.00     0.080 C 
HETATM   16  C24 UNL     1      -5.855  17.777  14.771  1.00  0.00     0.135 C 
HETATM   17  O2  UNL     1      -6.351  18.908  14.738  1.00  0.00    -0.297 OA
HETATM   18  C25 UNL     1      -6.586  16.604  15.432  1.00  0.00     0.018 C 
HETATM   19  C26 UNL     1      -7.392  17.149  16.631  1.00  0.00     0.023 C 
HETATM   20  C27 UNL     1      -7.595  16.074  14.395  1.00  0.00     0.023 C 
HETATM   21  C28 UNL     1      -5.582  15.465  15.816  1.00  0.00     0.016 C 
HETATM   22  C29 UNL     1      -6.083  14.560  16.952  1.00  0.00     0.043 C 
HETATM   23  C30 UNL     1      -5.215  13.310  17.090  1.00  0.00     0.148 C 
ENDROOT
BRANCH   1  24
HETATM   24  C7  UNL     1       0.396  11.682  19.441  1.00  0.00    -0.014 C 
HETATM   25  C8  UNL     1       0.603  13.077  20.039  1.00  0.00     0.010 C 
BRANCH  24  26
HETATM   26  C6  UNL     1       1.745  11.152  18.886  1.00  0.00     0.008 C 
BRANCH  26  27
HETATM   27  C5  UNL     1       2.855  10.955  19.925  1.00  0.00     0.028 C 
BRANCH  27  28
HETATM   28  C4  UNL     1       2.495   9.852  20.884  1.00  0.00    -0.017 C 
HETATM   29  C2  UNL     1       3.044   9.590  22.085  1.00  0.00    -0.028 C 
HETATM   30  C1  UNL     1       4.148  10.338  22.766  1.00  0.00     0.051 C 
BRANCH  29  31
HETATM   31  C3  UNL     1       2.501   8.431  22.861  1.00  0.00     0.265 C 
HETATM   32  O1  UNL     1       1.609   7.693  22.458  1.00  0.00    -0.302 OA
ENDBRANCH  29  31
ENDBRANCH  27  28
ENDBRANCH  26  27
ENDBRANCH  24  26
ENDBRANCH   1  24
BRANCH  23  33
HETATM   33  O3  UNL     1      -5.597  12.377  16.084  1.00  0.00    -0.391 OA
HETATM   34  H46 UNL     1      -6.520  12.128  16.255  1.00  0.00     0.210 HD
ENDBRANCH  23  33
TORSDOF 6
ENDMDL
MODEL 6
REMARK minimizedAffinity -8.65374565
REMARK CNNscore 0.627552986
REMARK CNNaffinity 7.27921152
REMARK  6 active torsions:
REMARK  status: ('A' for Active; 'I' for Inactive)
REMARK    1  A    between atoms: C2_2  and  C3_3 
REMARK    2  A    between atoms: C4_5  and  C5_6 
REMARK    3  A    between atoms: C5_6  and  C6_7 
REMARK    4  A    between atoms: C6_7  and  C7_8 
REMARK    5  A    between atoms: C7_8  and  C9_10 
REMARK    6  A    between atoms: C30_32  and  O3_33 
ROOT
HETATM    1  C9  UNL     1      -4.003   7.226  14.880  1.00  0.00    -0.002 C 
HETATM    2  C10 UNL     1      -4.338   5.784  14.403  1.00  0.00     0.007 C 
HETATM    3  C11 UNL     1      -3.180   5.311  13.504  1.00  0.00     0.015 C 
HETATM    4  C12 UNL     1      -2.041   6.313  13.760  1.00  0.00    -0.010 C 
HETATM    5  C13 UNL     1      -1.315   5.860  15.068  1.00  0.00     0.021 C 
HETATM    6  C14 UNL     1      -0.941   6.478  12.709  1.00  0.00    -0.039 C 
HETATM    7  C15 UNL     1      -0.271   7.660  12.621  1.00  0.00    -0.066 C 
HETATM    8  C16 UNL     1      -0.653   8.857  13.505  1.00  0.00     0.036 C 
HETATM    9  C17 UNL     1      -1.897   8.728  14.410  1.00  0.00     0.015 C 
HETATM   10  C18 UNL     1      -2.864   7.652  13.901  1.00  0.00    -0.029 C 
HETATM   11  C19 UNL     1      -3.488   8.137  12.558  1.00  0.00     0.016 C 
HETATM   12  C20 UNL     1       0.899   7.881  11.622  1.00  0.00    -0.015 C 
HETATM   13  C21 UNL     1       0.361   8.781  10.484  1.00  0.00     0.020 C 
HETATM   14  C22 UNL     1       2.083   8.587  12.332  1.00  0.00     0.021 C 
HETATM   15  C23 UNL     1       3.413   8.584  11.585  1.00  0.00     0.080 C 
HETATM   16  C24 UNL     1       3.388   7.928  10.225  1.00  0.00     0.135 C 
HETATM   17  O2  UNL     1       4.061   8.405   9.307  1.00  0.00    -0.297 OA
HETATM   18  C25 UNL     1       2.607   6.622  10.049  1.00  0.00     0.018 C 
HETATM   19  C26 UNL     1       2.116   6.544   8.587  1.00  0.00     0.023 C 
HETATM   20  C27 UNL     1       3.615   5.475  10.261  1.00  0.00     0.023 C 
HETATM   21  C28 UNL     1       1.456   6.511  11.105  1.00  0.00     0.016 C 
HETATM   22  C29 UNL     1       0.307   5.588  10.669  1.00  0.00     0.043 C 
HETATM   23  C30 UNL     1      -0.635   5.287  11.833  1.00  0.00     0.148 C 
ENDROOT
BRANCH   1  24
HETATM   24  C7  UNL     1      -5.275   8.113  15.017  1.00  0.00    -0.014 C 
HETATM   25  C8  UNL     1      -4.992   9.451  15.709  1.00  0.00     0.010 C 
BRANCH  24  26
HETATM   26  C6  UNL     1      -6.442   7.392  15.742  1.00  0.00     0.008 C 
BRANCH  26  27
HETATM   27  C5  UNL     1      -7.621   6.982  14.851  1.00  0.00     0.028 C 
BRANCH  27  28
HETATM   28  C4  UNL     1      -7.510   5.534  14.458  1.00  0.00    -0.017 C 
HETATM   29  C2  UNL     1      -7.904   4.958  13.306  1.00  0.00    -0.028 C 
HETATM   30  C1  UNL     1      -8.546   5.622  12.128  1.00  0.00     0.051 C 
BRANCH  29  31
HETATM   31  C3  UNL     1      -7.675   3.487  13.149  1.00  0.00     0.265 C 
HETATM   32  O1  UNL     1      -8.519   2.701  12.733  1.00  0.00    -0.302 OA
ENDBRANCH  29  31
ENDBRANCH  27  28
ENDBRANCH  26  27
ENDBRANCH  24  26
ENDBRANCH   1  24
BRANCH  23  33
HETATM   33  O3  UNL     1      -0.043   4.281  12.649  1.00  0.00    -0.391 OA
HETATM   34  H46 UNL     1       0.038   3.479  12.107  1.00  0.00     0.210 HD
ENDBRANCH  23  33
TORSDOF 6
ENDMDL
MODEL 7
REMARK minimizedAffinity -8.94882298
REMARK CNNscore 0.592406809
REMARK CNNaffinity 7.35086203
REMARK  6 active torsions:
REMARK  status: ('A' for Active; 'I' for Inactive)
REMARK    1  A    between atoms: C2_2  and  C3_3 
REMARK    2  A    between atoms: C4_5  and  C5_6 
REMARK    3  A    between atoms: C5_6  and  C6_7 
REMARK    4  A    between atoms: C6_7  and  C7_8 
REMARK    5  A    between atoms: C7_8  and  C9_10 
REMARK    6  A    between atoms: C30_32  and  O3_33 
ROOT
HETATM    1  C9  UNL     1       0.874   6.785  12.955  1.00  0.00    -0.002 C 
HETATM    2  C10 UNL     1       1.194   7.691  14.178  1.00  0.00     0.007 C 
HETATM    3  C11 UNL     1      -0.120   7.909  14.952  1.00  0.00     0.015 C 
HETATM    4  C12 UNL     1      -1.091   6.852  14.395  1.00  0.00    -0.010 C 
HETATM    5  C13 UNL     1      -0.784   5.510  15.135  1.00  0.00     0.021 C 
HETATM    6  C14 UNL     1      -2.598   7.073  14.541  1.00  0.00    -0.039 C 
HETATM    7  C15 UNL     1      -3.448   6.505  13.641  1.00  0.00    -0.066 C 
HETATM    8  C16 UNL     1      -2.915   5.713  12.437  1.00  0.00     0.036 C 
HETATM    9  C17 UNL     1      -1.390   5.679  12.203  1.00  0.00     0.015 C 
HETATM   10  C18 UNL     1      -0.684   6.864  12.870  1.00  0.00    -0.029 C 
HETATM   11  C19 UNL     1      -1.097   8.173  12.132  1.00  0.00     0.016 C 
HETATM   12  C20 UNL     1      -4.993   6.633  13.759  1.00  0.00    -0.015 C 
HETATM   13  C21 UNL     1      -5.451   7.631  12.669  1.00  0.00     0.020 C 
HETATM   14  C22 UNL     1      -5.663   5.256  13.522  1.00  0.00     0.021 C 
HETATM   15  C23 UNL     1      -7.132   5.146  13.918  1.00  0.00     0.080 C 
HETATM   16  C24 UNL     1      -7.753   6.415  14.451  1.00  0.00     0.135 C 
HETATM   17  O2  UNL     1      -8.924   6.684  14.169  1.00  0.00    -0.297 OA
HETATM   18  C25 UNL     1      -6.943   7.286  15.417  1.00  0.00     0.018 C 
HETATM   19  C26 UNL     1      -7.397   8.752  15.245  1.00  0.00     0.023 C 
HETATM   20  C27 UNL     1      -7.332   6.842  16.841  1.00  0.00     0.023 C 
HETATM   21  C28 UNL     1      -5.405   7.075  15.204  1.00  0.00     0.016 C 
HETATM   22  C29 UNL     1      -4.551   8.264  15.673  1.00  0.00     0.043 C 
HETATM   23  C30 UNL     1      -3.068   7.899  15.714  1.00  0.00     0.148 C 
ENDROOT
BRANCH   1  24
HETATM   24  C7  UNL     1       1.733   7.148  11.709  1.00  0.00    -0.014 C 
HETATM   25  C8  UNL     1       3.191   7.457  12.064  1.00  0.00     0.010 C 
BRANCH  24  26
HETATM   26  C6  UNL     1       1.141   8.324  10.886  1.00  0.00     0.008 C 
BRANCH  26  27
HETATM   27  C5  UNL     1       1.128   8.125   9.365  1.00  0.00     0.028 C 
BRANCH  27  28
HETATM   28  C4  UNL     1       1.945   6.921   8.981  1.00  0.00    -0.017 C 
HETATM   29  C2  UNL     1       2.253   6.494   7.742  1.00  0.00    -0.028 C 
HETATM   30  C1  UNL     1       1.862   7.117   6.438  1.00  0.00     0.051 C 
BRANCH  29  31
HETATM   31  C3  UNL     1       3.095   5.261   7.620  1.00  0.00     0.265 C 
HETATM   32  O1  UNL     1       3.453   4.577   8.572  1.00  0.00    -0.302 OA
ENDBRANCH  29  31
ENDBRANCH  27  28
ENDBRANCH  26  27
ENDBRANCH  24  26
ENDBRANCH   1  24
BRANCH  23  33
HETATM   33  O3  UNL     1      -2.815   7.157  16.903  1.00  0.00    -0.391 OA
HETATM   34  H46 UNL     1      -3.006   7.741  17.655  1.00  0.00     0.210 HD
ENDBRANCH  23  33
TORSDOF 6
ENDMDL
MODEL 8
REMARK minimizedAffinity -6.28276491
REMARK CNNscore 0.554076612
REMARK CNNaffinity 5.76784134
REMARK  6 active torsions:
REMARK  status: ('A' for Active; 'I' for Inactive)
REMARK    1  A    between atoms: C2_2  and  C3_3 
REMARK    2  A    between atoms: C4_5  and  C5_6 
REMARK    3  A    between atoms: C5_6  and  C6_7 
REMARK    4  A    between atoms: C6_7  and  C7_8 
REMARK    5  A    between atoms: C7_8  and  C9_10 
REMARK    6  A    between atoms: C30_32  and  O3_33 
ROOT
HETATM    1  C9  UNL     1      -4.618 -10.205   6.386  1.00  0.00    -0.002 C 
HETATM    2  C10 UNL     1      -3.452 -11.128   6.843  1.00  0.00     0.007 C 
HETATM    3  C11 UNL     1      -2.887 -11.819   5.587  1.00  0.00     0.015 C 
HETATM    4  C12 UNL     1      -3.470 -11.030   4.401  1.00  0.00    -0.010 C 
HETATM    5  C13 UNL     1      -2.574  -9.765   4.205  1.00  0.00     0.021 C 
HETATM    6  C14 UNL     1      -3.551 -11.700   3.027  1.00  0.00    -0.039 C 
HETATM    7  C15 UNL     1      -4.501 -11.294   2.141  1.00  0.00    -0.066 C 
HETATM    8  C16 UNL     1      -5.543 -10.232   2.523  1.00  0.00     0.036 C 
HETATM    9  C17 UNL     1      -5.565  -9.723   3.980  1.00  0.00     0.015 C 
HETATM   10  C18 UNL     1      -4.920 -10.725   4.945  1.00  0.00    -0.029 C 
HETATM   11  C19 UNL     1      -5.826 -11.991   5.029  1.00  0.00     0.016 C 
HETATM   12  C20 UNL     1      -4.606 -11.883   0.706  1.00  0.00    -0.015 C 
HETATM   13  C21 UNL     1      -5.836 -12.822   0.688  1.00  0.00     0.020 C 
HETATM   14  C22 UNL     1      -4.803 -10.744  -0.327  1.00  0.00     0.021 C 
HETATM   15  C23 UNL     1      -4.601 -11.122  -1.791  1.00  0.00     0.080 C 
HETATM   16  C24 UNL     1      -4.277 -12.575  -2.044  1.00  0.00     0.135 C 
HETATM   17  O2  UNL     1      -4.739 -13.137  -3.042  1.00  0.00    -0.297 OA
HETATM   18  C25 UNL     1      -3.295 -13.287  -1.108  1.00  0.00     0.018 C 
HETATM   19  C26 UNL     1      -3.662 -14.787  -1.071  1.00  0.00     0.023 C 
HETATM   20  C27 UNL     1      -1.902 -13.165  -1.757  1.00  0.00     0.023 C 
HETATM   21  C28 UNL     1      -3.277 -12.610   0.304  1.00  0.00     0.016 C 
HETATM   22  C29 UNL     1      -2.809 -13.546   1.429  1.00  0.00     0.043 C 
HETATM   23  C30 UNL     1      -2.534 -12.771   2.717  1.00  0.00     0.148 C 
ENDROOT
BRANCH   1  24
HETATM   24  C7  UNL     1      -5.764 -10.136   7.436  1.00  0.00    -0.014 C 
HETATM   25  C8  UNL     1      -6.315  -8.719   7.621  1.00  0.00     0.010 C 
BRANCH  24  26
HETATM   26  C6  UNL     1      -5.357 -10.717   8.817  1.00  0.00     0.008 C 
BRANCH  26  27
HETATM   27  C5  UNL     1      -4.798  -9.701   9.822  1.00  0.00     0.028 C 
BRANCH  27  28
HETATM   28  C4  UNL     1      -5.863  -9.279  10.797  1.00  0.00    -0.017 C 
HETATM   29  C2  UNL     1      -6.476 -10.035  11.728  1.00  0.00    -0.028 C 
HETATM   30  C1  UNL     1      -6.242 -11.483  12.026  1.00  0.00     0.051 C 
BRANCH  29  31
HETATM   31  C3  UNL     1      -7.506  -9.376  12.592  1.00  0.00     0.265 C 
HETATM   32  O1  UNL     1      -7.744  -9.703  13.749  1.00  0.00    -0.302 OA
ENDBRANCH  29  31
ENDBRANCH  27  28
ENDBRANCH  26  27
ENDBRANCH  24  26
ENDBRANCH   1  24
BRANCH  23  33
HETATM   33  O3  UNL     1      -1.257 -12.148   2.609  1.00  0.00    -0.391 OA
HETATM   34  H46 UNL     1      -0.596 -12.855   2.531  1.00  0.00     0.210 HD
ENDBRANCH  23  33
TORSDOF 6
ENDMDL
MODEL 9
REMARK minimizedAffinity -6.7585001
REMARK CNNscore 0.543677747
REMARK CNNaffinity 6.84692526
REMARK  6 active torsions:
REMARK  status: ('A' for Active; 'I' for Inactive)
REMARK    1  A    between atoms: C2_2  and  C3_3 
REMARK    2  A    between atoms: C4_5  and  C5_6 
REMARK    3  A    between atoms: C5_6  and  C6_7 
REMARK    4  A    between atoms: C6_7  and  C7_8 
REMARK    5  A    between atoms: C7_8  and  C9_10 
REMARK    6  A    between atoms: C30_32  and  O3_33 
ROOT
HETATM    1  C9  UNL     1      -8.995   7.450  14.054  1.00  0.00    -0.002 C 
HETATM    2  C10 UNL     1     -10.155   6.442  13.816  1.00  0.00     0.007 C 
HETATM    3  C11 UNL     1     -11.419   7.021  14.480  1.00  0.00     0.015 C 
HETATM    4  C12 UNL     1     -11.078   8.494  14.768  1.00  0.00    -0.010 C 
HETATM    5  C13 UNL     1     -11.313   9.288  13.443  1.00  0.00     0.021 C 
HETATM    6  C14 UNL     1     -11.862   9.244  15.848  1.00  0.00    -0.039 C 
HETATM    7  C15 UNL     1     -11.276  10.289  16.495  1.00  0.00    -0.066 C 
HETATM    8  C16 UNL     1      -9.817  10.679  16.216  1.00  0.00     0.036 C 
HETATM    9  C17 UNL     1      -8.989   9.780  15.274  1.00  0.00     0.015 C 
HETATM   10  C18 UNL     1      -9.563   8.361  15.189  1.00  0.00    -0.029 C 
HETATM   11  C19 UNL     1      -9.365   7.658  16.566  1.00  0.00     0.016 C 
HETATM   12  C20 UNL     1     -12.030  11.137  17.558  1.00  0.00    -0.015 C 
HETATM   13  C21 UNL     1     -11.468  10.734  18.943  1.00  0.00     0.020 C 
HETATM   14  C22 UNL     1     -11.782  12.647  17.312  1.00  0.00     0.021 C 
HETATM   15  C23 UNL     1     -12.699  13.610  18.059  1.00  0.00     0.080 C 
HETATM   16  C24 UNL     1     -13.704  12.960  18.980  1.00  0.00     0.135 C 
HETATM   17  O2  UNL     1     -13.984  13.500  20.054  1.00  0.00    -0.297 OA
HETATM   18  C25 UNL     1     -14.431  11.697  18.506  1.00  0.00     0.018 C 
HETATM   19  C26 UNL     1     -14.788  10.849  19.747  1.00  0.00     0.023 C 
HETATM   20  C27 UNL     1     -15.754  12.164  17.867  1.00  0.00     0.023 C 
HETATM   21  C28 UNL     1     -13.579  10.926  17.443  1.00  0.00     0.016 C 
HETATM   22  C29 UNL     1     -13.917   9.430  17.350  1.00  0.00     0.043 C 
HETATM   23  C30 UNL     1     -13.277   8.792  16.118  1.00  0.00     0.148 C 
ENDROOT
BRANCH   1  24
HETATM   24  C7  UNL     1      -7.624   6.739  14.250  1.00  0.00    -0.014 C 
HETATM   25  C8  UNL     1      -6.441   7.711  14.205  1.00  0.00     0.010 C 
BRANCH  24  26
HETATM   26  C6  UNL     1      -7.387   5.590  13.234  1.00  0.00     0.008 C 
BRANCH  26  27
HETATM   27  C5  UNL     1      -7.334   4.179  13.833  1.00  0.00     0.028 C 
BRANCH  27  28
HETATM   28  C4  UNL     1      -6.893   3.179  12.798  1.00  0.00    -0.017 C 
HETATM   29  C2  UNL     1      -5.701   3.106  12.177  1.00  0.00    -0.028 C 
HETATM   30  C1  UNL     1      -4.515   4.000  12.370  1.00  0.00     0.051 C 
BRANCH  29  31
HETATM   31  C3  UNL     1      -5.500   2.005  11.183  1.00  0.00     0.265 C 
HETATM   32  O1  UNL     1      -6.145   0.962  11.174  1.00  0.00    -0.302 OA
ENDBRANCH  29  31
ENDBRANCH  27  28
ENDBRANCH  26  27
ENDBRANCH  24  26
ENDBRANCH   1  24
BRANCH  23  33
HETATM   33  O3  UNL     1     -14.066   9.113  14.977  1.00  0.00    -0.391 OA
HETATM   34  H46 UNL     1     -14.941   8.713  15.108  1.00  0.00     0.210 HD
ENDBRANCH  23  33
TORSDOF 6
ENDMDL
