MODEL 1
REMARK minimizedAffinity -9.3896513
REMARK  9 active torsions:
REMARK  status: ('A' for Active; 'I' for Inactive)
REMARK    1  A    between atoms: C2_2  and  C3_3 
REMARK    2  A    between atoms: C2_2  and  C9_12 
REMARK    3  A    between atoms: C3_3  and  C4_4 
REMARK    4  A    between atoms: C4_4  and  C5_5 
REMARK    5  A    between atoms: C5_5  and  O1_6 
REMARK    6  A    between atoms: C5_5  and  C6_7 
REMARK    7  A    between atoms: C6_7  and  O2_9 
REMARK    8  A    between atoms: C6_7  and  C8_10 
REMARK    9  A    between atoms: C8_10  and  O3_11 
ROOT
HETATM    1  C9  UNL     1      -6.380   7.247  15.024  1.00  0.00    -0.002 C 
HETATM    2  C10 UNL     1      -6.072   8.711  15.442  1.00  0.00     0.007 C 
HETATM    3  C11 UNL     1      -4.653   9.035  14.937  1.00  0.00     0.015 C 
HETATM    4  C12 UNL     1      -4.321   7.923  13.922  1.00  0.00    -0.005 C 
HETATM    5  C13 UNL     1      -4.979   8.333  12.567  1.00  0.00     0.021 C 
HETATM    6  C14 UNL     1      -2.874   7.605  13.558  1.00  0.00    -0.000 C 
HETATM    7  C15 UNL     1      -2.506   6.350  13.183  1.00  0.00    -0.060 C 
HETATM    8  C16 UNL     1      -3.526   5.205  13.171  1.00  0.00     0.036 C 
HETATM    9  C17 UNL     1      -4.955   5.506  13.669  1.00  0.00     0.015 C 
HETATM   10  C18 UNL     1      -4.977   6.681  14.652  1.00  0.00    -0.028 C 
HETATM   11  C19 UNL     1      -4.208   6.258  15.938  1.00  0.00     0.016 C 
HETATM   12  C20 UNL     1      -1.044   5.979  12.811  1.00  0.00    -0.014 C 
HETATM   13  C21 UNL     1      -0.407   5.439  14.112  1.00  0.00     0.020 C 
HETATM   14  C22 UNL     1      -0.989   4.886  11.713  1.00  0.00     0.021 C 
HETATM   15  C23 UNL     1       0.419   4.580  11.228  1.00  0.00     0.080 C 
HETATM   16  C24 UNL     1       1.091   5.823  10.701  1.00  0.00     0.135 C 
HETATM   17  O4  UNL     1       1.708   5.777   9.634  1.00  0.00    -0.297 OA
HETATM   18  C25 UNL     1       1.076   7.078  11.587  1.00  0.00     0.018 C 
HETATM   19  C26 UNL     1       1.376   8.296  10.676  1.00  0.00     0.023 C 
HETATM   20  C27 UNL     1       2.236   6.967  12.588  1.00  0.00     0.023 C 
HETATM   21  C28 UNL     1      -0.347   7.256  12.227  1.00  0.00     0.020 C 
HETATM   22  C29 UNL     1      -0.429   8.403  13.238  1.00  0.00     0.090 C 
HETATM   23  C30 UNL     1      -1.866   8.714  13.585  1.00  0.00     0.157 C 
HETATM   24  O5  UNL     1      -2.181   9.858  13.904  1.00  0.00    -0.293 OA
ENDROOT
BRANCH   1  25
HETATM   25  C2  UNL     1      -7.378   6.523  15.981  1.00  0.00    -0.014 C 
HETATM   26  C1  UNL     1      -7.538   5.009  15.800  1.00  0.00     0.010 C 
BRANCH  25  27
HETATM   27  C3  UNL     1      -8.757   7.217  15.989  1.00  0.00     0.007 C 
BRANCH  27  28
HETATM   28  C4  UNL     1      -9.438   7.431  14.627  1.00  0.00     0.035 C 
BRANCH  28  29
HETATM   29  C5  UNL     1     -10.976   7.354  14.553  1.00  0.00     0.154 C 
BRANCH  29  30
HETATM   30  O1  UNL     1     -11.511   8.103  15.648  1.00  0.00    -0.392 OA
HETATM   31  H10 UNL     1     -12.476   8.180  15.511  1.00  0.00     0.210 HD
ENDBRANCH  29  30
BRANCH  29  32
HETATM   32  C6  UNL     1     -11.635   7.723  13.180  1.00  0.00     0.101 C 
HETATM   33  C7  UNL     1     -13.063   7.176  13.081  1.00  0.00     0.051 C 
BRANCH  32  34
HETATM   34  O2  UNL     1     -10.860   7.194  12.091  1.00  0.00    -0.385 OA
HETATM   35  H14 UNL     1     -11.377   7.280  11.273  1.00  0.00     0.210 HD
ENDBRANCH  32  34
BRANCH  32  36
HETATM   36  C8  UNL     1     -11.656   9.256  12.985  1.00  0.00     0.204 C 
BRANCH  36  37
HETATM   37  O3  UNL     1     -11.838   9.569  11.601  1.00  0.00    -0.398 OA
HETATM   38  H17 UNL     1     -12.586   9.005  11.305  1.00  0.00     0.209 HD
ENDBRANCH  36  37
ENDBRANCH  32  36
ENDBRANCH  29  32
ENDBRANCH  28  29
ENDBRANCH  27  28
ENDBRANCH  25  27
ENDBRANCH   1  25
TORSDOF 9
ENDMDL
MODEL 2
REMARK minimizedAffinity -9.25143337
REMARK  9 active torsions:
REMARK  status: ('A' for Active; 'I' for Inactive)
REMARK    1  A    between atoms: C2_2  and  C3_3 
REMARK    2  A    between atoms: C2_2  and  C9_12 
REMARK    3  A    between atoms: C3_3  and  C4_4 
REMARK    4  A    between atoms: C4_4  and  C5_5 
REMARK    5  A    between atoms: C5_5  and  O1_6 
REMARK    6  A    between atoms: C5_5  and  C6_7 
REMARK    7  A    between atoms: C6_7  and  O2_9 
REMARK    8  A    between atoms: C6_7  and  C8_10 
REMARK    9  A    between atoms: C8_10  and  O3_11 
ROOT
HETATM    1  C9  UNL     1       1.170   6.923  12.368  1.00  0.00    -0.002 C 
HETATM    2  C10 UNL     1       1.479   5.432  12.061  1.00  0.00     0.007 C 
HETATM    3  C11 UNL     1       0.142   4.669  12.143  1.00  0.00     0.015 C 
HETATM    4  C12 UNL     1      -0.949   5.758  12.109  1.00  0.00    -0.005 C 
HETATM    5  C13 UNL     1      -1.169   6.135  10.611  1.00  0.00     0.021 C 
HETATM    6  C14 UNL     1      -2.351   5.475  12.637  1.00  0.00    -0.000 C 
HETATM    7  C15 UNL     1      -3.115   6.469  13.165  1.00  0.00    -0.060 C 
HETATM    8  C16 UNL     1      -2.563   7.895  13.297  1.00  0.00     0.036 C 
HETATM    9  C17 UNL     1      -1.098   8.142  12.885  1.00  0.00     0.015 C 
HETATM   10  C18 UNL     1      -0.253   6.869  12.999  1.00  0.00    -0.028 C 
HETATM   11  C19 UNL     1      -0.163   6.474  14.501  1.00  0.00     0.016 C 
HETATM   12  C20 UNL     1      -4.545   6.226  13.721  1.00  0.00    -0.014 C 
HETATM   13  C21 UNL     1      -4.367   5.984  15.238  1.00  0.00     0.020 C 
HETATM   14  C22 UNL     1      -5.467   7.452  13.496  1.00  0.00     0.021 C 
HETATM   15  C23 UNL     1      -6.909   7.213  13.911  1.00  0.00     0.080 C 
HETATM   16  C24 UNL     1      -7.495   6.032  13.178  1.00  0.00     0.135 C 
HETATM   17  O4  UNL     1      -8.621   6.118  12.684  1.00  0.00    -0.297 OA
HETATM   18  C25 UNL     1      -6.698   4.719  13.182  1.00  0.00     0.018 C 
HETATM   19  C26 UNL     1      -7.230   3.847  12.016  1.00  0.00     0.023 C 
HETATM   20  C27 UNL     1      -7.018   3.973  14.486  1.00  0.00     0.023 C 
HETATM   21  C28 UNL     1      -5.177   5.023  12.941  1.00  0.00     0.020 C 
HETATM   22  C29 UNL     1      -4.275   3.791  13.063  1.00  0.00     0.090 C 
HETATM   23  C30 UNL     1      -2.892   4.081  12.530  1.00  0.00     0.157 C 
HETATM   24  O5  UNL     1      -2.225   3.172  12.041  1.00  0.00    -0.293 OA
ENDROOT
BRANCH   1  25
HETATM   25  C2  UNL     1       2.370   7.687  13.009  1.00  0.00    -0.014 C 
HETATM   26  C1  UNL     1       2.156   9.171  13.331  1.00  0.00     0.010 C 
BRANCH  25  27
HETATM   27  C3  UNL     1       3.666   7.491  12.191  1.00  0.00     0.007 C 
BRANCH  27  28
HETATM   28  C4  UNL     1       3.819   8.335  10.916  1.00  0.00     0.035 C 
BRANCH  28  29
HETATM   29  C5  UNL     1       3.925   7.607   9.560  1.00  0.00     0.154 C 
BRANCH  29  30
HETATM   30  O1  UNL     1       4.237   6.235   9.817  1.00  0.00    -0.392 OA
HETATM   31  H10 UNL     1       4.152   5.748   8.973  1.00  0.00     0.210 HD
ENDBRANCH  29  30
BRANCH  29  32
HETATM   32  C6  UNL     1       2.724   7.785   8.568  1.00  0.00     0.101 C 
HETATM   33  C7  UNL     1       2.432   6.488   7.807  1.00  0.00     0.051 C 
BRANCH  32  34
HETATM   34  O2  UNL     1       3.007   8.827   7.618  1.00  0.00    -0.385 OA
HETATM   35  H14 UNL     1       2.337   8.795   6.916  1.00  0.00     0.210 HD
ENDBRANCH  32  34
BRANCH  32  36
HETATM   36  C8  UNL     1       1.456   8.233   9.329  1.00  0.00     0.204 C 
BRANCH  36  37
HETATM   37  O3  UNL     1       0.596   8.969   8.453  1.00  0.00    -0.398 OA
HETATM   38  H17 UNL     1       0.539   8.429   7.635  1.00  0.00     0.209 HD
ENDBRANCH  36  37
ENDBRANCH  32  36
ENDBRANCH  29  32
ENDBRANCH  28  29
ENDBRANCH  27  28
ENDBRANCH  25  27
ENDBRANCH   1  25
TORSDOF 9
ENDMDL
MODEL 3
REMARK minimizedAffinity -9.13704491
REMARK  9 active torsions:
REMARK  status: ('A' for Active; 'I' for Inactive)
REMARK    1  A    between atoms: C2_2  and  C3_3 
REMARK    2  A    between atoms: C2_2  and  C9_12 
REMARK    3  A    between atoms: C3_3  and  C4_4 
REMARK    4  A    between atoms: C4_4  and  C5_5 
REMARK    5  A    between atoms: C5_5  and  O1_6 
REMARK    6  A    between atoms: C5_5  and  C6_7 
REMARK    7  A    between atoms: C6_7  and  O2_9 
REMARK    8  A    between atoms: C6_7  and  C8_10 
REMARK    9  A    between atoms: C8_10  and  O3_11 
ROOT
HETATM    1  C9  UNL     1      -2.820   8.419  15.299  1.00  0.00    -0.002 C 
HETATM    2  C10 UNL     1      -1.765   7.981  16.351  1.00  0.00     0.007 C 
HETATM    3  C11 UNL     1      -0.448   7.729  15.592  1.00  0.00     0.015 C 
HETATM    4  C12 UNL     1      -0.645   8.385  14.211  1.00  0.00    -0.005 C 
HETATM    5  C13 UNL     1      -0.344   9.907  14.384  1.00  0.00     0.021 C 
HETATM    6  C14 UNL     1       0.207   7.965  13.018  1.00  0.00    -0.000 C 
HETATM    7  C15 UNL     1      -0.277   8.041  11.749  1.00  0.00    -0.060 C 
HETATM    8  C16 UNL     1      -1.718   8.499  11.487  1.00  0.00     0.036 C 
HETATM    9  C17 UNL     1      -2.615   8.793  12.707  1.00  0.00     0.015 C 
HETATM   10  C18 UNL     1      -2.162   8.014  13.946  1.00  0.00    -0.028 C 
HETATM   11  C19 UNL     1      -2.376   6.496  13.675  1.00  0.00     0.016 C 
HETATM   12  C20 UNL     1       0.552   7.617  10.506  1.00  0.00    -0.014 C 
HETATM   13  C21 UNL     1       0.167   6.146  10.230  1.00  0.00     0.020 C 
HETATM   14  C22 UNL     1       0.214   8.483   9.266  1.00  0.00     0.021 C 
HETATM   15  C23 UNL     1       1.090   8.188   8.059  1.00  0.00     0.080 C 
HETATM   16  C24 UNL     1       2.549   8.375   8.391  1.00  0.00     0.135 C 
HETATM   17  O4  UNL     1       3.278   8.990   7.610  1.00  0.00    -0.297 OA
HETATM   18  C25 UNL     1       3.093   7.681   9.649  1.00  0.00     0.018 C 
HETATM   19  C26 UNL     1       4.421   8.384  10.032  1.00  0.00     0.023 C 
HETATM   20  C27 UNL     1       3.442   6.231   9.278  1.00  0.00     0.023 C 
HETATM   21  C28 UNL     1       2.069   7.843  10.828  1.00  0.00     0.020 C 
HETATM   22  C29 UNL     1       2.455   7.068  12.091  1.00  0.00     0.090 C 
HETATM   23  C30 UNL     1       1.610   7.498  13.266  1.00  0.00     0.157 C 
HETATM   24  O5  UNL     1       2.073   7.438  14.403  1.00  0.00    -0.293 OA
ENDROOT
BRANCH   1  25
HETATM   25  C2  UNL     1      -4.284   8.049  15.692  1.00  0.00    -0.014 C 
HETATM   26  C1  UNL     1      -4.614   6.556  15.814  1.00  0.00     0.010 C 
BRANCH  25  27
HETATM   27  C3  UNL     1      -5.310   8.759  14.782  1.00  0.00     0.007 C 
BRANCH  27  28
HETATM   28  C4  UNL     1      -6.549   7.951  14.366  1.00  0.00     0.035 C 
BRANCH  28  29
HETATM   29  C5  UNL     1      -7.847   8.120  15.182  1.00  0.00     0.154 C 
BRANCH  29  30
HETATM   30  O1  UNL     1      -8.242   9.493  15.106  1.00  0.00    -0.392 OA
HETATM   31  H10 UNL     1      -9.138   9.566  15.491  1.00  0.00     0.210 HD
ENDBRANCH  29  30
BRANCH  29  32
HETATM   32  C6  UNL     1      -9.017   7.129  14.861  1.00  0.00     0.101 C 
HETATM   33  C7  UNL     1     -10.303   7.881  14.502  1.00  0.00     0.051 C 
BRANCH  32  34
HETATM   34  O2  UNL     1      -9.278   6.277  15.990  1.00  0.00    -0.385 OA
HETATM   35  H14 UNL     1     -10.112   5.804  15.833  1.00  0.00     0.210 HD
ENDBRANCH  32  34
BRANCH  32  36
HETATM   36  C8  UNL     1      -8.627   6.190  13.697  1.00  0.00     0.204 C 
BRANCH  36  37
HETATM   37  O3  UNL     1      -8.482   4.850  14.180  1.00  0.00    -0.398 OA
HETATM   38  H17 UNL     1      -9.281   4.685  14.725  1.00  0.00     0.209 HD
ENDBRANCH  36  37
ENDBRANCH  32  36
ENDBRANCH  29  32
ENDBRANCH  28  29
ENDBRANCH  27  28
ENDBRANCH  25  27
ENDBRANCH   1  25
TORSDOF 9
ENDMDL
MODEL 4
REMARK minimizedAffinity -9.08874226
REMARK  9 active torsions:
REMARK  status: ('A' for Active; 'I' for Inactive)
REMARK    1  A    between atoms: C2_2  and  C3_3 
REMARK    2  A    between atoms: C2_2  and  C9_12 
REMARK    3  A    between atoms: C3_3  and  C4_4 
REMARK    4  A    between atoms: C4_4  and  C5_5 
REMARK    5  A    between atoms: C5_5  and  O1_6 
REMARK    6  A    between atoms: C5_5  and  C6_7 
REMARK    7  A    between atoms: C6_7  and  O2_9 
REMARK    8  A    between atoms: C6_7  and  C8_10 
REMARK    9  A    between atoms: C8_10  and  O3_11 
ROOT
HETATM    1  C9  UNL     1      -3.397   3.698  12.285  1.00  0.00    -0.002 C 
HETATM    2  C10 UNL     1      -2.972   3.675  10.791  1.00  0.00     0.007 C 
HETATM    3  C11 UNL     1      -1.696   4.531  10.672  1.00  0.00     0.015 C 
HETATM    4  C12 UNL     1      -1.191   4.708  12.118  1.00  0.00    -0.005 C 
HETATM    5  C13 UNL     1      -0.385   3.421  12.479  1.00  0.00     0.021 C 
HETATM    6  C14 UNL     1      -0.254   5.855  12.482  1.00  0.00    -0.000 C 
HETATM    7  C15 UNL     1      -0.259   6.394  13.731  1.00  0.00    -0.060 C 
HETATM    8  C16 UNL     1      -1.251   5.902  14.793  1.00  0.00     0.036 C 
HETATM    9  C17 UNL     1      -2.285   4.837  14.375  1.00  0.00     0.015 C 
HETATM   10  C18 UNL     1      -2.573   4.884  12.871  1.00  0.00    -0.028 C 
HETATM   11  C19 UNL     1      -3.272   6.237  12.549  1.00  0.00     0.016 C 
HETATM   12  C20 UNL     1       0.673   7.567  14.144  1.00  0.00    -0.014 C 
HETATM   13  C21 UNL     1      -0.155   8.855  13.924  1.00  0.00     0.020 C 
HETATM   14  C22 UNL     1       1.095   7.470  15.632  1.00  0.00     0.021 C 
HETATM   15  C23 UNL     1       2.106   8.526  16.048  1.00  0.00     0.080 C 
HETATM   16  C24 UNL     1       3.346   8.455  15.192  1.00  0.00     0.135 C 
HETATM   17  O4  UNL     1       4.457   8.506  15.724  1.00  0.00    -0.297 OA
HETATM   18  C25 UNL     1       3.164   8.439  13.667  1.00  0.00     0.018 C 
HETATM   19  C26 UNL     1       4.477   7.892  13.047  1.00  0.00     0.023 C 
HETATM   20  C27 UNL     1       3.012   9.891  13.192  1.00  0.00     0.023 C 
HETATM   21  C28 UNL     1       1.981   7.481  13.285  1.00  0.00     0.020 C 
HETATM   22  C29 UNL     1       1.629   7.499  11.795  1.00  0.00     0.090 C 
HETATM   23  C30 UNL     1       0.706   6.355  11.446  1.00  0.00     0.157 C 
HETATM   24  O5  UNL     1       0.740   5.870  10.317  1.00  0.00    -0.293 OA
ENDROOT
BRANCH   1  25
HETATM   25  C2  UNL     1      -4.932   3.524  12.499  1.00  0.00    -0.014 C 
HETATM   26  C1  UNL     1      -5.748   3.021  11.302  1.00  0.00     0.010 C 
BRANCH  25  27
HETATM   27  C3  UNL     1      -5.568   4.801  13.091  1.00  0.00     0.007 C 
BRANCH  27  28
HETATM   28  C4  UNL     1      -7.095   4.937  12.975  1.00  0.00     0.035 C 
BRANCH  28  29
HETATM   29  C5  UNL     1      -7.826   5.878  13.954  1.00  0.00     0.154 C 
BRANCH  29  30
HETATM   30  O1  UNL     1      -9.231   5.776  13.701  1.00  0.00    -0.392 OA
HETATM   31  H10 UNL     1      -9.697   6.251  14.417  1.00  0.00     0.210 HD
ENDBRANCH  29  30
BRANCH  29  32
HETATM   32  C6  UNL     1      -7.468   5.734  15.472  1.00  0.00     0.101 C 
HETATM   33  C7  UNL     1      -5.976   5.979  15.719  1.00  0.00     0.051 C 
BRANCH  32  34
HETATM   34  O2  UNL     1      -7.807   4.420  15.946  1.00  0.00    -0.385 OA
HETATM   35  H14 UNL     1      -7.416   4.298  16.827  1.00  0.00     0.210 HD
ENDBRANCH  32  34
BRANCH  32  36
HETATM   36  C8  UNL     1      -8.299   6.723  16.321  1.00  0.00     0.204 C 
BRANCH  36  37
HETATM   37  O3  UNL     1      -7.537   7.155  17.452  1.00  0.00    -0.398 OA
HETATM   38  H17 UNL     1      -6.658   7.403  17.091  1.00  0.00     0.209 HD
ENDBRANCH  36  37
ENDBRANCH  32  36
ENDBRANCH  29  32
ENDBRANCH  28  29
ENDBRANCH  27  28
ENDBRANCH  25  27
ENDBRANCH   1  25
TORSDOF 9
ENDMDL
MODEL 5
REMARK minimizedAffinity -9.0700798
REMARK  9 active torsions:
REMARK  status: ('A' for Active; 'I' for Inactive)
REMARK    1  A    between atoms: C2_2  and  C3_3 
REMARK    2  A    between atoms: C2_2  and  C9_12 
REMARK    3  A    between atoms: C3_3  and  C4_4 
REMARK    4  A    between atoms: C4_4  and  C5_5 
REMARK    5  A    between atoms: C5_5  and  O1_6 
REMARK    6  A    between atoms: C5_5  and  C6_7 
REMARK    7  A    between atoms: C6_7  and  O2_9 
REMARK    8  A    between atoms: C6_7  and  C8_10 
REMARK    9  A    between atoms: C8_10  and  O3_11 
ROOT
HETATM    1  C9  UNL     1      -2.129   5.878  13.395  1.00  0.00    -0.002 C 
HETATM    2  C10 UNL     1      -2.234   5.289  11.962  1.00  0.00     0.007 C 
HETATM    3  C11 UNL     1      -0.847   5.439  11.309  1.00  0.00     0.015 C 
HETATM    4  C12 UNL     1       0.118   5.743  12.473  1.00  0.00    -0.005 C 
HETATM    5  C13 UNL     1       0.489   4.375  13.126  1.00  0.00     0.021 C 
HETATM    6  C14 UNL     1       1.462   6.417  12.218  1.00  0.00    -0.000 C 
HETATM    7  C15 UNL     1       2.041   7.206  13.162  1.00  0.00    -0.060 C 
HETATM    8  C16 UNL     1       1.329   7.488  14.491  1.00  0.00     0.036 C 
HETATM    9  C17 UNL     1      -0.089   6.913  14.686  1.00  0.00     0.015 C 
HETATM   10  C18 UNL     1      -0.801   6.692  13.348  1.00  0.00    -0.028 C 
HETATM   11  C19 UNL     1      -1.042   8.080  12.687  1.00  0.00     0.016 C 
HETATM   12  C20 UNL     1       3.405   7.917  12.942  1.00  0.00    -0.014 C 
HETATM   13  C21 UNL     1       3.059   9.331  12.422  1.00  0.00     0.020 C 
HETATM   14  C22 UNL     1       4.213   8.033  14.260  1.00  0.00     0.021 C 
HETATM   15  C23 UNL     1       5.607   8.608  14.072  1.00  0.00     0.080 C 
HETATM   16  C24 UNL     1       6.404   7.786  13.091  1.00  0.00     0.135 C 
HETATM   17  O4  UNL     1       7.569   7.482  13.355  1.00  0.00    -0.297 OA
HETATM   18  C25 UNL     1       5.757   7.458  11.737  1.00  0.00     0.018 C 
HETATM   19  C26 UNL     1       6.526   6.255  11.131  1.00  0.00     0.023 C 
HETATM   20  C27 UNL     1       5.983   8.655  10.800  1.00  0.00     0.023 C 
HETATM   21  C28 UNL     1       4.256   7.051  11.952  1.00  0.00     0.020 C 
HETATM   22  C29 UNL     1       3.482   6.836  10.648  1.00  0.00     0.090 C 
HETATM   23  C30 UNL     1       2.157   6.162  10.914  1.00  0.00     0.157 C 
HETATM   24  O5  UNL     1       1.659   5.439  10.054  1.00  0.00    -0.293 OA
ENDROOT
BRANCH   1  25
HETATM   25  C2  UNL     1      -3.476   6.453  13.933  1.00  0.00    -0.014 C 
HETATM   26  C1  UNL     1      -3.784   6.225  15.418  1.00  0.00     0.010 C 
BRANCH  25  27
HETATM   27  C3  UNL     1      -4.668   6.012  13.057  1.00  0.00     0.007 C 
BRANCH  27  28
HETATM   28  C4  UNL     1      -5.202   4.586  13.273  1.00  0.00     0.035 C 
BRANCH  28  29
HETATM   29  C5  UNL     1      -6.491   4.164  12.540  1.00  0.00     0.154 C 
BRANCH  29  30
HETATM   30  O1  UNL     1      -6.297   2.842  12.029  1.00  0.00    -0.392 OA
HETATM   31  H10 UNL     1      -7.161   2.520  11.702  1.00  0.00     0.210 HD
ENDBRANCH  29  30
BRANCH  29  32
HETATM   32  C6  UNL     1      -7.835   4.322  13.330  1.00  0.00     0.101 C 
HETATM   33  C7  UNL     1      -7.586   4.451  14.836  1.00  0.00     0.051 C 
BRANCH  32  34
HETATM   34  O2  UNL     1      -8.691   3.190  13.097  1.00  0.00    -0.385 OA
HETATM   35  H14 UNL     1      -9.429   3.225  13.728  1.00  0.00     0.210 HD
ENDBRANCH  32  34
BRANCH  32  36
HETATM   36  C8  UNL     1      -8.615   5.558  12.829  1.00  0.00     0.204 C 
BRANCH  36  37
HETATM   37  O3  UNL     1      -9.470   6.049  13.866  1.00  0.00    -0.398 OA
HETATM   38  H17 UNL     1      -8.905   6.090  14.668  1.00  0.00     0.209 HD
ENDBRANCH  36  37
ENDBRANCH  32  36
ENDBRANCH  29  32
ENDBRANCH  28  29
ENDBRANCH  27  28
ENDBRANCH  25  27
ENDBRANCH   1  25
TORSDOF 9
ENDMDL
MODEL 6
REMARK minimizedAffinity -9.04829407
REMARK  9 active torsions:
REMARK  status: ('A' for Active; 'I' for Inactive)
REMARK    1  A    between atoms: C2_2  and  C3_3 
REMARK    2  A    between atoms: C2_2  and  C9_12 
REMARK    3  A    between atoms: C3_3  and  C4_4 
REMARK    4  A    between atoms: C4_4  and  C5_5 
REMARK    5  A    between atoms: C5_5  and  O1_6 
REMARK    6  A    between atoms: C5_5  and  C6_7 
REMARK    7  A    between atoms: C6_7  and  O2_9 
REMARK    8  A    between atoms: C6_7  and  C8_10 
REMARK    9  A    between atoms: C8_10  and  O3_11 
ROOT
HETATM    1  C9  UNL     1      -2.770   4.791  12.948  1.00  0.00    -0.002 C 
HETATM    2  C10 UNL     1      -2.672   4.450  11.436  1.00  0.00     0.007 C 
HETATM    3  C11 UNL     1      -1.288   4.926  10.955  1.00  0.00     0.015 C 
HETATM    4  C12 UNL     1      -0.474   5.170  12.242  1.00  0.00    -0.005 C 
HETATM    5  C13 UNL     1       0.077   3.785  12.701  1.00  0.00     0.021 C 
HETATM    6  C14 UNL     1       0.750   6.079  12.230  1.00  0.00    -0.000 C 
HETATM    7  C15 UNL     1       1.118   6.773  13.341  1.00  0.00    -0.060 C 
HETATM    8  C16 UNL     1       0.277   6.706  14.622  1.00  0.00     0.036 C 
HETATM    9  C17 UNL     1      -1.033   5.891  14.582  1.00  0.00     0.015 C 
HETATM   10  C18 UNL     1      -1.600   5.798  13.162  1.00  0.00    -0.028 C 
HETATM   11  C19 UNL     1      -2.028   7.225  12.711  1.00  0.00     0.016 C 
HETATM   12  C20 UNL     1       2.353   7.715  13.372  1.00  0.00    -0.014 C 
HETATM   13  C21 UNL     1       1.809   9.127  13.053  1.00  0.00     0.020 C 
HETATM   14  C22 UNL     1       3.034   7.725  14.765  1.00  0.00     0.021 C 
HETATM   15  C23 UNL     1       4.319   8.536  14.809  1.00  0.00     0.080 C 
HETATM   16  C24 UNL     1       5.313   8.030  13.792  1.00  0.00     0.135 C 
HETATM   17  O4  UNL     1       6.491   7.871  14.118  1.00  0.00    -0.297 OA
HETATM   18  C25 UNL     1       4.828   7.846  12.346  1.00  0.00     0.018 C 
HETATM   19  C26 UNL     1       5.831   6.901  11.636  1.00  0.00     0.023 C 
HETATM   20  C27 UNL     1       4.913   9.207  11.640  1.00  0.00     0.023 C 
HETATM   21  C28 UNL     1       3.408   7.178  12.346  1.00  0.00     0.020 C 
HETATM   22  C29 UNL     1       2.775   7.074  10.955  1.00  0.00     0.090 C 
HETATM   23  C30 UNL     1       1.569   6.166  10.978  1.00  0.00     0.157 C 
HETATM   24  O5  UNL     1       1.264   5.535   9.969  1.00  0.00    -0.293 OA
ENDROOT
BRANCH   1  25
HETATM   25  C2  UNL     1      -4.230   5.047  13.436  1.00  0.00    -0.014 C 
HETATM   26  C1  UNL     1      -5.328   4.161  12.835  1.00  0.00     0.010 C 
BRANCH  25  27
HETATM   27  C3  UNL     1      -4.612   6.539  13.318  1.00  0.00     0.007 C 
BRANCH  27  28
HETATM   28  C4  UNL     1      -6.018   6.938  13.793  1.00  0.00     0.035 C 
BRANCH  28  29
HETATM   29  C5  UNL     1      -6.463   6.521  15.209  1.00  0.00     0.154 C 
BRANCH  29  30
HETATM   30  O1  UNL     1      -5.987   7.507  16.131  1.00  0.00    -0.392 OA
HETATM   31  H10 UNL     1      -6.398   7.324  16.999  1.00  0.00     0.210 HD
ENDBRANCH  29  30
BRANCH  29  32
HETATM   32  C6  UNL     1      -7.982   6.187  15.402  1.00  0.00     0.101 C 
HETATM   33  C7  UNL     1      -8.665   7.205  16.321  1.00  0.00     0.051 C 
BRANCH  32  34
HETATM   34  O2  UNL     1      -8.140   4.874  15.966  1.00  0.00    -0.385 OA
HETATM   35  H14 UNL     1      -9.066   4.764  16.239  1.00  0.00     0.210 HD
ENDBRANCH  32  34
BRANCH  32  36
HETATM   36  C8  UNL     1      -8.706   6.157  14.037  1.00  0.00     0.204 C 
BRANCH  36  37
HETATM   37  O3  UNL     1      -8.779   4.812  13.554  1.00  0.00    -0.398 OA
HETATM   38  H17 UNL     1      -9.099   4.281  14.315  1.00  0.00     0.209 HD
ENDBRANCH  36  37
ENDBRANCH  32  36
ENDBRANCH  29  32
ENDBRANCH  28  29
ENDBRANCH  27  28
ENDBRANCH  25  27
ENDBRANCH   1  25
TORSDOF 9
ENDMDL
MODEL 7
REMARK minimizedAffinity -8.98227215
REMARK  9 active torsions:
REMARK  status: ('A' for Active; 'I' for Inactive)
REMARK    1  A    between atoms: C2_2  and  C3_3 
REMARK    2  A    between atoms: C2_2  and  C9_12 
REMARK    3  A    between atoms: C3_3  and  C4_4 
REMARK    4  A    between atoms: C4_4  and  C5_5 
REMARK    5  A    between atoms: C5_5  and  O1_6 
REMARK    6  A    between atoms: C5_5  and  C6_7 
REMARK    7  A    between atoms: C6_7  and  O2_9 
REMARK    8  A    between atoms: C6_7  and  C8_10 
REMARK    9  A    between atoms: C8_10  and  O3_11 
ROOT
HETATM    1  C9  UNL     1      -2.659   4.619  12.867  1.00  0.00    -0.002 C 
HETATM    2  C10 UNL     1      -1.605   4.965  11.779  1.00  0.00     0.007 C 
HETATM    3  C11 UNL     1      -0.940   6.290  12.200  1.00  0.00     0.015 C 
HETATM    4  C12 UNL     1      -1.326   6.484  13.681  1.00  0.00    -0.005 C 
HETATM    5  C13 UNL     1      -0.332   5.627  14.526  1.00  0.00     0.021 C 
HETATM    6  C14 UNL     1      -1.277   7.864  14.326  1.00  0.00    -0.000 C 
HETATM    7  C15 UNL     1      -2.114   8.191  15.347  1.00  0.00    -0.060 C 
HETATM    8  C16 UNL     1      -3.172   7.196  15.841  1.00  0.00     0.036 C 
HETATM    9  C17 UNL     1      -3.304   5.853  15.094  1.00  0.00     0.015 C 
HETATM   10  C18 UNL     1      -2.820   5.960  13.644  1.00  0.00    -0.028 C 
HETATM   11  C19 UNL     1      -3.779   6.916  12.877  1.00  0.00     0.016 C 
HETATM   12  C20 UNL     1      -2.104   9.587  16.028  1.00  0.00    -0.014 C 
HETATM   13  C21 UNL     1      -3.183  10.417  15.295  1.00  0.00     0.020 C 
HETATM   14  C22 UNL     1      -2.457   9.495  17.535  1.00  0.00     0.021 C 
HETATM   15  C23 UNL     1      -2.338  10.819  18.271  1.00  0.00     0.080 C 
HETATM   16  C24 UNL     1      -0.948  11.389  18.138  1.00  0.00     0.135 C 
HETATM   17  O4  UNL     1      -0.376  11.842  19.132  1.00  0.00    -0.297 OA
HETATM   18  C25 UNL     1      -0.345  11.487  16.728  1.00  0.00     0.018 C 
HETATM   19  C26 UNL     1       1.191  11.632  16.887  1.00  0.00     0.023 C 
HETATM   20  C27 UNL     1      -0.856  12.784  16.082  1.00  0.00     0.023 C 
HETATM   21  C28 UNL     1      -0.654  10.173  15.928  1.00  0.00     0.020 C 
HETATM   22  C29 UNL     1      -0.214  10.224  14.462  1.00  0.00     0.090 C 
HETATM   23  C30 UNL     1      -0.259   8.850  13.837  1.00  0.00     0.157 C 
HETATM   24  O5  UNL     1       0.518   8.570  12.927  1.00  0.00    -0.293 OA
ENDROOT
BRANCH   1  25
HETATM   25  C2  UNL     1      -3.861   3.784  12.326  1.00  0.00    -0.014 C 
HETATM   26  C1  UNL     1      -4.003   3.677  10.803  1.00  0.00     0.010 C 
BRANCH  25  27
HETATM   27  C3  UNL     1      -5.193   4.232  12.966  1.00  0.00     0.007 C 
BRANCH  27  28
HETATM   28  C4  UNL     1      -6.485   3.838  12.233  1.00  0.00     0.035 C 
BRANCH  28  29
HETATM   29  C5  UNL     1      -7.826   4.394  12.754  1.00  0.00     0.154 C 
BRANCH  29  30
HETATM   30  O1  UNL     1      -8.568   3.307  13.314  1.00  0.00    -0.392 OA
HETATM   31  H10 UNL     1      -9.343   3.683  13.778  1.00  0.00     0.210 HD
ENDBRANCH  29  30
BRANCH  29  32
HETATM   32  C6  UNL     1      -7.752   5.637  13.706  1.00  0.00     0.101 C 
HETATM   33  C7  UNL     1      -9.134   6.265  13.911  1.00  0.00     0.051 C 
BRANCH  32  34
HETATM   34  O2  UNL     1      -6.866   6.632  13.166  1.00  0.00    -0.385 OA
HETATM   35  H14 UNL     1      -6.976   7.452  13.674  1.00  0.00     0.210 HD
ENDBRANCH  32  34
BRANCH  32  36
HETATM   36  C8  UNL     1      -7.160   5.234  15.076  1.00  0.00     0.204 C 
BRANCH  36  37
HETATM   37  O3  UNL     1      -8.187   4.684  15.908  1.00  0.00    -0.398 OA
HETATM   38  H17 UNL     1      -8.656   4.034  15.342  1.00  0.00     0.209 HD
ENDBRANCH  36  37
ENDBRANCH  32  36
ENDBRANCH  29  32
ENDBRANCH  28  29
ENDBRANCH  27  28
ENDBRANCH  25  27
ENDBRANCH   1  25
TORSDOF 9
ENDMDL
MODEL 8
REMARK minimizedAffinity -8.62773418
REMARK  9 active torsions:
REMARK  status: ('A' for Active; 'I' for Inactive)
REMARK    1  A    between atoms: C2_2  and  C3_3 
REMARK    2  A    between atoms: C2_2  and  C9_12 
REMARK    3  A    between atoms: C3_3  and  C4_4 
REMARK    4  A    between atoms: C4_4  and  C5_5 
REMARK    5  A    between atoms: C5_5  and  O1_6 
REMARK    6  A    between atoms: C5_5  and  C6_7 
REMARK    7  A    between atoms: C6_7  and  O2_9 
REMARK    8  A    between atoms: C6_7  and  C8_10 
REMARK    9  A    between atoms: C8_10  and  O3_11 
ROOT
HETATM    1  C9  UNL     1      -3.664   5.952  13.299  1.00  0.00    -0.002 C 
HETATM    2  C10 UNL     1      -2.483   6.093  12.301  1.00  0.00     0.007 C 
HETATM    3  C11 UNL     1      -1.678   7.336  12.728  1.00  0.00     0.015 C 
HETATM    4  C12 UNL     1      -2.159   7.659  14.156  1.00  0.00    -0.005 C 
HETATM    5  C13 UNL     1      -1.371   6.722  15.124  1.00  0.00     0.021 C 
HETATM    6  C14 UNL     1      -1.974   9.053  14.746  1.00  0.00    -0.000 C 
HETATM    7  C15 UNL     1      -2.842   9.544  15.672  1.00  0.00    -0.060 C 
HETATM    8  C16 UNL     1      -4.068   8.729  16.105  1.00  0.00     0.036 C 
HETATM    9  C17 UNL     1      -4.321   7.378  15.405  1.00  0.00     0.015 C 
HETATM   10  C18 UNL     1      -3.703   7.341  14.003  1.00  0.00    -0.028 C 
HETATM   11  C19 UNL     1      -4.450   8.376  13.112  1.00  0.00     0.016 C 
HETATM   12  C20 UNL     1      -2.696  10.960  16.293  1.00  0.00    -0.014 C 
HETATM   13  C21 UNL     1      -3.582  11.888  15.429  1.00  0.00     0.020 C 
HETATM   14  C22 UNL     1      -3.187  10.997  17.763  1.00  0.00     0.021 C 
HETATM   15  C23 UNL     1      -2.948  12.330  18.452  1.00  0.00     0.080 C 
HETATM   16  C24 UNL     1      -1.486  12.699  18.425  1.00  0.00     0.135 C 
HETATM   17  O4  UNL     1      -0.945  13.122  19.449  1.00  0.00    -0.297 OA
HETATM   18  C25 UNL     1      -0.756  12.639  17.075  1.00  0.00     0.018 C 
HETATM   19  C26 UNL     1       0.766  12.583  17.369  1.00  0.00     0.023 C 
HETATM   20  C27 UNL     1      -1.023  13.957  16.332  1.00  0.00     0.023 C 
HETATM   21  C28 UNL     1      -1.176  11.338  16.304  1.00  0.00     0.020 C 
HETATM   22  C29 UNL     1      -0.607  11.251  14.884  1.00  0.00     0.090 C 
HETATM   23  C30 UNL     1      -0.790   9.864  14.314  1.00  0.00     0.157 C 
HETATM   24  O5  UNL     1       0.016   9.434  13.493  1.00  0.00    -0.293 OA
ENDROOT
BRANCH   1  25
HETATM   25  C2  UNL     1      -4.920   5.259  12.685  1.00  0.00    -0.014 C 
HETATM   26  C1  UNL     1      -6.129   5.068  13.608  1.00  0.00     0.010 C 
BRANCH  25  27
HETATM   27  C3  UNL     1      -4.550   3.929  11.993  1.00  0.00     0.007 C 
BRANCH  27  28
HETATM   28  C4  UNL     1      -3.444   3.087  12.649  1.00  0.00     0.035 C 
BRANCH  28  29
HETATM   29  C5  UNL     1      -2.915   1.850  11.895  1.00  0.00     0.154 C 
BRANCH  29  30
HETATM   30  O1  UNL     1      -4.015   1.245  11.210  1.00  0.00    -0.392 OA
HETATM   31  H10 UNL     1      -3.653   0.559  10.614  1.00  0.00     0.210 HD
ENDBRANCH  29  30
BRANCH  29  32
HETATM   32  C6  UNL     1      -1.666   2.067  10.973  1.00  0.00     0.101 C 
HETATM   33  C7  UNL     1      -0.653   3.017  11.619  1.00  0.00     0.051 C 
BRANCH  32  34
HETATM   34  O2  UNL     1      -2.067   2.610   9.703  1.00  0.00    -0.385 OA
HETATM   35  H14 UNL     1      -1.272   2.900   9.226  1.00  0.00     0.210 HD
ENDBRANCH  32  34
BRANCH  32  36
HETATM   36  C8  UNL     1      -0.982   0.716  10.663  1.00  0.00     0.204 C 
BRANCH  36  37
HETATM   37  O3  UNL     1      -0.624   0.657   9.278  1.00  0.00    -0.398 OA
HETATM   38  H17 UNL     1      -0.179   1.512   9.090  1.00  0.00     0.209 HD
ENDBRANCH  36  37
ENDBRANCH  32  36
ENDBRANCH  29  32
ENDBRANCH  28  29
ENDBRANCH  27  28
ENDBRANCH  25  27
ENDBRANCH   1  25
TORSDOF 9
ENDMDL
MODEL 9
REMARK minimizedAffinity -8.59979439
REMARK  9 active torsions:
REMARK  status: ('A' for Active; 'I' for Inactive)
REMARK    1  A    between atoms: C2_2  and  C3_3 
REMARK    2  A    between atoms: C2_2  and  C9_12 
REMARK    3  A    between atoms: C3_3  and  C4_4 
REMARK    4  A    between atoms: C4_4  and  C5_5 
REMARK    5  A    between atoms: C5_5  and  O1_6 
REMARK    6  A    between atoms: C5_5  and  C6_7 
REMARK    7  A    between atoms: C6_7  and  O2_9 
REMARK    8  A    between atoms: C6_7  and  C8_10 
REMARK    9  A    between atoms: C8_10  and  O3_11 
ROOT
HETATM    1  C9  UNL     1      -6.297   6.985  14.113  1.00  0.00    -0.002 C 
HETATM    2  C10 UNL     1      -6.288   8.279  14.972  1.00  0.00     0.007 C 
HETATM    3  C11 UNL     1      -4.829   8.773  15.028  1.00  0.00     0.015 C 
HETATM    4  C12 UNL     1      -4.097   8.003  13.910  1.00  0.00    -0.005 C 
HETATM    5  C13 UNL     1      -4.382   8.760  12.575  1.00  0.00     0.021 C 
HETATM    6  C14 UNL     1      -2.581   7.841  13.937  1.00  0.00    -0.000 C 
HETATM    7  C15 UNL     1      -1.982   6.754  13.379  1.00  0.00    -0.060 C 
HETATM    8  C16 UNL     1      -2.821   5.631  12.757  1.00  0.00     0.036 C 
HETATM    9  C17 UNL     1      -4.357   5.738  12.855  1.00  0.00     0.015 C 
HETATM   10  C18 UNL     1      -4.792   6.586  14.055  1.00  0.00    -0.028 C 
HETATM   11  C19 UNL     1      -4.380   5.839  15.357  1.00  0.00     0.016 C 
HETATM   12  C20 UNL     1      -0.443   6.545  13.389  1.00  0.00    -0.014 C 
HETATM   13  C21 UNL     1      -0.148   5.677  14.635  1.00  0.00     0.020 C 
HETATM   14  C22 UNL     1       0.046   5.808  12.116  1.00  0.00     0.021 C 
HETATM   15  C23 UNL     1       1.559   5.692  12.023  1.00  0.00     0.080 C 
HETATM   16  C24 UNL     1       2.210   7.052  12.070  1.00  0.00     0.135 C 
HETATM   17  O4  UNL     1       3.107   7.326  11.270  1.00  0.00    -0.297 OA
HETATM   18  C25 UNL     1       1.800   8.004  13.204  1.00  0.00     0.018 C 
HETATM   19  C26 UNL     1       2.210   9.438  12.779  1.00  0.00     0.023 C 
HETATM   20  C27 UNL     1       2.631   7.647  14.447  1.00  0.00     0.023 C 
HETATM   21  C28 UNL     1       0.244   7.953  13.401  1.00  0.00     0.020 C 
HETATM   22  C29 UNL     1      -0.253   8.766  14.601  1.00  0.00     0.090 C 
HETATM   23  C30 UNL     1      -1.754   8.925  14.559  1.00  0.00     0.157 C 
HETATM   24  O5  UNL     1      -2.273   9.923  15.053  1.00  0.00    -0.293 OA
ENDROOT
BRANCH   1  25
HETATM   25  C2  UNL     1      -7.439   5.992  14.495  1.00  0.00    -0.014 C 
HETATM   26  C1  UNL     1      -8.082   6.172  15.875  1.00  0.00     0.010 C 
BRANCH  25  27
HETATM   27  C3  UNL     1      -7.005   4.525  14.286  1.00  0.00     0.007 C 
BRANCH  27  28
HETATM   28  C4  UNL     1      -7.201   3.934  12.880  1.00  0.00     0.035 C 
BRANCH  28  29
HETATM   29  C5  UNL     1      -6.771   2.474  12.629  1.00  0.00     0.154 C 
BRANCH  29  30
HETATM   30  O1  UNL     1      -7.953   1.689  12.450  1.00  0.00    -0.392 OA
HETATM   31  H10 UNL     1      -7.677   0.803  12.141  1.00  0.00     0.210 HD
ENDBRANCH  29  30
BRANCH  29  32
HETATM   32  C6  UNL     1      -5.704   2.236  11.507  1.00  0.00     0.101 C 
HETATM   33  C7  UNL     1      -5.756   3.338  10.444  1.00  0.00     0.051 C 
BRANCH  32  34
HETATM   34  O2  UNL     1      -5.920   0.966  10.869  1.00  0.00    -0.385 OA
HETATM   35  H14 UNL     1      -5.368   0.923  10.070  1.00  0.00     0.210 HD
ENDBRANCH  32  34
BRANCH  32  36
HETATM   36  C8  UNL     1      -4.284   2.173  12.114  1.00  0.00     0.204 C 
BRANCH  36  37
HETATM   37  O3  UNL     1      -3.502   1.192  11.426  1.00  0.00    -0.398 OA
HETATM   38  H17 UNL     1      -3.643   1.374  10.471  1.00  0.00     0.209 HD
ENDBRANCH  36  37
ENDBRANCH  32  36
ENDBRANCH  29  32
ENDBRANCH  28  29
ENDBRANCH  27  28
ENDBRANCH  25  27
ENDBRANCH   1  25
TORSDOF 9
ENDMDL
