MODEL 1
REMARK minimizedAffinity -9.17122078
REMARK  6 active torsions:
REMARK  status: ('A' for Active; 'I' for Inactive)
REMARK    1  A    between atoms: C2_2  and  C30_32 
REMARK    2  A    between atoms: C3_3  and  C4_4 
REMARK    3  A    between atoms: C4_4  and  C5_5 
REMARK    4  A    between atoms: C5_5  and  C6_6 
REMARK    5  A    between atoms: C6_6  and  C8_8 
REMARK    6  A    between atoms: C30_32  and  O4_34 
ROOT
HETATM    1  C8  UNL     1      -6.104   7.374  14.394  1.00  0.00    -0.002 C 
HETATM    2  C9  UNL     1      -5.774   8.685  15.168  1.00  0.00     0.007 C 
HETATM    3  C10 UNL     1      -4.267   8.954  15.012  1.00  0.00     0.015 C 
HETATM    4  C11 UNL     1      -3.811   8.019  13.878  1.00  0.00    -0.005 C 
HETATM    5  C12 UNL     1      -4.140   8.737  12.532  1.00  0.00     0.021 C 
HETATM    6  C13 UNL     1      -2.346   7.622  13.761  1.00  0.00    -0.000 C 
HETATM    7  C14 UNL     1      -1.975   6.436  13.215  1.00  0.00    -0.060 C 
HETATM    8  C15 UNL     1      -3.042   5.417  12.778  1.00  0.00     0.036 C 
HETATM    9  C16 UNL     1      -4.523   5.779  13.017  1.00  0.00     0.015 C 
HETATM   10  C17 UNL     1      -4.690   6.745  14.196  1.00  0.00    -0.028 C 
HETATM   11  C18 UNL     1      -4.263   6.014  15.509  1.00  0.00     0.016 C 
HETATM   12  C19 UNL     1      -0.501   6.005  13.023  1.00  0.00    -0.014 C 
HETATM   13  C20 UNL     1      -0.189   4.936  14.108  1.00  0.00     0.020 C 
HETATM   14  C21 UNL     1      -0.297   5.348  11.626  1.00  0.00     0.021 C 
HETATM   15  C22 UNL     1       1.131   5.458  11.120  1.00  0.00     0.080 C 
HETATM   16  C23 UNL     1       1.460   6.912  10.879  1.00  0.00     0.135 C 
HETATM   17  O1  UNL     1       2.150   7.236   9.911  1.00  0.00    -0.297 OA
HETATM   18  C24 UNL     1       0.917   7.944  11.888  1.00  0.00     0.018 C 
HETATM   19  C25 UNL     1       2.063   8.946  12.156  1.00  0.00     0.023 C 
HETATM   20  C26 UNL     1      -0.229   8.705  11.206  1.00  0.00     0.023 C 
HETATM   21  C27 UNL     1       0.523   7.188  13.210  1.00  0.00     0.020 C 
HETATM   22  C28 UNL     1       0.100   8.087  14.375  1.00  0.00     0.090 C 
HETATM   23  C29 UNL     1      -1.306   8.589  14.223  1.00  0.00     0.157 C 
HETATM   24  O2  UNL     1      -1.587   9.752  14.502  1.00  0.00    -0.293 OA
ENDROOT
BRANCH   1  25
HETATM   25  C6  UNL     1      -7.238   6.560  15.092  1.00  0.00    -0.014 C 
HETATM   26  C7  UNL     1      -7.273   6.800  16.605  1.00  0.00     0.010 C 
BRANCH  25  27
HETATM   27  C5  UNL     1      -7.065   5.044  14.798  1.00  0.00     0.008 C 
BRANCH  27  28
HETATM   28  C4  UNL     1      -7.812   4.562  13.547  1.00  0.00     0.028 C 
BRANCH  28  29
HETATM   29  C3  UNL     1      -6.853   4.073  12.496  1.00  0.00    -0.013 C 
HETATM   30  C2  UNL     1      -6.646   2.797  12.111  1.00  0.00     0.008 C 
HETATM   31  C1  UNL     1      -7.308   1.592  12.713  1.00  0.00     0.055 C 
BRANCH  30  32
HETATM   32  C30 UNL     1      -5.684   2.475  11.023  1.00  0.00     0.171 C 
HETATM   33  O3  UNL     1      -5.435   3.192  10.070  1.00  0.00    -0.646 OA
BRANCH  32  34
HETATM   34  O4  UNL     1      -5.077   1.285  11.162  1.00  0.00    -0.773 OA
HETATM   35  H44 UNL     1      -4.493   1.233  10.378  1.00  0.00     0.167 HD
ENDBRANCH  32  34
ENDBRANCH  30  32
ENDBRANCH  28  29
ENDBRANCH  27  28
ENDBRANCH  25  27
ENDBRANCH   1  25
TORSDOF 6
ENDMDL
MODEL 2
REMARK minimizedAffinity -8.92782211
REMARK  6 active torsions:
REMARK  status: ('A' for Active; 'I' for Inactive)
REMARK    1  A    between atoms: C2_2  and  C30_32 
REMARK    2  A    between atoms: C3_3  and  C4_4 
REMARK    3  A    between atoms: C4_4  and  C5_5 
REMARK    4  A    between atoms: C5_5  and  C6_6 
REMARK    5  A    between atoms: C6_6  and  C8_8 
REMARK    6  A    between atoms: C30_32  and  O4_34 
ROOT
HETATM    1  C8  UNL     1      -2.782   4.595  13.027  1.00  0.00    -0.002 C 
HETATM    2  C9  UNL     1      -1.825   4.981  11.860  1.00  0.00     0.007 C 
HETATM    3  C10 UNL     1      -1.206   6.349  12.196  1.00  0.00     0.015 C 
HETATM    4  C11 UNL     1      -1.522   6.575  13.684  1.00  0.00    -0.005 C 
HETATM    5  C12 UNL     1      -0.434   5.814  14.505  1.00  0.00     0.021 C 
HETATM    6  C13 UNL     1      -1.527   7.986  14.257  1.00  0.00    -0.000 C 
HETATM    7  C14 UNL     1      -2.310   8.319  15.314  1.00  0.00    -0.060 C 
HETATM    8  C15 UNL     1      -3.288   7.290  15.908  1.00  0.00     0.036 C 
HETATM    9  C16 UNL     1      -3.364   5.901  15.240  1.00  0.00     0.015 C 
HETATM   10  C17 UNL     1      -2.976   5.960  13.758  1.00  0.00    -0.028 C 
HETATM   11  C18 UNL     1      -4.042   6.806  12.993  1.00  0.00     0.016 C 
HETATM   12  C19 UNL     1      -2.315   9.722  15.969  1.00  0.00    -0.014 C 
HETATM   13  C20 UNL     1      -3.624  10.433  15.523  1.00  0.00     0.020 C 
HETATM   14  C21 UNL     1      -2.334   9.604  17.521  1.00  0.00     0.021 C 
HETATM   15  C22 UNL     1      -1.743  10.818  18.216  1.00  0.00     0.080 C 
HETATM   16  C23 UNL     1      -0.271  10.909  17.887  1.00  0.00     0.135 C 
HETATM   17  O1  UNL     1       0.533  11.268  18.747  1.00  0.00    -0.297 OA
HETATM   18  C24 UNL     1       0.162  10.555  16.449  1.00  0.00     0.018 C 
HETATM   19  C25 UNL     1       1.204  11.616  16.027  1.00  0.00     0.023 C 
HETATM   20  C26 UNL     1       0.864   9.191  16.496  1.00  0.00     0.023 C 
HETATM   21  C27 UNL     1      -1.104  10.623  15.517  1.00  0.00     0.020 C 
HETATM   22  C28 UNL     1      -0.826  10.441  14.023  1.00  0.00     0.090 C 
HETATM   23  C29 UNL     1      -0.612   9.001  13.656  1.00  0.00     0.157 C 
HETATM   24  O2  UNL     1       0.271   8.684  12.863  1.00  0.00    -0.293 OA
ENDROOT
BRANCH   1  25
HETATM   25  C6  UNL     1      -4.020   3.791  12.519  1.00  0.00    -0.014 C 
HETATM   26  C7  UNL     1      -4.076   3.726  10.989  1.00  0.00     0.010 C 
BRANCH  25  27
HETATM   27  C5  UNL     1      -5.329   4.418  13.074  1.00  0.00     0.008 C 
BRANCH  27  28
HETATM   28  C4  UNL     1      -6.571   3.538  12.885  1.00  0.00     0.028 C 
BRANCH  28  29
HETATM   29  C3  UNL     1      -7.699   4.317  12.264  1.00  0.00    -0.013 C 
HETATM   30  C2  UNL     1      -8.232   5.474  12.709  1.00  0.00     0.008 C 
HETATM   31  C1  UNL     1      -7.829   6.187  13.966  1.00  0.00     0.055 C 
BRANCH  30  32
HETATM   32  C30 UNL     1      -9.325   6.149  11.958  1.00  0.00     0.171 C 
HETATM   33  O3  UNL     1     -10.284   6.707  12.463  1.00  0.00    -0.646 OA
BRANCH  32  34
HETATM   34  O4  UNL     1      -9.183   6.102  10.623  1.00  0.00    -0.773 OA
HETATM   35  H44 UNL     1      -9.971   6.580  10.293  1.00  0.00     0.167 HD
ENDBRANCH  32  34
ENDBRANCH  30  32
ENDBRANCH  28  29
ENDBRANCH  27  28
ENDBRANCH  25  27
ENDBRANCH   1  25
TORSDOF 6
ENDMDL
MODEL 3
REMARK minimizedAffinity -8.85854626
REMARK  6 active torsions:
REMARK  status: ('A' for Active; 'I' for Inactive)
REMARK    1  A    between atoms: C2_2  and  C30_32 
REMARK    2  A    between atoms: C3_3  and  C4_4 
REMARK    3  A    between atoms: C4_4  and  C5_5 
REMARK    4  A    between atoms: C5_5  and  C6_6 
REMARK    5  A    between atoms: C6_6  and  C8_8 
REMARK    6  A    between atoms: C30_32  and  O4_34 
ROOT
HETATM    1  C8  UNL     1      -3.862   8.933  14.156  1.00  0.00    -0.002 C 
HETATM    2  C9  UNL     1      -3.652   8.787  15.693  1.00  0.00     0.007 C 
HETATM    3  C10 UNL     1      -2.149   8.569  15.941  1.00  0.00     0.015 C 
HETATM    4  C11 UNL     1      -1.468   8.940  14.612  1.00  0.00    -0.005 C 
HETATM    5  C12 UNL     1      -1.302  10.492  14.600  1.00  0.00     0.021 C 
HETATM    6  C13 UNL     1      -0.084   8.397  14.287  1.00  0.00    -0.000 C 
HETATM    7  C14 UNL     1       0.314   8.191  13.006  1.00  0.00    -0.060 C 
HETATM    8  C15 UNL     1      -0.667   8.422  11.844  1.00  0.00     0.036 C 
HETATM    9  C16 UNL     1      -2.107   8.853  12.192  1.00  0.00     0.015 C 
HETATM   10  C17 UNL     1      -2.525   8.368  13.586  1.00  0.00    -0.028 C 
HETATM   11  C18 UNL     1      -2.590   6.807  13.576  1.00  0.00     0.016 C 
HETATM   12  C19 UNL     1       1.727   7.692  12.617  1.00  0.00    -0.014 C 
HETATM   13  C20 UNL     1       1.588   6.202  12.195  1.00  0.00     0.020 C 
HETATM   14  C21 UNL     1       2.277   8.489  11.397  1.00  0.00     0.021 C 
HETATM   15  C22 UNL     1       3.794   8.513  11.337  1.00  0.00     0.080 C 
HETATM   16  C23 UNL     1       4.324   9.277  12.527  1.00  0.00     0.135 C 
HETATM   17  O1  UNL     1       5.302  10.014  12.401  1.00  0.00    -0.297 OA
HETATM   18  C24 UNL     1       3.608   9.081  13.879  1.00  0.00     0.018 C 
HETATM   19  C25 UNL     1       4.714   8.958  14.952  1.00  0.00     0.023 C 
HETATM   20  C26 UNL     1       2.803  10.355  14.170  1.00  0.00     0.023 C 
HETATM   21  C27 UNL     1       2.760   7.758  13.806  1.00  0.00     0.020 C 
HETATM   22  C28 UNL     1       2.097   7.333  15.119  1.00  0.00     0.090 C 
HETATM   23  C29 UNL     1       0.859   8.130  15.414  1.00  0.00     0.157 C 
HETATM   24  O2  UNL     1       0.625   8.519  16.555  1.00  0.00    -0.293 OA
ENDROOT
BRANCH   1  25
HETATM   25  C6  UNL     1      -5.229   8.335  13.699  1.00  0.00    -0.014 C 
HETATM   26  C7  UNL     1      -6.327   8.536  14.750  1.00  0.00     0.010 C 
BRANCH  25  27
HETATM   27  C5  UNL     1      -5.070   6.823  13.379  1.00  0.00     0.008 C 
BRANCH  27  28
HETATM   28  C4  UNL     1      -6.003   5.912  14.188  1.00  0.00     0.028 C 
BRANCH  28  29
HETATM   29  C3  UNL     1      -6.064   4.531  13.591  1.00  0.00    -0.013 C 
HETATM   30  C2  UNL     1      -7.090   3.984  12.906  1.00  0.00     0.008 C 
HETATM   31  C1  UNL     1      -8.414   4.644  12.655  1.00  0.00     0.055 C 
BRANCH  30  32
HETATM   32  C30 UNL     1      -6.984   2.612  12.341  1.00  0.00     0.171 C 
HETATM   33  O3  UNL     1      -6.063   2.203  11.657  1.00  0.00    -0.646 OA
BRANCH  32  34
HETATM   34  O4  UNL     1      -8.018   1.811  12.649  1.00  0.00    -0.773 OA
HETATM   35  H44 UNL     1      -7.792   0.968  12.206  1.00  0.00     0.167 HD
ENDBRANCH  32  34
ENDBRANCH  30  32
ENDBRANCH  28  29
ENDBRANCH  27  28
ENDBRANCH  25  27
ENDBRANCH   1  25
TORSDOF 6
ENDMDL
MODEL 4
REMARK minimizedAffinity -8.76733971
REMARK  6 active torsions:
REMARK  status: ('A' for Active; 'I' for Inactive)
REMARK    1  A    between atoms: C2_2  and  C30_32 
REMARK    2  A    between atoms: C3_3  and  C4_4 
REMARK    3  A    between atoms: C4_4  and  C5_5 
REMARK    4  A    between atoms: C5_5  and  C6_6 
REMARK    5  A    between atoms: C6_6  and  C8_8 
REMARK    6  A    between atoms: C30_32  and  O4_34 
ROOT
HETATM    1  C8  UNL     1      -6.113   7.372  14.596  1.00  0.00    -0.002 C 
HETATM    2  C9  UNL     1      -5.726   8.700  15.313  1.00  0.00     0.007 C 
HETATM    3  C10 UNL     1      -4.234   8.960  15.043  1.00  0.00     0.015 C 
HETATM    4  C11 UNL     1      -3.862   7.997  13.902  1.00  0.00    -0.005 C 
HETATM    5  C12 UNL     1      -4.285   8.683  12.566  1.00  0.00     0.021 C 
HETATM    6  C13 UNL     1      -2.410   7.592  13.690  1.00  0.00    -0.000 C 
HETATM    7  C14 UNL     1      -2.081   6.392  13.148  1.00  0.00    -0.060 C 
HETATM    8  C15 UNL     1      -3.177   5.366  12.814  1.00  0.00     0.036 C 
HETATM    9  C16 UNL     1      -4.637   5.739  13.149  1.00  0.00     0.015 C 
HETATM   10  C17 UNL     1      -4.718   6.734  14.312  1.00  0.00    -0.028 C 
HETATM   11  C18 UNL     1      -4.200   6.033  15.609  1.00  0.00     0.016 C 
HETATM   12  C19 UNL     1      -0.624   5.951  12.862  1.00  0.00    -0.014 C 
HETATM   13  C20 UNL     1      -0.237   4.908  13.947  1.00  0.00     0.020 C 
HETATM   14  C21 UNL     1      -0.522   5.261  11.470  1.00  0.00     0.021 C 
HETATM   15  C22 UNL     1       0.866   5.353  10.861  1.00  0.00     0.080 C 
HETATM   16  C23 UNL     1       1.179   6.800  10.562  1.00  0.00     0.135 C 
HETATM   17  O1  UNL     1       1.799   7.098   9.540  1.00  0.00    -0.297 OA
HETATM   18  C24 UNL     1       0.712   7.858  11.581  1.00  0.00     0.018 C 
HETATM   19  C25 UNL     1       1.876   8.862  11.743  1.00  0.00     0.023 C 
HETATM   20  C26 UNL     1      -0.479   8.606  10.965  1.00  0.00     0.023 C 
HETATM   21  C27 UNL     1       0.412   7.135  12.947  1.00  0.00     0.020 C 
HETATM   22  C28 UNL     1       0.075   8.063  14.117  1.00  0.00     0.090 C 
HETATM   23  C29 UNL     1      -1.338   8.567  14.054  1.00  0.00     0.157 C 
HETATM   24  O2  UNL     1      -1.597   9.736  14.324  1.00  0.00    -0.293 OA
ENDROOT
BRANCH   1  25
HETATM   25  C6  UNL     1      -7.195   6.578  15.393  1.00  0.00    -0.014 C 
HETATM   26  C7  UNL     1      -7.734   5.383  14.599  1.00  0.00     0.010 C 
BRANCH  25  27
HETATM   27  C5  UNL     1      -8.363   7.522  15.793  1.00  0.00     0.008 C 
BRANCH  27  28
HETATM   28  C4  UNL     1      -9.713   7.143  15.170  1.00  0.00     0.028 C 
BRANCH  28  29
HETATM   29  C3  UNL     1     -10.294   8.293  14.392  1.00  0.00    -0.013 C 
HETATM   30  C2  UNL     1     -11.409   8.283  13.633  1.00  0.00     0.008 C 
HETATM   31  C1  UNL     1     -12.267   7.081  13.370  1.00  0.00     0.055 C 
BRANCH  30  32
HETATM   32  C30 UNL     1     -11.879   9.520  12.953  1.00  0.00     0.171 C 
HETATM   33  O3  UNL     1     -12.344  10.497  13.513  1.00  0.00    -0.646 OA
BRANCH  32  34
HETATM   34  O4  UNL     1     -11.753   9.491  11.616  1.00  0.00    -0.773 OA
HETATM   35  H44 UNL     1     -12.103  10.361  11.335  1.00  0.00     0.167 HD
ENDBRANCH  32  34
ENDBRANCH  30  32
ENDBRANCH  28  29
ENDBRANCH  27  28
ENDBRANCH  25  27
ENDBRANCH   1  25
TORSDOF 6
ENDMDL
MODEL 5
REMARK minimizedAffinity -8.75689411
REMARK  6 active torsions:
REMARK  status: ('A' for Active; 'I' for Inactive)
REMARK    1  A    between atoms: C2_2  and  C30_32 
REMARK    2  A    between atoms: C3_3  and  C4_4 
REMARK    3  A    between atoms: C4_4  and  C5_5 
REMARK    4  A    between atoms: C5_5  and  C6_6 
REMARK    5  A    between atoms: C6_6  and  C8_8 
REMARK    6  A    between atoms: C30_32  and  O4_34 
ROOT
HETATM    1  C8  UNL     1      -2.993   3.905  12.539  1.00  0.00    -0.002 C 
HETATM    2  C9  UNL     1      -2.298   4.012  11.150  1.00  0.00     0.007 C 
HETATM    3  C10 UNL     1      -1.302   5.184  11.213  1.00  0.00     0.015 C 
HETATM    4  C11 UNL     1      -1.168   5.512  12.710  1.00  0.00    -0.005 C 
HETATM    5  C12 UNL     1      -0.126   4.516  13.307  1.00  0.00     0.021 C 
HETATM    6  C13 UNL     1      -0.688   6.888  13.149  1.00  0.00    -0.000 C 
HETATM    7  C14 UNL     1      -1.075   7.430  14.332  1.00  0.00    -0.060 C 
HETATM    8  C15 UNL     1      -2.089   6.695  15.226  1.00  0.00     0.036 C 
HETATM    9  C16 UNL     1      -2.665   5.358  14.712  1.00  0.00     0.015 C 
HETATM   10  C17 UNL     1      -2.660   5.288  13.181  1.00  0.00    -0.028 C 
HETATM   11  C18 UNL     1      -3.649   6.363  12.626  1.00  0.00     0.016 C 
HETATM   12  C19 UNL     1      -0.576   8.800  14.851  1.00  0.00    -0.014 C 
HETATM   13  C20 UNL     1      -1.743   9.812  14.675  1.00  0.00     0.020 C 
HETATM   14  C21 UNL     1      -0.229   8.722  16.367  1.00  0.00     0.021 C 
HETATM   15  C22 UNL     1       0.793   9.759  16.798  1.00  0.00     0.080 C 
HETATM   16  C23 UNL     1       2.110   9.466  16.119  1.00  0.00     0.135 C 
HETATM   17  O1  UNL     1       3.167   9.626  16.730  1.00  0.00    -0.297 OA
HETATM   18  C24 UNL     1       2.068   8.986  14.654  1.00  0.00     0.018 C 
HETATM   19  C25 UNL     1       3.193   9.739  13.909  1.00  0.00     0.023 C 
HETATM   20  C26 UNL     1       2.408   7.490  14.644  1.00  0.00     0.023 C 
HETATM   21  C27 UNL     1       0.662   9.356  14.050  1.00  0.00     0.020 C 
HETATM   22  C28 UNL     1       0.502   9.080  12.553  1.00  0.00     0.090 C 
HETATM   23  C29 UNL     1       0.263   7.626  12.265  1.00  0.00     0.157 C 
HETATM   24  O2  UNL     1       0.813   7.079  11.313  1.00  0.00    -0.293 OA
ENDROOT
BRANCH   1  25
HETATM   25  C6  UNL     1      -4.475   3.432  12.410  1.00  0.00    -0.014 C 
HETATM   26  C7  UNL     1      -4.865   3.150  10.956  1.00  0.00     0.010 C 
BRANCH  25  27
HETATM   27  C5  UNL     1      -5.430   4.495  13.021  1.00  0.00     0.008 C 
BRANCH  27  28
HETATM   28  C4  UNL     1      -6.734   3.913  13.583  1.00  0.00     0.028 C 
BRANCH  28  29
HETATM   29  C3  UNL     1      -7.512   4.956  14.338  1.00  0.00    -0.013 C 
HETATM   30  C2  UNL     1      -8.447   5.794  13.843  1.00  0.00     0.008 C 
HETATM   31  C1  UNL     1      -8.852   5.885  12.401  1.00  0.00     0.055 C 
BRANCH  30  32
HETATM   32  C30 UNL     1      -9.162   6.749  14.731  1.00  0.00     0.171 C 
HETATM   33  O3  UNL     1      -9.487   7.883  14.427  1.00  0.00    -0.646 OA
BRANCH  32  34
HETATM   34  O4  UNL     1      -9.443   6.259  15.950  1.00  0.00    -0.773 OA
HETATM   35  H44 UNL     1      -9.901   7.001  16.394  1.00  0.00     0.167 HD
ENDBRANCH  32  34
ENDBRANCH  30  32
ENDBRANCH  28  29
ENDBRANCH  27  28
ENDBRANCH  25  27
ENDBRANCH   1  25
TORSDOF 6
ENDMDL
MODEL 6
REMARK minimizedAffinity -8.72848034
REMARK  6 active torsions:
REMARK  status: ('A' for Active; 'I' for Inactive)
REMARK    1  A    between atoms: C2_2  and  C30_32 
REMARK    2  A    between atoms: C3_3  and  C4_4 
REMARK    3  A    between atoms: C4_4  and  C5_5 
REMARK    4  A    between atoms: C5_5  and  C6_6 
REMARK    5  A    between atoms: C6_6  and  C8_8 
REMARK    6  A    between atoms: C30_32  and  O4_34 
ROOT
HETATM    1  C8  UNL     1      -4.408   5.610  13.764  1.00  0.00    -0.002 C 
HETATM    2  C9  UNL     1      -3.572   5.029  12.585  1.00  0.00     0.007 C 
HETATM    3  C10 UNL     1      -2.218   5.761  12.566  1.00  0.00     0.015 C 
HETATM    4  C11 UNL     1      -2.140   6.489  13.919  1.00  0.00    -0.005 C 
HETATM    5  C12 UNL     1      -1.632   5.452  14.969  1.00  0.00     0.021 C 
HETATM    6  C13 UNL     1      -1.224   7.693  14.085  1.00  0.00    -0.000 C 
HETATM    7  C14 UNL     1      -1.505   8.682  14.971  1.00  0.00    -0.060 C 
HETATM    8  C15 UNL     1      -2.818   8.651  15.773  1.00  0.00     0.036 C 
HETATM    9  C16 UNL     1      -3.798   7.490  15.506  1.00  0.00     0.015 C 
HETATM   10  C17 UNL     1      -3.647   6.934  14.085  1.00  0.00    -0.028 C 
HETATM   11  C18 UNL     1      -4.080   8.036  13.066  1.00  0.00     0.016 C 
HETATM   12  C19 UNL     1      -0.583   9.900  15.217  1.00  0.00    -0.014 C 
HETATM   13  C20 UNL     1      -1.247  11.127  14.531  1.00  0.00     0.020 C 
HETATM   14  C21 UNL     1      -0.467  10.204  16.740  1.00  0.00     0.021 C 
HETATM   15  C22 UNL     1       0.817  10.925  17.107  1.00  0.00     0.080 C 
HETATM   16  C23 UNL     1       1.991  10.013  16.839  1.00  0.00     0.135 C 
HETATM   17  O1  UNL     1       2.952  10.001  17.608  1.00  0.00    -0.297 OA
HETATM   18  C24 UNL     1       1.935   9.129  15.576  1.00  0.00     0.018 C 
HETATM   19  C25 UNL     1       3.339   9.186  14.933  1.00  0.00     0.023 C 
HETATM   20  C26 UNL     1       1.676   7.686  16.027  1.00  0.00     0.023 C 
HETATM   21  C27 UNL     1       0.856   9.727  14.598  1.00  0.00     0.020 C 
HETATM   22  C28 UNL     1       0.774   9.053  13.226  1.00  0.00     0.090 C 
HETATM   23  C29 UNL     1       0.031   7.750  13.276  1.00  0.00     0.157 C 
HETATM   24  O2  UNL     1       0.434   6.777  12.645  1.00  0.00    -0.293 OA
ENDROOT
BRANCH   1  25
HETATM   25  C6  UNL     1      -5.933   5.638  13.433  1.00  0.00    -0.014 C 
HETATM   26  C7  UNL     1      -6.625   6.878  14.008  1.00  0.00     0.010 C 
BRANCH  25  27
HETATM   27  C5  UNL     1      -6.619   4.350  13.966  1.00  0.00     0.008 C 
BRANCH  27  28
HETATM   28  C4  UNL     1      -7.176   3.438  12.865  1.00  0.00     0.028 C 
BRANCH  28  29
HETATM   29  C3  UNL     1      -6.491   3.695  11.550  1.00  0.00    -0.013 C 
HETATM   30  C2  UNL     1      -5.704   2.842  10.860  1.00  0.00     0.008 C 
HETATM   31  C1  UNL     1      -5.310   1.468  11.313  1.00  0.00     0.055 C 
BRANCH  30  32
HETATM   32  C30 UNL     1      -5.127   3.232   9.545  1.00  0.00     0.171 C 
HETATM   33  O3  UNL     1      -5.765   3.416   8.524  1.00  0.00    -0.646 OA
BRANCH  32  34
HETATM   34  O4  UNL     1      -3.791   3.375   9.554  1.00  0.00    -0.773 OA
HETATM   35  H44 UNL     1      -3.583   3.625   8.631  1.00  0.00     0.167 HD
ENDBRANCH  32  34
ENDBRANCH  30  32
ENDBRANCH  28  29
ENDBRANCH  27  28
ENDBRANCH  25  27
ENDBRANCH   1  25
TORSDOF 6
ENDMDL
MODEL 7
REMARK minimizedAffinity -8.62011814
REMARK  6 active torsions:
REMARK  status: ('A' for Active; 'I' for Inactive)
REMARK    1  A    between atoms: C2_2  and  C30_32 
REMARK    2  A    between atoms: C3_3  and  C4_4 
REMARK    3  A    between atoms: C4_4  and  C5_5 
REMARK    4  A    between atoms: C5_5  and  C6_6 
REMARK    5  A    between atoms: C6_6  and  C8_8 
REMARK    6  A    between atoms: C30_32  and  O4_34 
ROOT
HETATM    1  C8  UNL     1      -1.241   6.751  13.398  1.00  0.00    -0.002 C 
HETATM    2  C9  UNL     1      -1.009   6.824  14.936  1.00  0.00     0.007 C 
HETATM    3  C10 UNL     1       0.430   7.314  15.170  1.00  0.00     0.015 C 
HETATM    4  C11 UNL     1       0.894   7.853  13.806  1.00  0.00    -0.005 C 
HETATM    5  C12 UNL     1       0.353   9.312  13.681  1.00  0.00     0.021 C 
HETATM    6  C13 UNL     1       2.380   7.960  13.493  1.00  0.00    -0.000 C 
HETATM    7  C14 UNL     1       2.846   7.861  12.222  1.00  0.00    -0.060 C 
HETATM    8  C15 UNL     1       1.881   7.547  11.066  1.00  0.00     0.036 C 
HETATM    9  C16 UNL     1       0.394   7.317  11.411  1.00  0.00     0.015 C 
HETATM   10  C17 UNL     1       0.216   6.799  12.843  1.00  0.00    -0.028 C 
HETATM   11  C18 UNL     1       0.852   5.375  12.945  1.00  0.00     0.016 C 
HETATM   12  C19 UNL     1       4.339   8.014  11.842  1.00  0.00    -0.014 C 
HETATM   13  C20 UNL     1       4.883   6.592  11.530  1.00  0.00     0.020 C 
HETATM   14  C21 UNL     1       4.494   8.883  10.559  1.00  0.00     0.021 C 
HETATM   15  C22 UNL     1       5.843   9.573  10.468  1.00  0.00     0.080 C 
HETATM   16  C23 UNL     1       5.961  10.577  11.591  1.00  0.00     0.135 C 
HETATM   17  O1  UNL     1       6.512  11.661  11.394  1.00  0.00    -0.297 OA
HETATM   18  C24 UNL     1       5.388  10.181  12.967  1.00  0.00     0.018 C 
HETATM   19  C25 UNL     1       6.418  10.639  14.024  1.00  0.00     0.023 C 
HETATM   20  C26 UNL     1       4.097  10.982  13.182  1.00  0.00     0.023 C 
HETATM   21  C27 UNL     1       5.218   8.617  13.003  1.00  0.00     0.020 C 
HETATM   22  C28 UNL     1       4.794   8.038  14.356  1.00  0.00     0.090 C 
HETATM   23  C29 UNL     1       3.327   8.221  14.618  1.00  0.00     0.157 C 
HETATM   24  O2  UNL     1       2.928   8.546  15.733  1.00  0.00    -0.293 OA
ENDROOT
BRANCH   1  25
HETATM   25  C6  UNL     1      -2.193   5.576  13.011  1.00  0.00    -0.014 C 
HETATM   26  C7  UNL     1      -1.816   4.947  11.665  1.00  0.00     0.010 C 
BRANCH  25  27
HETATM   27  C5  UNL     1      -3.665   6.072  12.973  1.00  0.00     0.008 C 
BRANCH  27  28
HETATM   28  C4  UNL     1      -4.689   5.021  13.421  1.00  0.00     0.028 C 
BRANCH  28  29
HETATM   29  C3  UNL     1      -4.808   3.913  12.410  1.00  0.00    -0.013 C 
HETATM   30  C2  UNL     1      -5.882   3.128  12.182  1.00  0.00     0.008 C 
HETATM   31  C1  UNL     1      -7.169   3.176  12.952  1.00  0.00     0.055 C 
BRANCH  30  32
HETATM   32  C30 UNL     1      -5.858   2.094  11.112  1.00  0.00     0.171 C 
HETATM   33  O3  UNL     1      -6.111   0.913  11.271  1.00  0.00    -0.646 OA
BRANCH  32  34
HETATM   34  O4  UNL     1      -5.524   2.568   9.900  1.00  0.00    -0.773 OA
HETATM   35  H44 UNL     1      -5.554   1.773   9.329  1.00  0.00     0.167 HD
ENDBRANCH  32  34
ENDBRANCH  30  32
ENDBRANCH  28  29
ENDBRANCH  27  28
ENDBRANCH  25  27
ENDBRANCH   1  25
TORSDOF 6
ENDMDL
MODEL 8
REMARK minimizedAffinity -8.57182884
REMARK  6 active torsions:
REMARK  status: ('A' for Active; 'I' for Inactive)
REMARK    1  A    between atoms: C2_2  and  C30_32 
REMARK    2  A    between atoms: C3_3  and  C4_4 
REMARK    3  A    between atoms: C4_4  and  C5_5 
REMARK    4  A    between atoms: C5_5  and  C6_6 
REMARK    5  A    between atoms: C6_6  and  C8_8 
REMARK    6  A    between atoms: C30_32  and  O4_34 
ROOT
HETATM    1  C8  UNL     1      -3.585   6.227  13.701  1.00  0.00    -0.002 C 
HETATM    2  C9  UNL     1      -2.326   6.330  12.789  1.00  0.00     0.007 C 
HETATM    3  C10 UNL     1      -1.584   7.626  13.161  1.00  0.00     0.015 C 
HETATM    4  C11 UNL     1      -2.203   8.070  14.497  1.00  0.00    -0.005 C 
HETATM    5  C12 UNL     1      -1.486   7.264  15.625  1.00  0.00     0.021 C 
HETATM    6  C13 UNL     1      -2.107   9.525  14.936  1.00  0.00    -0.000 C 
HETATM    7  C14 UNL     1      -3.052  10.089  15.729  1.00  0.00    -0.060 C 
HETATM    8  C15 UNL     1      -4.301   9.289  16.136  1.00  0.00     0.036 C 
HETATM    9  C16 UNL     1      -4.449   7.856  15.583  1.00  0.00     0.015 C 
HETATM   10  C17 UNL     1      -3.714   7.682  14.248  1.00  0.00    -0.028 C 
HETATM   11  C18 UNL     1      -4.410   8.576  13.172  1.00  0.00     0.016 C 
HETATM   12  C19 UNL     1      -2.977  11.546  16.247  1.00  0.00    -0.014 C 
HETATM   13  C20 UNL     1      -4.003  12.379  15.429  1.00  0.00     0.020 C 
HETATM   14  C21 UNL     1      -3.384  11.618  17.749  1.00  0.00     0.021 C 
HETATM   15  C22 UNL     1      -2.780  12.809  18.472  1.00  0.00     0.080 C 
HETATM   16  C23 UNL     1      -1.279  12.649  18.520  1.00  0.00     0.135 C 
HETATM   17  O1  UNL     1      -0.655  12.989  19.526  1.00  0.00    -0.297 OA
HETATM   18  C24 UNL     1      -0.582  12.068  17.273  1.00  0.00     0.018 C 
HETATM   19  C25 UNL     1       0.694  12.911  17.046  1.00  0.00     0.023 C 
HETATM   20  C26 UNL     1      -0.151  10.634  17.605  1.00  0.00     0.023 C 
HETATM   21  C27 UNL     1      -1.559  12.206  16.048  1.00  0.00     0.020 C 
HETATM   22  C28 UNL     1      -0.968  11.809  14.692  1.00  0.00     0.090 C 
HETATM   23  C29 UNL     1      -0.918  10.320  14.508  1.00  0.00     0.157 C 
HETATM   24  O2  UNL     1       0.062   9.788  13.993  1.00  0.00    -0.293 OA
ENDROOT
BRANCH   1  25
HETATM   25  C6  UNL     1      -4.783   5.553  12.961  1.00  0.00    -0.014 C 
HETATM   26  C7  UNL     1      -6.076   5.619  13.780  1.00  0.00     0.010 C 
BRANCH  25  27
HETATM   27  C5  UNL     1      -4.440   4.076  12.624  1.00  0.00     0.008 C 
BRANCH  27  28
HETATM   28  C4  UNL     1      -4.253   3.805  11.125  1.00  0.00     0.028 C 
BRANCH  28  29
HETATM   29  C3  UNL     1      -2.869   3.288  10.836  1.00  0.00    -0.013 C 
HETATM   30  C2  UNL     1      -2.399   2.045  11.066  1.00  0.00     0.008 C 
HETATM   31  C1  UNL     1      -3.167   0.936  11.723  1.00  0.00     0.055 C 
BRANCH  30  32
HETATM   32  C30 UNL     1      -1.010   1.672  10.686  1.00  0.00     0.171 C 
HETATM   33  O3  UNL     1       0.001   2.082  11.229  1.00  0.00    -0.646 OA
BRANCH  32  34
HETATM   34  O4  UNL     1      -0.935   0.813   9.656  1.00  0.00    -0.773 OA
HETATM   35  H44 UNL     1       0.028   0.680   9.539  1.00  0.00     0.167 HD
ENDBRANCH  32  34
ENDBRANCH  30  32
ENDBRANCH  28  29
ENDBRANCH  27  28
ENDBRANCH  25  27
ENDBRANCH   1  25
TORSDOF 6
ENDMDL
MODEL 9
REMARK minimizedAffinity -8.57031345
REMARK  6 active torsions:
REMARK  status: ('A' for Active; 'I' for Inactive)
REMARK    1  A    between atoms: C2_2  and  C30_32 
REMARK    2  A    between atoms: C3_3  and  C4_4 
REMARK    3  A    between atoms: C4_4  and  C5_5 
REMARK    4  A    between atoms: C5_5  and  C6_6 
REMARK    5  A    between atoms: C6_6  and  C8_8 
REMARK    6  A    between atoms: C30_32  and  O4_34 
ROOT
HETATM    1  C8  UNL     1      -5.973   5.475  14.018  1.00  0.00    -0.002 C 
HETATM    2  C9  UNL     1      -5.234   4.783  12.835  1.00  0.00     0.007 C 
HETATM    3  C10 UNL     1      -3.838   5.418  12.719  1.00  0.00     0.015 C 
HETATM    4  C11 UNL     1      -3.647   6.202  14.029  1.00  0.00    -0.005 C 
HETATM    5  C12 UNL     1      -3.160   5.183  15.106  1.00  0.00     0.021 C 
HETATM    6  C13 UNL     1      -2.645   7.347  14.093  1.00  0.00    -0.000 C 
HETATM    7  C14 UNL     1      -2.818   8.393  14.940  1.00  0.00    -0.060 C 
HETATM    8  C15 UNL     1      -4.090   8.491  15.800  1.00  0.00     0.036 C 
HETATM    9  C16 UNL     1      -5.157   7.389  15.635  1.00  0.00     0.015 C 
HETATM   10  C17 UNL     1      -5.111   6.757  14.239  1.00  0.00    -0.028 C 
HETATM   11  C18 UNL     1      -5.518   7.837  13.186  1.00  0.00     0.016 C 
HETATM   12  C19 UNL     1      -1.806   9.555  15.084  1.00  0.00    -0.014 C 
HETATM   13  C20 UNL     1      -2.418  10.791  14.367  1.00  0.00     0.020 C 
HETATM   14  C21 UNL     1      -1.598   9.922  16.583  1.00  0.00     0.021 C 
HETATM   15  C22 UNL     1      -0.252  10.569  16.856  1.00  0.00     0.080 C 
HETATM   16  C23 UNL     1       0.844   9.567  16.582  1.00  0.00     0.135 C 
HETATM   17  O1  UNL     1       1.838   9.525  17.308  1.00  0.00    -0.297 OA
HETATM   18  C24 UNL     1       0.669   8.631  15.369  1.00  0.00     0.018 C 
HETATM   19  C25 UNL     1       2.042   8.561  14.662  1.00  0.00     0.023 C 
HETATM   20  C26 UNL     1       0.337   7.231  15.903  1.00  0.00     0.023 C 
HETATM   21  C27 UNL     1      -0.413   9.254  14.411  1.00  0.00     0.020 C 
HETATM   22  C28 UNL     1      -0.605   8.524  13.079  1.00  0.00     0.090 C 
HETATM   23  C29 UNL     1      -1.430   7.279  13.228  1.00  0.00     0.157 C 
HETATM   24  O2  UNL     1      -1.123   6.252  12.629  1.00  0.00    -0.293 OA
ENDROOT
BRANCH   1  25
HETATM   25  C6  UNL     1      -7.507   5.593  13.754  1.00  0.00    -0.014 C 
HETATM   26  C7  UNL     1      -7.860   5.339  12.285  1.00  0.00     0.010 C 
BRANCH  25  27
HETATM   27  C5  UNL     1      -8.019   6.993  14.191  1.00  0.00     0.008 C 
BRANCH  27  28
HETATM   28  C4  UNL     1      -9.409   6.975  14.839  1.00  0.00     0.028 C 
BRANCH  28  29
HETATM   29  C3  UNL     1     -10.479   7.317  13.838  1.00  0.00    -0.013 C 
HETATM   30  C2  UNL     1     -11.052   8.521  13.636  1.00  0.00     0.008 C 
HETATM   31  C1  UNL     1     -10.765   9.762  14.429  1.00  0.00     0.055 C 
BRANCH  30  32
HETATM   32  C30 UNL     1     -12.076   8.710  12.573  1.00  0.00     0.171 C 
HETATM   33  O3  UNL     1     -13.177   8.187  12.556  1.00  0.00    -0.646 OA
BRANCH  32  34
HETATM   34  O4  UNL     1     -11.693   9.533  11.583  1.00  0.00    -0.773 OA
HETATM   35  H44 UNL     1     -12.466   9.543  10.982  1.00  0.00     0.167 HD
ENDBRANCH  32  34
ENDBRANCH  30  32
ENDBRANCH  28  29
ENDBRANCH  27  28
ENDBRANCH  25  27
ENDBRANCH   1  25
TORSDOF 6
ENDMDL
