MODEL 1
REMARK minimizedAffinity -8.10245991
REMARK CNNscore 0.451825827
REMARK CNNaffinity 7.18244743
REMARK  13 active torsions:
REMARK  status: ('A' for Active; 'I' for Inactive)
REMARK    1  A    between atoms: O1_2  and  C2_3 
REMARK    2  A    between atoms: C12_14  and  C13_15 
REMARK    3  A    between atoms: C13_15  and  C15_17 
REMARK    4  A    between atoms: C15_17  and  C16_18 
REMARK    5  A    between atoms: C17_19  and  C18_20 
REMARK    6  A    between atoms: C18_20  and  O3_23 
REMARK    7  A    between atoms: C29_32  and  O4_33 
REMARK    8  A    between atoms: O4_33  and  C30_34 
REMARK    9  A    between atoms: C31_36  and  C32_37 
REMARK   10  A    between atoms: C32_37  and  O6_38 
REMARK   11  A    between atoms: C33_39  and  O7_40 
REMARK   12  A    between atoms: C34_41  and  O8_42 
REMARK   13  A    between atoms: C35_43  and  O9_44 
ROOT
HETATM    1  C2  UNL     1      -1.988   6.466  13.281  1.00  0.00     0.270 C 
HETATM    2  O2  UNL     1      -1.310   6.656  12.008  1.00  0.00    -0.344 OA
HETATM    3  C3  UNL     1      -0.064   7.359  12.258  1.00  0.00     0.095 C 
HETATM    4  C4  UNL     1      -0.302   8.836  11.909  1.00  0.00     0.008 C 
HETATM    5  C5  UNL     1      -1.130   9.603  12.650  1.00  0.00    -0.021 C 
HETATM    6  C6  UNL     1      -2.002   8.937  13.687  1.00  0.00     0.030 C 
HETATM    7  C7  UNL     1      -1.388   7.570  14.229  1.00  0.00     0.024 C 
HETATM    8  C8  UNL     1      -1.550   7.273  15.745  1.00  0.00     0.016 C 
HETATM    9  C9  UNL     1      -2.439   8.189  16.599  1.00  0.00     0.011 C 
HETATM   10  C10 UNL     1      -2.358   9.665  16.187  1.00  0.00    -0.032 C 
HETATM   11  C11 UNL     1      -0.918  10.188  16.393  1.00  0.00     0.016 C 
HETATM   12  C12 UNL     1      -3.336  10.646  16.915  1.00  0.00    -0.002 C 
HETATM   13  C22 UNL     1      -3.498  11.793  15.865  1.00  0.00     0.006 C 
HETATM   14  C23 UNL     1      -2.961  11.275  14.515  1.00  0.00     0.011 C 
HETATM   15  C24 UNL     1      -2.862   9.756  14.705  1.00  0.00    -0.029 C 
HETATM   16  C25 UNL     1      -4.337   9.210  14.523  1.00  0.00     0.016 C 
HETATM   17  C26 UNL     1       0.088   7.319  13.782  1.00  0.00     0.039 C 
HETATM   18  C27 UNL     1       1.275   8.174  14.245  1.00  0.00     0.011 C 
HETATM   19  C28 UNL     1       2.492   8.016  13.316  1.00  0.00     0.033 C 
HETATM   20  C29 UNL     1       2.439   6.728  12.485  1.00  0.00     0.136 C 
HETATM   21  C36 UNL     1       1.163   6.651  11.563  1.00  0.00     0.014 C 
HETATM   22  C37 UNL     1       1.447   7.216  10.150  1.00  0.00     0.021 C 
HETATM   23  C38 UNL     1       0.872   5.142  11.342  1.00  0.00     0.021 C 
ENDROOT
BRANCH  20  24
HETATM   24  O4  UNL     1       3.614   6.570  11.680  1.00  0.00    -0.352 OA
BRANCH  24  25
HETATM   25  C30 UNL     1       4.216   7.792  11.260  1.00  0.00     0.292 C 
HETATM   26  O5  UNL     1       5.232   7.574  10.280  1.00  0.00    -0.348 OA
HETATM   27  C31 UNL     1       6.431   6.951  10.753  1.00  0.00     0.179 C 
HETATM   28  C33 UNL     1       7.036   7.707  11.953  1.00  0.00     0.180 C 
HETATM   29  C34 UNL     1       6.012   7.946  13.073  1.00  0.00     0.183 C 
HETATM   30  C35 UNL     1       4.731   8.568  12.494  1.00  0.00     0.204 C 
BRANCH  27  31
HETATM   31  C32 UNL     1       6.268   5.440  10.977  1.00  0.00     0.198 C 
BRANCH  31  32
HETATM   32  O6  UNL     1       5.357   4.885  10.028  1.00  0.00    -0.398 OA
HETATM   33  H50 UNL     1       4.459   5.134  10.314  1.00  0.00     0.209 HD
ENDBRANCH  31  32
ENDBRANCH  27  31
BRANCH  28  34
HETATM   34  O7  UNL     1       7.479   9.004  11.493  1.00  0.00    -0.390 OA
HETATM   35  H52 UNL     1       8.253   8.850  10.919  1.00  0.00     0.210 HD
ENDBRANCH  28  34
BRANCH  29  36
HETATM   36  O8  UNL     1       5.769   6.740  13.795  1.00  0.00    -0.390 OA
HETATM   37  H54 UNL     1       4.942   6.844  14.296  1.00  0.00     0.210 HD
ENDBRANCH  29  36
BRANCH  30  38
HETATM   38  O9  UNL     1       4.966   9.945  12.151  1.00  0.00    -0.388 OA
HETATM   39  H56 UNL     1       5.803   9.964  11.635  1.00  0.00     0.210 HD
ENDBRANCH  30  38
ENDBRANCH  24  25
ENDBRANCH  20  24
BRANCH   1  40
HETATM   40  O1  UNL     1      -1.750   5.149  13.784  1.00  0.00    -0.365 OA
HETATM   41  C1  UNL     1      -2.405   4.159  13.002  1.00  0.00     0.204 C 
ENDBRANCH   1  40
BRANCH  12  42
HETATM   42  C13 UNL     1      -3.021  11.200  18.344  1.00  0.00    -0.010 C 
HETATM   43  C14 UNL     1      -3.607  10.315  19.450  1.00  0.00     0.010 C 
BRANCH  42  44
HETATM   44  C15 UNL     1      -3.583  12.647  18.460  1.00  0.00     0.031 C 
BRANCH  44  45
HETATM   45  C16 UNL     1      -4.876  12.788  19.221  1.00  0.00    -0.027 C 
HETATM   46  C17 UNL     1      -5.023  13.545  20.322  1.00  0.00     0.006 C 
BRANCH  46  47
HETATM   47  C18 UNL     1      -6.297  13.805  21.113  1.00  0.00     0.070 C 
HETATM   48  C19 UNL     1      -6.186  13.164  22.509  1.00  0.00     0.050 C 
HETATM   49  C20 UNL     1      -6.600  15.301  21.307  1.00  0.00     0.050 C 
BRANCH  47  50
HETATM   50  O3  UNL     1      -7.414  13.313  20.355  1.00  0.00    -0.382 OA
HETATM   51  C21 UNL     1      -8.534  14.170  20.218  1.00  0.00     0.202 C 
ENDBRANCH  47  50
ENDBRANCH  46  47
ENDBRANCH  44  45
ENDBRANCH  42  44
ENDBRANCH  12  42
TORSDOF 13
ENDMDL
MODEL 2
REMARK minimizedAffinity -7.50277281
REMARK CNNscore 0.323135465
REMARK CNNaffinity 6.4468379
REMARK  13 active torsions:
REMARK  status: ('A' for Active; 'I' for Inactive)
REMARK    1  A    between atoms: O1_2  and  C2_3 
REMARK    2  A    between atoms: C12_14  and  C13_15 
REMARK    3  A    between atoms: C13_15  and  C15_17 
REMARK    4  A    between atoms: C15_17  and  C16_18 
REMARK    5  A    between atoms: C17_19  and  C18_20 
REMARK    6  A    between atoms: C18_20  and  O3_23 
REMARK    7  A    between atoms: C29_32  and  O4_33 
REMARK    8  A    between atoms: O4_33  and  C30_34 
REMARK    9  A    between atoms: C31_36  and  C32_37 
REMARK   10  A    between atoms: C32_37  and  O6_38 
REMARK   11  A    between atoms: C33_39  and  O7_40 
REMARK   12  A    between atoms: C34_41  and  O8_42 
REMARK   13  A    between atoms: C35_43  and  O9_44 
ROOT
HETATM    1  C2  UNL     1      -3.492 -12.864   3.765  1.00  0.00     0.270 C 
HETATM    2  O2  UNL     1      -2.924 -11.792   4.568  1.00  0.00    -0.344 OA
HETATM    3  C3  UNL     1      -3.986 -10.855   4.890  1.00  0.00     0.095 C 
HETATM    4  C4  UNL     1      -3.853  -9.672   3.918  1.00  0.00     0.008 C 
HETATM    5  C5  UNL     1      -4.097  -9.822   2.599  1.00  0.00    -0.021 C 
HETATM    6  C6  UNL     1      -4.275 -11.217   2.049  1.00  0.00     0.030 C 
HETATM    7  C7  UNL     1      -4.800 -12.253   3.140  1.00  0.00     0.024 C 
HETATM    8  C8  UNL     1      -5.843 -13.306   2.672  1.00  0.00     0.016 C 
HETATM    9  C9  UNL     1      -6.168 -13.427   1.176  1.00  0.00     0.011 C 
HETATM   10  C10 UNL     1      -6.172 -12.077   0.447  1.00  0.00    -0.032 C 
HETATM   11  C11 UNL     1      -7.279 -11.170   1.031  1.00  0.00     0.016 C 
HETATM   12  C12 UNL     1      -6.359 -12.124  -1.106  1.00  0.00    -0.002 C 
HETATM   13  C22 UNL     1      -5.655 -10.805  -1.565  1.00  0.00     0.006 C 
HETATM   14  C23 UNL     1      -4.810 -10.286  -0.384  1.00  0.00     0.011 C 
HETATM   15  C24 UNL     1      -4.727 -11.481   0.575  1.00  0.00    -0.029 C 
HETATM   16  C25 UNL     1      -3.614 -12.432  -0.028  1.00  0.00     0.016 C 
HETATM   17  C26 UNL     1      -5.267 -11.584   4.473  1.00  0.00     0.039 C 
HETATM   18  C27 UNL     1      -6.491 -10.665   4.582  1.00  0.00     0.011 C 
HETATM   19  C28 UNL     1      -6.443  -9.796   5.851  1.00  0.00     0.033 C 
HETATM   20  C29 UNL     1      -5.513 -10.369   6.927  1.00  0.00     0.136 C 
HETATM   21  C36 UNL     1      -4.024 -10.512   6.430  1.00  0.00     0.014 C 
HETATM   22  C37 UNL     1      -3.187  -9.256   6.775  1.00  0.00     0.021 C 
HETATM   23  C38 UNL     1      -3.391 -11.659   7.262  1.00  0.00     0.021 C 
ENDROOT
BRANCH  20  24
HETATM   24  O4  UNL     1      -5.538  -9.581   8.123  1.00  0.00    -0.352 OA
BRANCH  24  25
HETATM   25  C30 UNL     1      -5.154 -10.280   9.304  1.00  0.00     0.292 C 
HETATM   26  O5  UNL     1      -6.137 -11.240   9.696  1.00  0.00    -0.348 OA
HETATM   27  C31 UNL     1      -7.361 -10.704  10.211  1.00  0.00     0.179 C 
HETATM   28  C33 UNL     1      -7.114  -9.723  11.375  1.00  0.00     0.180 C 
HETATM   29  C34 UNL     1      -6.095  -8.632  11.017  1.00  0.00     0.183 C 
HETATM   30  C35 UNL     1      -4.827  -9.266  10.424  1.00  0.00     0.204 C 
BRANCH  27  31
HETATM   31  C32 UNL     1      -8.280 -10.156   9.108  1.00  0.00     0.198 C 
BRANCH  31  32
HETATM   32  O6  UNL     1      -8.693 -11.203   8.230  1.00  0.00    -0.398 OA
HETATM   33  H50 UNL     1      -7.937 -11.405   7.650  1.00  0.00     0.209 HD
ENDBRANCH  31  32
ENDBRANCH  27  31
BRANCH  28  34
HETATM   34  O7  UNL     1      -6.570 -10.470  12.487  1.00  0.00    -0.390 OA
HETATM   35  H52 UNL     1      -7.289 -11.035  12.825  1.00  0.00     0.210 HD
ENDBRANCH  28  34
BRANCH  29  36
HETATM   36  O8  UNL     1      -6.685  -7.658  10.156  1.00  0.00    -0.390 OA
HETATM   37  H54 UNL     1      -5.972  -7.151   9.732  1.00  0.00     0.210 HD
ENDBRANCH  29  36
BRANCH  30  38
HETATM   38  O9  UNL     1      -4.066  -9.905  11.464  1.00  0.00    -0.388 OA
HETATM   39  H56 UNL     1      -4.701 -10.454  11.976  1.00  0.00     0.210 HD
ENDBRANCH  30  38
ENDBRANCH  24  25
ENDBRANCH  20  24
BRANCH   1  40
HETATM   40  O1  UNL     1      -3.776 -14.003   4.580  1.00  0.00    -0.365 OA
HETATM   41  C1  UNL     1      -2.630 -14.826   4.756  1.00  0.00     0.204 C 
ENDBRANCH   1  40
BRANCH  12  42
HETATM   42  C13 UNL     1      -7.774 -12.290  -1.752  1.00  0.00    -0.010 C 
HETATM   43  C14 UNL     1      -7.991 -13.698  -2.319  1.00  0.00     0.010 C 
BRANCH  42  44
HETATM   44  C15 UNL     1      -7.942 -11.227  -2.878  1.00  0.00     0.031 C 
BRANCH  44  45
HETATM   45  C16 UNL     1      -8.596  -9.934  -2.466  1.00  0.00    -0.027 C 
HETATM   46  C17 UNL     1      -8.457  -8.774  -3.132  1.00  0.00     0.006 C 
BRANCH  46  47
HETATM   47  C18 UNL     1      -9.128  -7.441  -2.836  1.00  0.00     0.070 C 
HETATM   48  C19 UNL     1      -8.904  -7.058  -1.362  1.00  0.00     0.050 C 
HETATM   49  C20 UNL     1      -8.601  -6.287  -3.706  1.00  0.00     0.050 C 
BRANCH  47  50
HETATM   50  O3  UNL     1     -10.518  -7.541  -3.187  1.00  0.00    -0.382 OA
HETATM   51  C21 UNL     1     -10.933  -6.909  -4.385  1.00  0.00     0.202 C 
ENDBRANCH  47  50
ENDBRANCH  46  47
ENDBRANCH  44  45
ENDBRANCH  42  44
ENDBRANCH  12  42
TORSDOF 13
ENDMDL
MODEL 3
REMARK minimizedAffinity -7.18455076
REMARK CNNscore 0.271776855
REMARK CNNaffinity 6.64459848
REMARK  13 active torsions:
REMARK  status: ('A' for Active; 'I' for Inactive)
REMARK    1  A    between atoms: O1_2  and  C2_3 
REMARK    2  A    between atoms: C12_14  and  C13_15 
REMARK    3  A    between atoms: C13_15  and  C15_17 
REMARK    4  A    between atoms: C15_17  and  C16_18 
REMARK    5  A    between atoms: C17_19  and  C18_20 
REMARK    6  A    between atoms: C18_20  and  O3_23 
REMARK    7  A    between atoms: C29_32  and  O4_33 
REMARK    8  A    between atoms: O4_33  and  C30_34 
REMARK    9  A    between atoms: C31_36  and  C32_37 
REMARK   10  A    between atoms: C32_37  and  O6_38 
REMARK   11  A    between atoms: C33_39  and  O7_40 
REMARK   12  A    between atoms: C34_41  and  O8_42 
REMARK   13  A    between atoms: C35_43  and  O9_44 
ROOT
HETATM    1  C2  UNL     1     -18.042   5.506  16.090  1.00  0.00     0.270 C 
HETATM    2  O2  UNL     1     -18.711   4.425  15.384  1.00  0.00    -0.344 OA
HETATM    3  C3  UNL     1     -17.694   3.532  14.856  1.00  0.00     0.095 C 
HETATM    4  C4  UNL     1     -17.522   3.876  13.368  1.00  0.00     0.008 C 
HETATM    5  C5  UNL     1     -16.991   5.054  12.981  1.00  0.00    -0.021 C 
HETATM    6  C6  UNL     1     -16.780   6.130  14.019  1.00  0.00     0.030 C 
HETATM    7  C7  UNL     1     -16.589   5.546  15.489  1.00  0.00     0.024 C 
HETATM    8  C8  UNL     1     -15.536   6.241  16.396  1.00  0.00     0.016 C 
HETATM    9  C9  UNL     1     -14.882   7.548  15.922  1.00  0.00     0.011 C 
HETATM   10  C10 UNL     1     -14.623   7.579  14.410  1.00  0.00    -0.032 C 
HETATM   11  C11 UNL     1     -13.626   6.462  14.026  1.00  0.00     0.016 C 
HETATM   12  C12 UNL     1     -14.085   8.927  13.822  1.00  0.00    -0.002 C 
HETATM   13  C22 UNL     1     -14.578   8.863  12.340  1.00  0.00     0.006 C 
HETATM   14  C23 UNL     1     -15.638   7.747  12.243  1.00  0.00     0.011 C 
HETATM   15  C24 UNL     1     -16.017   7.458  13.701  1.00  0.00    -0.029 C 
HETATM   16  C25 UNL     1     -17.019   8.612  14.116  1.00  0.00     0.016 C 
HETATM   17  C26 UNL     1     -16.401   3.995  15.533  1.00  0.00     0.039 C 
HETATM   18  C27 UNL     1     -15.179   3.268  14.956  1.00  0.00     0.011 C 
HETATM   19  C28 UNL     1     -15.464   1.775  14.712  1.00  0.00     0.033 C 
HETATM   20  C29 UNL     1     -16.652   1.257  15.530  1.00  0.00     0.136 C 
HETATM   21  C36 UNL     1     -17.992   2.023  15.209  1.00  0.00     0.014 C 
HETATM   22  C37 UNL     1     -18.804   1.307  14.102  1.00  0.00     0.021 C 
HETATM   23  C38 UNL     1     -18.872   1.922  16.483  1.00  0.00     0.021 C 
ENDROOT
BRANCH  20  24
HETATM   24  O4  UNL     1     -16.853  -0.148  15.339  1.00  0.00    -0.352 OA
BRANCH  24  25
HETATM   25  C30 UNL     1     -15.739  -0.837  14.775  1.00  0.00     0.292 C 
HETATM   26  O5  UNL     1     -16.054  -1.399  13.500  1.00  0.00    -0.348 OA
HETATM   27  C31 UNL     1     -16.950  -2.516  13.515  1.00  0.00     0.179 C 
HETATM   28  C33 UNL     1     -16.459  -3.634  14.458  1.00  0.00     0.180 C 
HETATM   29  C34 UNL     1     -16.138  -3.114  15.867  1.00  0.00     0.183 C 
HETATM   30  C35 UNL     1     -15.216  -1.887  15.780  1.00  0.00     0.204 C 
BRANCH  27  31
HETATM   31  C32 UNL     1     -18.413  -2.102  13.736  1.00  0.00     0.198 C 
BRANCH  31  32
HETATM   32  O6  UNL     1     -19.099  -1.991  12.489  1.00  0.00    -0.398 OA
HETATM   33  H50 UNL     1     -18.811  -1.156  12.077  1.00  0.00     0.209 HD
ENDBRANCH  31  32
ENDBRANCH  27  31
BRANCH  28  34
HETATM   34  O7  UNL     1     -15.236  -4.180  13.913  1.00  0.00    -0.390 OA
HETATM   35  H52 UNL     1     -15.482  -4.667  13.104  1.00  0.00     0.210 HD
ENDBRANCH  28  34
BRANCH  29  36
HETATM   36  O8  UNL     1     -17.340  -2.857  16.592  1.00  0.00    -0.390 OA
HETATM   37  H54 UNL     1     -17.125  -2.285  17.349  1.00  0.00     0.210 HD
ENDBRANCH  29  36
BRANCH  30  38
HETATM   38  O9  UNL     1     -13.885  -2.299  15.419  1.00  0.00    -0.388 OA
HETATM   39  H56 UNL     1     -13.980  -2.902  14.649  1.00  0.00     0.210 HD
ENDBRANCH  30  38
ENDBRANCH  24  25
ENDBRANCH  20  24
BRANCH   1  40
HETATM   40  O1  UNL     1     -18.028   5.254  17.497  1.00  0.00    -0.365 OA
HETATM   41  C1  UNL     1     -18.932   6.100  18.195  1.00  0.00     0.204 C 
ENDBRANCH   1  40
BRANCH  12  42
HETATM   42  C13 UNL     1     -12.573   9.313  13.923  1.00  0.00    -0.010 C 
HETATM   43  C14 UNL     1     -11.810   9.012  12.627  1.00  0.00     0.010 C 
BRANCH  42  44
HETATM   44  C15 UNL     1     -11.932   8.541  15.113  1.00  0.00     0.031 C 
BRANCH  44  45
HETATM   45  C16 UNL     1     -10.429   8.445  15.099  1.00  0.00    -0.027 C 
HETATM   46  C17 UNL     1      -9.748   7.286  15.146  1.00  0.00     0.006 C 
BRANCH  46  47
HETATM   47  C18 UNL     1      -8.242   7.084  15.067  1.00  0.00     0.070 C 
HETATM   48  C19 UNL     1      -7.534   8.449  14.989  1.00  0.00     0.050 C 
HETATM   49  C20 UNL     1      -7.664   6.324  16.273  1.00  0.00     0.050 C 
BRANCH  47  50
HETATM   50  O3  UNL     1      -7.953   6.236  13.943  1.00  0.00    -0.382 OA
HETATM   51  C21 UNL     1      -7.527   4.913  14.221  1.00  0.00     0.202 C 
ENDBRANCH  47  50
ENDBRANCH  46  47
ENDBRANCH  44  45
ENDBRANCH  42  44
ENDBRANCH  12  42
TORSDOF 13
ENDMDL
MODEL 4
REMARK minimizedAffinity -7.0980711
REMARK CNNscore 0.268206567
REMARK CNNaffinity 6.76013899
REMARK  13 active torsions:
REMARK  status: ('A' for Active; 'I' for Inactive)
REMARK    1  A    between atoms: O1_2  and  C2_3 
REMARK    2  A    between atoms: C12_14  and  C13_15 
REMARK    3  A    between atoms: C13_15  and  C15_17 
REMARK    4  A    between atoms: C15_17  and  C16_18 
REMARK    5  A    between atoms: C17_19  and  C18_20 
REMARK    6  A    between atoms: C18_20  and  O3_23 
REMARK    7  A    between atoms: C29_32  and  O4_33 
REMARK    8  A    between atoms: O4_33  and  C30_34 
REMARK    9  A    between atoms: C31_36  and  C32_37 
REMARK   10  A    between atoms: C32_37  and  O6_38 
REMARK   11  A    between atoms: C33_39  and  O7_40 
REMARK   12  A    between atoms: C34_41  and  O8_42 
REMARK   13  A    between atoms: C35_43  and  O9_44 
ROOT
HETATM    1  C2  UNL     1      -8.154 -12.439  -1.437  1.00  0.00     0.270 C 
HETATM    2  O2  UNL     1      -6.809 -12.706  -0.953  1.00  0.00    -0.344 OA
HETATM    3  C3  UNL     1      -6.402 -11.595  -0.109  1.00  0.00     0.095 C 
HETATM    4  C4  UNL     1      -5.497 -10.691  -0.961  1.00  0.00     0.008 C 
HETATM    5  C5  UNL     1      -5.992  -9.994  -2.005  1.00  0.00    -0.021 C 
HETATM    6  C6  UNL     1      -7.397 -10.289  -2.474  1.00  0.00     0.030 C 
HETATM    7  C7  UNL     1      -8.325 -10.879  -1.321  1.00  0.00     0.024 C 
HETATM    8  C8  UNL     1      -9.801 -10.394  -1.283  1.00  0.00     0.016 C 
HETATM    9  C9  UNL     1     -10.341  -9.542  -2.441  1.00  0.00     0.011 C 
HETATM   10  C10 UNL     1      -9.305  -8.562  -3.006  1.00  0.00    -0.032 C 
HETATM   11  C11 UNL     1      -8.892  -7.549  -1.913  1.00  0.00     0.016 C 
HETATM   12  C12 UNL     1      -9.729  -7.753  -4.276  1.00  0.00    -0.002 C 
HETATM   13  C22 UNL     1      -8.352  -7.442  -4.948  1.00  0.00     0.006 C 
HETATM   14  C23 UNL     1      -7.293  -8.354  -4.295  1.00  0.00     0.011 C 
HETATM   15  C24 UNL     1      -8.114  -9.420  -3.559  1.00  0.00    -0.029 C 
HETATM   16  C25 UNL     1      -8.566 -10.451  -4.673  1.00  0.00     0.016 C 
HETATM   17  C26 UNL     1      -7.691 -10.796   0.105  1.00  0.00     0.039 C 
HETATM   18  C27 UNL     1      -7.413  -9.477   0.838  1.00  0.00     0.011 C 
HETATM   19  C28 UNL     1      -6.387  -9.658   1.971  1.00  0.00     0.033 C 
HETATM   20  C29 UNL     1      -6.264 -11.115   2.433  1.00  0.00     0.136 C 
HETATM   21  C36 UNL     1      -5.821 -12.086   1.274  1.00  0.00     0.014 C 
HETATM   22  C37 UNL     1      -4.284 -12.263   1.238  1.00  0.00     0.021 C 
HETATM   23  C38 UNL     1      -6.380 -13.487   1.636  1.00  0.00     0.021 C 
ENDROOT
BRANCH  20  24
HETATM   24  O4  UNL     1      -5.356 -11.246   3.533  1.00  0.00    -0.352 OA
BRANCH  24  25
HETATM   25  C30 UNL     1      -5.149 -10.049   4.279  1.00  0.00     0.292 C 
HETATM   26  O5  UNL     1      -3.765  -9.700   4.347  1.00  0.00    -0.348 OA
HETATM   27  C31 UNL     1      -2.948 -10.547   5.162  1.00  0.00     0.179 C 
HETATM   28  C33 UNL     1      -3.509 -10.686   6.592  1.00  0.00     0.180 C 
HETATM   29  C34 UNL     1      -4.988 -11.100   6.604  1.00  0.00     0.183 C 
HETATM   30  C35 UNL     1      -5.801 -10.186   5.673  1.00  0.00     0.204 C 
BRANCH  27  31
HETATM   31  C32 UNL     1      -2.616 -11.885   4.483  1.00  0.00     0.198 C 
BRANCH  31  32
HETATM   32  O6  UNL     1      -2.100 -12.818   5.431  1.00  0.00    -0.398 OA
HETATM   33  H50 UNL     1      -1.178 -12.559   5.615  1.00  0.00     0.209 HD
ENDBRANCH  31  32
ENDBRANCH  27  31
BRANCH  28  34
HETATM   34  O7  UNL     1      -3.421  -9.395   7.239  1.00  0.00    -0.390 OA
HETATM   35  H52 UNL     1      -2.473  -9.222   7.391  1.00  0.00     0.210 HD
ENDBRANCH  28  34
BRANCH  29  36
HETATM   36  O8  UNL     1      -5.122 -12.484   6.282  1.00  0.00    -0.390 OA
HETATM   37  H54 UNL     1      -6.047 -12.652   6.029  1.00  0.00     0.210 HD
ENDBRANCH  29  36
BRANCH  30  38
HETATM   38  O9  UNL     1      -5.961  -8.890   6.276  1.00  0.00    -0.388 OA
HETATM   39  H56 UNL     1      -5.068  -8.615   6.584  1.00  0.00     0.210 HD
ENDBRANCH  30  38
ENDBRANCH  24  25
ENDBRANCH  20  24
BRANCH   1  40
HETATM   40  O1  UNL     1      -9.119 -13.138  -0.647  1.00  0.00    -0.365 OA
HETATM   41  C1  UNL     1      -9.582 -14.313  -1.298  1.00  0.00     0.204 C 
ENDBRANCH   1  40
BRANCH  12  42
HETATM   42  C13 UNL     1     -10.631  -6.479  -4.168  1.00  0.00    -0.010 C 
HETATM   43  C14 UNL     1     -11.931  -6.619  -4.968  1.00  0.00     0.010 C 
BRANCH  42  44
HETATM   44  C15 UNL     1      -9.823  -5.245  -4.670  1.00  0.00     0.031 C 
BRANCH  44  45
HETATM   45  C16 UNL     1     -10.639  -4.032  -5.033  1.00  0.00    -0.027 C 
HETATM   46  C17 UNL     1     -10.169  -2.772  -5.005  1.00  0.00     0.006 C 
BRANCH  46  47
HETATM   47  C18 UNL     1     -10.889  -1.497  -5.418  1.00  0.00     0.070 C 
HETATM   48  C19 UNL     1     -12.371  -1.803  -5.704  1.00  0.00     0.050 C 
HETATM   49  C20 UNL     1     -10.835  -0.393  -4.348  1.00  0.00     0.050 C 
BRANCH  47  50
HETATM   50  O3  UNL     1     -10.203  -0.930  -6.546  1.00  0.00    -0.382 OA
HETATM   51  C21 UNL     1     -10.571  -1.397  -7.832  1.00  0.00     0.202 C 
ENDBRANCH  47  50
ENDBRANCH  46  47
ENDBRANCH  44  45
ENDBRANCH  42  44
ENDBRANCH  12  42
TORSDOF 13
ENDMDL
MODEL 5
REMARK minimizedAffinity -7.62759256
REMARK CNNscore 0.243280336
REMARK CNNaffinity 6.17320585
REMARK  13 active torsions:
REMARK  status: ('A' for Active; 'I' for Inactive)
REMARK    1  A    between atoms: O1_2  and  C2_3 
REMARK    2  A    between atoms: C12_14  and  C13_15 
REMARK    3  A    between atoms: C13_15  and  C15_17 
REMARK    4  A    between atoms: C15_17  and  C16_18 
REMARK    5  A    between atoms: C17_19  and  C18_20 
REMARK    6  A    between atoms: C18_20  and  O3_23 
REMARK    7  A    between atoms: C29_32  and  O4_33 
REMARK    8  A    between atoms: O4_33  and  C30_34 
REMARK    9  A    between atoms: C31_36  and  C32_37 
REMARK   10  A    between atoms: C32_37  and  O6_38 
REMARK   11  A    between atoms: C33_39  and  O7_40 
REMARK   12  A    between atoms: C34_41  and  O8_42 
REMARK   13  A    between atoms: C35_43  and  O9_44 
ROOT
HETATM    1  C2  UNL     1      -0.331  13.668  17.176  1.00  0.00     0.270 C 
HETATM    2  O2  UNL     1      -0.531  13.052  15.874  1.00  0.00    -0.344 OA
HETATM    3  C3  UNL     1      -0.649  11.617  16.065  1.00  0.00     0.095 C 
HETATM    4  C4  UNL     1       0.715  11.001  15.715  1.00  0.00     0.008 C 
HETATM    5  C5  UNL     1       1.800  11.228  16.484  1.00  0.00    -0.021 C 
HETATM    6  C6  UNL     1       1.718  12.281  17.563  1.00  0.00     0.030 C 
HETATM    7  C7  UNL     1       0.232  12.517  18.088  1.00  0.00     0.024 C 
HETATM    8  C8  UNL     1       0.050  12.756  19.613  1.00  0.00     0.016 C 
HETATM    9  C9  UNL     1       1.292  12.946  20.496  1.00  0.00     0.011 C 
HETATM   10  C10 UNL     1       2.477  12.070  20.070  1.00  0.00    -0.032 C 
HETATM   11  C11 UNL     1       2.103  10.577  20.209  1.00  0.00     0.016 C 
HETATM   12  C12 UNL     1       3.825  12.301  20.830  1.00  0.00    -0.002 C 
HETATM   13  C22 UNL     1       4.884  11.836  19.779  1.00  0.00     0.006 C 
HETATM   14  C23 UNL     1       4.178  11.734  18.412  1.00  0.00     0.011 C 
HETATM   15  C24 UNL     1       2.860  12.495  18.609  1.00  0.00    -0.029 C 
HETATM   16  C25 UNL     1       3.236  14.029  18.494  1.00  0.00     0.016 C 
HETATM   17  C26 UNL     1      -0.793  11.452  17.581  1.00  0.00     0.039 C 
HETATM   18  C27 UNL     1      -0.756   9.973  17.987  1.00  0.00     0.011 C 
HETATM   19  C28 UNL     1      -1.552   9.091  17.008  1.00  0.00     0.033 C 
HETATM   20  C29 UNL     1      -2.576   9.888  16.190  1.00  0.00     0.136 C 
HETATM   21  C36 UNL     1      -1.910  11.024  15.324  1.00  0.00     0.014 C 
HETATM   22  C37 UNL     1      -1.576  10.528  13.896  1.00  0.00     0.021 C 
HETATM   23  C38 UNL     1      -2.994  12.118  15.127  1.00  0.00     0.021 C 
ENDROOT
BRANCH  20  24
HETATM   24  O4  UNL     1      -3.350   9.036  15.338  1.00  0.00    -0.352 OA
BRANCH  24  25
HETATM   25  C30 UNL     1      -2.597   8.353  14.338  1.00  0.00     0.292 C 
HETATM   26  O5  UNL     1      -3.403   8.013  13.208  1.00  0.00    -0.348 OA
HETATM   27  C31 UNL     1      -4.372   6.981  13.420  1.00  0.00     0.179 C 
HETATM   28  C33 UNL     1      -3.732   5.700  13.993  1.00  0.00     0.180 C 
HETATM   29  C34 UNL     1      -2.879   5.977  15.240  1.00  0.00     0.183 C 
HETATM   30  C35 UNL     1      -1.896   7.126  14.964  1.00  0.00     0.204 C 
BRANCH  27  31
HETATM   31  C32 UNL     1      -5.603   7.473  14.198  1.00  0.00     0.198 C 
BRANCH  31  32
HETATM   32  O6  UNL     1      -5.780   8.878  14.024  1.00  0.00    -0.398 OA
HETATM   33  H50 UNL     1      -5.115   9.322  14.582  1.00  0.00     0.209 HD
ENDBRANCH  31  32
ENDBRANCH  27  31
BRANCH  28  34
HETATM   34  O7  UNL     1      -2.853   5.146  12.987  1.00  0.00    -0.390 OA
HETATM   35  H52 UNL     1      -3.423   4.805  12.272  1.00  0.00     0.210 HD
ENDBRANCH  28  34
BRANCH  29  36
HETATM   36  O8  UNL     1      -3.712   6.217  16.373  1.00  0.00    -0.390 OA
HETATM   37  H54 UNL     1      -3.178   6.651  17.060  1.00  0.00     0.210 HD
ENDBRANCH  29  36
BRANCH  30  38
HETATM   38  O9  UNL     1      -0.836   6.669  14.104  1.00  0.00    -0.388 OA
HETATM   39  H56 UNL     1      -1.268   6.196  13.358  1.00  0.00     0.210 HD
ENDBRANCH  30  38
ENDBRANCH  24  25
ENDBRANCH  20  24
BRANCH   1  40
HETATM   40  O1  UNL     1      -1.564  14.188  17.678  1.00  0.00    -0.365 OA
HETATM   41  C1  UNL     1      -1.515  15.599  17.841  1.00  0.00     0.204 C 
ENDBRANCH   1  40
BRANCH  12  42
HETATM   42  C13 UNL     1       4.083  11.674  22.240  1.00  0.00    -0.010 C 
HETATM   43  C14 UNL     1       3.225  12.327  23.330  1.00  0.00     0.010 C 
BRANCH  42  44
HETATM   44  C15 UNL     1       5.594  11.819  22.588  1.00  0.00     0.031 C 
BRANCH  44  45
HETATM   45  C16 UNL     1       6.093  13.229  22.767  1.00  0.00    -0.027 C 
HETATM   46  C17 UNL     1       7.342  13.543  23.153  1.00  0.00     0.006 C 
BRANCH  46  47
HETATM   47  C18 UNL     1       7.956  14.928  23.293  1.00  0.00     0.070 C 
HETATM   48  C19 UNL     1       8.685  15.312  21.993  1.00  0.00     0.050 C 
HETATM   49  C20 UNL     1       6.920  16.026  23.593  1.00  0.00     0.050 C 
BRANCH  47  50
HETATM   50  O3  UNL     1       8.817  14.932  24.444  1.00  0.00    -0.382 OA
HETATM   51  C21 UNL     1       8.814  16.094  25.254  1.00  0.00     0.202 C 
ENDBRANCH  47  50
ENDBRANCH  46  47
ENDBRANCH  44  45
ENDBRANCH  42  44
ENDBRANCH  12  42
TORSDOF 13
ENDMDL
MODEL 6
REMARK minimizedAffinity -8.61182976
REMARK CNNscore 0.228619963
REMARK CNNaffinity 7.11820602
REMARK  13 active torsions:
REMARK  status: ('A' for Active; 'I' for Inactive)
REMARK    1  A    between atoms: O1_2  and  C2_3 
REMARK    2  A    between atoms: C12_14  and  C13_15 
REMARK    3  A    between atoms: C13_15  and  C15_17 
REMARK    4  A    between atoms: C15_17  and  C16_18 
REMARK    5  A    between atoms: C17_19  and  C18_20 
REMARK    6  A    between atoms: C18_20  and  O3_23 
REMARK    7  A    between atoms: C29_32  and  O4_33 
REMARK    8  A    between atoms: O4_33  and  C30_34 
REMARK    9  A    between atoms: C31_36  and  C32_37 
REMARK   10  A    between atoms: C32_37  and  O6_38 
REMARK   11  A    between atoms: C33_39  and  O7_40 
REMARK   12  A    between atoms: C34_41  and  O8_42 
REMARK   13  A    between atoms: C35_43  and  O9_44 
ROOT
HETATM    1  C2  UNL     1      -3.407   9.272  14.988  1.00  0.00     0.270 C 
HETATM    2  O2  UNL     1      -2.102   8.910  15.518  1.00  0.00    -0.344 OA
HETATM    3  C3  UNL     1      -1.577   7.815  14.721  1.00  0.00     0.095 C 
HETATM    4  C4  UNL     1      -1.826   6.522  15.514  1.00  0.00     0.008 C 
HETATM    5  C5  UNL     1      -3.077   6.057  15.716  1.00  0.00    -0.021 C 
HETATM    6  C6  UNL     1      -4.246   6.941  15.355  1.00  0.00     0.030 C 
HETATM    7  C7  UNL     1      -3.899   7.994  14.211  1.00  0.00     0.024 C 
HETATM    8  C8  UNL     1      -4.996   8.271  13.146  1.00  0.00     0.016 C 
HETATM    9  C9  UNL     1      -6.400   7.682  13.345  1.00  0.00     0.011 C 
HETATM   10  C10 UNL     1      -6.386   6.285  13.978  1.00  0.00    -0.032 C 
HETATM   11  C11 UNL     1      -5.658   5.293  13.042  1.00  0.00     0.016 C 
HETATM   12  C12 UNL     1      -7.778   5.669  14.341  1.00  0.00    -0.002 C 
HETATM   13  C22 UNL     1      -7.415   4.688  15.503  1.00  0.00     0.006 C 
HETATM   14  C23 UNL     1      -5.995   5.042  15.992  1.00  0.00     0.011 C 
HETATM   15  C24 UNL     1      -5.723   6.427  15.392  1.00  0.00    -0.029 C 
HETATM   16  C25 UNL     1      -6.487   7.451  16.328  1.00  0.00     0.016 C 
HETATM   17  C26 UNL     1      -2.521   7.742  13.517  1.00  0.00     0.039 C 
HETATM   18  C27 UNL     1      -2.219   6.516  12.646  1.00  0.00     0.011 C 
HETATM   19  C28 UNL     1      -0.705   6.284  12.490  1.00  0.00     0.033 C 
HETATM   20  C29 UNL     1       0.121   7.542  12.783  1.00  0.00     0.136 C 
HETATM   21  C36 UNL     1      -0.098   8.086  14.246  1.00  0.00     0.014 C 
HETATM   22  C37 UNL     1       0.952   7.511  15.228  1.00  0.00     0.021 C 
HETATM   23  C38 UNL     1       0.191   9.610  14.195  1.00  0.00     0.021 C 
ENDROOT
BRANCH  20  24
HETATM   24  O4  UNL     1       1.519   7.319  12.564  1.00  0.00    -0.352 OA
BRANCH  24  25
HETATM   25  C30 UNL     1       2.237   8.461  12.101  1.00  0.00     0.292 C 
HETATM   26  O5  UNL     1       1.908   8.781  10.749  1.00  0.00    -0.348 OA
HETATM   27  C31 UNL     1       2.389   7.868   9.756  1.00  0.00     0.179 C 
HETATM   28  C33 UNL     1       3.911   7.644   9.871  1.00  0.00     0.180 C 
HETATM   29  C34 UNL     1       4.341   7.254  11.293  1.00  0.00     0.183 C 
HETATM   30  C35 UNL     1       3.752   8.241  12.313  1.00  0.00     0.204 C 
BRANCH  27  31
HETATM   31  C32 UNL     1       1.564   6.573   9.691  1.00  0.00     0.198 C 
BRANCH  31  32
HETATM   32  O6  UNL     1       2.350   5.501   9.169  1.00  0.00    -0.398 OA
HETATM   33  H50 UNL     1       2.415   5.637   8.206  1.00  0.00     0.209 HD
ENDBRANCH  31  32
ENDBRANCH  27  31
BRANCH  28  34
HETATM   34  O7  UNL     1       4.576   8.886   9.548  1.00  0.00    -0.390 OA
HETATM   35  H52 UNL     1       4.447   9.033   8.592  1.00  0.00     0.210 HD
ENDBRANCH  28  34
BRANCH  29  36
HETATM   36  O8  UNL     1       3.994   5.897  11.567  1.00  0.00    -0.390 OA
HETATM   37  H54 UNL     1       4.020   5.762  12.530  1.00  0.00     0.210 HD
ENDBRANCH  29  36
BRANCH  30  38
HETATM   38  O9  UNL     1       4.450   9.497  12.239  1.00  0.00    -0.388 OA
HETATM   39  H56 UNL     1       4.492   9.736  11.286  1.00  0.00     0.210 HD
ENDBRANCH  30  38
ENDBRANCH  24  25
ENDBRANCH  20  24
BRANCH   1  40
HETATM   40  O1  UNL     1      -3.302  10.408  14.127  1.00  0.00    -0.365 OA
HETATM   41  C1  UNL     1      -2.866  11.564  14.829  1.00  0.00     0.204 C 
ENDBRANCH   1  40
BRANCH  12  42
HETATM   42  C13 UNL     1      -8.676   4.988  13.257  1.00  0.00    -0.010 C 
HETATM   43  C14 UNL     1      -8.085   3.662  12.764  1.00  0.00     0.010 C 
BRANCH  42  44
HETATM   44  C15 UNL     1      -8.858   5.970  12.062  1.00  0.00     0.031 C 
BRANCH  44  45
HETATM   45  C16 UNL     1     -10.075   6.856  12.122  1.00  0.00    -0.027 C 
HETATM   46  C17 UNL     1     -10.910   6.919  13.174  1.00  0.00     0.006 C 
BRANCH  46  47
HETATM   47  C18 UNL     1     -12.117   7.828  13.355  1.00  0.00     0.070 C 
HETATM   48  C19 UNL     1     -11.962   9.085  12.479  1.00  0.00     0.050 C 
HETATM   49  C20 UNL     1     -13.449   7.155  12.980  1.00  0.00     0.050 C 
BRANCH  47  50
HETATM   50  O3  UNL     1     -12.256   8.130  14.754  1.00  0.00    -0.382 OA
HETATM   51  C21 UNL     1     -13.558   8.059  15.307  1.00  0.00     0.202 C 
ENDBRANCH  47  50
ENDBRANCH  46  47
ENDBRANCH  44  45
ENDBRANCH  42  44
ENDBRANCH  12  42
TORSDOF 13
ENDMDL
MODEL 7
REMARK minimizedAffinity -8.06853676
REMARK CNNscore 0.228167444
REMARK CNNaffinity 6.62994003
REMARK  13 active torsions:
REMARK  status: ('A' for Active; 'I' for Inactive)
REMARK    1  A    between atoms: O1_2  and  C2_3 
REMARK    2  A    between atoms: C12_14  and  C13_15 
REMARK    3  A    between atoms: C13_15  and  C15_17 
REMARK    4  A    between atoms: C15_17  and  C16_18 
REMARK    5  A    between atoms: C17_19  and  C18_20 
REMARK    6  A    between atoms: C18_20  and  O3_23 
REMARK    7  A    between atoms: C29_32  and  O4_33 
REMARK    8  A    between atoms: O4_33  and  C30_34 
REMARK    9  A    between atoms: C31_36  and  C32_37 
REMARK   10  A    between atoms: C32_37  and  O6_38 
REMARK   11  A    between atoms: C33_39  and  O7_40 
REMARK   12  A    between atoms: C34_41  and  O8_42 
REMARK   13  A    between atoms: C35_43  and  O9_44 
ROOT
HETATM    1  C2  UNL     1     -18.441   4.593  16.064  1.00  0.00     0.270 C 
HETATM    2  O2  UNL     1     -18.964   3.397  15.423  1.00  0.00    -0.344 OA
HETATM    3  C3  UNL     1     -17.840   2.591  14.982  1.00  0.00     0.095 C 
HETATM    4  C4  UNL     1     -17.663   2.849  13.477  1.00  0.00     0.008 C 
HETATM    5  C5  UNL     1     -17.254   4.051  13.019  1.00  0.00    -0.021 C 
HETATM    6  C6  UNL     1     -17.195   5.213  13.982  1.00  0.00     0.030 C 
HETATM    7  C7  UNL     1     -16.984   4.756  15.494  1.00  0.00     0.024 C 
HETATM    8  C8  UNL     1     -16.042   5.626  16.371  1.00  0.00     0.016 C 
HETATM    9  C9  UNL     1     -15.524   6.962  15.819  1.00  0.00     0.011 C 
HETATM   10  C10 UNL     1     -15.225   6.920  14.315  1.00  0.00    -0.032 C 
HETATM   11  C11 UNL     1     -14.099   5.898  14.033  1.00  0.00     0.016 C 
HETATM   12  C12 UNL     1     -14.823   8.275  13.645  1.00  0.00    -0.002 C 
HETATM   13  C22 UNL     1     -15.261   8.055  12.160  1.00  0.00     0.006 C 
HETATM   14  C23 UNL     1     -16.188   6.822  12.120  1.00  0.00     0.011 C 
HETATM   15  C24 UNL     1     -16.575   6.593  13.587  1.00  0.00    -0.029 C 
HETATM   16  C25 UNL     1     -17.711   7.653  13.896  1.00  0.00     0.016 C 
HETATM   17  C26 UNL     1     -16.626   3.243  15.652  1.00  0.00     0.039 C 
HETATM   18  C27 UNL     1     -15.315   2.621  15.155  1.00  0.00     0.011 C 
HETATM   19  C28 UNL     1     -15.424   1.092  15.013  1.00  0.00     0.033 C 
HETATM   20  C29 UNL     1     -16.572   0.500  15.840  1.00  0.00     0.136 C 
HETATM   21  C36 UNL     1     -17.978   1.086  15.436  1.00  0.00     0.014 C 
HETATM   22  C37 UNL     1     -18.672   0.209  14.365  1.00  0.00     0.021 C 
HETATM   23  C38 UNL     1     -18.879   0.974  16.695  1.00  0.00     0.021 C 
ENDROOT
BRANCH  20  24
HETATM   24  O4  UNL     1     -16.609  -0.929  15.745  1.00  0.00    -0.352 OA
BRANCH  24  25
HETATM   25  C30 UNL     1     -15.913  -1.612  16.785  1.00  0.00     0.292 C 
HETATM   26  O5  UNL     1     -15.129  -2.692  16.277  1.00  0.00    -0.348 OA
HETATM   27  C31 UNL     1     -15.862  -3.824  15.796  1.00  0.00     0.179 C 
HETATM   28  C33 UNL     1     -16.846  -4.363  16.854  1.00  0.00     0.180 C 
HETATM   29  C34 UNL     1     -17.757  -3.264  17.422  1.00  0.00     0.183 C 
HETATM   30  C35 UNL     1     -16.915  -2.060  17.873  1.00  0.00     0.204 C 
BRANCH  27  31
HETATM   31  C32 UNL     1     -16.492  -3.581  14.415  1.00  0.00     0.198 C 
BRANCH  31  32
HETATM   32  O6  UNL     1     -17.573  -4.485  14.189  1.00  0.00    -0.398 OA
HETATM   33  H50 UNL     1     -17.181  -5.352  13.978  1.00  0.00     0.209 HD
ENDBRANCH  31  32
ENDBRANCH  27  31
BRANCH  28  34
HETATM   34  O7  UNL     1     -16.076  -4.894  17.957  1.00  0.00    -0.390 OA
HETATM   35  H52 UNL     1     -15.640  -5.703  17.631  1.00  0.00     0.210 HD
ENDBRANCH  28  34
BRANCH  29  36
HETATM   36  O8  UNL     1     -18.768  -2.915  16.478  1.00  0.00    -0.390 OA
HETATM   37  H54 UNL     1     -19.145  -2.056  16.735  1.00  0.00     0.210 HD
ENDBRANCH  29  36
BRANCH  30  38
HETATM   38  O9  UNL     1     -16.217  -2.378  19.090  1.00  0.00    -0.388 OA
HETATM   39  H56 UNL     1     -15.792  -3.253  18.946  1.00  0.00     0.210 HD
ENDBRANCH  30  38
ENDBRANCH  24  25
ENDBRANCH  20  24
BRANCH   1  40
HETATM   40  O1  UNL     1     -18.441   4.441  17.485  1.00  0.00    -0.365 OA
HETATM   41  C1  UNL     1     -19.404   5.281  18.107  1.00  0.00     0.204 C 
ENDBRANCH   1  40
BRANCH  12  42
HETATM   42  C13 UNL     1     -13.367   8.837  13.750  1.00  0.00    -0.010 C 
HETATM   43  C14 UNL     1     -13.096   9.943  12.723  1.00  0.00     0.010 C 
BRANCH  42  44
HETATM   44  C15 UNL     1     -12.360   7.665  13.554  1.00  0.00     0.031 C 
BRANCH  44  45
HETATM   45  C16 UNL     1     -11.031   7.821  14.247  1.00  0.00    -0.027 C 
HETATM   46  C17 UNL     1     -10.008   6.958  14.118  1.00  0.00     0.006 C 
BRANCH  46  47
HETATM   47  C18 UNL     1      -8.614   7.065  14.718  1.00  0.00     0.070 C 
HETATM   48  C19 UNL     1      -8.335   8.520  15.136  1.00  0.00     0.050 C 
HETATM   49  C20 UNL     1      -8.413   6.174  15.956  1.00  0.00     0.050 C 
BRANCH  47  50
HETATM   50  O3  UNL     1      -7.665   6.562  13.763  1.00  0.00    -0.382 OA
HETATM   51  C21 UNL     1      -8.113   5.557  12.871  1.00  0.00     0.202 C 
ENDBRANCH  47  50
ENDBRANCH  46  47
ENDBRANCH  44  45
ENDBRANCH  42  44
ENDBRANCH  12  42
TORSDOF 13
ENDMDL
MODEL 8
REMARK minimizedAffinity -7.24871778
REMARK CNNscore 0.211899668
REMARK CNNaffinity 6.12756968
REMARK  13 active torsions:
REMARK  status: ('A' for Active; 'I' for Inactive)
REMARK    1  A    between atoms: O1_2  and  C2_3 
REMARK    2  A    between atoms: C12_14  and  C13_15 
REMARK    3  A    between atoms: C13_15  and  C15_17 
REMARK    4  A    between atoms: C15_17  and  C16_18 
REMARK    5  A    between atoms: C17_19  and  C18_20 
REMARK    6  A    between atoms: C18_20  and  O3_23 
REMARK    7  A    between atoms: C29_32  and  O4_33 
REMARK    8  A    between atoms: O4_33  and  C30_34 
REMARK    9  A    between atoms: C31_36  and  C32_37 
REMARK   10  A    between atoms: C32_37  and  O6_38 
REMARK   11  A    between atoms: C33_39  and  O7_40 
REMARK   12  A    between atoms: C34_41  and  O8_42 
REMARK   13  A    between atoms: C35_43  and  O9_44 
ROOT
HETATM    1  C2  UNL     1       1.113  11.807  16.487  1.00  0.00     0.270 C 
HETATM    2  O2  UNL     1       1.432  10.388  16.476  1.00  0.00    -0.344 OA
HETATM    3  C3  UNL     1       0.515   9.725  15.564  1.00  0.00     0.095 C 
HETATM    4  C4  UNL     1      -0.582   9.076  16.423  1.00  0.00     0.008 C 
HETATM    5  C5  UNL     1      -1.470   9.828  17.106  1.00  0.00    -0.021 C 
HETATM    6  C6  UNL     1      -1.234  11.316  17.207  1.00  0.00     0.030 C 
HETATM    7  C7  UNL     1      -0.379  11.893  15.993  1.00  0.00     0.024 C 
HETATM    8  C8  UNL     1      -0.793  13.282  15.432  1.00  0.00     0.016 C 
HETATM    9  C9  UNL     1      -1.854  14.105  16.176  1.00  0.00     0.011 C 
HETATM   10  C10 UNL     1      -2.968  13.245  16.787  1.00  0.00    -0.032 C 
HETATM   11  C11 UNL     1      -3.736  12.509  15.666  1.00  0.00     0.016 C 
HETATM   12  C12 UNL     1      -4.016  13.991  17.678  1.00  0.00    -0.002 C 
HETATM   13  C22 UNL     1      -4.512  12.855  18.630  1.00  0.00     0.006 C 
HETATM   14  C23 UNL     1      -3.518  11.680  18.520  1.00  0.00     0.011 C 
HETATM   15  C24 UNL     1      -2.291  12.287  17.828  1.00  0.00    -0.029 C 
HETATM   16  C25 UNL     1      -1.508  13.068  18.963  1.00  0.00     0.016 C 
HETATM   17  C26 UNL     1      -0.174  10.876  14.825  1.00  0.00     0.039 C 
HETATM   18  C27 UNL     1      -1.313  10.362  13.934  1.00  0.00     0.011 C 
HETATM   19  C28 UNL     1      -0.929   9.060  13.207  1.00  0.00     0.033 C 
HETATM   20  C29 UNL     1       0.588   8.853  13.125  1.00  0.00     0.136 C 
HETATM   21  C36 UNL     1       1.271   8.788  14.544  1.00  0.00     0.014 C 
HETATM   22  C37 UNL     1       1.384   7.331  15.054  1.00  0.00     0.021 C 
HETATM   23  C38 UNL     1       2.736   9.261  14.349  1.00  0.00     0.021 C 
ENDROOT
BRANCH  20  24
HETATM   24  O4  UNL     1       0.921   7.672  12.386  1.00  0.00    -0.352 OA
BRANCH  24  25
HETATM   25  C30 UNL     1       2.226   7.679  11.811  1.00  0.00     0.292 C 
HETATM   26  O5  UNL     1       2.283   8.488  10.635  1.00  0.00    -0.348 OA
HETATM   27  C31 UNL     1       1.599   7.971   9.488  1.00  0.00     0.179 C 
HETATM   28  C33 UNL     1       2.056   6.539   9.144  1.00  0.00     0.180 C 
HETATM   29  C34 UNL     1       1.984   5.594  10.353  1.00  0.00     0.183 C 
HETATM   30  C35 UNL     1       2.691   6.227  11.562  1.00  0.00     0.204 C 
BRANCH  27  31
HETATM   31  C32 UNL     1       0.075   8.142   9.579  1.00  0.00     0.198 C 
BRANCH  31  32
HETATM   32  O6  UNL     1      -0.380   9.116   8.638  1.00  0.00    -0.398 OA
HETATM   33  H50 UNL     1      -0.151   9.991   9.000  1.00  0.00     0.209 HD
ENDBRANCH  31  32
ENDBRANCH  27  31
BRANCH  28  34
HETATM   34  O7  UNL     1       3.439   6.595   8.725  1.00  0.00    -0.390 OA
HETATM   35  H52 UNL     1       3.452   7.043   7.858  1.00  0.00     0.210 HD
ENDBRANCH  28  34
BRANCH  29  36
HETATM   36  O8  UNL     1       0.631   5.231  10.625  1.00  0.00    -0.390 OA
HETATM   37  H54 UNL     1       0.585   4.873  11.528  1.00  0.00     0.210 HD
ENDBRANCH  29  36
BRANCH  30  38
HETATM   38  O9  UNL     1       4.117   6.188  11.372  1.00  0.00    -0.388 OA
HETATM   39  H56 UNL     1       4.286   6.529  10.466  1.00  0.00     0.210 HD
ENDBRANCH  30  38
ENDBRANCH  24  25
ENDBRANCH  20  24
BRANCH   1  40
HETATM   40  O1  UNL     1       1.999  12.527  15.625  1.00  0.00    -0.365 OA
HETATM   41  C1  UNL     1       2.904  13.340  16.359  1.00  0.00     0.204 C 
ENDBRANCH   1  40
BRANCH  12  42
HETATM   42  C13 UNL     1      -5.205  14.787  17.045  1.00  0.00    -0.010 C 
HETATM   43  C14 UNL     1      -6.401  13.883  16.724  1.00  0.00     0.010 C 
BRANCH  42  44
HETATM   44  C15 UNL     1      -4.706  15.495  15.751  1.00  0.00     0.031 C 
BRANCH  44  45
HETATM   45  C16 UNL     1      -5.392  16.791  15.407  1.00  0.00    -0.027 C 
HETATM   46  C17 UNL     1      -6.141  16.979  14.306  1.00  0.00     0.006 C 
BRANCH  46  47
HETATM   47  C18 UNL     1      -6.926  18.221  13.911  1.00  0.00     0.070 C 
HETATM   48  C19 UNL     1      -6.482  19.417  14.773  1.00  0.00     0.050 C 
HETATM   49  C20 UNL     1      -6.743  18.613  12.434  1.00  0.00     0.050 C 
BRANCH  47  50
HETATM   50  O3  UNL     1      -8.329  17.932  14.029  1.00  0.00    -0.382 OA
HETATM   51  C21 UNL     1      -9.058  17.753  12.827  1.00  0.00     0.202 C 
ENDBRANCH  47  50
ENDBRANCH  46  47
ENDBRANCH  44  45
ENDBRANCH  42  44
ENDBRANCH  12  42
TORSDOF 13
ENDMDL
MODEL 9
REMARK minimizedAffinity -7.13166714
REMARK CNNscore 0.205676183
REMARK CNNaffinity 6.18351126
REMARK  13 active torsions:
REMARK  status: ('A' for Active; 'I' for Inactive)
REMARK    1  A    between atoms: O1_2  and  C2_3 
REMARK    2  A    between atoms: C12_14  and  C13_15 
REMARK    3  A    between atoms: C13_15  and  C15_17 
REMARK    4  A    between atoms: C15_17  and  C16_18 
REMARK    5  A    between atoms: C17_19  and  C18_20 
REMARK    6  A    between atoms: C18_20  and  O3_23 
REMARK    7  A    between atoms: C29_32  and  O4_33 
REMARK    8  A    between atoms: O4_33  and  C30_34 
REMARK    9  A    between atoms: C31_36  and  C32_37 
REMARK   10  A    between atoms: C32_37  and  O6_38 
REMARK   11  A    between atoms: C33_39  and  O7_40 
REMARK   12  A    between atoms: C34_41  and  O8_42 
REMARK   13  A    between atoms: C35_43  and  O9_44 
ROOT
HETATM    1  C2  UNL     1      -5.355 -12.167  -1.350  1.00  0.00     0.270 C 
HETATM    2  O2  UNL     1      -6.627 -12.406  -2.012  1.00  0.00    -0.344 OA
HETATM    3  C3  UNL     1      -7.528 -11.319  -1.670  1.00  0.00     0.095 C 
HETATM    4  C4  UNL     1      -8.454 -11.835  -0.557  1.00  0.00     0.008 C 
HETATM    5  C5  UNL     1      -7.977 -12.112   0.675  1.00  0.00    -0.021 C 
HETATM    6  C6  UNL     1      -6.482 -12.131   0.887  1.00  0.00     0.030 C 
HETATM    7  C7  UNL     1      -5.696 -11.209  -0.149  1.00  0.00     0.024 C 
HETATM    8  C8  UNL     1      -4.484 -10.404   0.398  1.00  0.00     0.016 C 
HETATM    9  C9  UNL     1      -3.987 -10.673   1.826  1.00  0.00     0.011 C 
HETATM   10  C10 UNL     1      -5.121 -10.974   2.814  1.00  0.00    -0.032 C 
HETATM   11  C11 UNL     1      -6.053  -9.746   2.932  1.00  0.00     0.016 C 
HETATM   12  C12 UNL     1      -4.694 -11.394   4.260  1.00  0.00    -0.002 C 
HETATM   13  C22 UNL     1      -5.917 -12.244   4.734  1.00  0.00     0.006 C 
HETATM   14  C23 UNL     1      -6.765 -12.584   3.492  1.00  0.00     0.011 C 
HETATM   15  C24 UNL     1      -5.842 -12.271   2.307  1.00  0.00    -0.029 C 
HETATM   16  C25 UNL     1      -4.864 -13.512   2.192  1.00  0.00     0.016 C 
HETATM   17  C26 UNL     1      -6.624 -10.281  -0.998  1.00  0.00     0.039 C 
HETATM   18  C27 UNL     1      -7.444  -9.126  -0.408  1.00  0.00     0.011 C 
HETATM   19  C28 UNL     1      -8.589  -8.702  -1.345  1.00  0.00     0.033 C 
HETATM   20  C29 UNL     1      -8.362  -9.139  -2.796  1.00  0.00     0.136 C 
HETATM   21  C36 UNL     1      -8.222 -10.702  -2.945  1.00  0.00     0.014 C 
HETATM   22  C37 UNL     1      -9.585 -11.368  -3.255  1.00  0.00     0.021 C 
HETATM   23  C38 UNL     1      -7.358 -10.946  -4.211  1.00  0.00     0.021 C 
ENDROOT
BRANCH  20  24
HETATM   24  O4  UNL     1      -9.407  -8.674  -3.658  1.00  0.00    -0.352 OA
BRANCH  24  25
HETATM   25  C30 UNL     1     -10.024  -7.458  -3.242  1.00  0.00     0.292 C 
HETATM   26  O5  UNL     1     -11.444  -7.504  -3.398  1.00  0.00    -0.348 OA
HETATM   27  C31 UNL     1     -11.924  -7.481  -4.746  1.00  0.00     0.179 C 
HETATM   28  C33 UNL     1     -11.363  -6.280  -5.535  1.00  0.00     0.180 C 
HETATM   29  C34 UNL     1      -9.833  -6.185  -5.450  1.00  0.00     0.183 C 
HETATM   30  C35 UNL     1      -9.378  -6.267  -3.984  1.00  0.00     0.204 C 
BRANCH  27  31
HETATM   31  C32 UNL     1     -11.764  -8.833  -5.458  1.00  0.00     0.198 C 
BRANCH  31  32
HETATM   32  O6  UNL     1     -11.772  -8.661  -6.875  1.00  0.00    -0.398 OA
HETATM   33  H50 UNL     1     -12.698  -8.509  -7.139  1.00  0.00     0.209 HD
ENDBRANCH  31  32
ENDBRANCH  27  31
BRANCH  28  34
HETATM   34  O7  UNL     1     -11.901  -5.069  -4.957  1.00  0.00    -0.390 OA
HETATM   35  H52 UNL     1     -12.851  -5.050  -5.176  1.00  0.00     0.210 HD
ENDBRANCH  28  34
BRANCH  29  36
HETATM   36  O8  UNL     1      -9.223  -7.174  -6.278  1.00  0.00    -0.390 OA
HETATM   37  H54 UNL     1      -8.296  -7.276  -6.003  1.00  0.00     0.210 HD
ENDBRANCH  29  36
BRANCH  30  38
HETATM   38  O9  UNL     1      -9.685  -5.035  -3.307  1.00  0.00    -0.388 OA
HETATM   39  H56 UNL     1     -10.620  -4.824  -3.524  1.00  0.00     0.210 HD
ENDBRANCH  30  38
ENDBRANCH  24  25
ENDBRANCH  20  24
BRANCH   1  40
HETATM   40  O1  UNL     1      -4.422 -11.571  -2.254  1.00  0.00    -0.365 OA
HETATM   41  C1  UNL     1      -3.383 -12.473  -2.611  1.00  0.00     0.204 C 
ENDBRANCH   1  40
BRANCH  12  42
HETATM   42  C13 UNL     1      -4.270 -10.330   5.326  1.00  0.00    -0.010 C 
HETATM   43  C14 UNL     1      -2.961  -9.624   4.951  1.00  0.00     0.010 C 
BRANCH  42  44
HETATM   44  C15 UNL     1      -4.124 -11.032   6.708  1.00  0.00     0.031 C 
BRANCH  44  45
HETATM   45  C16 UNL     1      -4.966 -10.466   7.822  1.00  0.00    -0.027 C 
HETATM   46  C17 UNL     1      -4.753 -10.712   9.127  1.00  0.00     0.006 C 
BRANCH  46  47
HETATM   47  C18 UNL     1      -5.501 -10.136  10.320  1.00  0.00     0.070 C 
HETATM   48  C19 UNL     1      -6.412  -8.984   9.860  1.00  0.00     0.050 C 
HETATM   49  C20 UNL     1      -6.381 -11.169  11.045  1.00  0.00     0.050 C 
BRANCH  47  50
HETATM   50  O3  UNL     1      -4.540  -9.733  11.310  1.00  0.00    -0.382 OA
HETATM   51  C21 UNL     1      -3.292  -9.250  10.845  1.00  0.00     0.202 C 
ENDBRANCH  47  50
ENDBRANCH  46  47
ENDBRANCH  44  45
ENDBRANCH  42  44
ENDBRANCH  12  42
TORSDOF 13
ENDMDL
