MODEL 1
REMARK minimizedAffinity -8.45439625
REMARK CNNscore 0.514991105
REMARK CNNaffinity 6.46523142
REMARK  10 active torsions:
REMARK  status: ('A' for Active; 'I' for Inactive)
REMARK    1  A    between atoms: C3_3  and  O1_4 
REMARK    2  A    between atoms: N1_14  and  O2_16 
REMARK    3  A    between atoms: O2_16  and  C13_17 
REMARK    4  A    between atoms: C13_17  and  C14_18 
REMARK       I    between atoms: C14_18  and  N2_20 
REMARK    5  A    between atoms: N2_20  and  C15_21 
REMARK    6  A    between atoms: C15_21  and  C16_22 
REMARK    7  A    between atoms: C15_21  and  C19_29 
REMARK       I    between atoms: C16_22  and  N3_24 
REMARK    8  A    between atoms: N3_24  and  C17_25 
REMARK    9  A    between atoms: C17_25  and  C18_26 
REMARK   10  A    between atoms: C18_26  and  O6_28 
ROOT
HETATM    1  C1  UNL     1       0.964  51.911 -26.693  1.00  0.00     0.015 C 
HETATM    2  C2  UNL     1      -0.236  51.911 -26.650  1.00  0.00    -0.078 C 
HETATM    3  C3  UNL     1      -1.717  51.893 -26.609  1.00  0.00     0.128 C 
HETATM    4  C4  UNL     1      -2.237  50.591 -27.241  1.00  0.00     0.052 C 
HETATM    5  C5  UNL     1      -2.466  49.610 -26.080  1.00  0.00     0.010 C 
HETATM    6  C6  UNL     1      -2.124  50.372 -24.785  1.00  0.00     0.002 C 
HETATM    7  C7  UNL     1      -2.900  49.938 -23.523  1.00  0.00    -0.004 C 
HETATM    8  C8  UNL     1      -2.760  48.429 -23.278  1.00  0.00     0.010 C 
HETATM    9  C9  UNL     1      -3.400  48.026 -21.957  1.00  0.00     0.035 C 
HETATM   10  C10 UNL     1      -4.844  48.457 -21.865  1.00  0.00    -0.069 C 
HETATM   11  C11 UNL     1      -5.764  47.584 -21.413  1.00  0.00     0.030 C 
HETATM   12  C12 UNL     1      -7.158  47.996 -21.114  1.00  0.00     0.032 C 
HETATM   13  N1  UNL     1      -7.936  47.124 -20.535  1.00  0.00    -0.271 N 
ATOM     14  H1  UNL     1      -7.665  46.163 -20.328  1.00  0.00     0.194 HD
HETATM   15  C22 UNL     1      -7.566  49.423 -21.415  1.00  0.00     0.060 C 
HETATM   16  C23 UNL     1      -6.689  50.047 -22.493  1.00  0.00     0.020 C 
HETATM   17  C24 UNL     1      -5.163  49.911 -22.226  1.00  0.00    -0.016 C 
HETATM   18  C25 UNL     1      -4.778  50.792 -21.014  1.00  0.00     0.020 C 
HETATM   19  C26 UNL     1      -4.396  50.340 -23.542  1.00  0.00     0.002 C 
HETATM   20  C27 UNL     1      -4.543  51.840 -23.872  1.00  0.00     0.007 C 
HETATM   21  C28 UNL     1      -3.816  52.233 -25.158  1.00  0.00     0.014 C 
HETATM   22  C29 UNL     1      -2.307  51.858 -25.163  1.00  0.00     0.003 C 
HETATM   23  C30 UNL     1      -1.560  52.797 -24.193  1.00  0.00     0.020 C 
ENDROOT
BRANCH   3  24
HETATM   24  O1  UNL     1      -2.209  53.014 -27.333  1.00  0.00    -0.377 OA
HETATM   25  H2  UNL     1      -1.574  53.200 -28.044  1.00  0.00     0.211 HD
ENDBRANCH   3  24
BRANCH  13  26
HETATM   26  O2  UNL     1      -9.191  47.673 -20.231  1.00  0.00    -0.271 OA
BRANCH  26  27
HETATM   27  C13 UNL     1     -10.174  46.647 -20.332  1.00  0.00     0.303 C 
BRANCH  27  28
HETATM   28  C14 UNL     1     -11.528  47.196 -19.906  1.00  0.00     0.244 C 
HETATM   29  O3  UNL     1     -11.699  48.370 -19.588  1.00  0.00    -0.271 OA
HETATM   30  N2  UNL     1     -12.530  46.247 -19.835  1.00  0.00    -0.346 N 
HETATM   31  H16 UNL     1     -12.341  45.368 -20.310  1.00  0.00     0.163 HD
BRANCH  30  32
HETATM   32  C15 UNL     1     -13.931  46.633 -19.600  1.00  0.00     0.180 C 
BRANCH  32  33
HETATM   33  C16 UNL     1     -14.597  47.169 -20.896  1.00  0.00     0.241 C 
HETATM   34  O4  UNL     1     -14.298  48.247 -21.401  1.00  0.00    -0.271 OA
HETATM   35  N3  UNL     1     -15.450  46.282 -21.511  1.00  0.00    -0.349 N 
HETATM   36  H18 UNL     1     -15.797  45.508 -20.951  1.00  0.00     0.163 HD
BRANCH  35  37
HETATM   37  C17 UNL     1     -16.243  46.672 -22.661  1.00  0.00     0.232 C 
BRANCH  37  38
HETATM   38  C18 UNL     1     -15.511  46.408 -23.968  1.00  0.00     0.158 C 
HETATM   39  O5  UNL     1     -15.570  45.385 -24.632  1.00  0.00    -0.649 OA
BRANCH  38  40
HETATM   40  O6  UNL     1     -14.719  47.431 -24.370  1.00  0.00    -0.775 OA
HETATM   41  H21 UNL     1     -14.319  47.092 -25.199  1.00  0.00     0.167 HD
ENDBRANCH  38  40
ENDBRANCH  37  38
ENDBRANCH  35  37
ENDBRANCH  32  33
BRANCH  32  42
HETATM   42  C19 UNL     1     -14.015  47.653 -18.438  1.00  0.00     0.009 C 
HETATM   43  C20 UNL     1     -15.334  48.431 -18.402  1.00  0.00     0.012 C 
HETATM   44  C21 UNL     1     -13.757  46.996 -17.079  1.00  0.00     0.012 C 
ENDBRANCH  32  42
ENDBRANCH  30  32
ENDBRANCH  27  28
ENDBRANCH  26  27
ENDBRANCH  13  26
TORSDOF 10
ENDMDL
MODEL 2
REMARK minimizedAffinity -8.04673862
REMARK CNNscore 0.367318988
REMARK CNNaffinity 6.85675573
REMARK  10 active torsions:
REMARK  status: ('A' for Active; 'I' for Inactive)
REMARK    1  A    between atoms: C3_3  and  O1_4 
REMARK    2  A    between atoms: N1_14  and  O2_16 
REMARK    3  A    between atoms: O2_16  and  C13_17 
REMARK    4  A    between atoms: C13_17  and  C14_18 
REMARK       I    between atoms: C14_18  and  N2_20 
REMARK    5  A    between atoms: N2_20  and  C15_21 
REMARK    6  A    between atoms: C15_21  and  C16_22 
REMARK    7  A    between atoms: C15_21  and  C19_29 
REMARK       I    between atoms: C16_22  and  N3_24 
REMARK    8  A    between atoms: N3_24  and  C17_25 
REMARK    9  A    between atoms: C17_25  and  C18_26 
REMARK   10  A    between atoms: C18_26  and  O6_28 
ROOT
HETATM    1  C1  UNL     1      -4.450  48.367 -23.417  1.00  0.00     0.015 C 
HETATM    2  C2  UNL     1      -3.821  47.948 -22.485  1.00  0.00    -0.078 C 
HETATM    3  C3  UNL     1      -3.025  47.431 -21.347  1.00  0.00     0.128 C 
HETATM    4  C4  UNL     1      -1.540  47.361 -21.741  1.00  0.00     0.052 C 
HETATM    5  C5  UNL     1      -0.900  48.665 -21.241  1.00  0.00     0.010 C 
HETATM    6  C6  UNL     1      -2.009  49.453 -20.518  1.00  0.00     0.002 C 
HETATM    7  C7  UNL     1      -1.545  50.367 -19.365  1.00  0.00    -0.004 C 
HETATM    8  C8  UNL     1      -0.454  51.339 -19.834  1.00  0.00     0.010 C 
HETATM    9  C9  UNL     1      -0.100  52.338 -18.741  1.00  0.00     0.035 C 
HETATM   10  C10 UNL     1       0.299  51.659 -17.452  1.00  0.00    -0.069 C 
HETATM   11  C11 UNL     1       1.390  52.090 -16.792  1.00  0.00     0.030 C 
HETATM   12  C12 UNL     1       1.728  51.602 -15.432  1.00  0.00     0.032 C 
HETATM   13  N1  UNL     1       2.712  52.187 -14.807  1.00  0.00    -0.271 N 
ATOM     14  H1  UNL     1       3.298  52.915 -15.215  1.00  0.00     0.194 HD
HETATM   15  C22 UNL     1       0.859  50.524 -14.818  1.00  0.00     0.060 C 
HETATM   16  C23 UNL     1       0.143  49.702 -15.881  1.00  0.00     0.020 C 
HETATM   17  C24 UNL     1      -0.625  50.554 -16.931  1.00  0.00    -0.016 C 
HETATM   18  C25 UNL     1      -1.834  51.234 -16.249  1.00  0.00     0.020 C 
HETATM   19  C26 UNL     1      -1.068  49.595 -18.109  1.00  0.00     0.002 C 
HETATM   20  C27 UNL     1      -2.127  48.557 -17.686  1.00  0.00     0.007 C 
HETATM   21  C28 UNL     1      -2.528  47.624 -18.829  1.00  0.00     0.014 C 
HETATM   22  C29 UNL     1      -3.027  48.369 -20.099  1.00  0.00     0.003 C 
HETATM   23  C30 UNL     1      -4.419  48.967 -19.806  1.00  0.00     0.020 C 
ENDROOT
BRANCH   3  24
HETATM   24  O1  UNL     1      -3.499  46.133 -21.009  1.00  0.00    -0.377 OA
HETATM   25  H2  UNL     1      -3.819  45.720 -21.828  1.00  0.00     0.211 HD
ENDBRANCH   3  24
BRANCH  13  26
HETATM   26  O2  UNL     1       2.864  51.690 -13.503  1.00  0.00    -0.271 OA
BRANCH  26  27
HETATM   27  C13 UNL     1       1.705  52.031 -12.748  1.00  0.00     0.303 C 
BRANCH  27  28
HETATM   28  C14 UNL     1       2.126  52.558 -11.383  1.00  0.00     0.244 C 
HETATM   29  O3  UNL     1       2.686  51.857 -10.544  1.00  0.00    -0.271 OA
HETATM   30  N2  UNL     1       1.755  53.867 -11.140  1.00  0.00    -0.346 N 
HETATM   31  H16 UNL     1       1.490  54.410 -11.957  1.00  0.00     0.163 HD
BRANCH  30  32
HETATM   32  C15 UNL     1       2.223  54.582  -9.941  1.00  0.00     0.180 C 
BRANCH  32  33
HETATM   33  C16 UNL     1       1.050  54.898  -8.975  1.00  0.00     0.241 C 
HETATM   34  O4  UNL     1      -0.015  55.376  -9.355  1.00  0.00    -0.271 OA
HETATM   35  N3  UNL     1       1.244  54.476  -7.680  1.00  0.00    -0.349 N 
HETATM   36  H18 UNL     1       2.198  54.275  -7.396  1.00  0.00     0.163 HD
BRANCH  35  37
HETATM   37  C17 UNL     1       0.297  54.803  -6.631  1.00  0.00     0.232 C 
BRANCH  37  38
HETATM   38  C18 UNL     1       0.568  56.174  -6.032  1.00  0.00     0.158 C 
HETATM   39  O5  UNL     1       1.435  56.445  -5.217  1.00  0.00    -0.649 OA
BRANCH  38  40
HETATM   40  O6  UNL     1      -0.277  57.139  -6.466  1.00  0.00    -0.775 OA
HETATM   41  H21 UNL     1       0.021  57.936  -5.978  1.00  0.00     0.167 HD
ENDBRANCH  38  40
ENDBRANCH  37  38
ENDBRANCH  35  37
ENDBRANCH  32  33
BRANCH  32  42
HETATM   42  C19 UNL     1       3.000  55.856 -10.350  1.00  0.00     0.009 C 
HETATM   43  C20 UNL     1       3.449  56.708  -9.159  1.00  0.00     0.012 C 
HETATM   44  C21 UNL     1       4.201  55.534 -11.245  1.00  0.00     0.012 C 
ENDBRANCH  32  42
ENDBRANCH  30  32
ENDBRANCH  27  28
ENDBRANCH  26  27
ENDBRANCH  13  26
TORSDOF 10
ENDMDL
MODEL 3
REMARK minimizedAffinity -7.39688969
REMARK CNNscore 0.365888625
REMARK CNNaffinity 5.92697191
REMARK  10 active torsions:
REMARK  status: ('A' for Active; 'I' for Inactive)
REMARK    1  A    between atoms: C3_3  and  O1_4 
REMARK    2  A    between atoms: N1_14  and  O2_16 
REMARK    3  A    between atoms: O2_16  and  C13_17 
REMARK    4  A    between atoms: C13_17  and  C14_18 
REMARK       I    between atoms: C14_18  and  N2_20 
REMARK    5  A    between atoms: N2_20  and  C15_21 
REMARK    6  A    between atoms: C15_21  and  C16_22 
REMARK    7  A    between atoms: C15_21  and  C19_29 
REMARK       I    between atoms: C16_22  and  N3_24 
REMARK    8  A    between atoms: N3_24  and  C17_25 
REMARK    9  A    between atoms: C17_25  and  C18_26 
REMARK   10  A    between atoms: C18_26  and  O6_28 
ROOT
HETATM    1  C1  UNL     1      -4.352  46.184 -32.385  1.00  0.00     0.015 C 
HETATM    2  C2  UNL     1      -5.415  45.632 -32.292  1.00  0.00    -0.078 C 
HETATM    3  C3  UNL     1      -6.718  44.940 -32.161  1.00  0.00     0.128 C 
HETATM    4  C4  UNL     1      -6.666  43.958 -30.978  1.00  0.00     0.052 C 
HETATM    5  C5  UNL     1      -7.253  44.706 -29.772  1.00  0.00     0.010 C 
HETATM    6  C6  UNL     1      -7.684  46.095 -30.280  1.00  0.00     0.002 C 
HETATM    7  C7  UNL     1      -8.881  46.739 -29.550  1.00  0.00    -0.004 C 
HETATM    8  C8  UNL     1      -8.635  46.806 -28.036  1.00  0.00     0.010 C 
HETATM    9  C9  UNL     1      -9.746  47.572 -27.332  1.00  0.00     0.035 C 
HETATM   10  C10 UNL     1     -11.113  47.005 -27.632  1.00  0.00    -0.069 C 
HETATM   11  C11 UNL     1     -11.984  46.820 -26.623  1.00  0.00     0.030 C 
HETATM   12  C12 UNL     1     -13.401  46.452 -26.868  1.00  0.00     0.032 C 
HETATM   13  N1  UNL     1     -14.211  46.447 -25.845  1.00  0.00    -0.271 N 
ATOM     14  H1  UNL     1     -13.919  46.622 -24.883  1.00  0.00     0.194 HD
HETATM   15  C22 UNL     1     -13.842  46.195 -28.294  1.00  0.00     0.060 C 
HETATM   16  C23 UNL     1     -12.674  45.785 -29.181  1.00  0.00     0.020 C 
HETATM   17  C24 UNL     1     -11.451  46.743 -29.103  1.00  0.00    -0.016 C 
HETATM   18  C25 UNL     1     -11.825  48.098 -29.748  1.00  0.00     0.020 C 
HETATM   19  C26 UNL     1     -10.236  46.047 -29.839  1.00  0.00     0.002 C 
HETATM   20  C27 UNL     1     -10.448  45.902 -31.361  1.00  0.00     0.007 C 
HETATM   21  C28 UNL     1      -9.275  45.207 -32.055  1.00  0.00     0.014 C 
HETATM   22  C29 UNL     1      -7.903  45.889 -31.795  1.00  0.00     0.003 C 
HETATM   23  C30 UNL     1      -7.858  47.222 -32.572  1.00  0.00     0.020 C 
ENDROOT
BRANCH   3  24
HETATM   24  O1  UNL     1      -6.984  44.233 -33.367  1.00  0.00    -0.377 OA
HETATM   25  H2  UNL     1      -6.129  43.959 -33.736  1.00  0.00     0.211 HD
ENDBRANCH   3  24
BRANCH  13  26
HETATM   26  O2  UNL     1     -15.530  46.170 -26.231  1.00  0.00    -0.271 OA
BRANCH  26  27
HETATM   27  C13 UNL     1     -16.183  45.486 -25.166  1.00  0.00     0.303 C 
BRANCH  27  28
HETATM   28  C14 UNL     1     -16.183  46.365 -23.922  1.00  0.00     0.244 C 
HETATM   29  O3  UNL     1     -15.670  47.480 -23.896  1.00  0.00    -0.271 OA
HETATM   30  N2  UNL     1     -16.740  45.769 -22.807  1.00  0.00    -0.346 N 
HETATM   31  H16 UNL     1     -17.311  44.947 -22.983  1.00  0.00     0.163 HD
BRANCH  30  32
HETATM   32  C15 UNL     1     -16.968  46.533 -21.569  1.00  0.00     0.180 C 
BRANCH  32  33
HETATM   33  C16 UNL     1     -15.995  46.093 -20.443  1.00  0.00     0.241 C 
HETATM   34  O4  UNL     1     -15.993  44.960 -19.970  1.00  0.00    -0.271 OA
HETATM   35  N3  UNL     1     -15.043  47.029 -20.110  1.00  0.00    -0.349 N 
HETATM   36  H18 UNL     1     -15.220  47.989 -20.388  1.00  0.00     0.163 HD
BRANCH  35  37
HETATM   37  C17 UNL     1     -14.138  46.820 -18.995  1.00  0.00     0.232 C 
BRANCH  37  38
HETATM   38  C18 UNL     1     -14.293  47.896 -17.932  1.00  0.00     0.158 C 
HETATM   39  O5  UNL     1     -13.927  47.818 -16.770  1.00  0.00    -0.649 OA
BRANCH  38  40
HETATM   40  O6  UNL     1     -14.923  49.012 -18.369  1.00  0.00    -0.775 OA
HETATM   41  H21 UNL     1     -14.953  49.581 -17.570  1.00  0.00     0.167 HD
ENDBRANCH  38  40
ENDBRANCH  37  38
ENDBRANCH  35  37
ENDBRANCH  32  33
BRANCH  32  42
HETATM   42  C19 UNL     1     -18.450  46.416 -21.136  1.00  0.00     0.009 C 
HETATM   43  C20 UNL     1     -19.021  45.002 -21.284  1.00  0.00     0.012 C 
HETATM   44  C21 UNL     1     -18.673  46.924 -19.708  1.00  0.00     0.012 C 
ENDBRANCH  32  42
ENDBRANCH  30  32
ENDBRANCH  27  28
ENDBRANCH  26  27
ENDBRANCH  13  26
TORSDOF 10
ENDMDL
MODEL 4
REMARK minimizedAffinity -8.57724476
REMARK CNNscore 0.360998124
REMARK CNNaffinity 6.40750313
REMARK  10 active torsions:
REMARK  status: ('A' for Active; 'I' for Inactive)
REMARK    1  A    between atoms: C3_3  and  O1_4 
REMARK    2  A    between atoms: N1_14  and  O2_16 
REMARK    3  A    between atoms: O2_16  and  C13_17 
REMARK    4  A    between atoms: C13_17  and  C14_18 
REMARK       I    between atoms: C14_18  and  N2_20 
REMARK    5  A    between atoms: N2_20  and  C15_21 
REMARK    6  A    between atoms: C15_21  and  C16_22 
REMARK    7  A    between atoms: C15_21  and  C19_29 
REMARK       I    between atoms: C16_22  and  N3_24 
REMARK    8  A    between atoms: N3_24  and  C17_25 
REMARK    9  A    between atoms: C17_25  and  C18_26 
REMARK   10  A    between atoms: C18_26  and  O6_28 
ROOT
HETATM    1  C1  UNL     1       1.800  51.842 -28.199  1.00  0.00     0.015 C 
HETATM    2  C2  UNL     1       0.959  52.364 -27.519  1.00  0.00    -0.078 C 
HETATM    3  C3  UNL     1      -0.093  53.005 -26.696  1.00  0.00     0.128 C 
HETATM    4  C4  UNL     1      -1.449  52.901 -27.415  1.00  0.00     0.052 C 
HETATM    5  C5  UNL     1      -2.145  51.656 -26.843  1.00  0.00     0.010 C 
HETATM    6  C6  UNL     1      -1.207  51.082 -25.764  1.00  0.00     0.002 C 
HETATM    7  C7  UNL     1      -1.894  50.343 -24.597  1.00  0.00    -0.004 C 
HETATM    8  C8  UNL     1      -2.816  49.229 -25.114  1.00  0.00     0.010 C 
HETATM    9  C9  UNL     1      -3.379  48.405 -23.965  1.00  0.00     0.035 C 
HETATM   10  C10 UNL     1      -4.086  49.258 -22.940  1.00  0.00    -0.069 C 
HETATM   11  C11 UNL     1      -5.285  48.866 -22.470  1.00  0.00     0.030 C 
HETATM   12  C12 UNL     1      -5.943  49.549 -21.328  1.00  0.00     0.032 C 
HETATM   13  N1  UNL     1      -7.025  49.007 -20.841  1.00  0.00    -0.271 N 
ATOM     14  H1  UNL     1      -7.478  48.181 -21.232  1.00  0.00     0.194 HD
HETATM   15  C22 UNL     1      -5.274  50.774 -20.741  1.00  0.00     0.060 C 
HETATM   16  C23 UNL     1      -4.359  51.457 -21.749  1.00  0.00     0.020 C 
HETATM   17  C24 UNL     1      -3.343  50.499 -22.434  1.00  0.00    -0.016 C 
HETATM   18  C25 UNL     1      -2.302  50.031 -21.390  1.00  0.00     0.020 C 
HETATM   19  C26 UNL     1      -2.672  51.276 -23.637  1.00  0.00     0.002 C 
HETATM   20  C27 UNL     1      -1.772  52.445 -23.183  1.00  0.00     0.007 C 
HETATM   21  C28 UNL     1      -1.150  53.200 -24.358  1.00  0.00     0.014 C 
HETATM   22  C29 UNL     1      -0.349  52.291 -25.331  1.00  0.00     0.003 C 
HETATM   23  C30 UNL     1       0.957  51.853 -24.636  1.00  0.00     0.020 C 
ENDROOT
BRANCH   3  24
HETATM   24  O1  UNL     1       0.248  54.372 -26.500  1.00  0.00    -0.377 OA
HETATM   25  H2  UNL     1       0.734  54.664 -27.289  1.00  0.00     0.211 HD
ENDBRANCH   3  24
BRANCH  13  26
HETATM   26  O2  UNL     1      -7.488  49.703 -19.714  1.00  0.00    -0.271 OA
BRANCH  26  27
HETATM   27  C13 UNL     1      -7.620  48.783 -18.634  1.00  0.00     0.303 C 
BRANCH  27  28
HETATM   28  C14 UNL     1      -8.987  48.115 -18.700  1.00  0.00     0.244 C 
HETATM   29  O3  UNL     1      -9.861  48.466 -19.487  1.00  0.00    -0.271 OA
HETATM   30  N2  UNL     1      -9.185  47.134 -17.747  1.00  0.00    -0.346 N 
HETATM   31  H16 UNL     1      -8.347  46.783 -17.292  1.00  0.00     0.163 HD
BRANCH  30  32
HETATM   32  C15 UNL     1     -10.383  46.278 -17.773  1.00  0.00     0.180 C 
BRANCH  32  33
HETATM   33  C16 UNL     1     -11.680  47.111 -17.595  1.00  0.00     0.241 C 
HETATM   34  O4  UNL     1     -11.954  47.702 -16.554  1.00  0.00    -0.271 OA
HETATM   35  N3  UNL     1     -12.435  47.250 -18.737  1.00  0.00    -0.349 N 
HETATM   36  H18 UNL     1     -12.262  46.589 -19.489  1.00  0.00     0.163 HD
BRANCH  35  37
HETATM   37  C17 UNL     1     -13.734  47.894 -18.709  1.00  0.00     0.232 C 
BRANCH  37  38
HETATM   38  C18 UNL     1     -13.930  48.821 -19.898  1.00  0.00     0.158 C 
HETATM   39  O5  UNL     1     -13.796  50.035 -19.895  1.00  0.00    -0.649 OA
BRANCH  38  40
HETATM   40  O6  UNL     1     -14.311  48.186 -21.032  1.00  0.00    -0.775 OA
HETATM   41  H21 UNL     1     -14.407  48.918 -21.679  1.00  0.00     0.167 HD
ENDBRANCH  38  40
ENDBRANCH  37  38
ENDBRANCH  35  37
ENDBRANCH  32  33
BRANCH  32  42
HETATM   42  C19 UNL     1     -10.260  45.157 -16.712  1.00  0.00     0.009 C 
HETATM   43  C20 UNL     1      -9.740  43.832 -17.278  1.00  0.00     0.012 C 
HETATM   44  C21 UNL     1      -9.402  45.589 -15.519  1.00  0.00     0.012 C 
ENDBRANCH  32  42
ENDBRANCH  30  32
ENDBRANCH  27  28
ENDBRANCH  26  27
ENDBRANCH  13  26
TORSDOF 10
ENDMDL
MODEL 5
REMARK minimizedAffinity -7.6481967
REMARK CNNscore 0.333209246
REMARK CNNaffinity 6.37984848
REMARK  10 active torsions:
REMARK  status: ('A' for Active; 'I' for Inactive)
REMARK    1  A    between atoms: C3_3  and  O1_4 
REMARK    2  A    between atoms: N1_14  and  O2_16 
REMARK    3  A    between atoms: O2_16  and  C13_17 
REMARK    4  A    between atoms: C13_17  and  C14_18 
REMARK       I    between atoms: C14_18  and  N2_20 
REMARK    5  A    between atoms: N2_20  and  C15_21 
REMARK    6  A    between atoms: C15_21  and  C16_22 
REMARK    7  A    between atoms: C15_21  and  C19_29 
REMARK       I    between atoms: C16_22  and  N3_24 
REMARK    8  A    between atoms: N3_24  and  C17_25 
REMARK    9  A    between atoms: C17_25  and  C18_26 
REMARK   10  A    between atoms: C18_26  and  O6_28 
ROOT
HETATM    1  C1  UNL     1       0.110  50.514 -16.785  1.00  0.00     0.015 C 
HETATM    2  C2  UNL     1      -0.715  49.722 -17.151  1.00  0.00    -0.078 C 
HETATM    3  C3  UNL     1      -1.748  48.757 -17.592  1.00  0.00     0.128 C 
HETATM    4  C4  UNL     1      -3.135  49.233 -17.128  1.00  0.00     0.052 C 
HETATM    5  C5  UNL     1      -3.743  50.005 -18.309  1.00  0.00     0.010 C 
HETATM    6  C6  UNL     1      -2.723  49.924 -19.461  1.00  0.00     0.002 C 
HETATM    7  C7  UNL     1      -3.313  49.954 -20.887  1.00  0.00    -0.004 C 
HETATM    8  C8  UNL     1      -4.212  51.182 -21.088  1.00  0.00     0.010 C 
HETATM    9  C9  UNL     1      -4.675  51.293 -22.534  1.00  0.00     0.035 C 
HETATM   10  C10 UNL     1      -5.362  50.037 -23.014  1.00  0.00    -0.069 C 
HETATM   11  C11 UNL     1      -6.515  50.139 -23.700  1.00  0.00     0.030 C 
HETATM   12  C12 UNL     1      -7.140  48.968 -24.364  1.00  0.00     0.032 C 
HETATM   13  N1  UNL     1      -8.169  49.187 -25.135  1.00  0.00    -0.271 N 
ATOM     14  H1  UNL     1      -8.605  50.100 -25.263  1.00  0.00     0.194 HD
HETATM   15  C22 UNL     1      -6.495  47.609 -24.183  1.00  0.00     0.060 C 
HETATM   16  C23 UNL     1      -5.668  47.543 -22.906  1.00  0.00     0.020 C 
HETATM   17  C24 UNL     1      -4.648  48.707 -22.749  1.00  0.00    -0.016 C 
HETATM   18  C25 UNL     1      -3.533  48.553 -23.809  1.00  0.00     0.020 C 
HETATM   19  C26 UNL     1      -4.079  48.664 -21.274  1.00  0.00     0.002 C 
HETATM   20  C27 UNL     1      -3.208  47.421 -20.993  1.00  0.00     0.007 C 
HETATM   21  C28 UNL     1      -2.685  47.382 -19.556  1.00  0.00     0.014 C 
HETATM   22  C29 UNL     1      -1.898  48.658 -19.144  1.00  0.00     0.003 C 
HETATM   23  C30 UNL     1      -0.538  48.657 -19.873  1.00  0.00     0.020 C 
ENDROOT
BRANCH   3  24
HETATM   24  O1  UNL     1      -1.458  47.485 -17.026  1.00  0.00    -0.377 OA
HETATM   25  H2  UNL     1      -1.028  47.641 -16.169  1.00  0.00     0.211 HD
ENDBRANCH   3  24
BRANCH  13  26
HETATM   26  O2  UNL     1      -8.601  48.011 -25.766  1.00  0.00    -0.271 OA
BRANCH  26  27
HETATM   27  C13 UNL     1      -7.741  47.743 -26.870  1.00  0.00     0.303 C 
BRANCH  27  28
HETATM   28  C14 UNL     1      -8.577  47.374 -28.088  1.00  0.00     0.244 C 
HETATM   29  O3  UNL     1      -8.936  46.223 -28.323  1.00  0.00    -0.271 OA
HETATM   30  N2  UNL     1      -8.832  48.428 -28.944  1.00  0.00    -0.346 N 
HETATM   31  H16 UNL     1      -8.675  49.357 -28.560  1.00  0.00     0.163 HD
BRANCH  30  32
HETATM   32  C15 UNL     1      -9.759  48.283 -30.078  1.00  0.00     0.180 C 
BRANCH  32  33
HETATM   33  C16 UNL     1     -11.130  47.716 -29.622  1.00  0.00     0.241 C 
HETATM   34  O4  UNL     1     -12.127  47.731 -30.338  1.00  0.00    -0.271 OA
HETATM   35  N3  UNL     1     -11.109  47.072 -28.407  1.00  0.00    -0.349 N 
HETATM   36  H18 UNL     1     -10.322  47.264 -27.794  1.00  0.00     0.163 HD
BRANCH  35  37
HETATM   37  C17 UNL     1     -12.329  46.595 -27.785  1.00  0.00     0.232 C 
BRANCH  37  38
HETATM   38  C18 UNL     1     -12.938  47.638 -26.861  1.00  0.00     0.158 C 
HETATM   39  O5  UNL     1     -13.468  47.423 -25.783  1.00  0.00    -0.649 OA
BRANCH  38  40
HETATM   40  O6  UNL     1     -12.876  48.902 -27.345  1.00  0.00    -0.775 OA
HETATM   41  H21 UNL     1     -13.319  49.432 -26.648  1.00  0.00     0.167 HD
ENDBRANCH  38  40
ENDBRANCH  37  38
ENDBRANCH  35  37
ENDBRANCH  32  33
BRANCH  32  42
HETATM   42  C19 UNL     1      -9.111  47.418 -31.187  1.00  0.00     0.009 C 
HETATM   43  C20 UNL     1      -8.421  48.240 -32.280  1.00  0.00     0.012 C 
HETATM   44  C21 UNL     1      -8.135  46.386 -30.614  1.00  0.00     0.012 C 
ENDBRANCH  32  42
ENDBRANCH  30  32
ENDBRANCH  27  28
ENDBRANCH  26  27
ENDBRANCH  13  26
TORSDOF 10
ENDMDL
MODEL 6
REMARK minimizedAffinity -8.56207752
REMARK CNNscore 0.289144546
REMARK CNNaffinity 6.3401866
REMARK  10 active torsions:
REMARK  status: ('A' for Active; 'I' for Inactive)
REMARK    1  A    between atoms: C3_3  and  O1_4 
REMARK    2  A    between atoms: N1_14  and  O2_16 
REMARK    3  A    between atoms: O2_16  and  C13_17 
REMARK    4  A    between atoms: C13_17  and  C14_18 
REMARK       I    between atoms: C14_18  and  N2_20 
REMARK    5  A    between atoms: N2_20  and  C15_21 
REMARK    6  A    between atoms: C15_21  and  C16_22 
REMARK    7  A    between atoms: C15_21  and  C19_29 
REMARK       I    between atoms: C16_22  and  N3_24 
REMARK    8  A    between atoms: N3_24  and  C17_25 
REMARK    9  A    between atoms: C17_25  and  C18_26 
REMARK   10  A    between atoms: C18_26  and  O6_28 
ROOT
HETATM    1  C1  UNL     1       0.746  51.407 -26.818  1.00  0.00     0.015 C 
HETATM    2  C2  UNL     1      -0.423  51.546 -26.584  1.00  0.00    -0.078 C 
HETATM    3  C3  UNL     1      -1.871  51.701 -26.306  1.00  0.00     0.128 C 
HETATM    4  C4  UNL     1      -2.645  50.521 -26.918  1.00  0.00     0.052 C 
HETATM    5  C5  UNL     1      -2.819  49.490 -25.792  1.00  0.00     0.010 C 
HETATM    6  C6  UNL     1      -2.188  50.106 -24.528  1.00  0.00     0.002 C 
HETATM    7  C7  UNL     1      -2.813  49.675 -23.185  1.00  0.00    -0.004 C 
HETATM    8  C8  UNL     1      -2.833  48.146 -23.049  1.00  0.00     0.010 C 
HETATM    9  C9  UNL     1      -3.311  47.724 -21.667  1.00  0.00     0.035 C 
HETATM   10  C10 UNL     1      -4.657  48.315 -21.320  1.00  0.00    -0.069 C 
HETATM   11  C11 UNL     1      -5.602  47.526 -20.776  1.00  0.00     0.030 C 
HETATM   12  C12 UNL     1      -6.870  48.077 -20.235  1.00  0.00     0.032 C 
HETATM   13  N1  UNL     1      -7.656  47.263 -19.588  1.00  0.00    -0.271 N 
ATOM     14  H1  UNL     1      -7.483  46.263 -19.481  1.00  0.00     0.194 HD
HETATM   15  C22 UNL     1      -7.131  49.561 -20.387  1.00  0.00     0.060 C 
HETATM   16  C23 UNL     1      -6.355  50.155 -21.555  1.00  0.00     0.020 C 
HETATM   17  C24 UNL     1      -4.836  49.820 -21.545  1.00  0.00    -0.016 C 
HETATM   18  C25 UNL     1      -4.161  50.555 -20.364  1.00  0.00     0.020 C 
HETATM   19  C26 UNL     1      -4.230  50.251 -22.940  1.00  0.00     0.002 C 
HETATM   20  C27 UNL     1      -4.230  51.779 -23.159  1.00  0.00     0.007 C 
HETATM   21  C28 UNL     1      -3.663  52.179 -24.522  1.00  0.00     0.014 C 
HETATM   22  C29 UNL     1      -2.234  51.628 -24.789  1.00  0.00     0.003 C 
HETATM   23  C30 UNL     1      -1.233  52.396 -23.901  1.00  0.00     0.020 C 
ENDROOT
BRANCH   3  24
HETATM   24  O1  UNL     1      -2.319  52.924 -26.879  1.00  0.00    -0.377 OA
HETATM   25  H2  UNL     1      -1.780  53.086 -27.671  1.00  0.00     0.211 HD
ENDBRANCH   3  24
BRANCH  13  26
HETATM   26  O2  UNL     1      -8.769  47.933 -19.057  1.00  0.00    -0.271 OA
BRANCH  26  27
HETATM   27  C13 UNL     1      -9.807  47.936 -20.033  1.00  0.00     0.303 C 
BRANCH  27  28
HETATM   28  C14 UNL     1     -11.027  47.214 -19.479  1.00  0.00     0.244 C 
HETATM   29  O3  UNL     1     -10.945  46.291 -18.673  1.00  0.00    -0.271 OA
HETATM   30  N2  UNL     1     -12.229  47.633 -20.018  1.00  0.00    -0.346 N 
HETATM   31  H16 UNL     1     -12.207  48.524 -20.508  1.00  0.00     0.163 HD
BRANCH  30  32
HETATM   32  C15 UNL     1     -13.513  47.158 -19.478  1.00  0.00     0.180 C 
BRANCH  32  33
HETATM   33  C16 UNL     1     -14.649  47.277 -20.529  1.00  0.00     0.241 C 
HETATM   34  O4  UNL     1     -14.549  47.962 -21.543  1.00  0.00    -0.271 OA
HETATM   35  N3  UNL     1     -15.725  46.449 -20.307  1.00  0.00    -0.349 N 
HETATM   36  H18 UNL     1     -15.830  46.067 -19.372  1.00  0.00     0.163 HD
BRANCH  35  37
HETATM   37  C17 UNL     1     -16.919  46.526 -21.128  1.00  0.00     0.232 C 
BRANCH  37  38
HETATM   38  C18 UNL     1     -18.181  46.602 -20.283  1.00  0.00     0.158 C 
HETATM   39  O5  UNL     1     -19.205  45.962 -20.461  1.00  0.00    -0.649 OA
BRANCH  38  40
HETATM   40  O6  UNL     1     -18.109  47.495 -19.267  1.00  0.00    -0.775 OA
HETATM   41  H21 UNL     1     -18.993  47.429 -18.847  1.00  0.00     0.167 HD
ENDBRANCH  38  40
ENDBRANCH  37  38
ENDBRANCH  35  37
ENDBRANCH  32  33
BRANCH  32  42
HETATM   42  C19 UNL     1     -13.852  47.910 -18.168  1.00  0.00     0.009 C 
HETATM   43  C20 UNL     1     -14.994  48.920 -18.319  1.00  0.00     0.012 C 
HETATM   44  C21 UNL     1     -14.154  46.948 -17.015  1.00  0.00     0.012 C 
ENDBRANCH  32  42
ENDBRANCH  30  32
ENDBRANCH  27  28
ENDBRANCH  26  27
ENDBRANCH  13  26
TORSDOF 10
ENDMDL
MODEL 7
REMARK minimizedAffinity -8.76087189
REMARK CNNscore 0.245159402
REMARK CNNaffinity 6.9268508
REMARK  10 active torsions:
REMARK  status: ('A' for Active; 'I' for Inactive)
REMARK    1  A    between atoms: C3_3  and  O1_4 
REMARK    2  A    between atoms: N1_14  and  O2_16 
REMARK    3  A    between atoms: O2_16  and  C13_17 
REMARK    4  A    between atoms: C13_17  and  C14_18 
REMARK       I    between atoms: C14_18  and  N2_20 
REMARK    5  A    between atoms: N2_20  and  C15_21 
REMARK    6  A    between atoms: C15_21  and  C16_22 
REMARK    7  A    between atoms: C15_21  and  C19_29 
REMARK       I    between atoms: C16_22  and  N3_24 
REMARK    8  A    between atoms: N3_24  and  C17_25 
REMARK    9  A    between atoms: C17_25  and  C18_26 
REMARK   10  A    between atoms: C18_26  and  O6_28 
ROOT
HETATM    1  C1  UNL     1      -3.362  49.797 -27.779  1.00  0.00     0.015 C 
HETATM    2  C2  UNL     1      -3.208  50.675 -26.974  1.00  0.00    -0.078 C 
HETATM    3  C3  UNL     1      -3.038  51.752 -25.972  1.00  0.00     0.128 C 
HETATM    4  C4  UNL     1      -4.191  51.702 -24.955  1.00  0.00     0.052 C 
HETATM    5  C5  UNL     1      -3.676  50.885 -23.760  1.00  0.00     0.010 C 
HETATM    6  C6  UNL     1      -2.214  50.513 -24.076  1.00  0.00     0.002 C 
HETATM    7  C7  UNL     1      -1.280  50.354 -22.858  1.00  0.00    -0.004 C 
HETATM    8  C8  UNL     1      -1.853  49.349 -21.849  1.00  0.00     0.010 C 
HETATM    9  C9  UNL     1      -0.867  49.080 -20.721  1.00  0.00     0.035 C 
HETATM   10  C10 UNL     1      -0.427  50.349 -20.030  1.00  0.00    -0.069 C 
HETATM   11  C11 UNL     1      -0.396  50.389 -18.685  1.00  0.00     0.030 C 
HETATM   12  C12 UNL     1       0.206  51.527 -17.946  1.00  0.00     0.032 C 
HETATM   13  N1  UNL     1       0.334  51.410 -16.654  1.00  0.00    -0.271 N 
ATOM     14  H1  UNL     1      -0.006  50.614 -16.114  1.00  0.00     0.194 HD
HETATM   15  C22 UNL     1       0.717  52.710 -18.742  1.00  0.00     0.060 C 
HETATM   16  C23 UNL     1       0.027  52.822 -20.095  1.00  0.00     0.020 C 
HETATM   17  C24 UNL     1       0.036  51.505 -20.922  1.00  0.00    -0.016 C 
HETATM   18  C25 UNL     1       1.483  51.199 -21.375  1.00  0.00     0.020 C 
HETATM   19  C26 UNL     1      -0.945  51.690 -22.149  1.00  0.00     0.002 C 
HETATM   20  C27 UNL     1      -0.449  52.730 -23.175  1.00  0.00     0.007 C 
HETATM   21  C28 UNL     1      -1.419  52.914 -24.343  1.00  0.00     0.014 C 
HETATM   22  C29 UNL     1      -1.762  51.592 -25.085  1.00  0.00     0.003 C 
HETATM   23  C30 UNL     1      -0.527  51.144 -25.895  1.00  0.00     0.020 C 
ENDROOT
BRANCH   3  24
HETATM   24  O1  UNL     1      -3.038  53.006 -26.643  1.00  0.00    -0.377 OA
HETATM   25  H2  UNL     1      -3.612  52.918 -27.421  1.00  0.00     0.211 HD
ENDBRANCH   3  24
BRANCH  13  26
HETATM   26  O2  UNL     1       0.995  52.516 -16.098  1.00  0.00    -0.271 OA
BRANCH  26  27
HETATM   27  C13 UNL     1       1.652  52.100 -14.904  1.00  0.00     0.303 C 
BRANCH  27  28
HETATM   28  C14 UNL     1       0.709  52.271 -13.720  1.00  0.00     0.244 C 
HETATM   29  O3  UNL     1      -0.512  52.195 -13.827  1.00  0.00    -0.271 OA
HETATM   30  N2  UNL     1       1.340  52.593 -12.534  1.00  0.00    -0.346 N 
HETATM   31  H16 UNL     1       2.342  52.429 -12.507  1.00  0.00     0.163 HD
BRANCH  30  32
HETATM   32  C15 UNL     1       0.598  52.633 -11.263  1.00  0.00     0.180 C 
BRANCH  32  33
HETATM   33  C16 UNL     1       0.575  54.064 -10.663  1.00  0.00     0.241 C 
HETATM   34  O4  UNL     1       1.404  54.921 -10.954  1.00  0.00    -0.271 OA
HETATM   35  N3  UNL     1      -0.526  54.342  -9.885  1.00  0.00    -0.349 N 
HETATM   36  H18 UNL     1      -1.055  53.550  -9.532  1.00  0.00     0.163 HD
BRANCH  35  37
HETATM   37  C17 UNL     1      -0.637  55.590  -9.155  1.00  0.00     0.232 C 
BRANCH  37  38
HETATM   38  C18 UNL     1      -0.204  55.437  -7.705  1.00  0.00     0.158 C 
HETATM   39  O5  UNL     1      -0.351  56.264  -6.819  1.00  0.00    -0.649 OA
BRANCH  38  40
HETATM   40  O6  UNL     1       0.416  54.263  -7.438  1.00  0.00    -0.775 OA
HETATM   41  H21 UNL     1       0.638  54.337  -6.486  1.00  0.00     0.167 HD
ENDBRANCH  38  40
ENDBRANCH  37  38
ENDBRANCH  35  37
ENDBRANCH  32  33
BRANCH  32  42
HETATM   42  C19 UNL     1       1.183  51.596 -10.272  1.00  0.00     0.009 C 
HETATM   43  C20 UNL     1       2.438  52.087  -9.543  1.00  0.00     0.012 C 
HETATM   44  C21 UNL     1       0.140  51.121  -9.256  1.00  0.00     0.012 C 
ENDBRANCH  32  42
ENDBRANCH  30  32
ENDBRANCH  27  28
ENDBRANCH  26  27
ENDBRANCH  13  26
TORSDOF 10
ENDMDL
MODEL 8
REMARK minimizedAffinity -8.43828011
REMARK CNNscore 0.229168504
REMARK CNNaffinity 6.21998596
REMARK  10 active torsions:
REMARK  status: ('A' for Active; 'I' for Inactive)
REMARK    1  A    between atoms: C3_3  and  O1_4 
REMARK    2  A    between atoms: N1_14  and  O2_16 
REMARK    3  A    between atoms: O2_16  and  C13_17 
REMARK    4  A    between atoms: C13_17  and  C14_18 
REMARK       I    between atoms: C14_18  and  N2_20 
REMARK    5  A    between atoms: N2_20  and  C15_21 
REMARK    6  A    between atoms: C15_21  and  C16_22 
REMARK    7  A    between atoms: C15_21  and  C19_29 
REMARK       I    between atoms: C16_22  and  N3_24 
REMARK    8  A    between atoms: N3_24  and  C17_25 
REMARK    9  A    between atoms: C17_25  and  C18_26 
REMARK   10  A    between atoms: C18_26  and  O6_28 
ROOT
HETATM    1  C1  UNL     1       0.938  51.784 -27.086  1.00  0.00     0.015 C 
HETATM    2  C2  UNL     1      -0.245  51.832 -26.892  1.00  0.00    -0.078 C 
HETATM    3  C3  UNL     1      -1.709  51.873 -26.664  1.00  0.00     0.128 C 
HETATM    4  C4  UNL     1      -2.363  50.620 -27.269  1.00  0.00     0.052 C 
HETATM    5  C5  UNL     1      -2.490  49.605 -26.123  1.00  0.00     0.010 C 
HETATM    6  C6  UNL     1      -1.954  50.299 -24.856  1.00  0.00     0.002 C 
HETATM    7  C7  UNL     1      -2.585  49.849 -23.522  1.00  0.00    -0.004 C 
HETATM    8  C8  UNL     1      -2.486  48.326 -23.348  1.00  0.00     0.010 C 
HETATM    9  C9  UNL     1      -2.973  47.898 -21.971  1.00  0.00     0.035 C 
HETATM   10  C10 UNL     1      -4.373  48.383 -21.682  1.00  0.00    -0.069 C 
HETATM   11  C11 UNL     1      -5.268  47.532 -21.147  1.00  0.00     0.030 C 
HETATM   12  C12 UNL     1      -6.593  47.989 -20.661  1.00  0.00     0.032 C 
HETATM   13  N1  UNL     1      -7.332  47.128 -20.017  1.00  0.00    -0.271 N 
ATOM     14  H1  UNL     1      -7.082  46.149 -19.880  1.00  0.00     0.194 HD
HETATM   15  C22 UNL     1      -6.969  49.443 -20.858  1.00  0.00     0.060 C 
HETATM   16  C23 UNL     1      -6.207  50.072 -22.016  1.00  0.00     0.020 C 
HETATM   17  C24 UNL     1      -4.667  49.863 -21.950  1.00  0.00    -0.016 C 
HETATM   18  C25 UNL     1      -4.093  50.678 -20.768  1.00  0.00     0.020 C 
HETATM   19  C26 UNL     1      -4.052  50.312 -23.337  1.00  0.00     0.002 C 
HETATM   20  C27 UNL     1      -4.170  51.828 -23.594  1.00  0.00     0.007 C 
HETATM   21  C28 UNL     1      -3.592  52.242 -24.948  1.00  0.00     0.014 C 
HETATM   22  C29 UNL     1      -2.115  51.805 -25.157  1.00  0.00     0.003 C 
HETATM   23  C30 UNL     1      -1.210  52.674 -24.258  1.00  0.00     0.020 C 
ENDROOT
BRANCH   3  24
HETATM   24  O1  UNL     1      -2.236  53.042 -27.281  1.00  0.00    -0.377 OA
HETATM   25  H2  UNL     1      -1.687  53.229 -28.060  1.00  0.00     0.211 HD
ENDBRANCH   3  24
BRANCH  13  26
HETATM   26  O2  UNL     1      -8.512  47.716 -19.539  1.00  0.00    -0.271 OA
BRANCH  26  27
HETATM   27  C13 UNL     1      -9.579  46.784 -19.689  1.00  0.00     0.303 C 
BRANCH  27  28
HETATM   28  C14 UNL     1     -10.879  47.536 -19.939  1.00  0.00     0.244 C 
HETATM   29  O3  UNL     1     -11.172  48.571 -19.348  1.00  0.00    -0.271 OA
HETATM   30  N2  UNL     1     -11.733  46.913 -20.829  1.00  0.00    -0.346 N 
HETATM   31  H16 UNL     1     -11.317  46.188 -21.408  1.00  0.00     0.163 HD
BRANCH  30  32
HETATM   32  C15 UNL     1     -12.955  47.581 -21.307  1.00  0.00     0.180 C 
BRANCH  32  33
HETATM   33  C16 UNL     1     -13.728  48.254 -20.141  1.00  0.00     0.241 C 
HETATM   34  O4  UNL     1     -14.058  49.436 -20.156  1.00  0.00    -0.271 OA
HETATM   35  N3  UNL     1     -14.134  47.391 -19.150  1.00  0.00    -0.349 N 
HETATM   36  H18 UNL     1     -13.669  46.490 -19.101  1.00  0.00     0.163 HD
BRANCH  35  37
HETATM   37  C17 UNL     1     -14.759  47.879 -17.935  1.00  0.00     0.232 C 
BRANCH  37  38
HETATM   38  C18 UNL     1     -16.095  48.549 -18.216  1.00  0.00     0.158 C 
HETATM   39  O5  UNL     1     -17.075  48.019 -18.714  1.00  0.00    -0.649 OA
BRANCH  38  40
HETATM   40  O6  UNL     1     -16.131  49.862 -17.883  1.00  0.00    -0.775 OA
HETATM   41  H21 UNL     1     -17.038  50.134 -18.141  1.00  0.00     0.167 HD
ENDBRANCH  38  40
ENDBRANCH  37  38
ENDBRANCH  35  37
ENDBRANCH  32  33
BRANCH  32  42
HETATM   42  C19 UNL     1     -13.839  46.579 -22.089  1.00  0.00     0.009 C 
HETATM   43  C20 UNL     1     -13.864  45.176 -21.474  1.00  0.00     0.012 C 
HETATM   44  C21 UNL     1     -15.269  47.096 -22.272  1.00  0.00     0.012 C 
ENDBRANCH  32  42
ENDBRANCH  30  32
ENDBRANCH  27  28
ENDBRANCH  26  27
ENDBRANCH  13  26
TORSDOF 10
ENDMDL
MODEL 9
REMARK minimizedAffinity -8.0393858
REMARK CNNscore 0.207572296
REMARK CNNaffinity 6.84249067
REMARK  10 active torsions:
REMARK  status: ('A' for Active; 'I' for Inactive)
REMARK    1  A    between atoms: C3_3  and  O1_4 
REMARK    2  A    between atoms: N1_14  and  O2_16 
REMARK    3  A    between atoms: O2_16  and  C13_17 
REMARK    4  A    between atoms: C13_17  and  C14_18 
REMARK       I    between atoms: C14_18  and  N2_20 
REMARK    5  A    between atoms: N2_20  and  C15_21 
REMARK    6  A    between atoms: C15_21  and  C16_22 
REMARK    7  A    between atoms: C15_21  and  C19_29 
REMARK       I    between atoms: C16_22  and  N3_24 
REMARK    8  A    between atoms: N3_24  and  C17_25 
REMARK    9  A    between atoms: C17_25  and  C18_26 
REMARK   10  A    between atoms: C18_26  and  O6_28 
ROOT
HETATM    1  C1  UNL     1       0.955  44.375 -10.942  1.00  0.00     0.015 C 
HETATM    2  C2  UNL     1       1.633  45.174 -11.526  1.00  0.00    -0.078 C 
HETATM    3  C3  UNL     1       2.473  46.146 -12.265  1.00  0.00     0.128 C 
HETATM    4  C4  UNL     1       2.800  45.593 -13.662  1.00  0.00     0.052 C 
HETATM    5  C5  UNL     1       1.754  46.188 -14.617  1.00  0.00     0.010 C 
HETATM    6  C6  UNL     1       0.863  47.118 -13.771  1.00  0.00     0.002 C 
HETATM    7  C7  UNL     1       0.253  48.325 -14.515  1.00  0.00    -0.004 C 
HETATM    8  C8  UNL     1      -0.522  47.874 -15.761  1.00  0.00     0.010 C 
HETATM    9  C9  UNL     1      -1.247  49.044 -16.411  1.00  0.00     0.035 C 
HETATM   10  C10 UNL     1      -0.314  50.185 -16.739  1.00  0.00    -0.069 C 
HETATM   11  C11 UNL     1      -0.397  50.778 -17.944  1.00  0.00     0.030 C 
HETATM   12  C12 UNL     1       0.350  52.021 -18.262  1.00  0.00     0.032 C 
HETATM   13  N1  UNL     1       0.090  52.610 -19.396  1.00  0.00    -0.271 N 
ATOM     14  H1  UNL     1      -0.548  52.240 -20.101  1.00  0.00     0.194 HD
HETATM   15  C22 UNL     1       1.296  52.578 -17.218  1.00  0.00     0.060 C 
HETATM   16  C23 UNL     1       1.777  51.498 -16.258  1.00  0.00     0.020 C 
HETATM   17  C24 UNL     1       0.633  50.653 -15.629  1.00  0.00    -0.016 C 
HETATM   18  C25 UNL     1      -0.181  51.541 -14.659  1.00  0.00     0.020 C 
HETATM   19  C26 UNL     1       1.287  49.414 -14.895  1.00  0.00     0.002 C 
HETATM   20  C27 UNL     1       2.125  49.808 -13.661  1.00  0.00     0.007 C 
HETATM   21  C28 UNL     1       2.770  48.602 -12.976  1.00  0.00     0.014 C 
HETATM   22  C29 UNL     1       1.753  47.499 -12.568  1.00  0.00     0.003 C 
HETATM   23  C30 UNL     1       0.921  48.010 -11.373  1.00  0.00     0.020 C 
ENDROOT
BRANCH   3  24
HETATM   24  O1  UNL     1       3.675  46.361 -11.535  1.00  0.00    -0.377 OA
HETATM   25  H2  UNL     1       3.882  45.534 -11.070  1.00  0.00     0.211 HD
ENDBRANCH   3  24
BRANCH  13  26
HETATM   26  O2  UNL     1       0.797  53.815 -19.526  1.00  0.00    -0.271 OA
BRANCH  26  27
HETATM   27  C13 UNL     1       0.997  54.078 -20.912  1.00  0.00     0.303 C 
BRANCH  27  28
HETATM   28  C14 UNL     1       0.813  52.791 -21.705  1.00  0.00     0.244 C 
HETATM   29  O3  UNL     1       1.579  51.837 -21.611  1.00  0.00    -0.271 OA
HETATM   30  N2  UNL     1      -0.244  52.820 -22.595  1.00  0.00    -0.346 N 
HETATM   31  H16 UNL     1      -0.927  53.559 -22.448  1.00  0.00     0.163 HD
BRANCH  30  32
HETATM   32  C15 UNL     1      -0.663  51.609 -23.320  1.00  0.00     0.180 C 
BRANCH  32  33
HETATM   33  C16 UNL     1      -0.330  51.709 -24.832  1.00  0.00     0.241 C 
HETATM   34  O4  UNL     1      -0.469  50.767 -25.608  1.00  0.00    -0.271 OA
HETATM   35  N3  UNL     1       0.002  52.972 -25.264  1.00  0.00    -0.349 N 
HETATM   36  H18 UNL     1       0.285  53.644 -24.557  1.00  0.00     0.163 HD
BRANCH  35  37
HETATM   37  C17 UNL     1       0.457  53.210 -26.621  1.00  0.00     0.232 C 
BRANCH  37  38
HETATM   38  C18 UNL     1      -0.417  54.224 -27.341  1.00  0.00     0.158 C 
HETATM   39  O5  UNL     1      -1.370  53.971 -28.062  1.00  0.00    -0.649 OA
BRANCH  38  40
HETATM   40  O6  UNL     1      -0.042  55.510 -27.143  1.00  0.00    -0.775 OA
HETATM   41  H21 UNL     1      -0.687  56.018 -27.681  1.00  0.00     0.167 HD
ENDBRANCH  38  40
ENDBRANCH  37  38
ENDBRANCH  35  37
ENDBRANCH  32  33
BRANCH  32  42
HETATM   42  C19 UNL     1      -2.166  51.333 -23.072  1.00  0.00     0.009 C 
HETATM   43  C20 UNL     1      -3.094  52.098 -24.021  1.00  0.00     0.012 C 
HETATM   44  C21 UNL     1      -2.490  49.837 -23.117  1.00  0.00     0.012 C 
ENDBRANCH  32  42
ENDBRANCH  30  32
ENDBRANCH  27  28
ENDBRANCH  26  27
ENDBRANCH  13  26
TORSDOF 10
ENDMDL
