MODEL 1
REMARK minimizedAffinity -9.70772457
REMARK  4 active torsions:
REMARK  status: ('A' for Active; 'I' for Inactive)
REMARK    1  A    between atoms: C13_14  and  O2_15 
REMARK    2  A    between atoms: C22_24  and  O3_25 
REMARK    3  A    between atoms: C22_24  and  C23_26 
REMARK    4  A    between atoms: C23_26  and  O4_27 
ROOT
HETATM    1  C1  UNL     1      -2.667  50.833 -18.330  1.00  0.00     0.078 C 
HETATM    2  C2  UNL     1      -3.696  49.848 -18.894  1.00  0.00     0.157 C 
HETATM    3  C3  UNL     1      -4.243  49.024 -17.723  1.00  0.00     0.078 C 
HETATM    4  O1  UNL     1      -4.824  50.503 -19.455  1.00  0.00    -0.355 OA
HETATM    5  C4  UNL     1      -4.552  51.127 -20.702  1.00  0.00     0.183 C 
HETATM    6  C5  UNL     1      -4.063  50.107 -21.760  1.00  0.00     0.011 C 
HETATM    7  C6  UNL     1      -5.241  49.142 -22.044  1.00  0.00     0.020 C 
HETATM    8  C7  UNL     1      -2.912  49.283 -21.131  1.00  0.00     0.136 C 
HETATM    9  C8  UNL     1      -1.546  49.926 -21.347  1.00  0.00     0.034 C 
HETATM   10  C9  UNL     1      -1.161  49.886 -22.825  1.00  0.00     0.013 C 
HETATM   11  C10 UNL     1      -2.330  50.231 -23.808  1.00  0.00    -0.029 C 
HETATM   12  C11 UNL     1      -2.754  48.888 -24.473  1.00  0.00     0.016 C 
HETATM   13  C12 UNL     1      -3.564  50.890 -23.051  1.00  0.00     0.036 C 
HETATM   14  C13 UNL     1      -4.696  51.323 -24.036  1.00  0.00     0.124 C 
HETATM   15  C14 UNL     1      -4.207  52.196 -25.205  1.00  0.00     0.037 C 
HETATM   16  C15 UNL     1      -2.988  51.589 -25.875  1.00  0.00    -0.002 C 
HETATM   17  C16 UNL     1      -2.311  52.399 -26.984  1.00  0.00     0.013 C 
HETATM   18  C17 UNL     1      -0.815  51.980 -26.918  1.00  0.00     0.023 C 
HETATM   19  C18 UNL     1      -0.811  50.779 -25.939  1.00  0.00     0.018 C 
HETATM   20  C19 UNL     1      -1.833  51.270 -24.893  1.00  0.00    -0.028 C 
HETATM   21  C20 UNL     1      -1.288  52.613 -24.239  1.00  0.00     0.014 C 
HETATM   22  C21 UNL     1       0.050  53.111 -24.807  1.00  0.00     0.041 C 
HETATM   23  C22 UNL     1       0.125  53.065 -26.347  1.00  0.00     0.083 C 
HETATM   24  O5  UNL     1      -3.116  48.898 -19.775  1.00  0.00    -0.350 OA
ENDROOT
BRANCH  23  25
HETATM   25  O3  UNL     1       1.473  52.660 -26.675  1.00  0.00    -0.387 OA
HETATM   26  H35 UNL     1       2.014  53.466 -26.539  1.00  0.00     0.210 HD
ENDBRANCH  23  25
BRANCH  23  27
HETATM   27  C23 UNL     1      -0.063  54.457 -26.988  1.00  0.00     0.202 C 
BRANCH  27  28
HETATM   28  O4  UNL     1       0.284  55.463 -26.026  1.00  0.00    -0.398 OA
HETATM   29  H38 UNL     1       0.162  56.323 -26.466  1.00  0.00     0.209 HD
ENDBRANCH  27  28
ENDBRANCH  23  27
BRANCH  14  30
HETATM   30  O2  UNL     1      -5.682  52.078 -23.337  1.00  0.00    -0.395 OA
HETATM   31  H22 UNL     1      -6.428  52.223 -23.946  1.00  0.00     0.210 HD
ENDBRANCH  14  30
TORSDOF 4
ENDMDL
MODEL 2
REMARK minimizedAffinity -9.22432899
REMARK  4 active torsions:
REMARK  status: ('A' for Active; 'I' for Inactive)
REMARK    1  A    between atoms: C13_14  and  O2_15 
REMARK    2  A    between atoms: C22_24  and  O3_25 
REMARK    3  A    between atoms: C22_24  and  C23_26 
REMARK    4  A    between atoms: C23_26  and  O4_27 
ROOT
HETATM    1  C1  UNL     1      -2.693  46.589 -21.355  1.00  0.00     0.078 C 
HETATM    2  C2  UNL     1      -3.269  47.759 -20.553  1.00  0.00     0.157 C 
HETATM    3  C3  UNL     1      -4.200  47.177 -19.483  1.00  0.00     0.078 C 
HETATM    4  O1  UNL     1      -2.270  48.470 -19.836  1.00  0.00    -0.355 OA
HETATM    5  C4  UNL     1      -1.449  49.280 -20.667  1.00  0.00     0.183 C 
HETATM    6  C5  UNL     1      -2.279  50.339 -21.435  1.00  0.00     0.011 C 
HETATM    7  C6  UNL     1      -2.868  51.311 -20.384  1.00  0.00     0.020 C 
HETATM    8  C7  UNL     1      -3.459  49.610 -22.126  1.00  0.00     0.136 C 
HETATM    9  C8  UNL     1      -3.101  49.105 -23.519  1.00  0.00     0.034 C 
HETATM   10  C9  UNL     1      -2.880  50.277 -24.475  1.00  0.00     0.013 C 
HETATM   11  C10 UNL     1      -2.068  51.468 -23.863  1.00  0.00    -0.029 C 
HETATM   12  C11 UNL     1      -3.093  52.612 -23.610  1.00  0.00     0.016 C 
HETATM   13  C12 UNL     1      -1.347  51.056 -22.506  1.00  0.00     0.036 C 
HETATM   14  C13 UNL     1      -0.460  52.209 -21.939  1.00  0.00     0.124 C 
HETATM   15  C14 UNL     1       0.530  52.796 -22.959  1.00  0.00     0.037 C 
HETATM   16  C15 UNL     1      -0.158  53.120 -24.273  1.00  0.00    -0.002 C 
HETATM   17  C16 UNL     1       0.717  53.604 -25.432  1.00  0.00     0.013 C 
HETATM   18  C17 UNL     1      -0.025  53.123 -26.711  1.00  0.00     0.023 C 
HETATM   19  C18 UNL     1      -1.390  52.621 -26.179  1.00  0.00     0.018 C 
HETATM   20  C19 UNL     1      -0.942  51.928 -24.875  1.00  0.00    -0.028 C 
HETATM   21  C20 UNL     1       0.059  50.749 -25.243  1.00  0.00     0.014 C 
HETATM   22  C21 UNL     1       0.367  50.607 -26.742  1.00  0.00     0.041 C 
HETATM   23  C22 UNL     1       0.665  51.948 -27.442  1.00  0.00     0.083 C 
HETATM   24  O5  UNL     1      -4.092  48.608 -21.338  1.00  0.00    -0.350 OA
ENDROOT
BRANCH  23  25
HETATM   25  O3  UNL     1       0.060  51.864 -28.752  1.00  0.00    -0.387 OA
HETATM   26  H35 UNL     1       0.673  51.304 -29.273  1.00  0.00     0.210 HD
ENDBRANCH  23  25
BRANCH  23  27
HETATM   27  C23 UNL     1       2.173  52.163 -27.689  1.00  0.00     0.202 C 
BRANCH  27  28
HETATM   28  O4  UNL     1       2.913  51.226 -26.895  1.00  0.00    -0.398 OA
HETATM   29  H38 UNL     1       3.855  51.384 -27.082  1.00  0.00     0.209 HD
ENDBRANCH  27  28
ENDBRANCH  23  27
BRANCH  14  30
HETATM   30  O2  UNL     1       0.311  51.729 -20.840  1.00  0.00    -0.395 OA
HETATM   31  H22 UNL     1       0.754  52.495 -20.434  1.00  0.00     0.210 HD
ENDBRANCH  14  30
TORSDOF 4
ENDMDL
MODEL 3
REMARK minimizedAffinity -9.18088818
REMARK  4 active torsions:
REMARK  status: ('A' for Active; 'I' for Inactive)
REMARK    1  A    between atoms: C13_14  and  O2_15 
REMARK    2  A    between atoms: C22_24  and  O3_25 
REMARK    3  A    between atoms: C22_24  and  C23_26 
REMARK    4  A    between atoms: C23_26  and  O4_27 
ROOT
HETATM    1  C1  UNL     1       1.757  51.776 -26.306  1.00  0.00     0.078 C 
HETATM    2  C2  UNL     1       0.430  52.193 -26.948  1.00  0.00     0.157 C 
HETATM    3  C3  UNL     1       0.758  53.001 -28.210  1.00  0.00     0.078 C 
HETATM    4  O1  UNL     1      -0.329  51.081 -27.399  1.00  0.00    -0.355 OA
HETATM    5  C4  UNL     1      -0.929  50.344 -26.342  1.00  0.00     0.183 C 
HETATM    6  C5  UNL     1      -1.889  51.222 -25.502  1.00  0.00     0.011 C 
HETATM    7  C6  UNL     1      -3.064  51.628 -26.425  1.00  0.00     0.020 C 
HETATM    8  C7  UNL     1      -1.128  52.511 -25.102  1.00  0.00     0.136 C 
HETATM    9  C8  UNL     1      -0.367  52.358 -23.790  1.00  0.00     0.034 C 
HETATM   10  C9  UNL     1      -1.339  52.217 -22.619  1.00  0.00     0.013 C 
HETATM   11  C10 UNL     1      -2.564  51.283 -22.903  1.00  0.00    -0.029 C 
HETATM   12  C11 UNL     1      -3.798  52.219 -23.069  1.00  0.00     0.016 C 
HETATM   13  C12 UNL     1      -2.349  50.409 -24.215  1.00  0.00     0.036 C 
HETATM   14  C13 UNL     1      -3.524  49.409 -24.454  1.00  0.00     0.124 C 
HETATM   15  C14 UNL     1      -3.860  48.537 -23.232  1.00  0.00     0.037 C 
HETATM   16  C15 UNL     1      -3.995  49.377 -21.975  1.00  0.00    -0.002 C 
HETATM   17  C16 UNL     1      -4.214  48.641 -20.650  1.00  0.00     0.013 C 
HETATM   18  C17 UNL     1      -3.567  49.562 -19.578  1.00  0.00     0.023 C 
HETATM   19  C18 UNL     1      -3.252  50.866 -20.353  1.00  0.00     0.018 C 
HETATM   20  C19 UNL     1      -2.769  50.280 -21.697  1.00  0.00    -0.028 C 
HETATM   21  C20 UNL     1      -1.482  49.386 -21.428  1.00  0.00     0.014 C 
HETATM   22  C21 UNL     1      -1.063  49.282 -19.954  1.00  0.00     0.041 C 
HETATM   23  C22 UNL     1      -2.242  49.023 -18.993  1.00  0.00     0.083 C 
HETATM   24  O5  UNL     1      -0.319  53.077 -26.129  1.00  0.00    -0.350 OA
ENDROOT
BRANCH  23  25
HETATM   25  O3  UNL     1      -1.970  49.797 -17.802  1.00  0.00    -0.387 OA
HETATM   26  H35 UNL     1      -1.290  49.281 -17.320  1.00  0.00     0.210 HD
ENDBRANCH  23  25
BRANCH  23  27
HETATM   27  C23 UNL     1      -2.314  47.553 -18.530  1.00  0.00     0.202 C 
BRANCH  27  28
HETATM   28  O4  UNL     1      -1.939  47.481 -17.148  1.00  0.00    -0.398 OA
HETATM   29  H38 UNL     1      -2.004  46.544 -16.890  1.00  0.00     0.209 HD
ENDBRANCH  27  28
ENDBRANCH  23  27
BRANCH  14  30
HETATM   30  O2  UNL     1      -3.193  48.521 -25.519  1.00  0.00    -0.395 OA
HETATM   31  H22 UNL     1      -3.988  47.998 -25.724  1.00  0.00     0.210 HD
ENDBRANCH  14  30
TORSDOF 4
ENDMDL
MODEL 4
REMARK minimizedAffinity -8.92173386
REMARK  4 active torsions:
REMARK  status: ('A' for Active; 'I' for Inactive)
REMARK    1  A    between atoms: C13_14  and  O2_15 
REMARK    2  A    between atoms: C22_24  and  O3_25 
REMARK    3  A    between atoms: C22_24  and  C23_26 
REMARK    4  A    between atoms: C23_26  and  O4_27 
ROOT
HETATM    1  C1  UNL     1      -3.527  46.183 -20.338  1.00  0.00     0.078 C 
HETATM    2  C2  UNL     1      -3.864  47.386 -19.452  1.00  0.00     0.157 C 
HETATM    3  C3  UNL     1      -4.529  46.854 -18.177  1.00  0.00     0.078 C 
HETATM    4  O1  UNL     1      -2.705  48.078 -19.012  1.00  0.00    -0.355 OA
HETATM    5  C4  UNL     1      -2.085  48.846 -20.034  1.00  0.00     0.183 C 
HETATM    6  C5  UNL     1      -3.046  49.916 -20.611  1.00  0.00     0.011 C 
HETATM    7  C6  UNL     1      -3.342  50.926 -19.475  1.00  0.00     0.020 C 
HETATM    8  C7  UNL     1      -4.375  49.212 -20.982  1.00  0.00     0.136 C 
HETATM    9  C8  UNL     1      -4.372  48.669 -22.407  1.00  0.00     0.034 C 
HETATM   10  C9  UNL     1      -4.355  49.815 -23.418  1.00  0.00     0.013 C 
HETATM   11  C10 UNL     1      -3.390  50.991 -23.048  1.00  0.00    -0.029 C 
HETATM   12  C11 UNL     1      -4.295  52.172 -22.588  1.00  0.00     0.016 C 
HETATM   13  C12 UNL     1      -2.378  50.583 -21.891  1.00  0.00     0.036 C 
HETATM   14  C13 UNL     1      -1.351  51.718 -21.580  1.00  0.00     0.124 C 
HETATM   15  C14 UNL     1      -0.617  52.254 -22.821  1.00  0.00     0.037 C 
HETATM   16  C15 UNL     1      -1.590  52.575 -23.942  1.00  0.00    -0.002 C 
HETATM   17  C16 UNL     1      -1.004  53.009 -25.287  1.00  0.00     0.013 C 
HETATM   18  C17 UNL     1      -2.041  52.528 -26.341  1.00  0.00     0.023 C 
HETATM   19  C18 UNL     1      -3.253  52.078 -25.487  1.00  0.00     0.018 C 
HETATM   20  C19 UNL     1      -2.525  51.397 -24.310  1.00  0.00    -0.028 C 
HETATM   21  C20 UNL     1      -1.673  50.180 -24.874  1.00  0.00     0.014 C 
HETATM   22  C21 UNL     1      -1.734  50.000 -26.399  1.00  0.00     0.041 C 
HETATM   23  C22 UNL     1      -1.577  51.318 -27.184  1.00  0.00     0.083 C 
HETATM   24  O5  UNL     1      -4.828  48.244 -20.041  1.00  0.00    -0.350 OA
ENDROOT
BRANCH  23  25
HETATM   25  O3  UNL     1      -2.478  51.228 -28.311  1.00  0.00    -0.387 OA
HETATM   26  H35 UNL     1      -2.022  50.639 -28.947  1.00  0.00     0.210 HD
ENDBRANCH  23  25
BRANCH  23  27
HETATM   27  C23 UNL     1      -0.166  51.481 -27.788  1.00  0.00     0.202 C 
BRANCH  27  28
HETATM   28  O4  UNL     1      -0.161  52.620 -28.659  1.00  0.00    -0.398 OA
HETATM   29  H38 UNL     1       0.743  52.696 -29.013  1.00  0.00     0.209 HD
ENDBRANCH  27  28
ENDBRANCH  23  27
BRANCH  14  30
HETATM   30  O2  UNL     1      -0.354  51.235 -20.684  1.00  0.00    -0.395 OA
HETATM   31  H22 UNL     1       0.193  51.994 -20.414  1.00  0.00     0.210 HD
ENDBRANCH  14  30
TORSDOF 4
ENDMDL
MODEL 5
REMARK minimizedAffinity -8.90612888
REMARK  4 active torsions:
REMARK  status: ('A' for Active; 'I' for Inactive)
REMARK    1  A    between atoms: C13_14  and  O2_15 
REMARK    2  A    between atoms: C22_24  and  O3_25 
REMARK    3  A    between atoms: C22_24  and  C23_26 
REMARK    4  A    between atoms: C23_26  and  O4_27 
ROOT
HETATM    1  C1  UNL     1      -6.071  47.366 -23.395  1.00  0.00     0.078 C 
HETATM    2  C2  UNL     1      -6.366  48.466 -22.371  1.00  0.00     0.157 C 
HETATM    3  C3  UNL     1      -7.744  48.180 -21.763  1.00  0.00     0.078 C 
HETATM    4  O1  UNL     1      -5.460  48.448 -21.277  1.00  0.00    -0.355 OA
HETATM    5  C4  UNL     1      -4.166  48.931 -21.609  1.00  0.00     0.183 C 
HETATM    6  C5  UNL     1      -4.212  50.393 -22.119  1.00  0.00     0.011 C 
HETATM    7  C6  UNL     1      -4.678  51.276 -20.936  1.00  0.00     0.020 C 
HETATM    8  C7  UNL     1      -5.289  50.476 -23.230  1.00  0.00     0.136 C 
HETATM    9  C8  UNL     1      -4.726  50.174 -24.615  1.00  0.00     0.034 C 
HETATM   10  C9  UNL     1      -3.764  51.276 -25.056  1.00  0.00     0.013 C 
HETATM   11  C10 UNL     1      -2.796  51.779 -23.932  1.00  0.00    -0.029 C 
HETATM   12  C11 UNL     1      -3.309  53.188 -23.510  1.00  0.00     0.016 C 
HETATM   13  C12 UNL     1      -2.780  50.795 -22.682  1.00  0.00     0.036 C 
HETATM   14  C13 UNL     1      -1.748  51.240 -21.598  1.00  0.00     0.124 C 
HETATM   15  C14 UNL     1      -0.333  51.492 -22.147  1.00  0.00     0.037 C 
HETATM   16  C15 UNL     1      -0.370  52.376 -23.380  1.00  0.00    -0.002 C 
HETATM   17  C16 UNL     1       0.950  52.625 -24.114  1.00  0.00     0.013 C 
HETATM   18  C17 UNL     1       0.539  52.839 -25.598  1.00  0.00     0.023 C 
HETATM   19  C18 UNL     1      -1.005  52.941 -25.543  1.00  0.00     0.018 C 
HETATM   20  C19 UNL     1      -1.317  51.857 -24.490  1.00  0.00    -0.028 C 
HETATM   21  C20 UNL     1      -0.802  50.455 -25.034  1.00  0.00     0.014 C 
HETATM   22  C21 UNL     1      -0.105  50.510 -26.402  1.00  0.00     0.041 C 
HETATM   23  C22 UNL     1       0.907  51.666 -26.536  1.00  0.00     0.083 C 
HETATM   24  O5  UNL     1      -6.484  49.749 -22.967  1.00  0.00    -0.350 OA
ENDROOT
BRANCH  23  25
HETATM   25  O3  UNL     1       0.781  52.161 -27.888  1.00  0.00    -0.387 OA
HETATM   26  H35 UNL     1       1.256  51.504 -28.438  1.00  0.00     0.210 HD
ENDBRANCH  23  25
BRANCH  23  27
HETATM   27  C23 UNL     1       2.369  51.190 -26.398  1.00  0.00     0.202 C 
BRANCH  27  28
HETATM   28  O4  UNL     1       3.187  51.928 -27.315  1.00  0.00    -0.398 OA
HETATM   29  H38 UNL     1       4.099  51.609 -27.195  1.00  0.00     0.209 HD
ENDBRANCH  27  28
ENDBRANCH  23  27
BRANCH  14  30
HETATM   30  O2  UNL     1      -1.632  50.229 -20.599  1.00  0.00    -0.395 OA
HETATM   31  H22 UNL     1      -1.082  50.587 -19.880  1.00  0.00     0.210 HD
ENDBRANCH  14  30
TORSDOF 4
ENDMDL
MODEL 6
REMARK minimizedAffinity -8.87932014
REMARK  4 active torsions:
REMARK  status: ('A' for Active; 'I' for Inactive)
REMARK    1  A    between atoms: C13_14  and  O2_15 
REMARK    2  A    between atoms: C22_24  and  O3_25 
REMARK    3  A    between atoms: C22_24  and  C23_26 
REMARK    4  A    between atoms: C23_26  and  O4_27 
ROOT
HETATM    1  C1  UNL     1       1.074  50.750 -26.623  1.00  0.00     0.078 C 
HETATM    2  C2  UNL     1      -0.041  51.778 -26.834  1.00  0.00     0.157 C 
HETATM    3  C3  UNL     1       0.469  52.820 -27.836  1.00  0.00     0.078 C 
HETATM    4  O1  UNL     1      -1.197  51.211 -27.434  1.00  0.00    -0.355 OA
HETATM    5  C4  UNL     1      -1.948  50.393 -26.548  1.00  0.00     0.183 C 
HETATM    6  C5  UNL     1      -2.437  51.185 -25.311  1.00  0.00     0.011 C 
HETATM    7  C6  UNL     1      -3.439  52.252 -25.817  1.00  0.00     0.020 C 
HETATM    8  C7  UNL     1      -1.218  51.924 -24.705  1.00  0.00     0.136 C 
HETATM    9  C8  UNL     1      -0.473  51.080 -23.677  1.00  0.00     0.034 C 
HETATM   10  C9  UNL     1      -1.334  50.866 -22.432  1.00  0.00     0.013 C 
HETATM   11  C10 UNL     1      -2.838  50.551 -22.731  1.00  0.00    -0.029 C 
HETATM   12  C11 UNL     1      -3.636  51.836 -22.361  1.00  0.00     0.016 C 
HETATM   13  C12 UNL     1      -3.070  50.173 -24.259  1.00  0.00     0.036 C 
HETATM   14  C13 UNL     1      -4.551  49.767 -24.546  1.00  0.00     0.124 C 
HETATM   15  C14 UNL     1      -5.097  48.686 -23.598  1.00  0.00     0.037 C 
HETATM   16  C15 UNL     1      -4.808  49.026 -22.147  1.00  0.00    -0.002 C 
HETATM   17  C16 UNL     1      -5.186  47.990 -21.087  1.00  0.00     0.013 C 
HETATM   18  C17 UNL     1      -4.159  48.208 -19.940  1.00  0.00     0.023 C 
HETATM   19  C18 UNL     1      -3.436  49.519 -20.338  1.00  0.00     0.018 C 
HETATM   20  C19 UNL     1      -3.314  49.317 -21.863  1.00  0.00    -0.028 C 
HETATM   21  C20 UNL     1      -2.444  48.015 -22.135  1.00  0.00     0.014 C 
HETATM   22  C21 UNL     1      -1.984  47.269 -20.874  1.00  0.00     0.041 C 
HETATM   23  C22 UNL     1      -3.095  47.094 -19.818  1.00  0.00     0.083 C 
HETATM   24  O5  UNL     1      -0.337  52.513 -25.655  1.00  0.00    -0.350 OA
ENDROOT
BRANCH  23  25
HETATM   25  O3  UNL     1      -2.461  47.265 -18.531  1.00  0.00    -0.387 OA
HETATM   26  H35 UNL     1      -1.992  46.420 -18.370  1.00  0.00     0.210 HD
ENDBRANCH  23  25
BRANCH  23  27
HETATM   27  C23 UNL     1      -3.682  45.666 -19.810  1.00  0.00     0.202 C 
BRANCH  27  28
HETATM   28  O4  UNL     1      -3.477  45.072 -21.099  1.00  0.00    -0.398 OA
HETATM   29  H38 UNL     1      -3.850  44.174 -21.055  1.00  0.00     0.209 HD
ENDBRANCH  27  28
ENDBRANCH  23  27
BRANCH  14  30
HETATM   30  O2  UNL     1      -4.662  49.254 -25.871  1.00  0.00    -0.395 OA
HETATM   31  H22 UNL     1      -5.609  49.129 -26.060  1.00  0.00     0.210 HD
ENDBRANCH  14  30
TORSDOF 4
ENDMDL
MODEL 7
REMARK minimizedAffinity -8.57682705
REMARK  4 active torsions:
REMARK  status: ('A' for Active; 'I' for Inactive)
REMARK    1  A    between atoms: C13_14  and  O2_15 
REMARK    2  A    between atoms: C22_24  and  O3_25 
REMARK    3  A    between atoms: C22_24  and  C23_26 
REMARK    4  A    between atoms: C23_26  and  O4_27 
ROOT
HETATM    1  C1  UNL     1      -8.282  48.493 -20.427  1.00  0.00     0.078 C 
HETATM    2  C2  UNL     1      -7.994  48.013 -21.853  1.00  0.00     0.157 C 
HETATM    3  C3  UNL     1      -9.117  47.049 -22.255  1.00  0.00     0.078 C 
HETATM    4  O1  UNL     1      -8.045  49.068 -22.803  1.00  0.00    -0.355 OA
HETATM    5  C4  UNL     1      -6.925  49.939 -22.737  1.00  0.00     0.183 C 
HETATM    6  C5  UNL     1      -5.595  49.186 -22.986  1.00  0.00     0.011 C 
HETATM    7  C6  UNL     1      -5.623  48.679 -24.449  1.00  0.00     0.020 C 
HETATM    8  C7  UNL     1      -5.567  47.949 -22.053  1.00  0.00     0.136 C 
HETATM    9  C8  UNL     1      -4.957  48.258 -20.690  1.00  0.00     0.034 C 
HETATM   10  C9  UNL     1      -3.464  48.558 -20.825  1.00  0.00     0.013 C 
HETATM   11  C10 UNL     1      -3.093  49.461 -22.049  1.00  0.00    -0.029 C 
HETATM   12  C11 UNL     1      -2.415  48.526 -23.093  1.00  0.00     0.016 C 
HETATM   13  C12 UNL     1      -4.376  50.160 -22.678  1.00  0.00     0.036 C 
HETATM   14  C13 UNL     1      -4.004  51.135 -23.840  1.00  0.00     0.124 C 
HETATM   15  C14 UNL     1      -2.916  52.158 -23.473  1.00  0.00     0.037 C 
HETATM   16  C15 UNL     1      -1.727  51.486 -22.811  1.00  0.00    -0.002 C 
HETATM   17  C16 UNL     1      -0.609  52.386 -22.280  1.00  0.00     0.013 C 
HETATM   18  C17 UNL     1      -0.010  51.601 -21.079  1.00  0.00     0.023 C 
HETATM   19  C18 UNL     1      -0.676  50.206 -21.181  1.00  0.00     0.018 C 
HETATM   20  C19 UNL     1      -2.107  50.611 -21.591  1.00  0.00    -0.028 C 
HETATM   21  C20 UNL     1      -2.728  51.518 -20.442  1.00  0.00     0.014 C 
HETATM   22  C21 UNL     1      -1.785  51.804 -19.263  1.00  0.00     0.041 C 
HETATM   23  C22 UNL     1      -0.357  52.195 -19.695  1.00  0.00     0.083 C 
HETATM   24  O5  UNL     1      -6.801  47.249 -21.942  1.00  0.00    -0.350 OA
ENDROOT
BRANCH  23  25
HETATM   25  O3  UNL     1       0.538  51.576 -18.743  1.00  0.00    -0.387 OA
HETATM   26  H35 UNL     1       0.480  52.141 -17.944  1.00  0.00     0.210 HD
ENDBRANCH  23  25
BRANCH  23  27
HETATM   27  C23 UNL     1      -0.102  53.713 -19.583  1.00  0.00     0.202 C 
BRANCH  27  28
HETATM   28  O4  UNL     1       1.292  53.968 -19.802  1.00  0.00    -0.398 OA
HETATM   29  H38 UNL     1       1.414  54.932 -19.734  1.00  0.00     0.209 HD
ENDBRANCH  27  28
ENDBRANCH  23  27
BRANCH  14  30
HETATM   30  O2  UNL     1      -5.156  51.876 -24.235  1.00  0.00    -0.395 OA
HETATM   31  H22 UNL     1      -4.923  52.378 -25.036  1.00  0.00     0.210 HD
ENDBRANCH  14  30
TORSDOF 4
ENDMDL
MODEL 8
REMARK minimizedAffinity -8.52459049
REMARK  4 active torsions:
REMARK  status: ('A' for Active; 'I' for Inactive)
REMARK    1  A    between atoms: C13_14  and  O2_15 
REMARK    2  A    between atoms: C22_24  and  O3_25 
REMARK    3  A    between atoms: C22_24  and  C23_26 
REMARK    4  A    between atoms: C23_26  and  O4_27 
ROOT
HETATM    1  C1  UNL     1      -7.041  46.811 -23.278  1.00  0.00     0.078 C 
HETATM    2  C2  UNL     1      -7.190  47.659 -22.011  1.00  0.00     0.157 C 
HETATM    3  C3  UNL     1      -8.499  47.249 -21.327  1.00  0.00     0.078 C 
HETATM    4  O1  UNL     1      -6.169  47.396 -21.059  1.00  0.00    -0.355 OA
HETATM    5  C4  UNL     1      -4.906  47.936 -21.423  1.00  0.00     0.183 C 
HETATM    6  C5  UNL     1      -4.967  49.475 -21.591  1.00  0.00     0.011 C 
HETATM    7  C6  UNL     1      -5.273  50.077 -20.198  1.00  0.00     0.020 C 
HETATM    8  C7  UNL     1      -6.158  49.805 -22.526  1.00  0.00     0.136 C 
HETATM    9  C8  UNL     1      -5.761  49.815 -23.998  1.00  0.00     0.034 C 
HETATM   10  C9  UNL     1      -4.823  50.985 -24.294  1.00  0.00     0.013 C 
HETATM   11  C10 UNL     1      -3.722  51.223 -23.206  1.00  0.00    -0.029 C 
HETATM   12  C11 UNL     1      -4.145  52.505 -22.430  1.00  0.00     0.016 C 
HETATM   13  C12 UNL     1      -3.596  49.987 -22.212  1.00  0.00     0.036 C 
HETATM   14  C13 UNL     1      -2.437  50.178 -21.183  1.00  0.00     0.124 C 
HETATM   15  C14 UNL     1      -1.086  50.541 -21.822  1.00  0.00     0.037 C 
HETATM   16  C15 UNL     1      -1.234  51.676 -22.818  1.00  0.00    -0.002 C 
HETATM   17  C16 UNL     1       0.003  52.076 -23.626  1.00  0.00     0.013 C 
HETATM   18  C17 UNL     1      -0.564  52.615 -24.970  1.00  0.00     0.023 C 
HETATM   19  C18 UNL     1      -2.089  52.706 -24.717  1.00  0.00     0.018 C 
HETATM   20  C19 UNL     1      -2.313  51.418 -23.899  1.00  0.00    -0.028 C 
HETATM   21  C20 UNL     1      -1.901  50.170 -24.793  1.00  0.00     0.014 C 
HETATM   22  C21 UNL     1      -1.359  50.523 -26.186  1.00  0.00     0.041 C 
HETATM   23  C22 UNL     1      -0.336  51.677 -26.178  1.00  0.00     0.083 C 
HETATM   24  O5  UNL     1      -7.337  49.042 -22.293  1.00  0.00    -0.350 OA
ENDROOT
BRANCH  23  25
HETATM   25  O3  UNL     1      -0.597  52.459 -27.365  1.00  0.00    -0.387 OA
HETATM   26  H35 UNL     1      -0.205  51.939 -28.097  1.00  0.00     0.210 HD
ENDBRANCH  23  25
BRANCH  23  27
HETATM   27  C23 UNL     1       1.118  51.177 -26.316  1.00  0.00     0.202 C 
BRANCH  27  28
HETATM   28  O4  UNL     1       1.972  52.299 -26.579  1.00  0.00    -0.398 OA
HETATM   29  H38 UNL     1       2.878  51.949 -26.652  1.00  0.00     0.209 HD
ENDBRANCH  27  28
ENDBRANCH  23  27
BRANCH  14  30
HETATM   30  O2  UNL     1      -2.240  48.971 -20.450  1.00  0.00    -0.395 OA
HETATM   31  H22 UNL     1      -1.603  49.159 -19.738  1.00  0.00     0.210 HD
ENDBRANCH  14  30
TORSDOF 4
ENDMDL
MODEL 9
REMARK minimizedAffinity -8.36399555
REMARK  4 active torsions:
REMARK  status: ('A' for Active; 'I' for Inactive)
REMARK    1  A    between atoms: C13_14  and  O2_15 
REMARK    2  A    between atoms: C22_24  and  O3_25 
REMARK    3  A    between atoms: C22_24  and  C23_26 
REMARK    4  A    between atoms: C23_26  and  O4_27 
ROOT
HETATM    1  C1  UNL     1      -1.775  52.235 -27.030  1.00  0.00     0.078 C 
HETATM    2  C2  UNL     1      -1.071  52.386 -25.678  1.00  0.00     0.157 C 
HETATM    3  C3  UNL     1       0.267  53.092 -25.926  1.00  0.00     0.078 C 
HETATM    4  O1  UNL     1      -1.784  53.232 -24.787  1.00  0.00    -0.355 OA
HETATM    5  C4  UNL     1      -2.953  52.628 -24.251  1.00  0.00     0.183 C 
HETATM    6  C5  UNL     1      -2.623  51.336 -23.465  1.00  0.00     0.011 C 
HETATM    7  C6  UNL     1      -1.786  51.752 -22.230  1.00  0.00     0.020 C 
HETATM    8  C7  UNL     1      -1.734  50.443 -24.366  1.00  0.00     0.136 C 
HETATM    9  C8  UNL     1      -2.550  49.510 -25.254  1.00  0.00     0.034 C 
HETATM   10  C9  UNL     1      -3.264  48.455 -24.410  1.00  0.00     0.013 C 
HETATM   11  C10 UNL     1      -3.903  49.004 -23.091  1.00  0.00    -0.029 C 
HETATM   12  C11 UNL     1      -3.003  48.499 -21.925  1.00  0.00     0.016 C 
HETATM   13  C12 UNL     1      -3.978  50.593 -23.087  1.00  0.00     0.036 C 
HETATM   14  C13 UNL     1      -4.699  51.145 -21.816  1.00  0.00     0.124 C 
HETATM   15  C14 UNL     1      -6.072  50.505 -21.549  1.00  0.00     0.037 C 
HETATM   16  C15 UNL     1      -5.999  48.991 -21.624  1.00  0.00    -0.002 C 
HETATM   17  C16 UNL     1      -7.310  48.211 -21.495  1.00  0.00     0.013 C 
HETATM   18  C17 UNL     1      -7.081  46.919 -22.330  1.00  0.00     0.023 C 
HETATM   19  C18 UNL     1      -5.568  46.957 -22.660  1.00  0.00     0.018 C 
HETATM   20  C19 UNL     1      -5.382  48.462 -22.942  1.00  0.00    -0.028 C 
HETATM   21  C20 UNL     1      -6.301  48.866 -24.174  1.00  0.00     0.014 C 
HETATM   22  C21 UNL     1      -7.156  47.724 -24.745  1.00  0.00     0.041 C 
HETATM   23  C22 UNL     1      -7.860  46.878 -23.665  1.00  0.00     0.083 C 
HETATM   24  O5  UNL     1      -0.729  51.137 -25.098  1.00  0.00    -0.350 OA
ENDROOT
BRANCH  23  25
HETATM   25  O3  UNL     1      -7.814  45.509 -24.128  1.00  0.00    -0.387 OA
HETATM   26  H35 UNL     1      -8.512  45.456 -24.814  1.00  0.00     0.210 HD
ENDBRANCH  23  25
BRANCH  23  27
HETATM   27  C23 UNL     1      -9.357  47.224 -23.527  1.00  0.00     0.202 C 
BRANCH  27  28
HETATM   28  O4  UNL     1      -9.768  47.978 -24.675  1.00  0.00    -0.398 OA
HETATM   29  H38 UNL     1     -10.715  48.171 -24.558  1.00  0.00     0.209 HD
ENDBRANCH  27  28
ENDBRANCH  23  27
BRANCH  14  30
HETATM   30  O2  UNL     1      -4.913  52.547 -21.954  1.00  0.00    -0.395 OA
HETATM   31  H22 UNL     1      -5.247  52.880 -21.102  1.00  0.00     0.210 HD
ENDBRANCH  14  30
TORSDOF 4
ENDMDL
