MODEL 1
REMARK minimizedAffinity -7.00376177
REMARK CNNscore 0.701265574
REMARK CNNaffinity 5.92243052
REMARK  8 active torsions:
REMARK  status: ('A' for Active; 'I' for Inactive)
REMARK    1  A    between atoms: C2_2  and  C30_35 
REMARK    2  A    between atoms: C3_3  and  C4_4 
REMARK    3  A    between atoms: C4_4  and  O1_5 
REMARK    4  A    between atoms: C4_4  and  C5_6 
REMARK    5  A    between atoms: C5_6  and  C6_7 
REMARK    6  A    between atoms: C6_7  and  C8_9 
REMARK    7  A    between atoms: C10_11  and  O2_12 
REMARK    8  A    between atoms: C30_35  and  O7_37 
ROOT
HETATM    1  C8  UNL     1     -14.071   7.118  23.286  1.00  0.00     0.001 C 
HETATM    2  C9  UNL     1     -14.748   7.508  24.631  1.00  0.00     0.038 C 
HETATM    3  C10 UNL     1     -14.469   9.004  24.880  1.00  0.00     0.132 C 
HETATM    4  C11 UNL     1     -13.838   9.521  23.560  1.00  0.00     0.021 C 
HETATM    5  C12 UNL     1     -15.040   9.901  22.635  1.00  0.00     0.024 C 
HETATM    6  C13 UNL     1     -12.929  10.744  23.521  1.00  0.00     0.010 C 
HETATM    7  C14 UNL     1     -12.010  10.943  22.543  1.00  0.00     0.007 C 
HETATM    8  C15 UNL     1     -11.830   9.835  21.513  1.00  0.00     0.157 C 
HETATM    9  O3  UNL     1     -11.092   9.997  20.541  1.00  0.00    -0.293 OA
HETATM   10  C16 UNL     1     -12.564   8.508  21.657  1.00  0.00     0.094 C 
HETATM   11  C17 UNL     1     -13.022   8.256  23.093  1.00  0.00    -0.019 C 
HETATM   12  C18 UNL     1     -11.757   7.959  23.955  1.00  0.00     0.017 C 
HETATM   13  C19 UNL     1     -11.126  12.212  22.405  1.00  0.00    -0.007 C 
HETATM   14  C20 UNL     1      -9.697  11.800  22.833  1.00  0.00     0.021 C 
HETATM   15  C21 UNL     1     -11.082  12.740  20.933  1.00  0.00     0.022 C 
HETATM   16  C22 UNL     1     -10.914  14.247  20.758  1.00  0.00     0.080 C 
HETATM   17  C23 UNL     1     -10.206  14.874  21.931  1.00  0.00     0.135 C 
HETATM   18  O4  UNL     1      -9.189  15.545  21.773  1.00  0.00    -0.297 OA
HETATM   19  C24 UNL     1     -10.873  14.696  23.299  1.00  0.00     0.018 C 
HETATM   20  C25 UNL     1      -9.804  14.762  24.407  1.00  0.00     0.023 C 
HETATM   21  C26 UNL     1     -11.813  15.906  23.493  1.00  0.00     0.023 C 
HETATM   22  C27 UNL     1     -11.711  13.371  23.289  1.00  0.00     0.021 C 
HETATM   23  C28 UNL     1     -12.064  12.873  24.688  1.00  0.00     0.090 C 
HETATM   24  C29 UNL     1     -13.085  11.773  24.594  1.00  0.00     0.157 C 
HETATM   25  O5  UNL     1     -13.993  11.696  25.420  1.00  0.00    -0.293 OA
ENDROOT
BRANCH   1  26
HETATM   26  C6  UNL     1     -13.614   5.631  23.272  1.00  0.00    -0.011 C 
HETATM   27  C7  UNL     1     -13.951   4.918  21.957  1.00  0.00     0.010 C 
BRANCH  26  28
HETATM   28  C5  UNL     1     -14.151   4.796  24.474  1.00  0.00     0.040 C 
BRANCH  28  29
HETATM   29  C4  UNL     1     -13.835   3.289  24.465  1.00  0.00     0.142 C 
BRANCH  29  30
HETATM   30  C3  UNL     1     -13.451   2.811  25.838  1.00  0.00     0.018 C 
HETATM   31  C2  UNL     1     -12.461   1.960  26.173  1.00  0.00     0.010 C 
HETATM   32  C1  UNL     1     -11.504   1.291  25.233  1.00  0.00     0.055 C 
BRANCH  31  33
HETATM   33  C30 UNL     1     -12.334   1.645  27.620  1.00  0.00     0.171 C 
HETATM   34  O6  UNL     1     -11.325   1.729  28.299  1.00  0.00    -0.646 OA
BRANCH  33  35
HETATM   35  O7  UNL     1     -13.496   1.246  28.161  1.00  0.00    -0.773 OA
HETATM   36  H42 UNL     1     -13.269   1.087  29.101  1.00  0.00     0.167 HD
ENDBRANCH  33  35
ENDBRANCH  31  33
ENDBRANCH  29  30
BRANCH  29  37
HETATM   37  O1  UNL     1     -14.980   2.542  24.070  1.00  0.00    -0.392 OA
HETATM   38  H6  UNL     1     -15.603   2.533  24.817  1.00  0.00     0.210 HD
ENDBRANCH  29  37
ENDBRANCH  28  29
ENDBRANCH  26  28
ENDBRANCH   1  26
BRANCH   3  39
HETATM   39  O2  UNL     1     -13.591   9.123  25.994  1.00  0.00    -0.394 OA
HETATM   40  H17 UNL     1     -13.726  10.034  26.328  1.00  0.00     0.210 HD
ENDBRANCH   3  39
TORSDOF 8
ENDMDL
MODEL 2
REMARK minimizedAffinity -9.50275517
REMARK CNNscore 0.618075192
REMARK CNNaffinity 6.6012454
REMARK  8 active torsions:
REMARK  status: ('A' for Active; 'I' for Inactive)
REMARK    1  A    between atoms: C2_2  and  C30_35 
REMARK    2  A    between atoms: C3_3  and  C4_4 
REMARK    3  A    between atoms: C4_4  and  O1_5 
REMARK    4  A    between atoms: C4_4  and  C5_6 
REMARK    5  A    between atoms: C5_6  and  C6_7 
REMARK    6  A    between atoms: C6_7  and  C8_9 
REMARK    7  A    between atoms: C10_11  and  O2_12 
REMARK    8  A    between atoms: C30_35  and  O7_37 
ROOT
HETATM    1  C8  UNL     1      -4.063   6.880  14.942  1.00  0.00     0.001 C 
HETATM    2  C9  UNL     1      -4.321   5.408  14.509  1.00  0.00     0.038 C 
HETATM    3  C10 UNL     1      -3.123   4.955  13.650  1.00  0.00     0.132 C 
HETATM    4  C11 UNL     1      -2.073   6.089  13.794  1.00  0.00     0.021 C 
HETATM    5  C12 UNL     1      -1.265   5.758  15.092  1.00  0.00     0.024 C 
HETATM    6  C13 UNL     1      -1.004   6.342  12.738  1.00  0.00     0.010 C 
HETATM    7  C14 UNL     1      -0.404   7.548  12.576  1.00  0.00     0.007 C 
HETATM    8  C15 UNL     1      -0.912   8.704  13.429  1.00  0.00     0.157 C 
HETATM    9  O3  UNL     1      -0.341   9.795  13.409  1.00  0.00    -0.293 OA
HETATM   10  C16 UNL     1      -2.127   8.534  14.331  1.00  0.00     0.094 C 
HETATM   11  C17 UNL     1      -3.002   7.357  13.902  1.00  0.00    -0.019 C 
HETATM   12  C18 UNL     1      -3.709   7.746  12.568  1.00  0.00     0.017 C 
HETATM   13  C19 UNL     1       0.752   7.835  11.581  1.00  0.00    -0.007 C 
HETATM   14  C20 UNL     1       0.140   8.658  10.422  1.00  0.00     0.021 C 
HETATM   15  C21 UNL     1       1.903   8.665  12.240  1.00  0.00     0.022 C 
HETATM   16  C22 UNL     1       3.311   8.412  11.710  1.00  0.00     0.080 C 
HETATM   17  C23 UNL     1       3.297   7.921  10.285  1.00  0.00     0.135 C 
HETATM   18  O4  UNL     1       3.929   8.503   9.407  1.00  0.00    -0.297 OA
HETATM   19  C24 UNL     1       2.526   6.623  10.024  1.00  0.00     0.018 C 
HETATM   20  C25 UNL     1       2.032   6.600   8.564  1.00  0.00     0.023 C 
HETATM   21  C26 UNL     1       3.538   5.468  10.187  1.00  0.00     0.023 C 
HETATM   22  C27 UNL     1       1.386   6.483  11.092  1.00  0.00     0.021 C 
HETATM   23  C28 UNL     1       0.307   5.481  10.692  1.00  0.00     0.090 C 
HETATM   24  C29 UNL     1      -0.587   5.200  11.868  1.00  0.00     0.157 C 
HETATM   25  O5  UNL     1      -1.009   4.062  12.070  1.00  0.00    -0.293 OA
ENDROOT
BRANCH   1  26
HETATM   26  C6  UNL     1      -5.387   7.676  15.120  1.00  0.00    -0.011 C 
HETATM   27  C7  UNL     1      -5.176   9.038  15.791  1.00  0.00     0.010 C 
BRANCH  26  28
HETATM   28  C5  UNL     1      -6.501   6.886  15.873  1.00  0.00     0.040 C 
BRANCH  28  29
HETATM   29  C4  UNL     1      -7.721   6.448  15.042  1.00  0.00     0.142 C 
BRANCH  29  30
HETATM   30  C3  UNL     1      -7.476   5.116  14.389  1.00  0.00     0.018 C 
HETATM   31  C2  UNL     1      -7.832   4.722  13.149  1.00  0.00     0.010 C 
HETATM   32  C1  UNL     1      -8.561   5.542  12.129  1.00  0.00     0.055 C 
BRANCH  31  33
HETATM   33  C30 UNL     1      -7.480   3.325  12.783  1.00  0.00     0.171 C 
HETATM   34  O6  UNL     1      -8.226   2.361  12.787  1.00  0.00    -0.646 OA
BRANCH  33  35
HETATM   35  O7  UNL     1      -6.196   3.200  12.414  1.00  0.00    -0.773 OA
HETATM   36  H42 UNL     1      -6.112   2.249  12.194  1.00  0.00     0.167 HD
ENDBRANCH  33  35
ENDBRANCH  31  33
ENDBRANCH  29  30
BRANCH  29  37
HETATM   37  O1  UNL     1      -8.865   6.298  15.875  1.00  0.00    -0.392 OA
HETATM   38  H6  UNL     1      -8.759   5.476  16.383  1.00  0.00     0.210 HD
ENDBRANCH  29  37
ENDBRANCH  28  29
ENDBRANCH  26  28
ENDBRANCH   1  26
BRANCH   3  39
HETATM   39  O2  UNL     1      -3.565   4.780  12.309  1.00  0.00    -0.394 OA
HETATM   40  H17 UNL     1      -2.910   4.177  11.901  1.00  0.00     0.210 HD
ENDBRANCH   3  39
TORSDOF 8
ENDMDL
MODEL 3
REMARK minimizedAffinity -7.19453573
REMARK CNNscore 0.546895862
REMARK CNNaffinity 5.69641685
REMARK  8 active torsions:
REMARK  status: ('A' for Active; 'I' for Inactive)
REMARK    1  A    between atoms: C2_2  and  C30_35 
REMARK    2  A    between atoms: C3_3  and  C4_4 
REMARK    3  A    between atoms: C4_4  and  O1_5 
REMARK    4  A    between atoms: C4_4  and  C5_6 
REMARK    5  A    between atoms: C5_6  and  C6_7 
REMARK    6  A    between atoms: C6_7  and  C8_9 
REMARK    7  A    between atoms: C10_11  and  O2_12 
REMARK    8  A    between atoms: C30_35  and  O7_37 
ROOT
HETATM    1  C8  UNL     1     -16.870   2.200  14.791  1.00  0.00     0.001 C 
HETATM    2  C9  UNL     1     -17.307   2.018  16.273  1.00  0.00     0.038 C 
HETATM    3  C10 UNL     1     -16.900   0.596  16.710  1.00  0.00     0.132 C 
HETATM    4  C11 UNL     1     -16.020   0.054  15.552  1.00  0.00     0.021 C 
HETATM    5  C12 UNL     1     -14.570   0.558  15.850  1.00  0.00     0.024 C 
HETATM    6  C13 UNL     1     -15.855  -1.437  15.289  1.00  0.00     0.010 C 
HETATM    7  C14 UNL     1     -15.519  -1.935  14.073  1.00  0.00     0.007 C 
HETATM    8  C15 UNL     1     -15.408  -0.947  12.918  1.00  0.00     0.157 C 
HETATM    9  O3  UNL     1     -15.002  -1.316  11.815  1.00  0.00    -0.293 OA
HETATM   10  C16 UNL     1     -15.785   0.517  13.102  1.00  0.00     0.094 C 
HETATM   11  C17 UNL     1     -16.707   0.726  14.303  1.00  0.00    -0.019 C 
HETATM   12  C18 UNL     1     -18.103   0.132  13.946  1.00  0.00     0.017 C 
HETATM   13  C19 UNL     1     -15.249  -3.434  13.773  1.00  0.00    -0.007 C 
HETATM   14  C20 UNL     1     -16.472  -3.949  12.977  1.00  0.00     0.021 C 
HETATM   15  C21 UNL     1     -13.960  -3.638  12.910  1.00  0.00     0.022 C 
HETATM   16  C22 UNL     1     -13.189  -4.935  13.139  1.00  0.00     0.080 C 
HETATM   17  C23 UNL     1     -14.081  -6.038  13.648  1.00  0.00     0.135 C 
HETATM   18  O4  UNL     1     -14.153  -7.116  13.062  1.00  0.00    -0.297 OA
HETATM   19  C24 UNL     1     -14.814  -5.763  14.965  1.00  0.00     0.018 C 
HETATM   20  C25 UNL     1     -16.113  -6.591  15.016  1.00  0.00     0.023 C 
HETATM   21  C26 UNL     1     -13.896  -6.276  16.096  1.00  0.00     0.023 C 
HETATM   22  C27 UNL     1     -15.029  -4.217  15.116  1.00  0.00     0.021 C 
HETATM   23  C28 UNL     1     -16.095  -3.857  16.146  1.00  0.00     0.090 C 
HETATM   24  C29 UNL     1     -16.048  -2.381  16.432  1.00  0.00     0.157 C 
HETATM   25  O5  UNL     1     -16.223  -1.964  17.576  1.00  0.00    -0.293 OA
ENDROOT
BRANCH   1  26
HETATM   26  C6  UNL     1     -17.809   3.172  14.021  1.00  0.00    -0.011 C 
HETATM   27  C7  UNL     1     -17.621   3.101  12.502  1.00  0.00     0.010 C 
BRANCH  26  28
HETATM   28  C5  UNL     1     -17.707   4.653  14.495  1.00  0.00     0.040 C 
BRANCH  28  29
HETATM   29  C4  UNL     1     -16.302   5.286  14.487  1.00  0.00     0.142 C 
BRANCH  29  30
HETATM   30  C3  UNL     1     -16.211   6.378  13.458  1.00  0.00     0.018 C 
HETATM   31  C2  UNL     1     -15.100   6.969  12.972  1.00  0.00     0.010 C 
HETATM   32  C1  UNL     1     -13.686   6.659  13.356  1.00  0.00     0.055 C 
BRANCH  31  33
HETATM   33  C30 UNL     1     -15.320   8.050  11.976  1.00  0.00     0.171 C 
HETATM   34  O6  UNL     1     -16.129   8.046  11.064  1.00  0.00    -0.646 OA
BRANCH  33  35
HETATM   35  O7  UNL     1     -14.515   9.104  12.177  1.00  0.00    -0.773 OA
HETATM   36  H42 UNL     1     -14.774   9.730  11.469  1.00  0.00     0.167 HD
ENDBRANCH  33  35
ENDBRANCH  31  33
ENDBRANCH  29  30
BRANCH  29  37
HETATM   37  O1  UNL     1     -16.015   5.878  15.748  1.00  0.00    -0.392 OA
HETATM   38  H6  UNL     1     -16.523   6.705  15.813  1.00  0.00     0.210 HD
ENDBRANCH  29  37
ENDBRANCH  28  29
ENDBRANCH  26  28
ENDBRANCH   1  26
BRANCH   3  39
HETATM   39  O2  UNL     1     -18.082  -0.173  16.910  1.00  0.00    -0.394 OA
HETATM   40  H17 UNL     1     -17.812  -0.904  17.504  1.00  0.00     0.210 HD
ENDBRANCH   3  39
TORSDOF 8
ENDMDL
MODEL 4
REMARK minimizedAffinity -7.26237154
REMARK CNNscore 0.5451051
REMARK CNNaffinity 5.72349358
REMARK  8 active torsions:
REMARK  status: ('A' for Active; 'I' for Inactive)
REMARK    1  A    between atoms: C2_2  and  C30_35 
REMARK    2  A    between atoms: C3_3  and  C4_4 
REMARK    3  A    between atoms: C4_4  and  O1_5 
REMARK    4  A    between atoms: C4_4  and  C5_6 
REMARK    5  A    between atoms: C5_6  and  C6_7 
REMARK    6  A    between atoms: C6_7  and  C8_9 
REMARK    7  A    between atoms: C10_11  and  O2_12 
REMARK    8  A    between atoms: C30_35  and  O7_37 
ROOT
HETATM    1  C8  UNL     1     -15.627  -4.123  13.420  1.00  0.00     0.001 C 
HETATM    2  C9  UNL     1     -16.501  -4.232  12.138  1.00  0.00     0.038 C 
HETATM    3  C10 UNL     1     -16.963  -2.809  11.762  1.00  0.00     0.132 C 
HETATM    4  C11 UNL     1     -16.155  -1.865  12.692  1.00  0.00     0.021 C 
HETATM    5  C12 UNL     1     -14.794  -1.614  11.963  1.00  0.00     0.024 C 
HETATM    6  C13 UNL     1     -16.650  -0.471  13.059  1.00  0.00     0.010 C 
HETATM    7  C14 UNL     1     -16.256   0.173  14.187  1.00  0.00     0.007 C 
HETATM    8  C15 UNL     1     -15.365  -0.592  15.157  1.00  0.00     0.157 C 
HETATM    9  O3  UNL     1     -14.886  -0.031  16.142  1.00  0.00    -0.293 OA
HETATM   10  C16 UNL     1     -15.037  -2.062  14.925  1.00  0.00     0.094 C 
HETATM   11  C17 UNL     1     -16.050  -2.737  14.001  1.00  0.00    -0.019 C 
HETATM   12  C18 UNL     1     -17.392  -2.880  14.782  1.00  0.00     0.017 C 
HETATM   13  C19 UNL     1     -16.657   1.625  14.562  1.00  0.00    -0.007 C 
HETATM   14  C20 UNL     1     -17.691   1.514  15.707  1.00  0.00     0.021 C 
HETATM   15  C21 UNL     1     -15.433   2.462  15.063  1.00  0.00     0.022 C 
HETATM   16  C22 UNL     1     -15.472   3.960  14.775  1.00  0.00     0.080 C 
HETATM   17  C23 UNL     1     -16.884   4.471  14.646  1.00  0.00     0.135 C 
HETATM   18  O4  UNL     1     -17.287   5.402  15.341  1.00  0.00    -0.297 OA
HETATM   19  C24 UNL     1     -17.741   3.826  13.552  1.00  0.00     0.018 C 
HETATM   20  C25 UNL     1     -19.229   3.918  13.942  1.00  0.00     0.023 C 
HETATM   21  C26 UNL     1     -17.544   4.675  12.278  1.00  0.00     0.023 C 
HETATM   22  C27 UNL     1     -17.230   2.365  13.300  1.00  0.00     0.021 C 
HETATM   23  C28 UNL     1     -18.242   1.494  12.562  1.00  0.00     0.090 C 
HETATM   24  C29 UNL     1     -17.586   0.216  12.118  1.00  0.00     0.157 C 
HETATM   25  O5  UNL     1     -17.861  -0.277  11.025  1.00  0.00    -0.293 OA
ENDROOT
BRANCH   1  26
HETATM   26  C6  UNL     1     -15.727  -5.397  14.305  1.00  0.00    -0.011 C 
HETATM   27  C7  UNL     1     -17.021  -6.184  14.070  1.00  0.00     0.010 C 
BRANCH  26  28
HETATM   28  C5  UNL     1     -15.550  -5.121  15.830  1.00  0.00     0.040 C 
BRANCH  28  29
HETATM   29  C4  UNL     1     -15.060  -6.298  16.693  1.00  0.00     0.142 C 
BRANCH  29  30
HETATM   30  C3  UNL     1     -13.597  -6.559  16.466  1.00  0.00     0.018 C 
HETATM   31  C2  UNL     1     -12.878  -7.637  16.841  1.00  0.00     0.010 C 
HETATM   32  C1  UNL     1     -13.391  -8.837  17.578  1.00  0.00     0.055 C 
BRANCH  31  33
HETATM   33  C30 UNL     1     -11.432  -7.606  16.502  1.00  0.00     0.171 C 
HETATM   34  O6  UNL     1     -10.502  -7.532  17.287  1.00  0.00    -0.646 OA
BRANCH  33  35
HETATM   35  O7  UNL     1     -11.212  -7.681  15.181  1.00  0.00    -0.773 OA
HETATM   36  H42 UNL     1     -10.236  -7.661  15.108  1.00  0.00     0.167 HD
ENDBRANCH  33  35
ENDBRANCH  31  33
ENDBRANCH  29  30
BRANCH  29  37
HETATM   37  O1  UNL     1     -15.219  -6.002  18.076  1.00  0.00    -0.392 OA
HETATM   38  H6  UNL     1     -14.527  -5.368  18.327  1.00  0.00     0.210 HD
ENDBRANCH  29  37
ENDBRANCH  28  29
ENDBRANCH  26  28
ENDBRANCH   1  26
BRANCH   3  39
HETATM   39  O2  UNL     1     -18.368  -2.718  11.971  1.00  0.00    -0.394 OA
HETATM   40  H17 UNL     1     -18.661  -1.971  11.408  1.00  0.00     0.210 HD
ENDBRANCH   3  39
TORSDOF 8
ENDMDL
MODEL 5
REMARK minimizedAffinity -7.80095196
REMARK CNNscore 0.52968359
REMARK CNNaffinity 6.63077688
REMARK  8 active torsions:
REMARK  status: ('A' for Active; 'I' for Inactive)
REMARK    1  A    between atoms: C2_2  and  C30_35 
REMARK    2  A    between atoms: C3_3  and  C4_4 
REMARK    3  A    between atoms: C4_4  and  O1_5 
REMARK    4  A    between atoms: C4_4  and  C5_6 
REMARK    5  A    between atoms: C5_6  and  C6_7 
REMARK    6  A    between atoms: C6_7  and  C8_9 
REMARK    7  A    between atoms: C10_11  and  O2_12 
REMARK    8  A    between atoms: C30_35  and  O7_37 
ROOT
HETATM    1  C8  UNL     1      -8.650   6.780  14.862  1.00  0.00     0.001 C 
HETATM    2  C9  UNL     1      -9.182   5.699  13.877  1.00  0.00     0.038 C 
HETATM    3  C10 UNL     1      -7.964   4.948  13.301  1.00  0.00     0.132 C 
HETATM    4  C11 UNL     1      -6.754   5.443  14.138  1.00  0.00     0.021 C 
HETATM    5  C12 UNL     1      -6.713   4.530  15.407  1.00  0.00     0.024 C 
HETATM    6  C13 UNL     1      -5.328   5.407  13.601  1.00  0.00     0.010 C 
HETATM    7  C14 UNL     1      -4.350   6.226  14.062  1.00  0.00     0.007 C 
HETATM    8  C15 UNL     1      -4.745   7.285  15.084  1.00  0.00     0.157 C 
HETATM    9  O3  UNL     1      -3.889   7.988  15.621  1.00  0.00    -0.293 OA
HETATM   10  C16 UNL     1      -6.204   7.491  15.472  1.00  0.00     0.094 C 
HETATM   11  C17 UNL     1      -7.163   6.940  14.417  1.00  0.00    -0.019 C 
HETATM   12  C18 UNL     1      -7.084   7.866  13.165  1.00  0.00     0.017 C 
HETATM   13  C19 UNL     1      -2.864   6.169  13.616  1.00  0.00    -0.007 C 
HETATM   14  C20 UNL     1      -2.632   7.396  12.703  1.00  0.00     0.021 C 
HETATM   15  C21 UNL     1      -1.882   6.248  14.832  1.00  0.00     0.022 C 
HETATM   16  C22 UNL     1      -0.554   5.512  14.680  1.00  0.00     0.080 C 
HETATM   17  C23 UNL     1      -0.145   5.382  13.235  1.00  0.00     0.135 C 
HETATM   18  O4  UNL     1       0.948   5.790  12.847  1.00  0.00    -0.297 OA
HETATM   19  C24 UNL     1      -1.125   4.645  12.317  1.00  0.00     0.018 C 
HETATM   20  C25 UNL     1      -0.950   5.144  10.869  1.00  0.00     0.023 C 
HETATM   21  C26 UNL     1      -0.719   3.155  12.343  1.00  0.00     0.023 C 
HETATM   22  C27 UNL     1      -2.577   4.808  12.884  1.00  0.00     0.021 C 
HETATM   23  C28 UNL     1      -3.662   4.494  11.859  1.00  0.00     0.090 C 
HETATM   24  C29 UNL     1      -4.998   4.404  12.542  1.00  0.00     0.157 C 
HETATM   25  O5  UNL     1      -5.819   3.557  12.194  1.00  0.00    -0.293 OA
ENDROOT
BRANCH   1  26
HETATM   26  C6  UNL     1      -9.580   8.025  14.919  1.00  0.00    -0.011 C 
HETATM   27  C7  UNL     1     -10.156   8.272  16.317  1.00  0.00     0.010 C 
BRANCH  26  28
HETATM   28  C5  UNL     1     -10.735   7.996  13.872  1.00  0.00     0.040 C 
BRANCH  28  29
HETATM   29  C4  UNL     1     -12.161   7.804  14.422  1.00  0.00     0.142 C 
BRANCH  29  30
HETATM   30  C3  UNL     1     -13.190   8.165  13.386  1.00  0.00     0.018 C 
HETATM   31  C2  UNL     1     -14.372   7.563  13.146  1.00  0.00     0.010 C 
HETATM   32  C1  UNL     1     -14.933   6.380  13.875  1.00  0.00     0.055 C 
BRANCH  31  33
HETATM   33  C30 UNL     1     -15.175   8.125  12.030  1.00  0.00     0.171 C 
HETATM   34  O6  UNL     1     -15.773   7.496  11.173  1.00  0.00    -0.646 OA
BRANCH  33  35
HETATM   35  O7  UNL     1     -15.203   9.466  12.043  1.00  0.00    -0.773 OA
HETATM   36  H42 UNL     1     -15.765   9.692  11.273  1.00  0.00     0.167 HD
ENDBRANCH  33  35
ENDBRANCH  31  33
ENDBRANCH  29  30
BRANCH  29  37
HETATM   37  O1  UNL     1     -12.382   6.442  14.770  1.00  0.00    -0.392 OA
HETATM   38  H6  UNL     1     -12.498   5.938  13.946  1.00  0.00     0.210 HD
ENDBRANCH  29  37
ENDBRANCH  28  29
ENDBRANCH  26  28
ENDBRANCH   1  26
BRANCH   3  39
HETATM   39  O2  UNL     1      -7.845   5.268  11.919  1.00  0.00    -0.394 OA
HETATM   40  H17 UNL     1      -7.323   4.535  11.533  1.00  0.00     0.210 HD
ENDBRANCH   3  39
TORSDOF 8
ENDMDL
MODEL 6
REMARK minimizedAffinity -8.30853462
REMARK CNNscore 0.510840118
REMARK CNNaffinity 6.74990273
REMARK  8 active torsions:
REMARK  status: ('A' for Active; 'I' for Inactive)
REMARK    1  A    between atoms: C2_2  and  C30_35 
REMARK    2  A    between atoms: C3_3  and  C4_4 
REMARK    3  A    between atoms: C4_4  and  O1_5 
REMARK    4  A    between atoms: C4_4  and  C5_6 
REMARK    5  A    between atoms: C5_6  and  C6_7 
REMARK    6  A    between atoms: C6_7  and  C8_9 
REMARK    7  A    between atoms: C10_11  and  O2_12 
REMARK    8  A    between atoms: C30_35  and  O7_37 
ROOT
HETATM    1  C8  UNL     1      -5.975   6.356  15.162  1.00  0.00     0.001 C 
HETATM    2  C9  UNL     1      -6.200   5.043  14.358  1.00  0.00     0.038 C 
HETATM    3  C10 UNL     1      -4.905   4.744  13.576  1.00  0.00     0.132 C 
HETATM    4  C11 UNL     1      -3.863   5.757  14.121  1.00  0.00     0.021 C 
HETATM    5  C12 UNL     1      -3.246   5.088  15.393  1.00  0.00     0.024 C 
HETATM    6  C13 UNL     1      -2.655   6.197  13.302  1.00  0.00     0.010 C 
HETATM    7  C14 UNL     1      -2.015   7.374  13.513  1.00  0.00     0.007 C 
HETATM    8  C15 UNL     1      -2.612   8.321  14.547  1.00  0.00     0.157 C 
HETATM    9  O3  UNL     1      -2.023   9.355  14.864  1.00  0.00    -0.293 OA
HETATM   10  C16 UNL     1      -3.942   8.006  15.220  1.00  0.00     0.094 C 
HETATM   11  C17 UNL     1      -4.773   7.010  14.412  1.00  0.00    -0.019 C 
HETATM   12  C18 UNL     1      -5.285   7.739  13.132  1.00  0.00     0.017 C 
HETATM   13  C19 UNL     1      -0.729   7.828  12.772  1.00  0.00    -0.007 C 
HETATM   14  C20 UNL     1      -1.162   8.931  11.778  1.00  0.00     0.021 C 
HETATM   15  C21 UNL     1       0.337   8.419  13.754  1.00  0.00     0.022 C 
HETATM   16  C22 UNL     1       1.799   8.226  13.362  1.00  0.00     0.080 C 
HETATM   17  C23 UNL     1       1.969   8.086  11.871  1.00  0.00     0.135 C 
HETATM   18  O4  UNL     1       2.727   8.826  11.247  1.00  0.00    -0.297 OA
HETATM   19  C24 UNL     1       1.216   6.928  11.209  1.00  0.00     0.018 C 
HETATM   20  C25 UNL     1       0.925   7.276   9.736  1.00  0.00     0.023 C 
HETATM   21  C26 UNL     1       2.174   5.717  11.217  1.00  0.00     0.023 C 
HETATM   22  C27 UNL     1      -0.061   6.599  12.058  1.00  0.00     0.021 C 
HETATM   23  C28 UNL     1      -1.095   5.776  11.294  1.00  0.00     0.090 C 
HETATM   24  C29 UNL     1      -2.146   5.272  12.243  1.00  0.00     0.157 C 
HETATM   25  O5  UNL     1      -2.613   4.142  12.110  1.00  0.00    -0.293 OA
ENDROOT
BRANCH   1  26
HETATM   26  C6  UNL     1      -7.296   7.155  15.356  1.00  0.00    -0.011 C 
HETATM   27  C7  UNL     1      -7.712   7.267  16.827  1.00  0.00     0.010 C 
BRANCH  26  28
HETATM   28  C5  UNL     1      -8.489   6.613  14.512  1.00  0.00     0.040 C 
BRANCH  28  29
HETATM   29  C4  UNL     1      -9.891   7.132  14.884  1.00  0.00     0.142 C 
BRANCH  29  30
HETATM   30  C3  UNL     1     -10.035   8.587  14.534  1.00  0.00     0.018 C 
HETATM   31  C2  UNL     1     -10.929   9.473  15.020  1.00  0.00     0.010 C 
HETATM   32  C1  UNL     1     -11.993   9.196  16.038  1.00  0.00     0.055 C 
BRANCH  31  33
HETATM   33  C30 UNL     1     -10.852  10.848  14.463  1.00  0.00     0.171 C 
HETATM   34  O6  UNL     1      -9.987  11.678  14.687  1.00  0.00    -0.646 OA
BRANCH  33  35
HETATM   35  O7  UNL     1     -11.868  11.122  13.631  1.00  0.00    -0.773 OA
HETATM   36  H42 UNL     1     -11.685  12.038  13.337  1.00  0.00     0.167 HD
ENDBRANCH  33  35
ENDBRANCH  31  33
ENDBRANCH  29  30
BRANCH  29  37
HETATM   37  O1  UNL     1     -10.892   6.429  14.157  1.00  0.00    -0.392 OA
HETATM   38  H6  UNL     1     -10.879   6.753  13.241  1.00  0.00     0.210 HD
ENDBRANCH  29  37
ENDBRANCH  28  29
ENDBRANCH  26  28
ENDBRANCH   1  26
BRANCH   3  39
HETATM   39  O2  UNL     1      -5.164   4.915  12.186  1.00  0.00    -0.394 OA
HETATM   40  H17 UNL     1      -4.472   4.392  11.733  1.00  0.00     0.210 HD
ENDBRANCH   3  39
TORSDOF 8
ENDMDL
MODEL 7
REMARK minimizedAffinity -7.55203962
REMARK CNNscore 0.476776779
REMARK CNNaffinity 5.97069788
REMARK  8 active torsions:
REMARK  status: ('A' for Active; 'I' for Inactive)
REMARK    1  A    between atoms: C2_2  and  C30_35 
REMARK    2  A    between atoms: C3_3  and  C4_4 
REMARK    3  A    between atoms: C4_4  and  O1_5 
REMARK    4  A    between atoms: C4_4  and  C5_6 
REMARK    5  A    between atoms: C5_6  and  C6_7 
REMARK    6  A    between atoms: C6_7  and  C8_9 
REMARK    7  A    between atoms: C10_11  and  O2_12 
REMARK    8  A    between atoms: C30_35  and  O7_37 
ROOT
HETATM    1  C8  UNL     1       2.688  12.624  19.269  1.00  0.00     0.001 C 
HETATM    2  C9  UNL     1       3.644  11.677  18.488  1.00  0.00     0.038 C 
HETATM    3  C10 UNL     1       2.798  10.901  17.458  1.00  0.00     0.132 C 
HETATM    4  C11 UNL     1       1.402  11.580  17.490  1.00  0.00     0.021 C 
HETATM    5  C12 UNL     1       1.493  12.788  16.502  1.00  0.00     0.024 C 
HETATM    6  C13 UNL     1       0.134  10.845  17.073  1.00  0.00     0.010 C 
HETATM    7  C14 UNL     1      -1.098  11.198  17.517  1.00  0.00     0.007 C 
HETATM    8  C15 UNL     1      -1.178  12.313  18.553  1.00  0.00     0.157 C 
HETATM    9  O3  UNL     1      -2.268  12.754  18.916  1.00  0.00    -0.293 OA
HETATM   10  C16 UNL     1       0.087  12.913  19.154  1.00  0.00     0.094 C 
HETATM   11  C17 UNL     1       1.290  11.980  19.011  1.00  0.00    -0.019 C 
HETATM   12  C18 UNL     1       1.079  10.773  19.975  1.00  0.00     0.017 C 
HETATM   13  C19 UNL     1      -2.428  10.545  17.053  1.00  0.00    -0.007 C 
HETATM   14  C20 UNL     1      -2.917   9.664  18.227  1.00  0.00     0.021 C 
HETATM   15  C21 UNL     1      -3.525  11.611  16.727  1.00  0.00     0.022 C 
HETATM   16  C22 UNL     1      -4.531  11.239  15.641  1.00  0.00     0.080 C 
HETATM   17  C23 UNL     1      -4.702   9.747  15.519  1.00  0.00     0.135 C 
HETATM   18  O4  UNL     1      -5.811   9.227  15.611  1.00  0.00    -0.297 OA
HETATM   19  C24 UNL     1      -3.438   8.944  15.194  1.00  0.00     0.018 C 
HETATM   20  C25 UNL     1      -3.582   7.510  15.740  1.00  0.00     0.023 C 
HETATM   21  C26 UNL     1      -3.362   8.846  13.655  1.00  0.00     0.023 C 
HETATM   22  C27 UNL     1      -2.188   9.719  15.738  1.00  0.00     0.021 C 
HETATM   23  C28 UNL     1      -0.943   8.844  15.855  1.00  0.00     0.090 C 
HETATM   24  C29 UNL     1       0.262   9.706  16.113  1.00  0.00     0.157 C 
HETATM   25  O5  UNL     1       1.341   9.439  15.586  1.00  0.00    -0.293 OA
ENDROOT
BRANCH   1  26
HETATM   26  C6  UNL     1       3.172  12.869  20.726  1.00  0.00    -0.011 C 
HETATM   27  C7  UNL     1       3.277  14.357  21.076  1.00  0.00     0.010 C 
BRANCH  26  28
HETATM   28  C5  UNL     1       4.512  12.151  21.074  1.00  0.00     0.040 C 
BRANCH  28  29
HETATM   29  C4  UNL     1       4.706  11.723  22.540  1.00  0.00     0.142 C 
BRANCH  29  30
HETATM   30  C3  UNL     1       6.163  11.720  22.911  1.00  0.00     0.018 C 
HETATM   31  C2  UNL     1       7.003  12.772  22.985  1.00  0.00     0.010 C 
HETATM   32  C1  UNL     1       6.661  14.205  22.712  1.00  0.00     0.055 C 
BRANCH  31  33
HETATM   33  C30 UNL     1       8.408  12.460  23.351  1.00  0.00     0.171 C 
HETATM   34  O6  UNL     1       9.268  13.257  23.686  1.00  0.00    -0.646 OA
BRANCH  33  35
HETATM   35  O7  UNL     1       8.674  11.146  23.293  1.00  0.00    -0.773 OA
HETATM   36  H42 UNL     1       9.613  11.089  23.565  1.00  0.00     0.167 HD
ENDBRANCH  33  35
ENDBRANCH  31  33
ENDBRANCH  29  30
BRANCH  29  37
HETATM   37  O1  UNL     1       4.057  12.636  23.417  1.00  0.00    -0.392 OA
HETATM   38  H6  UNL     1       4.591  13.447  23.453  1.00  0.00     0.210 HD
ENDBRANCH  29  37
ENDBRANCH  28  29
ENDBRANCH  26  28
ENDBRANCH   1  26
BRANCH   3  39
HETATM   39  O2  UNL     1       2.754   9.532  17.845  1.00  0.00    -0.394 OA
HETATM   40  H17 UNL     1       2.536   9.043  17.025  1.00  0.00     0.210 HD
ENDBRANCH   3  39
TORSDOF 8
ENDMDL
MODEL 8
REMARK minimizedAffinity -7.90441656
REMARK CNNscore 0.470387667
REMARK CNNaffinity 6.24790621
REMARK  8 active torsions:
REMARK  status: ('A' for Active; 'I' for Inactive)
REMARK    1  A    between atoms: C2_2  and  C30_35 
REMARK    2  A    between atoms: C3_3  and  C4_4 
REMARK    3  A    between atoms: C4_4  and  O1_5 
REMARK    4  A    between atoms: C4_4  and  C5_6 
REMARK    5  A    between atoms: C5_6  and  C6_7 
REMARK    6  A    between atoms: C6_7  and  C8_9 
REMARK    7  A    between atoms: C10_11  and  O2_12 
REMARK    8  A    between atoms: C30_35  and  O7_37 
ROOT
HETATM    1  C8  UNL     1       7.489  10.599  14.683  1.00  0.00     0.001 C 
HETATM    2  C9  UNL     1       8.613   9.914  13.853  1.00  0.00     0.038 C 
HETATM    3  C10 UNL     1       7.939   9.118  12.717  1.00  0.00     0.132 C 
HETATM    4  C11 UNL     1       6.447   9.544  12.757  1.00  0.00     0.021 C 
HETATM    5  C12 UNL     1       6.354  10.847  11.897  1.00  0.00     0.024 C 
HETATM    6  C13 UNL     1       5.336   8.653  12.215  1.00  0.00     0.010 C 
HETATM    7  C14 UNL     1       4.050   8.745  12.639  1.00  0.00     0.007 C 
HETATM    8  C15 UNL     1       3.754   9.716  13.776  1.00  0.00     0.157 C 
HETATM    9  O3  UNL     1       2.595   9.926  14.134  1.00  0.00    -0.293 OA
HETATM   10  C16 UNL     1       4.881  10.454  14.486  1.00  0.00     0.094 C 
HETATM   11  C17 UNL     1       6.229   9.759  14.303  1.00  0.00    -0.019 C 
HETATM   12  C18 UNL     1       6.206   8.439  15.134  1.00  0.00     0.017 C 
HETATM   13  C19 UNL     1       2.866   7.928  12.057  1.00  0.00    -0.007 C 
HETATM   14  C20 UNL     1       2.506   6.860  13.116  1.00  0.00     0.021 C 
HETATM   15  C21 UNL     1       1.609   8.822  11.791  1.00  0.00     0.022 C 
HETATM   16  C22 UNL     1       0.710   8.401  10.632  1.00  0.00     0.080 C 
HETATM   17  C23 UNL     1       0.802   6.923  10.356  1.00  0.00     0.135 C 
HETATM   18  O4  UNL     1      -0.203   6.216  10.349  1.00  0.00    -0.297 OA
HETATM   19  C24 UNL     1       2.193   6.384  10.007  1.00  0.00     0.018 C 
HETATM   20  C25 UNL     1       2.285   4.897  10.403  1.00  0.00     0.023 C 
HETATM   21  C26 UNL     1       2.324   6.461   8.470  1.00  0.00     0.023 C 
HETATM   22  C27 UNL     1       3.277   7.297  10.678  1.00  0.00     0.021 C 
HETATM   23  C28 UNL     1       4.651   6.638  10.761  1.00  0.00     0.090 C 
HETATM   24  C29 UNL     1       5.682   7.659  11.154  1.00  0.00     0.157 C 
HETATM   25  O5  UNL     1       6.804   7.635  10.649  1.00  0.00    -0.293 OA
ENDROOT
BRANCH   1  26
HETATM   26  C6  UNL     1       7.887  10.768  16.176  1.00  0.00    -0.011 C 
HETATM   27  C7  UNL     1       7.811  12.223  16.650  1.00  0.00     0.010 C 
BRANCH  26  28
HETATM   28  C5  UNL     1       9.285  10.173  16.527  1.00  0.00     0.040 C 
BRANCH  28  29
HETATM   29  C4  UNL     1      10.444  11.176  16.680  1.00  0.00     0.142 C 
BRANCH  29  30
HETATM   30  C3  UNL     1      10.865  11.294  18.119  1.00  0.00     0.018 C 
HETATM   31  C2  UNL     1      11.926  11.959  18.620  1.00  0.00     0.010 C 
HETATM   32  C1  UNL     1      12.936  12.742  17.839  1.00  0.00     0.055 C 
BRANCH  31  33
HETATM   33  C30 UNL     1      12.110  11.875  20.092  1.00  0.00     0.171 C 
HETATM   34  O6  UNL     1      13.141  12.082  20.710  1.00  0.00    -0.646 OA
BRANCH  33  35
HETATM   35  O7  UNL     1      10.979  11.543  20.733  1.00  0.00    -0.773 OA
HETATM   36  H42 UNL     1      11.242  11.536  21.676  1.00  0.00     0.167 HD
ENDBRANCH  33  35
ENDBRANCH  31  33
ENDBRANCH  29  30
BRANCH  29  37
HETATM   37  O1  UNL     1      11.583  10.737  15.949  1.00  0.00    -0.392 OA
HETATM   38  H6  UNL     1      11.988  10.002  16.440  1.00  0.00     0.210 HD
ENDBRANCH  29  37
ENDBRANCH  28  29
ENDBRANCH  26  28
ENDBRANCH   1  26
BRANCH   3  39
HETATM   39  O2  UNL     1       8.123   7.729  12.964  1.00  0.00    -0.394 OA
HETATM   40  H17 UNL     1       8.013   7.298  12.092  1.00  0.00     0.210 HD
ENDBRANCH   3  39
TORSDOF 8
ENDMDL
MODEL 9
REMARK minimizedAffinity -7.80634356
REMARK CNNscore 0.461257368
REMARK CNNaffinity 6.25953531
REMARK  8 active torsions:
REMARK  status: ('A' for Active; 'I' for Inactive)
REMARK    1  A    between atoms: C2_2  and  C30_35 
REMARK    2  A    between atoms: C3_3  and  C4_4 
REMARK    3  A    between atoms: C4_4  and  O1_5 
REMARK    4  A    between atoms: C4_4  and  C5_6 
REMARK    5  A    between atoms: C5_6  and  C6_7 
REMARK    6  A    between atoms: C6_7  and  C8_9 
REMARK    7  A    between atoms: C10_11  and  O2_12 
REMARK    8  A    between atoms: C30_35  and  O7_37 
ROOT
HETATM    1  C8  UNL     1      -3.607   7.258  15.061  1.00  0.00     0.001 C 
HETATM    2  C9  UNL     1      -4.123   5.887  14.537  1.00  0.00     0.038 C 
HETATM    3  C10 UNL     1      -3.033   5.293  13.623  1.00  0.00     0.132 C 
HETATM    4  C11 UNL     1      -1.798   6.215  13.818  1.00  0.00     0.021 C 
HETATM    5  C12 UNL     1      -1.047   5.659  15.071  1.00  0.00     0.024 C 
HETATM    6  C13 UNL     1      -0.713   6.351  12.757  1.00  0.00     0.010 C 
HETATM    7  C14 UNL     1       0.087   7.442  12.662  1.00  0.00     0.007 C 
HETATM    8  C15 UNL     1      -0.201   8.607  13.601  1.00  0.00     0.157 C 
HETATM    9  O3  UNL     1       0.551   9.580  13.641  1.00  0.00    -0.293 OA
HETATM   10  C16 UNL     1      -1.418   8.589  14.518  1.00  0.00     0.094 C 
HETATM   11  C17 UNL     1      -2.490   7.615  14.031  1.00  0.00    -0.019 C 
HETATM   12  C18 UNL     1      -3.133   8.213  12.743  1.00  0.00     0.017 C 
HETATM   13  C19 UNL     1       1.264   7.593  11.661  1.00  0.00    -0.007 C 
HETATM   14  C20 UNL     1       0.793   8.588  10.575  1.00  0.00     0.021 C 
HETATM   15  C21 UNL     1       2.550   8.162  12.348  1.00  0.00     0.022 C 
HETATM   16  C22 UNL     1       3.886   7.705  11.770  1.00  0.00     0.080 C 
HETATM   17  C23 UNL     1       3.770   7.325  10.316  1.00  0.00     0.135 C 
HETATM   18  O4  UNL     1       4.485   7.848   9.465  1.00  0.00    -0.297 OA
HETATM   19  C24 UNL     1       2.781   6.202   9.987  1.00  0.00     0.018 C 
HETATM   20  C25 UNL     1       2.274   6.367   8.541  1.00  0.00     0.023 C 
HETATM   21  C26 UNL     1       3.577   4.880  10.049  1.00  0.00     0.023 C 
HETATM   22  C27 UNL     1       1.646   6.188  11.069  1.00  0.00     0.021 C 
HETATM   23  C28 UNL     1       0.404   5.419  10.628  1.00  0.00     0.090 C 
HETATM   24  C29 UNL     1      -0.513   5.217  11.803  1.00  0.00     0.157 C 
HETATM   25  O5  UNL     1      -1.125   4.159  11.938  1.00  0.00    -0.293 OA
ENDROOT
BRANCH   1  26
HETATM   26  C6  UNL     1      -4.769   8.258  15.322  1.00  0.00    -0.011 C 
HETATM   27  C7  UNL     1      -4.341   9.457  16.176  1.00  0.00     0.010 C 
BRANCH  26  28
HETATM   28  C5  UNL     1      -6.040   7.599  15.941  1.00  0.00     0.040 C 
BRANCH  28  29
HETATM   29  C4  UNL     1      -7.320   7.629  15.085  1.00  0.00     0.142 C 
BRANCH  29  30
HETATM   30  C3  UNL     1      -8.064   8.921  15.275  1.00  0.00     0.018 C 
HETATM   31  C2  UNL     1      -9.395   9.102  15.397  1.00  0.00     0.010 C 
HETATM   32  C1  UNL     1     -10.445   8.033  15.371  1.00  0.00     0.055 C 
BRANCH  31  33
HETATM   33  C30 UNL     1      -9.851  10.508  15.546  1.00  0.00     0.171 C 
HETATM   34  O6  UNL     1      -9.786  11.388  14.705  1.00  0.00    -0.646 OA
BRANCH  33  35
HETATM   35  O7  UNL     1     -10.385  10.748  16.753  1.00  0.00    -0.773 OA
HETATM   36  H42 UNL     1     -10.646  11.692  16.706  1.00  0.00     0.167 HD
ENDBRANCH  33  35
ENDBRANCH  31  33
ENDBRANCH  29  30
BRANCH  29  37
HETATM   37  O1  UNL     1      -6.997   7.536  13.702  1.00  0.00    -0.392 OA
HETATM   38  H6  UNL     1      -6.640   8.395  13.420  1.00  0.00     0.210 HD
ENDBRANCH  29  37
ENDBRANCH  28  29
ENDBRANCH  26  28
ENDBRANCH   1  26
BRANCH   3  39
HETATM   39  O2  UNL     1      -3.513   5.293  12.283  1.00  0.00    -0.394 OA
HETATM   40  H17 UNL     1      -2.979   4.615  11.821  1.00  0.00     0.210 HD
ENDBRANCH   3  39
TORSDOF 8
ENDMDL
