MODEL 1
REMARK minimizedAffinity -9.72910309
REMARK  6 active torsions:
REMARK  status: ('A' for Active; 'I' for Inactive)
REMARK    1  A    between atoms: C3_3  and  C4_4 
REMARK    2  A    between atoms: C4_4  and  O1_5 
REMARK    3  A    between atoms: C6_9  and  C7_10 
REMARK    4  A    between atoms: C7_10  and  C9_12 
REMARK    5  A    between atoms: C15_18  and  O4_19 
REMARK    6  A    between atoms: C16_20  and  C17_21 
ROOT
HETATM    1  C9  UNL     1      -0.878  50.629 -23.039  1.00  0.00     0.000 C 
HETATM    2  C10 UNL     1      -0.325  51.380 -21.789  1.00  0.00     0.006 C 
HETATM    3  C11 UNL     1      -1.078  50.856 -20.560  1.00  0.00     0.006 C 
HETATM    4  C12 UNL     1      -1.856  49.667 -21.093  1.00  0.00    -0.001 C 
HETATM    5  C13 UNL     1      -3.020  49.124 -20.249  1.00  0.00    -0.002 C 
HETATM    6  C14 UNL     1      -2.557  48.767 -18.829  1.00  0.00     0.038 C 
HETATM    7  C15 UNL     1      -3.689  48.174 -17.993  1.00  0.00     0.135 C 
HETATM    8  C16 UNL     1      -4.381  46.965 -18.651  1.00  0.00     0.053 C 
HETATM    9  C18 UNL     1      -3.462  45.725 -18.705  1.00  0.00     0.028 C 
HETATM   10  C19 UNL     1      -4.087  44.801 -19.746  1.00  0.00     0.080 C 
HETATM   11  C20 UNL     1      -4.865  45.753 -20.622  1.00  0.00     0.137 C 
HETATM   12  O6  UNL     1      -5.502  45.378 -21.599  1.00  0.00    -0.297 OA
HETATM   13  C21 UNL     1      -4.772  47.206 -20.149  1.00  0.00     0.037 C 
HETATM   14  C22 UNL     1      -6.114  47.929 -20.328  1.00  0.00     0.025 C 
HETATM   15  C23 UNL     1      -3.605  47.877 -20.962  1.00  0.00     0.007 C 
HETATM   16  C24 UNL     1      -3.964  48.197 -22.435  1.00  0.00     0.007 C 
HETATM   17  C25 UNL     1      -2.804  48.835 -23.221  1.00  0.00     0.010 C 
HETATM   18  C26 UNL     1      -2.262  50.102 -22.528  1.00  0.00    -0.036 C 
HETATM   19  C27 UNL     1      -3.323  51.229 -22.551  1.00  0.00     0.016 C 
ENDROOT
BRANCH   1  20
HETATM   20  C7  UNL     1      -0.792  51.492 -24.347  1.00  0.00     0.016 C 
HETATM   21  C8  UNL     1      -1.188  50.686 -25.590  1.00  0.00     0.013 C 
BRANCH  20  22
HETATM   22  C6  UNL     1       0.650  52.094 -24.532  1.00  0.00     0.140 C 
HETATM   23  O3  UNL     1       0.619  53.537 -24.466  1.00  0.00    -0.311 OA
HETATM   24  C5  UNL     1       0.275  54.278 -25.552  1.00  0.00     0.292 C 
HETATM   25  C3  UNL     1       0.163  53.560 -26.856  1.00  0.00     0.042 C 
HETATM   26  O2  UNL     1       0.099  55.486 -25.459  1.00  0.00    -0.260 OA
HETATM   27  C2  UNL     1       0.759  52.357 -27.000  1.00  0.00    -0.067 C 
HETATM   28  C1  UNL     1       0.833  51.563 -28.272  1.00  0.00     0.044 C 
HETATM   29  C28 UNL     1       1.416  51.719 -25.804  1.00  0.00     0.067 C 
BRANCH  25  30
HETATM   30  C4  UNL     1      -0.546  54.319 -27.940  1.00  0.00     0.209 C 
BRANCH  30  31
HETATM   31  O1  UNL     1      -1.881  53.838 -28.056  1.00  0.00    -0.396 OA
HETATM   32  H6  UNL     1      -1.839  52.924 -28.382  1.00  0.00     0.209 HD
ENDBRANCH  30  31
ENDBRANCH  25  30
ENDBRANCH  20  22
ENDBRANCH   1  20
BRANCH   7  33
HETATM   33  O4  UNL     1      -4.635  49.228 -17.782  1.00  0.00    -0.394 OA
HETATM   34  H22 UNL     1      -5.194  48.951 -17.026  1.00  0.00     0.210 HD
ENDBRANCH   7  33
BRANCH   8  35
HETATM   35  C17 UNL     1      -5.585  46.569 -17.778  1.00  0.00     0.244 C 
HETATM   36  O5  UNL     1      -6.499  47.336 -17.484  1.00  0.00    -0.306 OA
ENDBRANCH   8  35
TORSDOF 6
ENDMDL
MODEL 2
REMARK minimizedAffinity -9.66536617
REMARK  6 active torsions:
REMARK  status: ('A' for Active; 'I' for Inactive)
REMARK    1  A    between atoms: C3_3  and  C4_4 
REMARK    2  A    between atoms: C4_4  and  O1_5 
REMARK    3  A    between atoms: C6_9  and  C7_10 
REMARK    4  A    between atoms: C7_10  and  C9_12 
REMARK    5  A    between atoms: C15_18  and  O4_19 
REMARK    6  A    between atoms: C16_20  and  C17_21 
ROOT
HETATM    1  C9  UNL     1      -0.999  48.930 -19.822  1.00  0.00     0.000 C 
HETATM    2  C10 UNL     1      -2.072  47.870 -20.217  1.00  0.00     0.006 C 
HETATM    3  C11 UNL     1      -2.550  48.197 -21.637  1.00  0.00     0.006 C 
HETATM    4  C12 UNL     1      -1.581  49.267 -22.106  1.00  0.00    -0.001 C 
HETATM    5  C13 UNL     1      -1.972  50.114 -23.327  1.00  0.00    -0.002 C 
HETATM    6  C14 UNL     1      -2.292  49.227 -24.539  1.00  0.00     0.038 C 
HETATM    7  C15 UNL     1      -2.630  50.053 -25.778  1.00  0.00     0.135 C 
HETATM    8  C16 UNL     1      -1.552  51.092 -26.144  1.00  0.00     0.053 C 
HETATM    9  C18 UNL     1      -0.254  50.430 -26.656  1.00  0.00     0.028 C 
HETATM   10  C19 UNL     1       0.823  51.506 -26.542  1.00  0.00     0.080 C 
HETATM   11  C20 UNL     1       0.287  52.409 -25.457  1.00  0.00     0.137 C 
HETATM   12  O6  UNL     1       0.894  53.398 -25.065  1.00  0.00    -0.297 OA
HETATM   13  C21 UNL     1      -1.076  51.957 -24.927  1.00  0.00     0.037 C 
HETATM   14  C22 UNL     1      -1.980  53.162 -24.636  1.00  0.00     0.025 C 
HETATM   15  C23 UNL     1      -0.801  51.079 -23.652  1.00  0.00     0.007 C 
HETATM   16  C24 UNL     1      -0.391  51.894 -22.400  1.00  0.00     0.007 C 
HETATM   17  C25 UNL     1      -0.107  51.017 -21.167  1.00  0.00     0.010 C 
HETATM   18  C26 UNL     1      -1.296  50.097 -20.824  1.00  0.00    -0.036 C 
HETATM   19  C27 UNL     1      -2.510  50.933 -20.350  1.00  0.00     0.016 C 
ENDROOT
BRANCH   1  20
HETATM   20  C7  UNL     1      -0.959  49.201 -18.277  1.00  0.00     0.016 C 
HETATM   21  C8  UNL     1      -1.905  48.270 -17.510  1.00  0.00     0.013 C 
BRANCH  20  22
HETATM   22  C6  UNL     1      -1.304  50.702 -17.957  1.00  0.00     0.140 C 
HETATM   23  O3  UNL     1      -0.118  51.526 -18.004  1.00  0.00    -0.311 OA
HETATM   24  C5  UNL     1       0.726  51.594 -16.941  1.00  0.00     0.292 C 
HETATM   25  C3  UNL     1       0.260  50.980 -15.663  1.00  0.00     0.042 C 
HETATM   26  O2  UNL     1       1.806  52.164 -17.031  1.00  0.00    -0.260 OA
HETATM   27  C2  UNL     1      -1.059  50.747 -15.486  1.00  0.00    -0.067 C 
HETATM   28  C1  UNL     1      -1.696  50.241 -14.224  1.00  0.00     0.044 C 
HETATM   29  C28 UNL     1      -2.006  51.000 -16.629  1.00  0.00     0.067 C 
BRANCH  25  30
HETATM   30  C4  UNL     1       1.331  50.764 -14.634  1.00  0.00     0.209 C 
BRANCH  30  31
HETATM   31  O1  UNL     1       1.745  52.023 -14.113  1.00  0.00    -0.396 OA
HETATM   32  H6  UNL     1       2.186  52.509 -14.830  1.00  0.00     0.209 HD
ENDBRANCH  30  31
ENDBRANCH  25  30
ENDBRANCH  20  22
ENDBRANCH   1  20
BRANCH   7  33
HETATM   33  O4  UNL     1      -3.872  50.708 -25.504  1.00  0.00    -0.394 OA
HETATM   34  H22 UNL     1      -4.232  50.992 -26.371  1.00  0.00     0.210 HD
ENDBRANCH   7  33
BRANCH   8  35
HETATM   35  C17 UNL     1      -2.086  51.945 -27.308  1.00  0.00     0.244 C 
HETATM   36  O5  UNL     1      -2.689  53.006 -27.159  1.00  0.00    -0.306 OA
ENDBRANCH   8  35
TORSDOF 6
ENDMDL
MODEL 3
REMARK minimizedAffinity -9.6610651
REMARK  6 active torsions:
REMARK  status: ('A' for Active; 'I' for Inactive)
REMARK    1  A    between atoms: C3_3  and  C4_4 
REMARK    2  A    between atoms: C4_4  and  O1_5 
REMARK    3  A    between atoms: C6_9  and  C7_10 
REMARK    4  A    between atoms: C7_10  and  C9_12 
REMARK    5  A    between atoms: C15_18  and  O4_19 
REMARK    6  A    between atoms: C16_20  and  C17_21 
ROOT
HETATM    1  C9  UNL     1      -1.966  50.391 -23.780  1.00  0.00     0.000 C 
HETATM    2  C10 UNL     1      -1.747  51.284 -22.521  1.00  0.00     0.006 C 
HETATM    3  C11 UNL     1      -2.879  50.982 -21.532  1.00  0.00     0.006 C 
HETATM    4  C12 UNL     1      -3.567  49.769 -22.131  1.00  0.00    -0.001 C 
HETATM    5  C13 UNL     1      -4.976  49.414 -21.630  1.00  0.00    -0.002 C 
HETATM    6  C14 UNL     1      -4.995  49.242 -20.104  1.00  0.00     0.038 C 
HETATM    7  C15 UNL     1      -6.376  48.835 -19.594  1.00  0.00     0.135 C 
HETATM    8  C16 UNL     1      -6.947  47.580 -20.282  1.00  0.00     0.053 C 
HETATM    9  C18 UNL     1      -6.173  46.300 -19.897  1.00  0.00     0.028 C 
HETATM   10  C19 UNL     1      -6.540  45.268 -20.961  1.00  0.00     0.080 C 
HETATM   11  C20 UNL     1      -6.928  46.123 -22.143  1.00  0.00     0.137 C 
HETATM   12  O6  UNL     1      -7.274  45.644 -23.217  1.00  0.00    -0.297 OA
HETATM   13  C21 UNL     1      -6.846  47.622 -21.845  1.00  0.00     0.037 C 
HETATM   14  C22 UNL     1      -8.000  48.379 -22.517  1.00  0.00     0.025 C 
HETATM   15  C23 UNL     1      -5.433  48.108 -22.332  1.00  0.00     0.007 C 
HETATM   16  C24 UNL     1      -5.302  48.231 -23.871  1.00  0.00     0.007 C 
HETATM   17  C25 UNL     1      -3.906  48.690 -24.330  1.00  0.00     0.010 C 
HETATM   18  C26 UNL     1      -3.482  50.014 -23.663  1.00  0.00    -0.036 C 
HETATM   19  C27 UNL     1      -4.378  51.179 -24.151  1.00  0.00     0.016 C 
ENDROOT
BRANCH   1  20
HETATM   20  C7  UNL     1      -1.411  51.050 -25.091  1.00  0.00     0.016 C 
HETATM   21  C8  UNL     1      -1.474  50.089 -26.284  1.00  0.00     0.013 C 
BRANCH  20  22
HETATM   22  C6  UNL     1       0.062  51.562 -24.887  1.00  0.00     0.140 C 
HETATM   23  O3  UNL     1       0.080  52.969 -24.561  1.00  0.00    -0.311 OA
HETATM   24  C5  UNL     1      -0.009  53.912 -25.535  1.00  0.00     0.292 C 
HETATM   25  C3  UNL     1       0.109  53.443 -26.948  1.00  0.00     0.042 C 
HETATM   26  O2  UNL     1      -0.150  55.095 -25.254  1.00  0.00    -0.260 OA
HETATM   27  C2  UNL     1       0.671  52.240 -27.198  1.00  0.00    -0.067 C 
HETATM   28  C1  UNL     1       0.962  51.678 -28.559  1.00  0.00     0.044 C 
HETATM   29  C28 UNL     1       1.049  51.355 -26.040  1.00  0.00     0.067 C 
BRANCH  25  30
HETATM   30  C4  UNL     1      -0.337  54.432 -27.985  1.00  0.00     0.209 C 
BRANCH  30  31
HETATM   31  O1  UNL     1      -1.704  54.194 -28.306  1.00  0.00    -0.396 OA
HETATM   32  H6  UNL     1      -1.757  53.330 -28.749  1.00  0.00     0.209 HD
ENDBRANCH  30  31
ENDBRANCH  25  30
ENDBRANCH  20  22
ENDBRANCH   1  20
BRANCH   7  33
HETATM   33  O4  UNL     1      -7.239  49.954 -19.816  1.00  0.00    -0.394 OA
HETATM   34  H22 UNL     1      -8.023  49.818 -19.243  1.00  0.00     0.210 HD
ENDBRANCH   7  33
BRANCH   8  35
HETATM   35  C17 UNL     1      -8.388  47.375 -19.783  1.00  0.00     0.244 C 
HETATM   36  O5  UNL     1      -9.263  48.237 -19.845  1.00  0.00    -0.306 OA
ENDBRANCH   8  35
TORSDOF 6
ENDMDL
MODEL 4
REMARK minimizedAffinity -9.52561188
REMARK  6 active torsions:
REMARK  status: ('A' for Active; 'I' for Inactive)
REMARK    1  A    between atoms: C3_3  and  C4_4 
REMARK    2  A    between atoms: C4_4  and  O1_5 
REMARK    3  A    between atoms: C6_9  and  C7_10 
REMARK    4  A    between atoms: C7_10  and  C9_12 
REMARK    5  A    between atoms: C15_18  and  O4_19 
REMARK    6  A    between atoms: C16_20  and  C17_21 
ROOT
HETATM    1  C9  UNL     1      -0.735  49.849 -19.574  1.00  0.00     0.000 C 
HETATM    2  C10 UNL     1      -1.346  48.418 -19.673  1.00  0.00     0.006 C 
HETATM    3  C11 UNL     1      -1.958  48.269 -21.071  1.00  0.00     0.006 C 
HETATM    4  C12 UNL     1      -1.477  49.504 -21.810  1.00  0.00    -0.001 C 
HETATM    5  C13 UNL     1      -2.197  49.899 -23.109  1.00  0.00    -0.002 C 
HETATM    6  C14 UNL     1      -2.202  48.739 -24.115  1.00  0.00     0.038 C 
HETATM    7  C15 UNL     1      -2.866  49.131 -25.433  1.00  0.00     0.135 C 
HETATM    8  C16 UNL     1      -2.268  50.398 -26.077  1.00  0.00     0.053 C 
HETATM    9  C18 UNL     1      -0.834  50.164 -26.602  1.00  0.00     0.028 C 
HETATM   10  C19 UNL     1      -0.235  51.556 -26.781  1.00  0.00     0.080 C 
HETATM   11  C20 UNL     1      -1.033  52.397 -25.814  1.00  0.00     0.137 C 
HETATM   12  O6  UNL     1      -0.828  53.594 -25.656  1.00  0.00    -0.297 OA
HETATM   13  C21 UNL     1      -2.109  51.594 -25.078  1.00  0.00     0.037 C 
HETATM   14  C22 UNL     1      -3.389  52.423 -24.901  1.00  0.00     0.025 C 
HETATM   15  C23 UNL     1      -1.484  51.139 -23.709  1.00  0.00     0.007 C 
HETATM   16  C24 UNL     1      -1.367  52.274 -22.660  1.00  0.00     0.007 C 
HETATM   17  C25 UNL     1      -0.735  51.815 -21.333  1.00  0.00     0.010 C 
HETATM   18  C26 UNL     1      -1.481  50.612 -20.721  1.00  0.00    -0.036 C 
HETATM   19  C27 UNL     1      -2.903  51.028 -20.271  1.00  0.00     0.016 C 
ENDROOT
BRANCH   1  20
HETATM   20  C7  UNL     1      -0.748  50.410 -18.108  1.00  0.00     0.016 C 
HETATM   21  C8  UNL     1       0.594  51.047 -17.728  1.00  0.00     0.013 C 
BRANCH  20  22
HETATM   22  C6  UNL     1      -1.121  49.283 -17.076  1.00  0.00     0.140 C 
HETATM   23  O3  UNL     1      -2.256  49.674 -16.273  1.00  0.00    -0.311 OA
HETATM   24  C5  UNL     1      -2.101  50.480 -15.190  1.00  0.00     0.292 C 
HETATM   25  C3  UNL     1      -0.703  50.747 -14.736  1.00  0.00     0.042 C 
HETATM   26  O2  UNL     1      -3.072  50.937 -14.601  1.00  0.00    -0.260 OA
HETATM   27  C2  UNL     1       0.287  49.915 -15.129  1.00  0.00    -0.067 C 
HETATM   28  C1  UNL     1       1.716  49.981 -14.673  1.00  0.00     0.044 C 
HETATM   29  C28 UNL     1      -0.027  48.817 -16.110  1.00  0.00     0.067 C 
BRANCH  25  30
HETATM   30  C4  UNL     1      -0.553  51.895 -13.782  1.00  0.00     0.209 C 
BRANCH  30  31
HETATM   31  O1  UNL     1       0.464  52.771 -14.255  1.00  0.00    -0.396 OA
HETATM   32  H6  UNL     1       1.310  52.296 -14.204  1.00  0.00     0.209 HD
ENDBRANCH  30  31
ENDBRANCH  25  30
ENDBRANCH  20  22
ENDBRANCH   1  20
BRANCH   7  33
HETATM   33  O4  UNL     1      -4.253  49.333 -25.147  1.00  0.00    -0.394 OA
HETATM   34  H22 UNL     1      -4.722  49.294 -26.007  1.00  0.00     0.210 HD
ENDBRANCH   7  33
BRANCH   8  35
HETATM   35  C17 UNL     1      -3.121  50.758 -27.306  1.00  0.00     0.244 C 
HETATM   36  O5  UNL     1      -3.485  49.941 -28.149  1.00  0.00    -0.306 OA
ENDBRANCH   8  35
TORSDOF 6
ENDMDL
MODEL 5
REMARK minimizedAffinity -9.35914707
REMARK  6 active torsions:
REMARK  status: ('A' for Active; 'I' for Inactive)
REMARK    1  A    between atoms: C3_3  and  C4_4 
REMARK    2  A    between atoms: C4_4  and  O1_5 
REMARK    3  A    between atoms: C6_9  and  C7_10 
REMARK    4  A    between atoms: C7_10  and  C9_12 
REMARK    5  A    between atoms: C15_18  and  O4_19 
REMARK    6  A    between atoms: C16_20  and  C17_21 
ROOT
HETATM    1  C9  UNL     1      -3.245  48.440 -22.392  1.00  0.00     0.000 C 
HETATM    2  C10 UNL     1      -4.290  48.019 -23.470  1.00  0.00     0.006 C 
HETATM    3  C11 UNL     1      -4.009  48.838 -24.736  1.00  0.00     0.006 C 
HETATM    4  C12 UNL     1      -2.684  49.517 -24.440  1.00  0.00    -0.001 C 
HETATM    5  C13 UNL     1      -2.273  50.716 -25.309  1.00  0.00    -0.002 C 
HETATM    6  C14 UNL     1      -2.273  50.346 -26.800  1.00  0.00     0.038 C 
HETATM    7  C15 UNL     1      -1.814  51.510 -27.676  1.00  0.00     0.135 C 
HETATM    8  C16 UNL     1      -0.447  52.092 -27.267  1.00  0.00     0.053 C 
HETATM    9  C18 UNL     1       0.714  51.116 -27.557  1.00  0.00     0.028 C 
HETATM   10  C19 UNL     1       1.885  51.616 -26.716  1.00  0.00     0.080 C 
HETATM   11  C20 UNL     1       1.204  52.368 -25.598  1.00  0.00     0.137 C 
HETATM   12  O6  UNL     1       1.828  52.911 -24.694  1.00  0.00    -0.297 OA
HETATM   13  C21 UNL     1      -0.321  52.379 -25.733  1.00  0.00     0.037 C 
HETATM   14  C22 UNL     1      -0.900  53.735 -25.309  1.00  0.00     0.025 C 
HETATM   15  C23 UNL     1      -0.864  51.186 -24.864  1.00  0.00     0.007 C 
HETATM   16  C24 UNL     1      -0.822  51.446 -23.337  1.00  0.00     0.007 C 
HETATM   17  C25 UNL     1      -1.340  50.261 -22.502  1.00  0.00     0.010 C 
HETATM   18  C26 UNL     1      -2.760  49.833 -22.920  1.00  0.00    -0.036 C 
HETATM   19  C27 UNL     1      -3.785  50.940 -22.573  1.00  0.00     0.016 C 
ENDROOT
BRANCH   1  20
HETATM   20  C7  UNL     1      -3.796  48.294 -20.929  1.00  0.00     0.016 C 
HETATM   21  C8  UNL     1      -4.016  49.657 -20.263  1.00  0.00     0.013 C 
BRANCH  20  22
HETATM   22  C6  UNL     1      -2.836  47.412 -20.049  1.00  0.00     0.140 C 
HETATM   23  O3  UNL     1      -3.420  47.146 -18.755  1.00  0.00    -0.311 OA
HETATM   24  C5  UNL     1      -3.341  48.061 -17.753  1.00  0.00     0.292 C 
HETATM   25  C3  UNL     1      -2.438  49.230 -17.969  1.00  0.00     0.042 C 
HETATM   26  O2  UNL     1      -3.964  47.907 -16.710  1.00  0.00    -0.260 OA
HETATM   27  C2  UNL     1      -1.474  49.153 -18.914  1.00  0.00    -0.067 C 
HETATM   28  C1  UNL     1      -0.423  50.191 -19.177  1.00  0.00     0.044 C 
HETATM   29  C28 UNL     1      -1.419  47.939 -19.803  1.00  0.00     0.067 C 
BRANCH  25  30
HETATM   30  C4  UNL     1      -2.639  50.373 -17.018  1.00  0.00     0.209 C 
BRANCH  30  31
HETATM   31  O1  UNL     1      -2.942  51.553 -17.756  1.00  0.00    -0.396 OA
HETATM   32  H6  UNL     1      -2.151  51.793 -18.267  1.00  0.00     0.209 HD
ENDBRANCH  30  31
ENDBRANCH  25  30
ENDBRANCH  20  22
ENDBRANCH   1  20
BRANCH   7  33
HETATM   33  O4  UNL     1      -2.827  52.516 -27.580  1.00  0.00    -0.394 OA
HETATM   34  H22 UNL     1      -2.692  53.118 -28.342  1.00  0.00     0.210 HD
ENDBRANCH   7  33
BRANCH   8  35
HETATM   35  C17 UNL     1      -0.182  53.339 -28.130  1.00  0.00     0.244 C 
HETATM   36  O5  UNL     1      -0.905  54.334 -28.135  1.00  0.00    -0.306 OA
ENDBRANCH   8  35
TORSDOF 6
ENDMDL
MODEL 6
REMARK minimizedAffinity -9.22289753
REMARK  6 active torsions:
REMARK  status: ('A' for Active; 'I' for Inactive)
REMARK    1  A    between atoms: C3_3  and  C4_4 
REMARK    2  A    between atoms: C4_4  and  O1_5 
REMARK    3  A    between atoms: C6_9  and  C7_10 
REMARK    4  A    between atoms: C7_10  and  C9_12 
REMARK    5  A    between atoms: C15_18  and  O4_19 
REMARK    6  A    between atoms: C16_20  and  C17_21 
ROOT
HETATM    1  C9  UNL     1      -3.580  48.368 -22.874  1.00  0.00     0.000 C 
HETATM    2  C10 UNL     1      -4.729  48.311 -23.927  1.00  0.00     0.006 C 
HETATM    3  C11 UNL     1      -4.383  49.298 -25.048  1.00  0.00     0.006 C 
HETATM    4  C12 UNL     1      -2.954  49.708 -24.740  1.00  0.00    -0.001 C 
HETATM    5  C13 UNL     1      -2.401  50.972 -25.416  1.00  0.00    -0.002 C 
HETATM    6  C14 UNL     1      -2.531  50.887 -26.943  1.00  0.00     0.038 C 
HETATM    7  C15 UNL     1      -1.935  52.111 -27.636  1.00  0.00     0.135 C 
HETATM    8  C16 UNL     1      -0.475  52.401 -27.237  1.00  0.00     0.053 C 
HETATM    9  C18 UNL     1       0.501  51.334 -27.780  1.00  0.00     0.028 C 
HETATM   10  C19 UNL     1       1.776  51.493 -26.956  1.00  0.00     0.080 C 
HETATM   11  C20 UNL     1       1.277  52.119 -25.676  1.00  0.00     0.137 C 
HETATM   12  O6  UNL     1       2.022  52.389 -24.741  1.00  0.00    -0.297 OA
HETATM   13  C21 UNL     1      -0.231  52.379 -25.690  1.00  0.00     0.037 C 
HETATM   14  C22 UNL     1      -0.567  53.705 -24.994  1.00  0.00     0.025 C 
HETATM   15  C23 UNL     1      -0.914  51.140 -25.003  1.00  0.00     0.007 C 
HETATM   16  C24 UNL     1      -0.759  51.106 -23.462  1.00  0.00     0.007 C 
HETATM   17  C25 UNL     1      -1.417  49.877 -22.809  1.00  0.00     0.010 C 
HETATM   18  C26 UNL     1      -2.906  49.747 -23.187  1.00  0.00    -0.036 C 
HETATM   19  C27 UNL     1      -3.725  50.911 -22.575  1.00  0.00     0.016 C 
ENDROOT
BRANCH   1  20
HETATM   20  C7  UNL     1      -4.076  48.039 -21.422  1.00  0.00     0.016 C 
HETATM   21  C8  UNL     1      -4.928  46.764 -21.385  1.00  0.00     0.013 C 
BRANCH  20  22
HETATM   22  C6  UNL     1      -4.883  49.244 -20.813  1.00  0.00     0.140 C 
HETATM   23  O3  UNL     1      -4.008  50.141 -20.095  1.00  0.00    -0.311 OA
HETATM   24  C5  UNL     1      -3.632  49.874 -18.817  1.00  0.00     0.292 C 
HETATM   25  C3  UNL     1      -4.336  48.757 -18.120  1.00  0.00     0.042 C 
HETATM   26  O2  UNL     1      -2.773  50.546 -18.261  1.00  0.00    -0.260 OA
HETATM   27  C2  UNL     1      -5.529  48.333 -18.594  1.00  0.00    -0.067 C 
HETATM   28  C1  UNL     1      -6.410  47.304 -17.948  1.00  0.00     0.044 C 
HETATM   29  C28 UNL     1      -6.052  48.914 -19.881  1.00  0.00     0.067 C 
BRANCH  25  30
HETATM   30  C4  UNL     1      -3.670  48.269 -16.868  1.00  0.00     0.209 C 
BRANCH  30  31
HETATM   31  O1  UNL     1      -3.616  49.328 -15.918  1.00  0.00    -0.396 OA
HETATM   32  H6  UNL     1      -3.017  50.008 -16.268  1.00  0.00     0.209 HD
ENDBRANCH  30  31
ENDBRANCH  25  30
ENDBRANCH  20  22
ENDBRANCH   1  20
BRANCH   7  33
HETATM   33  O4  UNL     1      -2.770  53.221 -27.290  1.00  0.00    -0.394 OA
HETATM   34  H22 UNL     1      -2.578  53.926 -27.943  1.00  0.00     0.210 HD
ENDBRANCH   7  33
BRANCH   8  35
HETATM   35  C17 UNL     1      -0.058  53.732 -27.887  1.00  0.00     0.244 C 
HETATM   36  O5  UNL     1      -0.622  54.803 -27.676  1.00  0.00    -0.306 OA
ENDBRANCH   8  35
TORSDOF 6
ENDMDL
MODEL 7
REMARK minimizedAffinity -9.2088995
REMARK  6 active torsions:
REMARK  status: ('A' for Active; 'I' for Inactive)
REMARK    1  A    between atoms: C3_3  and  C4_4 
REMARK    2  A    between atoms: C4_4  and  O1_5 
REMARK    3  A    between atoms: C6_9  and  C7_10 
REMARK    4  A    between atoms: C7_10  and  C9_12 
REMARK    5  A    between atoms: C15_18  and  O4_19 
REMARK    6  A    between atoms: C16_20  and  C17_21 
ROOT
HETATM    1  C9  UNL     1      -2.929  50.861 -24.281  1.00  0.00     0.000 C 
HETATM    2  C10 UNL     1      -4.167  51.779 -24.516  1.00  0.00     0.006 C 
HETATM    3  C11 UNL     1      -5.328  51.217 -23.687  1.00  0.00     0.006 C 
HETATM    4  C12 UNL     1      -4.674  50.156 -22.822  1.00  0.00    -0.001 C 
HETATM    5  C13 UNL     1      -5.577  49.116 -22.142  1.00  0.00    -0.002 C 
HETATM    6  C14 UNL     1      -6.660  49.794 -21.290  1.00  0.00     0.038 C 
HETATM    7  C15 UNL     1      -7.534  48.775 -20.562  1.00  0.00     0.135 C 
HETATM    8  C16 UNL     1      -6.737  47.766 -19.713  1.00  0.00     0.053 C 
HETATM    9  C18 UNL     1      -6.084  48.430 -18.480  1.00  0.00     0.028 C 
HETATM   10  C19 UNL     1      -5.003  47.455 -18.019  1.00  0.00     0.080 C 
HETATM   11  C20 UNL     1      -4.679  46.687 -19.278  1.00  0.00     0.137 C 
HETATM   12  O6  UNL     1      -3.826  45.808 -19.312  1.00  0.00    -0.297 OA
HETATM   13  C21 UNL     1      -5.529  47.122 -20.474  1.00  0.00     0.037 C 
HETATM   14  C22 UNL     1      -5.918  45.915 -21.339  1.00  0.00     0.025 C 
HETATM   15  C23 UNL     1      -4.691  48.192 -21.264  1.00  0.00     0.007 C 
HETATM   16  C24 UNL     1      -3.523  47.598 -22.089  1.00  0.00     0.007 C 
HETATM   17  C25 UNL     1      -2.702  48.662 -22.841  1.00  0.00     0.010 C 
HETATM   18  C26 UNL     1      -3.586  49.543 -23.747  1.00  0.00    -0.036 C 
HETATM   19  C27 UNL     1      -4.170  48.707 -24.913  1.00  0.00     0.016 C 
ENDROOT
BRANCH   1  20
HETATM   20  C7  UNL     1      -1.964  50.821 -25.518  1.00  0.00     0.016 C 
HETATM   21  C8  UNL     1      -2.057  49.490 -26.273  1.00  0.00     0.013 C 
BRANCH  20  22
HETATM   22  C6  UNL     1      -0.477  51.092 -25.083  1.00  0.00     0.140 C 
HETATM   23  O3  UNL     1      -0.340  52.405 -24.499  1.00  0.00    -0.311 OA
HETATM   24  C5  UNL     1      -0.209  53.508 -25.284  1.00  0.00     0.292 C 
HETATM   25  C3  UNL     1       0.021  53.281 -26.741  1.00  0.00     0.042 C 
HETATM   26  O2  UNL     1      -0.248  54.632 -24.801  1.00  0.00    -0.260 OA
HETATM   27  C2  UNL     1       0.470  52.077 -27.158  1.00  0.00    -0.067 C 
HETATM   28  C1  UNL     1       0.854  51.726 -28.566  1.00  0.00     0.044 C 
HETATM   29  C28 UNL     1       0.609  50.961 -26.156  1.00  0.00     0.067 C 
BRANCH  25  30
HETATM   30  C4  UNL     1      -0.188  54.485 -27.612  1.00  0.00     0.209 C 
BRANCH  30  31
HETATM   31  O1  UNL     1       0.186  55.656 -26.895  1.00  0.00    -0.396 OA
HETATM   32  H6  UNL     1      -0.444  55.769 -26.164  1.00  0.00     0.209 HD
ENDBRANCH  30  31
ENDBRANCH  25  30
ENDBRANCH  20  22
ENDBRANCH   1  20
BRANCH   7  33
HETATM   33  O4  UNL     1      -8.283  48.086 -21.570  1.00  0.00    -0.394 OA
HETATM   34  H22 UNL     1      -9.034  47.656 -21.111  1.00  0.00     0.210 HD
ENDBRANCH   7  33
BRANCH   8  35
HETATM   35  C17 UNL     1      -7.722  46.719 -19.164  1.00  0.00     0.244 C 
HETATM   36  O5  UNL     1      -8.438  46.901 -18.182  1.00  0.00    -0.306 OA
ENDBRANCH   8  35
TORSDOF 6
ENDMDL
MODEL 8
REMARK minimizedAffinity -9.18753529
REMARK  6 active torsions:
REMARK  status: ('A' for Active; 'I' for Inactive)
REMARK    1  A    between atoms: C3_3  and  C4_4 
REMARK    2  A    between atoms: C4_4  and  O1_5 
REMARK    3  A    between atoms: C6_9  and  C7_10 
REMARK    4  A    between atoms: C7_10  and  C9_12 
REMARK    5  A    between atoms: C15_18  and  O4_19 
REMARK    6  A    between atoms: C16_20  and  C17_21 
ROOT
HETATM    1  C9  UNL     1      -0.113  52.648 -19.038  1.00  0.00     0.000 C 
HETATM    2  C10 UNL     1       1.077  53.267 -19.833  1.00  0.00     0.006 C 
HETATM    3  C11 UNL     1       0.843  52.980 -21.321  1.00  0.00     0.006 C 
HETATM    4  C12 UNL     1      -0.570  52.430 -21.364  1.00  0.00    -0.001 C 
HETATM    5  C13 UNL     1      -1.015  51.671 -22.625  1.00  0.00    -0.002 C 
HETATM    6  C14 UNL     1      -0.821  52.528 -23.885  1.00  0.00     0.038 C 
HETATM    7  C15 UNL     1      -1.308  51.811 -25.142  1.00  0.00     0.135 C 
HETATM    8  C16 UNL     1      -2.765  51.317 -25.050  1.00  0.00     0.053 C 
HETATM    9  C18 UNL     1      -3.778  52.483 -25.043  1.00  0.00     0.028 C 
HETATM   10  C19 UNL     1      -5.077  51.889 -24.505  1.00  0.00     0.080 C 
HETATM   11  C20 UNL     1      -4.601  50.712 -23.688  1.00  0.00     0.137 C 
HETATM   12  O6  UNL     1      -5.370  49.982 -23.074  1.00  0.00    -0.297 OA
HETATM   13  C21 UNL     1      -3.081  50.540 -23.726  1.00  0.00     0.037 C 
HETATM   14  C22 UNL     1      -2.697  49.055 -23.777  1.00  0.00     0.025 C 
HETATM   15  C23 UNL     1      -2.506  51.274 -22.460  1.00  0.00     0.007 C 
HETATM   16  C24 UNL     1      -2.733  50.513 -21.130  1.00  0.00     0.007 C 
HETATM   17  C25 UNL     1      -2.181  51.256 -19.900  1.00  0.00     0.010 C 
HETATM   18  C26 UNL     1      -0.687  51.603 -20.054  1.00  0.00    -0.036 C 
HETATM   19  C27 UNL     1       0.171  50.314 -20.061  1.00  0.00     0.016 C 
ENDROOT
BRANCH   1  20
HETATM   20  C7  UNL     1       0.295  52.205 -17.589  1.00  0.00     0.016 C 
HETATM   21  C8  UNL     1       1.807  52.322 -17.361  1.00  0.00     0.013 C 
BRANCH  20  22
HETATM   22  C6  UNL     1      -0.183  50.737 -17.291  1.00  0.00     0.140 C 
HETATM   23  O3  UNL     1      -1.539  50.726 -16.795  1.00  0.00    -0.311 OA
HETATM   24  C5  UNL     1      -1.805  50.974 -15.485  1.00  0.00     0.292 C 
HETATM   25  C3  UNL     1      -0.640  51.025 -14.553  1.00  0.00     0.042 C 
HETATM   26  O2  UNL     1      -2.956  51.118 -15.093  1.00  0.00    -0.260 OA
HETATM   27  C2  UNL     1       0.528  50.458 -14.927  1.00  0.00    -0.067 C 
HETATM   28  C1  UNL     1       1.752  50.328 -14.067  1.00  0.00     0.044 C 
HETATM   29  C28 UNL     1       0.658  49.902 -16.320  1.00  0.00     0.067 C 
BRANCH  25  30
HETATM   30  C4  UNL     1      -0.924  51.637 -13.213  1.00  0.00     0.209 C 
BRANCH  30  31
HETATM   31  O1  UNL     1      -0.422  52.969 -13.187  1.00  0.00    -0.396 OA
HETATM   32  H6  UNL     1       0.547  52.921 -13.235  1.00  0.00     0.209 HD
ENDBRANCH  30  31
ENDBRANCH  25  30
ENDBRANCH  20  22
ENDBRANCH   1  20
BRANCH   7  33
HETATM   33  O4  UNL     1      -0.425  50.705 -25.349  1.00  0.00    -0.394 OA
HETATM   34  H22 UNL     1      -0.544  50.426 -26.282  1.00  0.00     0.210 HD
ENDBRANCH   7  33
BRANCH   8  35
HETATM   35  C17 UNL     1      -3.071  50.491 -26.312  1.00  0.00     0.244 C 
HETATM   36  O5  UNL     1      -3.182  50.976 -27.436  1.00  0.00    -0.306 OA
ENDBRANCH   8  35
TORSDOF 6
ENDMDL
MODEL 9
REMARK minimizedAffinity -9.06631851
REMARK  6 active torsions:
REMARK  status: ('A' for Active; 'I' for Inactive)
REMARK    1  A    between atoms: C3_3  and  C4_4 
REMARK    2  A    between atoms: C4_4  and  O1_5 
REMARK    3  A    between atoms: C6_9  and  C7_10 
REMARK    4  A    between atoms: C7_10  and  C9_12 
REMARK    5  A    between atoms: C15_18  and  O4_19 
REMARK    6  A    between atoms: C16_20  and  C17_21 
ROOT
HETATM    1  C9  UNL     1      -2.935  51.113 -24.753  1.00  0.00     0.000 C 
HETATM    2  C10 UNL     1      -4.110  52.137 -24.716  1.00  0.00     0.006 C 
HETATM    3  C11 UNL     1      -5.092  51.680 -23.630  1.00  0.00     0.006 C 
HETATM    4  C12 UNL     1      -4.348  50.565 -22.917  1.00  0.00    -0.001 C 
HETATM    5  C13 UNL     1      -5.156  49.608 -22.026  1.00  0.00    -0.002 C 
HETATM    6  C14 UNL     1      -5.951  50.379 -20.962  1.00  0.00     0.038 C 
HETATM    7  C15 UNL     1      -6.717  49.441 -20.032  1.00  0.00     0.135 C 
HETATM    8  C16 UNL     1      -5.833  48.367 -19.368  1.00  0.00     0.053 C 
HETATM    9  C18 UNL     1      -4.859  48.970 -18.333  1.00  0.00     0.028 C 
HETATM   10  C19 UNL     1      -3.789  47.904 -18.113  1.00  0.00     0.080 C 
HETATM   11  C20 UNL     1      -3.831  47.110 -19.397  1.00  0.00     0.137 C 
HETATM   12  O6  UNL     1      -3.088  46.160 -19.608  1.00  0.00    -0.297 OA
HETATM   13  C21 UNL     1      -4.894  47.618 -20.374  1.00  0.00     0.037 C 
HETATM   14  C22 UNL     1      -5.575  46.450 -21.101  1.00  0.00     0.025 C 
HETATM   15  C23 UNL     1      -4.174  48.611 -21.358  1.00  0.00     0.007 C 
HETATM   16  C24 UNL     1      -3.283  47.915 -22.417  1.00  0.00     0.007 C 
HETATM   17  C25 UNL     1      -2.570  48.903 -23.359  1.00  0.00     0.010 C 
HETATM   18  C26 UNL     1      -3.561  49.858 -24.055  1.00  0.00    -0.036 C 
HETATM   19  C27 UNL     1      -4.468  49.077 -25.038  1.00  0.00     0.016 C 
ENDROOT
BRANCH   1  20
HETATM   20  C7  UNL     1      -2.289  50.989 -26.178  1.00  0.00     0.016 C 
HETATM   21  C8  UNL     1      -1.140  49.973 -26.198  1.00  0.00     0.013 C 
BRANCH  20  22
HETATM   22  C6  UNL     1      -1.781  52.386 -26.692  1.00  0.00     0.140 C 
HETATM   23  O3  UNL     1      -0.945  52.235 -27.860  1.00  0.00    -0.311 OA
HETATM   24  C5  UNL     1       0.369  51.910 -27.740  1.00  0.00     0.292 C 
HETATM   25  C3  UNL     1       0.956  51.949 -26.368  1.00  0.00     0.042 C 
HETATM   26  O2  UNL     1       1.041  51.631 -28.725  1.00  0.00    -0.260 OA
HETATM   27  C2  UNL     1       0.324  52.650 -25.400  1.00  0.00    -0.067 C 
HETATM   28  C1  UNL     1       0.838  52.878 -24.008  1.00  0.00     0.044 C 
HETATM   29  C28 UNL     1      -1.015  53.269 -25.702  1.00  0.00     0.067 C 
BRANCH  25  30
HETATM   30  C4  UNL     1       2.281  51.260 -26.224  1.00  0.00     0.209 C 
BRANCH  30  31
HETATM   31  O1  UNL     1       3.242  51.907 -27.052  1.00  0.00    -0.396 OA
HETATM   32  H6  UNL     1       2.984  51.756 -27.977  1.00  0.00     0.209 HD
ENDBRANCH  30  31
ENDBRANCH  25  30
ENDBRANCH  20  22
ENDBRANCH   1  20
BRANCH   7  33
HETATM   33  O4  UNL     1      -7.734  48.821 -20.825  1.00  0.00    -0.394 OA
HETATM   34  H22 UNL     1      -8.393  48.459 -20.197  1.00  0.00     0.210 HD
ENDBRANCH   7  33
BRANCH   8  35
HETATM   35  C17 UNL     1      -6.751  47.410 -18.586  1.00  0.00     0.244 C 
HETATM   36  O5  UNL     1      -7.259  47.684 -17.501  1.00  0.00    -0.306 OA
ENDBRANCH   8  35
TORSDOF 6
ENDMDL
