MODEL 1
REMARK minimizedAffinity -8.15394115
REMARK CNNscore 0.582651496
REMARK CNNaffinity 7.19401169
REMARK  20 active torsions:
REMARK  status: ('A' for Active; 'I' for Inactive)
REMARK    1  A    between atoms: C2_2  and  C3_3 
REMARK    2  A    between atoms: C2_2  and  C27_34 
REMARK    3  A    between atoms: C4_4  and  C5_5 
REMARK    4  A    between atoms: C6_6  and  C7_7 
REMARK    5  A    between atoms: C6_6  and  C10_12 
REMARK    6  A    between atoms: C7_7  and  O1_8 
REMARK    7  A    between atoms: O1_8  and  C8_9 
REMARK    8  A    between atoms: C8_9  and  C9_10 
REMARK    9  A    between atoms: C9_10  and  O2_11 
REMARK   10  A    between atoms: C14_16  and  O3_17 
REMARK   11  A    between atoms: C15_18  and  C16_19 
REMARK   12  A    between atoms: C16_19  and  C17_20 
REMARK   13  A    between atoms: C17_20  and  C18_21 
REMARK   14  A    between atoms: C18_21  and  O4_22 
REMARK   15  A    between atoms: C20_24  and  C22_26 
REMARK   16  A    between atoms: C25_30  and  O6_31 
REMARK   17  A    between atoms: C25_30  and  C26_32 
REMARK   18  A    between atoms: C26_32  and  O7_33 
REMARK   19  A    between atoms: C27_34  and  C28_35 
REMARK   20  A    between atoms: C28_35  and  C29_36 
ROOT
HETATM    1  C10 UNL     1      -3.350  48.998 -25.107  1.00  0.00     0.046 C 
HETATM    2  C11 UNL     1      -4.455  47.993 -24.766  1.00  0.00     0.013 C 
HETATM    3  C12 UNL     1      -4.569  48.096 -23.254  1.00  0.00     0.017 C 
HETATM    4  C13 UNL     1      -4.458  49.616 -22.919  1.00  0.00     0.027 C 
HETATM    5  C14 UNL     1      -3.738  50.199 -24.197  1.00  0.00     0.138 C 
HETATM    6  C15 UNL     1      -3.492  49.785 -21.660  1.00  0.00     0.029 C 
HETATM    7  C19 UNL     1      -4.135  49.155 -20.420  1.00  0.00    -0.066 C 
HETATM    8  C20 UNL     1      -3.594  48.165 -19.668  1.00  0.00    -0.021 C 
HETATM    9  C21 UNL     1      -4.226  47.586 -18.437  1.00  0.00     0.052 C 
HETATM   10  C23 UNL     1      -5.461  49.798 -20.078  1.00  0.00     0.038 C 
HETATM   11  C24 UNL     1      -6.439  49.693 -21.240  1.00  0.00     0.045 C 
HETATM   12  C25 UNL     1      -5.902  50.205 -22.605  1.00  0.00     0.090 C 
ENDROOT
BRANCH   5  13
HETATM   13  O3  UNL     1      -4.567  51.132 -24.872  1.00  0.00    -0.394 OA
HETATM   14  H19 UNL     1      -4.768  51.829 -24.208  1.00  0.00     0.210 HD
ENDBRANCH   5  13
BRANCH   6  15
HETATM   15  C16 UNL     1      -3.020  51.238 -21.336  1.00  0.00     0.012 C 
BRANCH  15  16
HETATM   16  C17 UNL     1      -3.425  51.685 -19.919  1.00  0.00     0.027 C 
BRANCH  16  17
HETATM   17  C18 UNL     1      -2.261  51.641 -18.937  1.00  0.00     0.164 C 
BRANCH  17  18
HETATM   18  O4  UNL     1      -2.743  51.363 -17.632  1.00  0.00    -0.401 OA
HETATM   19  H27 UNL     1      -1.968  51.341 -17.043  1.00  0.00     0.209 HD
ENDBRANCH  17  18
ENDBRANCH  16  17
ENDBRANCH  15  16
ENDBRANCH   6  15
BRANCH  12  20
HETATM   20  O6  UNL     1      -5.785  51.641 -22.528  1.00  0.00    -0.387 OA
HETATM   21  H36 UNL     1      -6.679  52.011 -22.668  1.00  0.00     0.210 HD
ENDBRANCH  12  20
BRANCH  12  22
HETATM   22  C26 UNL     1      -7.044  49.882 -23.633  1.00  0.00     0.202 C 
BRANCH  22  23
HETATM   23  O7  UNL     1      -8.026  48.975 -23.157  1.00  0.00    -0.398 OA
HETATM   24  H39 UNL     1      -8.316  49.289 -22.271  1.00  0.00     0.209 HD
ENDBRANCH  22  23
ENDBRANCH  12  22
BRANCH   1  25
HETATM   25  C6  UNL     1      -3.058  49.175 -26.604  1.00  0.00    -0.050 C 
HETATM   26  C5  UNL     1      -2.160  49.991 -27.203  1.00  0.00     0.005 C 
BRANCH  26  27
HETATM   27  C4  UNL     1      -1.253  50.971 -26.650  1.00  0.00     0.001 C 
HETATM   28  C3  UNL     1       0.025  50.674 -26.358  1.00  0.00     0.006 C 
BRANCH  28  29
HETATM   29  C2  UNL     1       1.052  51.589 -25.873  1.00  0.00    -0.067 C 
HETATM   30  C1  UNL     1       2.321  51.435 -26.289  1.00  0.00     0.019 C 
BRANCH  29  31
HETATM   31  C27 UNL     1       0.689  52.756 -24.978  1.00  0.00     0.041 C 
BRANCH  31  32
HETATM   32  C28 UNL     1      -0.122  52.337 -23.747  1.00  0.00     0.032 C 
BRANCH  32  33
HETATM   33  C29 UNL     1       0.403  53.017 -22.508  1.00  0.00    -0.024 C 
HETATM   34  C30 UNL     1       0.675  52.463 -21.311  1.00  0.00    -0.091 C 
HETATM   35  C31 UNL     1       1.202  53.305 -20.181  1.00  0.00     0.042 C 
HETATM   36  C32 UNL     1       0.526  51.003 -20.975  1.00  0.00     0.042 C 
ENDBRANCH  32  33
ENDBRANCH  31  32
ENDBRANCH  29  31
ENDBRANCH  28  29
ENDBRANCH  26  27
BRANCH  25  37
HETATM   37  C7  UNL     1      -3.801  48.218 -27.536  1.00  0.00     0.202 C 
BRANCH  37  38
HETATM   38  O1  UNL     1      -4.757  48.905 -28.343  1.00  0.00    -0.385 OA
BRANCH  38  39
HETATM   39  C8  UNL     1      -5.534  48.052 -29.191  1.00  0.00     0.194 C 
BRANCH  39  40
HETATM   40  C9  UNL     1      -5.377  48.435 -30.662  1.00  0.00     0.190 C 
BRANCH  40  41
HETATM   41  O2  UNL     1      -4.698  49.685 -30.799  1.00  0.00    -0.399 OA
HETATM   42  H12 UNL     1      -4.615  49.853 -31.752  1.00  0.00     0.209 HD
ENDBRANCH  40  41
ENDBRANCH  39  40
ENDBRANCH  38  39
ENDBRANCH  37  38
ENDBRANCH  25  37
ENDBRANCH   1  25
BRANCH   8  43
HETATM   43  C22 UNL     1      -2.256  47.577 -19.971  1.00  0.00     0.265 C 
HETATM   44  O5  UNL     1      -1.194  48.088 -19.645  1.00  0.00    -0.302 OA
ENDBRANCH   8  43
TORSDOF 20
ENDMDL
MODEL 2
REMARK minimizedAffinity -8.01818466
REMARK CNNscore 0.51014936
REMARK CNNaffinity 6.51597834
REMARK  20 active torsions:
REMARK  status: ('A' for Active; 'I' for Inactive)
REMARK    1  A    between atoms: C2_2  and  C3_3 
REMARK    2  A    between atoms: C2_2  and  C27_34 
REMARK    3  A    between atoms: C4_4  and  C5_5 
REMARK    4  A    between atoms: C6_6  and  C7_7 
REMARK    5  A    between atoms: C6_6  and  C10_12 
REMARK    6  A    between atoms: C7_7  and  O1_8 
REMARK    7  A    between atoms: O1_8  and  C8_9 
REMARK    8  A    between atoms: C8_9  and  C9_10 
REMARK    9  A    between atoms: C9_10  and  O2_11 
REMARK   10  A    between atoms: C14_16  and  O3_17 
REMARK   11  A    between atoms: C15_18  and  C16_19 
REMARK   12  A    between atoms: C16_19  and  C17_20 
REMARK   13  A    between atoms: C17_20  and  C18_21 
REMARK   14  A    between atoms: C18_21  and  O4_22 
REMARK   15  A    between atoms: C20_24  and  C22_26 
REMARK   16  A    between atoms: C25_30  and  O6_31 
REMARK   17  A    between atoms: C25_30  and  C26_32 
REMARK   18  A    between atoms: C26_32  and  O7_33 
REMARK   19  A    between atoms: C27_34  and  C28_35 
REMARK   20  A    between atoms: C28_35  and  C29_36 
ROOT
HETATM    1  C10 UNL     1      -6.389  47.165 -28.553  1.00  0.00     0.046 C 
HETATM    2  C11 UNL     1      -6.967  46.076 -29.463  1.00  0.00     0.013 C 
HETATM    3  C12 UNL     1      -8.040  45.431 -28.601  1.00  0.00     0.017 C 
HETATM    4  C13 UNL     1      -8.756  46.603 -27.860  1.00  0.00     0.027 C 
HETATM    5  C14 UNL     1      -7.684  47.760 -27.929  1.00  0.00     0.138 C 
HETATM    6  C15 UNL     1      -8.965  46.183 -26.335  1.00  0.00     0.029 C 
HETATM    7  C19 UNL     1      -9.943  45.006 -26.248  1.00  0.00    -0.066 C 
HETATM    8  C20 UNL     1      -9.677  43.799 -25.692  1.00  0.00    -0.021 C 
HETATM    9  C21 UNL     1     -10.662  42.672 -25.586  1.00  0.00     0.052 C 
HETATM   10  C23 UNL     1     -11.299  45.349 -26.827  1.00  0.00     0.038 C 
HETATM   11  C24 UNL     1     -11.183  45.779 -28.282  1.00  0.00     0.045 C 
HETATM   12  C25 UNL     1     -10.153  46.908 -28.559  1.00  0.00     0.090 C 
ENDROOT
BRANCH   5  13
HETATM   13  O3  UNL     1      -8.172  48.869 -28.669  1.00  0.00    -0.394 OA
HETATM   14  H19 UNL     1      -8.993  49.149 -28.206  1.00  0.00     0.210 HD
ENDBRANCH   5  13
BRANCH   6  15
HETATM   15  C16 UNL     1      -9.406  47.316 -25.356  1.00  0.00     0.012 C 
BRANCH  15  16
HETATM   16  C17 UNL     1      -8.406  47.516 -24.201  1.00  0.00     0.027 C 
BRANCH  16  17
HETATM   17  C18 UNL     1      -7.643  48.830 -24.311  1.00  0.00     0.164 C 
BRANCH  17  18
HETATM   18  O4  UNL     1      -8.467  49.817 -24.911  1.00  0.00    -0.401 OA
HETATM   19  H27 UNL     1      -7.941  50.635 -24.956  1.00  0.00     0.209 HD
ENDBRANCH  17  18
ENDBRANCH  16  17
ENDBRANCH  15  16
ENDBRANCH   6  15
BRANCH  12  20
HETATM   20  O6  UNL     1     -10.669  48.132 -27.995  1.00  0.00    -0.387 OA
HETATM   21  H36 UNL     1     -11.325  48.486 -28.629  1.00  0.00     0.210 HD
ENDBRANCH  12  20
BRANCH  12  22
HETATM   22  C26 UNL     1     -10.149  47.075 -30.120  1.00  0.00     0.202 C 
BRANCH  22  23
HETATM   23  O7  UNL     1     -10.782  46.020 -30.828  1.00  0.00    -0.398 OA
HETATM   24  H39 UNL     1     -11.659  45.866 -30.409  1.00  0.00     0.209 HD
ENDBRANCH  22  23
ENDBRANCH  12  22
BRANCH   1  25
HETATM   25  C6  UNL     1      -5.313  48.055 -29.190  1.00  0.00    -0.050 C 
HETATM   26  C5  UNL     1      -4.170  48.530 -28.644  1.00  0.00     0.005 C 
BRANCH  26  27
HETATM   27  C4  UNL     1      -3.635  48.404 -27.307  1.00  0.00     0.001 C 
HETATM   28  C3  UNL     1      -3.504  49.463 -26.489  1.00  0.00     0.006 C 
BRANCH  28  29
HETATM   29  C2  UNL     1      -3.056  49.452 -25.101  1.00  0.00    -0.067 C 
HETATM   30  C1  UNL     1      -3.604  48.578 -24.239  1.00  0.00     0.019 C 
BRANCH  29  31
HETATM   31  C27 UNL     1      -1.925  50.351 -24.645  1.00  0.00     0.041 C 
BRANCH  31  32
HETATM   32  C28 UNL     1      -1.332  51.191 -25.782  1.00  0.00     0.032 C 
BRANCH  32  33
HETATM   33  C29 UNL     1       0.174  51.167 -25.730  1.00  0.00    -0.024 C 
HETATM   34  C30 UNL     1       1.041  51.396 -26.736  1.00  0.00    -0.091 C 
HETATM   35  C31 UNL     1       2.525  51.332 -26.494  1.00  0.00     0.042 C 
HETATM   36  C32 UNL     1       0.661  51.755 -28.147  1.00  0.00     0.042 C 
ENDBRANCH  32  33
ENDBRANCH  31  32
ENDBRANCH  29  31
ENDBRANCH  28  29
ENDBRANCH  26  27
BRANCH  25  37
HETATM   37  C7  UNL     1      -5.502  48.351 -30.678  1.00  0.00     0.202 C 
BRANCH  37  38
HETATM   38  O1  UNL     1      -4.428  47.828 -31.461  1.00  0.00    -0.385 OA
BRANCH  38  39
HETATM   39  C8  UNL     1      -4.834  47.244 -32.703  1.00  0.00     0.194 C 
BRANCH  39  40
HETATM   40  C9  UNL     1      -4.536  48.173 -33.880  1.00  0.00     0.190 C 
BRANCH  40  41
HETATM   41  O2  UNL     1      -3.139  48.455 -33.971  1.00  0.00    -0.399 OA
HETATM   42  H12 UNL     1      -3.021  49.028 -34.747  1.00  0.00     0.209 HD
ENDBRANCH  40  41
ENDBRANCH  39  40
ENDBRANCH  38  39
ENDBRANCH  37  38
ENDBRANCH  25  37
ENDBRANCH   1  25
BRANCH   8  43
HETATM   43  C22 UNL     1      -8.360  43.486 -25.064  1.00  0.00     0.265 C 
HETATM   44  O5  UNL     1      -7.470  42.854 -25.616  1.00  0.00    -0.302 OA
ENDBRANCH   8  43
TORSDOF 20
ENDMDL
MODEL 3
REMARK minimizedAffinity -8.11320686
REMARK CNNscore 0.459119141
REMARK CNNaffinity 6.55713463
REMARK  20 active torsions:
REMARK  status: ('A' for Active; 'I' for Inactive)
REMARK    1  A    between atoms: C2_2  and  C3_3 
REMARK    2  A    between atoms: C2_2  and  C27_34 
REMARK    3  A    between atoms: C4_4  and  C5_5 
REMARK    4  A    between atoms: C6_6  and  C7_7 
REMARK    5  A    between atoms: C6_6  and  C10_12 
REMARK    6  A    between atoms: C7_7  and  O1_8 
REMARK    7  A    between atoms: O1_8  and  C8_9 
REMARK    8  A    between atoms: C8_9  and  C9_10 
REMARK    9  A    between atoms: C9_10  and  O2_11 
REMARK   10  A    between atoms: C14_16  and  O3_17 
REMARK   11  A    between atoms: C15_18  and  C16_19 
REMARK   12  A    between atoms: C16_19  and  C17_20 
REMARK   13  A    between atoms: C17_20  and  C18_21 
REMARK   14  A    between atoms: C18_21  and  O4_22 
REMARK   15  A    between atoms: C20_24  and  C22_26 
REMARK   16  A    between atoms: C25_30  and  O6_31 
REMARK   17  A    between atoms: C25_30  and  C26_32 
REMARK   18  A    between atoms: C26_32  and  O7_33 
REMARK   19  A    between atoms: C27_34  and  C28_35 
REMARK   20  A    between atoms: C28_35  and  C29_36 
ROOT
HETATM    1  C10 UNL     1      -6.432  46.884 -28.484  1.00  0.00     0.046 C 
HETATM    2  C11 UNL     1      -7.292  45.862 -29.235  1.00  0.00     0.013 C 
HETATM    3  C12 UNL     1      -8.252  45.359 -28.170  1.00  0.00     0.017 C 
HETATM    4  C13 UNL     1      -8.677  46.616 -27.349  1.00  0.00     0.027 C 
HETATM    5  C14 UNL     1      -7.511  47.636 -27.652  1.00  0.00     0.138 C 
HETATM    6  C15 UNL     1      -8.645  46.241 -25.799  1.00  0.00     0.029 C 
HETATM    7  C19 UNL     1      -9.719  45.190 -25.494  1.00  0.00    -0.066 C 
HETATM    8  C20 UNL     1      -9.494  43.966 -24.957  1.00  0.00    -0.021 C 
HETATM    9  C21 UNL     1     -10.565  42.965 -24.634  1.00  0.00     0.052 C 
HETATM   10  C23 UNL     1     -11.110  45.686 -25.824  1.00  0.00     0.038 C 
HETATM   11  C24 UNL     1     -11.219  46.083 -27.289  1.00  0.00     0.045 C 
HETATM   12  C25 UNL     1     -10.135  47.078 -27.788  1.00  0.00     0.090 C 
ENDROOT
BRANCH   5  13
HETATM   13  O3  UNL     1      -7.997  48.787 -28.326  1.00  0.00    -0.394 OA
HETATM   14  H19 UNL     1      -8.679  49.168 -27.729  1.00  0.00     0.210 HD
ENDBRANCH   5  13
BRANCH   6  15
HETATM   15  C16 UNL     1      -8.761  47.429 -24.793  1.00  0.00     0.012 C 
BRANCH  15  16
HETATM   16  C17 UNL     1      -7.435  47.712 -24.061  1.00  0.00     0.027 C 
BRANCH  16  17
HETATM   17  C18 UNL     1      -7.350  49.140 -23.538  1.00  0.00     0.164 C 
BRANCH  17  18
HETATM   18  O4  UNL     1      -6.671  49.957 -24.478  1.00  0.00    -0.401 OA
HETATM   19  H27 UNL     1      -6.644  50.856 -24.104  1.00  0.00     0.209 HD
ENDBRANCH  17  18
ENDBRANCH  16  17
ENDBRANCH  15  16
ENDBRANCH   6  15
BRANCH  12  20
HETATM   20  O6  UNL     1     -10.393  48.361 -27.180  1.00  0.00    -0.387 OA
HETATM   21  H36 UNL     1     -11.110  48.784 -27.693  1.00  0.00     0.210 HD
ENDBRANCH  12  20
BRANCH  12  22
HETATM   22  C26 UNL     1     -10.404  47.226 -29.328  1.00  0.00     0.202 C 
BRANCH  22  23
HETATM   23  O7  UNL     1     -10.499  48.567 -29.783  1.00  0.00    -0.398 OA
HETATM   24  H39 UNL     1      -9.723  49.057 -29.429  1.00  0.00     0.209 HD
ENDBRANCH  22  23
ENDBRANCH  12  22
BRANCH   1  25
HETATM   25  C6  UNL     1      -5.399  47.632 -29.338  1.00  0.00    -0.050 C 
HETATM   26  C5  UNL     1      -4.470  48.536 -28.949  1.00  0.00     0.005 C 
BRANCH  26  27
HETATM   27  C4  UNL     1      -4.196  49.115 -27.653  1.00  0.00     0.001 C 
HETATM   28  C3  UNL     1      -3.358  48.535 -26.776  1.00  0.00     0.006 C 
BRANCH  28  29
HETATM   29  C2  UNL     1      -2.942  49.057 -25.479  1.00  0.00    -0.067 C 
HETATM   30  C1  UNL     1      -3.358  48.442 -24.358  1.00  0.00     0.019 C 
BRANCH  29  31
HETATM   31  C27 UNL     1      -1.984  50.226 -25.386  1.00  0.00     0.041 C 
BRANCH  31  32
HETATM   32  C28 UNL     1      -1.429  50.656 -26.748  1.00  0.00     0.032 C 
BRANCH  32  33
HETATM   33  C29 UNL     1       0.078  50.634 -26.738  1.00  0.00    -0.024 C 
HETATM   34  C30 UNL     1       0.918  51.611 -26.343  1.00  0.00    -0.091 C 
HETATM   35  C31 UNL     1       2.408  51.408 -26.400  1.00  0.00     0.042 C 
HETATM   36  C32 UNL     1       0.499  52.949 -25.795  1.00  0.00     0.042 C 
ENDBRANCH  32  33
ENDBRANCH  31  32
ENDBRANCH  29  31
ENDBRANCH  28  29
ENDBRANCH  26  27
BRANCH  25  37
HETATM   37  C7  UNL     1      -5.334  47.214 -30.807  1.00  0.00     0.202 C 
BRANCH  37  38
HETATM   38  O1  UNL     1      -4.429  48.032 -31.549  1.00  0.00    -0.385 OA
BRANCH  38  39
HETATM   39  C8  UNL     1      -4.737  48.138 -32.942  1.00  0.00     0.194 C 
BRANCH  39  40
HETATM   40  C9  UNL     1      -3.619  47.556 -33.807  1.00  0.00     0.190 C 
BRANCH  40  41
HETATM   41  O2  UNL     1      -2.466  48.398 -33.792  1.00  0.00    -0.399 OA
HETATM   42  H12 UNL     1      -1.794  47.959 -34.339  1.00  0.00     0.209 HD
ENDBRANCH  40  41
ENDBRANCH  39  40
ENDBRANCH  38  39
ENDBRANCH  37  38
ENDBRANCH  25  37
ENDBRANCH   1  25
BRANCH   8  43
HETATM   43  C22 UNL     1      -8.128  43.505 -24.572  1.00  0.00     0.265 C 
HETATM   44  O5  UNL     1      -7.505  42.636 -25.166  1.00  0.00    -0.302 OA
ENDBRANCH   8  43
TORSDOF 20
ENDMDL
MODEL 4
REMARK minimizedAffinity -7.10651302
REMARK CNNscore 0.428035349
REMARK CNNaffinity 6.79447985
REMARK  20 active torsions:
REMARK  status: ('A' for Active; 'I' for Inactive)
REMARK    1  A    between atoms: C2_2  and  C3_3 
REMARK    2  A    between atoms: C2_2  and  C27_34 
REMARK    3  A    between atoms: C4_4  and  C5_5 
REMARK    4  A    between atoms: C6_6  and  C7_7 
REMARK    5  A    between atoms: C6_6  and  C10_12 
REMARK    6  A    between atoms: C7_7  and  O1_8 
REMARK    7  A    between atoms: O1_8  and  C8_9 
REMARK    8  A    between atoms: C8_9  and  C9_10 
REMARK    9  A    between atoms: C9_10  and  O2_11 
REMARK   10  A    between atoms: C14_16  and  O3_17 
REMARK   11  A    between atoms: C15_18  and  C16_19 
REMARK   12  A    between atoms: C16_19  and  C17_20 
REMARK   13  A    between atoms: C17_20  and  C18_21 
REMARK   14  A    between atoms: C18_21  and  O4_22 
REMARK   15  A    between atoms: C20_24  and  C22_26 
REMARK   16  A    between atoms: C25_30  and  O6_31 
REMARK   17  A    between atoms: C25_30  and  C26_32 
REMARK   18  A    between atoms: C26_32  and  O7_33 
REMARK   19  A    between atoms: C27_34  and  C28_35 
REMARK   20  A    between atoms: C28_35  and  C29_36 
ROOT
HETATM    1  C10 UNL     1      -3.254  47.569 -21.342  1.00  0.00     0.046 C 
HETATM    2  C11 UNL     1      -2.039  48.487 -21.510  1.00  0.00     0.013 C 
HETATM    3  C12 UNL     1      -2.355  49.260 -22.779  1.00  0.00     0.017 C 
HETATM    4  C13 UNL     1      -3.873  49.612 -22.700  1.00  0.00     0.027 C 
HETATM    5  C14 UNL     1      -4.420  48.544 -21.674  1.00  0.00     0.138 C 
HETATM    6  C15 UNL     1      -4.530  49.339 -24.128  1.00  0.00     0.029 C 
HETATM    7  C19 UNL     1      -3.954  50.313 -25.161  1.00  0.00    -0.066 C 
HETATM    8  C20 UNL     1      -3.309  49.964 -26.301  1.00  0.00    -0.021 C 
HETATM    9  C21 UNL     1      -2.783  50.935 -27.317  1.00  0.00     0.052 C 
HETATM   10  C23 UNL     1      -4.222  51.756 -24.794  1.00  0.00     0.038 C 
HETATM   11  C24 UNL     1      -3.640  52.094 -23.429  1.00  0.00     0.045 C 
HETATM   12  C25 UNL     1      -4.052  51.135 -22.278  1.00  0.00     0.090 C 
ENDROOT
BRANCH   5  13
HETATM   13  O3  UNL     1      -4.939  49.169 -20.510  1.00  0.00    -0.394 OA
HETATM   14  H19 UNL     1      -5.646  49.772 -20.832  1.00  0.00     0.210 HD
ENDBRANCH   5  13
BRANCH   6  15
HETATM   15  C16 UNL     1      -6.089  49.355 -24.191  1.00  0.00     0.012 C 
BRANCH  15  16
HETATM   16  C17 UNL     1      -6.667  48.062 -24.797  1.00  0.00     0.027 C 
BRANCH  16  17
HETATM   17  C18 UNL     1      -7.204  47.109 -23.738  1.00  0.00     0.164 C 
BRANCH  17  18
HETATM   18  O4  UNL     1      -8.127  47.789 -22.901  1.00  0.00    -0.401 OA
HETATM   19  H27 UNL     1      -8.444  47.143 -22.246  1.00  0.00     0.209 HD
ENDBRANCH  17  18
ENDBRANCH  16  17
ENDBRANCH  15  16
ENDBRANCH   6  15
BRANCH  12  20
HETATM   20  O6  UNL     1      -5.450  51.353 -21.995  1.00  0.00    -0.387 OA
HETATM   21  H36 UNL     1      -5.509  52.154 -21.435  1.00  0.00     0.210 HD
ENDBRANCH  12  20
BRANCH  12  22
HETATM   22  C26 UNL     1      -3.237  51.632 -21.030  1.00  0.00     0.202 C 
BRANCH  22  23
HETATM   23  O7  UNL     1      -3.939  51.555 -19.799  1.00  0.00    -0.398 OA
HETATM   24  H39 UNL     1      -4.327  50.654 -19.734  1.00  0.00     0.209 HD
ENDBRANCH  22  23
ENDBRANCH  12  22
BRANCH   1  25
HETATM   25  C6  UNL     1      -3.257  46.702 -20.075  1.00  0.00    -0.050 C 
HETATM   26  C5  UNL     1      -3.019  47.067 -18.795  1.00  0.00     0.005 C 
BRANCH  26  27
HETATM   27  C4  UNL     1      -2.642  48.342 -18.228  1.00  0.00     0.001 C 
HETATM   28  C3  UNL     1      -1.413  48.565 -17.731  1.00  0.00     0.006 C 
BRANCH  28  29
HETATM   29  C2  UNL     1      -0.891  49.823 -17.208  1.00  0.00    -0.067 C 
HETATM   30  C1  UNL     1      -1.271  50.236 -15.985  1.00  0.00     0.019 C 
BRANCH  29  31
HETATM   31  C27 UNL     1       0.134  50.620 -17.987  1.00  0.00     0.041 C 
BRANCH  31  32
HETATM   32  C28 UNL     1      -0.396  51.125 -19.333  1.00  0.00     0.032 C 
BRANCH  32  33
HETATM   33  C29 UNL     1       0.331  52.375 -19.756  1.00  0.00    -0.024 C 
HETATM   34  C30 UNL     1       0.633  52.775 -21.006  1.00  0.00    -0.091 C 
HETATM   35  C31 UNL     1       1.368  54.068 -21.238  1.00  0.00     0.042 C 
HETATM   36  C32 UNL     1       0.269  52.039 -22.267  1.00  0.00     0.042 C 
ENDBRANCH  32  33
ENDBRANCH  31  32
ENDBRANCH  29  31
ENDBRANCH  28  29
ENDBRANCH  26  27
BRANCH  25  37
HETATM   37  C7  UNL     1      -3.700  45.252 -20.274  1.00  0.00     0.202 C 
BRANCH  37  38
HETATM   38  O1  UNL     1      -3.893  44.584 -19.027  1.00  0.00    -0.385 OA
BRANCH  38  39
HETATM   39  C8  UNL     1      -4.247  43.202 -19.146  1.00  0.00     0.194 C 
BRANCH  39  40
HETATM   40  C9  UNL     1      -3.218  42.301 -18.465  1.00  0.00     0.190 C 
BRANCH  40  41
HETATM   41  O2  UNL     1      -2.853  41.208 -19.310  1.00  0.00    -0.399 OA
HETATM   42  H12 UNL     1      -2.185  40.694 -18.826  1.00  0.00     0.209 HD
ENDBRANCH  40  41
ENDBRANCH  39  40
ENDBRANCH  38  39
ENDBRANCH  37  38
ENDBRANCH  25  37
ENDBRANCH   1  25
BRANCH   8  43
HETATM   43  C22 UNL     1      -3.102  48.539 -26.693  1.00  0.00     0.265 C 
HETATM   44  O5  UNL     1      -3.377  48.084 -27.795  1.00  0.00    -0.302 OA
ENDBRANCH   8  43
TORSDOF 20
ENDMDL
MODEL 5
REMARK minimizedAffinity -7.2994051
REMARK CNNscore 0.427552581
REMARK CNNaffinity 7.2026844
REMARK  20 active torsions:
REMARK  status: ('A' for Active; 'I' for Inactive)
REMARK    1  A    between atoms: C2_2  and  C3_3 
REMARK    2  A    between atoms: C2_2  and  C27_34 
REMARK    3  A    between atoms: C4_4  and  C5_5 
REMARK    4  A    between atoms: C6_6  and  C7_7 
REMARK    5  A    between atoms: C6_6  and  C10_12 
REMARK    6  A    between atoms: C7_7  and  O1_8 
REMARK    7  A    between atoms: O1_8  and  C8_9 
REMARK    8  A    between atoms: C8_9  and  C9_10 
REMARK    9  A    between atoms: C9_10  and  O2_11 
REMARK   10  A    between atoms: C14_16  and  O3_17 
REMARK   11  A    between atoms: C15_18  and  C16_19 
REMARK   12  A    between atoms: C16_19  and  C17_20 
REMARK   13  A    between atoms: C17_20  and  C18_21 
REMARK   14  A    between atoms: C18_21  and  O4_22 
REMARK   15  A    between atoms: C20_24  and  C22_26 
REMARK   16  A    between atoms: C25_30  and  O6_31 
REMARK   17  A    between atoms: C25_30  and  C26_32 
REMARK   18  A    between atoms: C26_32  and  O7_33 
REMARK   19  A    between atoms: C27_34  and  C28_35 
REMARK   20  A    between atoms: C28_35  and  C29_36 
ROOT
HETATM    1  C10 UNL     1      -4.111  48.380 -25.087  1.00  0.00     0.046 C 
HETATM    2  C11 UNL     1      -5.594  48.356 -24.703  1.00  0.00     0.013 C 
HETATM    3  C12 UNL     1      -5.567  48.078 -23.210  1.00  0.00     0.017 C 
HETATM    4  C13 UNL     1      -4.397  48.936 -22.635  1.00  0.00     0.027 C 
HETATM    5  C14 UNL     1      -3.506  49.200 -23.911  1.00  0.00     0.138 C 
HETATM    6  C15 UNL     1      -3.571  48.038 -21.607  1.00  0.00     0.029 C 
HETATM    7  C19 UNL     1      -4.443  47.700 -20.393  1.00  0.00    -0.066 C 
HETATM    8  C20 UNL     1      -4.755  46.450 -19.969  1.00  0.00    -0.021 C 
HETATM    9  C21 UNL     1      -5.583  46.141 -18.757  1.00  0.00     0.052 C 
HETATM   10  C23 UNL     1      -4.906  48.941 -19.661  1.00  0.00     0.038 C 
HETATM   11  C24 UNL     1      -5.691  49.863 -20.583  1.00  0.00     0.045 C 
HETATM   12  C25 UNL     1      -4.981  50.228 -21.915  1.00  0.00     0.090 C 
ENDROOT
BRANCH   5  13
HETATM   13  O3  UNL     1      -3.435  50.587 -24.210  1.00  0.00    -0.394 OA
HETATM   14  H19 UNL     1      -3.064  51.008 -23.402  1.00  0.00     0.210 HD
ENDBRANCH   5  13
BRANCH   6  15
HETATM   15  C16 UNL     1      -2.198  48.609 -21.133  1.00  0.00     0.012 C 
BRANCH  15  16
HETATM   16  C17 UNL     1      -1.801  48.103 -19.733  1.00  0.00     0.027 C 
BRANCH  16  17
HETATM   17  C18 UNL     1      -1.182  49.195 -18.871  1.00  0.00     0.164 C 
BRANCH  17  18
HETATM   18  O4  UNL     1      -1.828  50.433 -19.124  1.00  0.00    -0.401 OA
HETATM   19  H27 UNL     1      -1.404  51.096 -18.551  1.00  0.00     0.209 HD
ENDBRANCH  17  18
ENDBRANCH  16  17
ENDBRANCH  15  16
ENDBRANCH   6  15
BRANCH  12  20
HETATM   20  O6  UNL     1      -3.872  51.098 -21.605  1.00  0.00    -0.387 OA
HETATM   21  H36 UNL     1      -4.238  51.997 -21.479  1.00  0.00     0.210 HD
ENDBRANCH  12  20
BRANCH  12  22
HETATM   22  C26 UNL     1      -6.034  51.077 -22.713  1.00  0.00     0.202 C 
BRANCH  22  23
HETATM   23  O7  UNL     1      -7.375  50.631 -22.577  1.00  0.00    -0.398 OA
HETATM   24  H39 UNL     1      -7.552  50.510 -21.617  1.00  0.00     0.209 HD
ENDBRANCH  22  23
ENDBRANCH  12  22
BRANCH   1  25
HETATM   25  C6  UNL     1      -3.813  48.723 -26.553  1.00  0.00    -0.050 C 
HETATM   26  C5  UNL     1      -2.715  49.310 -27.082  1.00  0.00     0.005 C 
BRANCH  26  27
HETATM   27  C4  UNL     1      -1.526  49.838 -26.452  1.00  0.00     0.001 C 
HETATM   28  C3  UNL     1      -0.820  50.845 -26.995  1.00  0.00     0.006 C 
BRANCH  28  29
HETATM   29  C2  UNL     1       0.343  51.513 -26.420  1.00  0.00    -0.067 C 
HETATM   30  C1  UNL     1       1.478  50.816 -26.238  1.00  0.00     0.019 C 
BRANCH  29  31
HETATM   31  C27 UNL     1       0.309  52.995 -26.109  1.00  0.00     0.041 C 
BRANCH  31  32
HETATM   32  C28 UNL     1      -0.499  53.325 -24.849  1.00  0.00     0.032 C 
BRANCH  32  33
HETATM   33  C29 UNL     1       0.394  53.348 -23.636  1.00  0.00    -0.024 C 
HETATM   34  C30 UNL     1       0.388  52.504 -22.586  1.00  0.00    -0.091 C 
HETATM   35  C31 UNL     1       1.367  52.682 -21.456  1.00  0.00     0.042 C 
HETATM   36  C32 UNL     1      -0.526  51.320 -22.428  1.00  0.00     0.042 C 
ENDBRANCH  32  33
ENDBRANCH  31  32
ENDBRANCH  29  31
ENDBRANCH  28  29
ENDBRANCH  26  27
BRANCH  25  37
HETATM   37  C7  UNL     1      -4.849  48.233 -27.565  1.00  0.00     0.202 C 
BRANCH  37  38
HETATM   38  O1  UNL     1      -4.327  48.228 -28.894  1.00  0.00    -0.385 OA
BRANCH  38  39
HETATM   39  C8  UNL     1      -5.317  48.075 -29.916  1.00  0.00     0.194 C 
BRANCH  39  40
HETATM   40  C9  UNL     1      -6.353  47.018 -29.537  1.00  0.00     0.190 C 
BRANCH  40  41
HETATM   41  O2  UNL     1      -7.623  47.309 -30.121  1.00  0.00    -0.399 OA
HETATM   42  H12 UNL     1      -8.222  46.590 -29.858  1.00  0.00     0.209 HD
ENDBRANCH  40  41
ENDBRANCH  39  40
ENDBRANCH  38  39
ENDBRANCH  37  38
ENDBRANCH  25  37
ENDBRANCH   1  25
BRANCH   8  43
HETATM   43  C22 UNL     1      -4.244  45.228 -20.655  1.00  0.00     0.265 C 
HETATM   44  O5  UNL     1      -4.931  44.496 -21.354  1.00  0.00    -0.302 OA
ENDBRANCH   8  43
TORSDOF 20
ENDMDL
MODEL 6
REMARK minimizedAffinity -6.43873978
REMARK CNNscore 0.324693531
REMARK CNNaffinity 5.74757338
REMARK  20 active torsions:
REMARK  status: ('A' for Active; 'I' for Inactive)
REMARK    1  A    between atoms: C2_2  and  C3_3 
REMARK    2  A    between atoms: C2_2  and  C27_34 
REMARK    3  A    between atoms: C4_4  and  C5_5 
REMARK    4  A    between atoms: C6_6  and  C7_7 
REMARK    5  A    between atoms: C6_6  and  C10_12 
REMARK    6  A    between atoms: C7_7  and  O1_8 
REMARK    7  A    between atoms: O1_8  and  C8_9 
REMARK    8  A    between atoms: C8_9  and  C9_10 
REMARK    9  A    between atoms: C9_10  and  O2_11 
REMARK   10  A    between atoms: C14_16  and  O3_17 
REMARK   11  A    between atoms: C15_18  and  C16_19 
REMARK   12  A    between atoms: C16_19  and  C17_20 
REMARK   13  A    between atoms: C17_20  and  C18_21 
REMARK   14  A    between atoms: C18_21  and  O4_22 
REMARK   15  A    between atoms: C20_24  and  C22_26 
REMARK   16  A    between atoms: C25_30  and  O6_31 
REMARK   17  A    between atoms: C25_30  and  C26_32 
REMARK   18  A    between atoms: C26_32  and  O7_33 
REMARK   19  A    between atoms: C27_34  and  C28_35 
REMARK   20  A    between atoms: C28_35  and  C29_36 
ROOT
HETATM    1  C10 UNL     1      -3.812  47.757 -21.725  1.00  0.00     0.046 C 
HETATM    2  C11 UNL     1      -2.318  47.436 -21.606  1.00  0.00     0.013 C 
HETATM    3  C12 UNL     1      -1.646  48.706 -22.100  1.00  0.00     0.017 C 
HETATM    4  C13 UNL     1      -2.468  49.889 -21.501  1.00  0.00     0.027 C 
HETATM    5  C14 UNL     1      -3.856  49.211 -21.174  1.00  0.00     0.138 C 
HETATM    6  C15 UNL     1      -2.683  50.983 -22.641  1.00  0.00     0.029 C 
HETATM    7  C19 UNL     1      -1.337  51.600 -23.033  1.00  0.00    -0.066 C 
HETATM    8  C20 UNL     1      -0.800  51.596 -24.278  1.00  0.00    -0.021 C 
HETATM    9  C21 UNL     1       0.506  52.237 -24.647  1.00  0.00     0.052 C 
HETATM   10  C23 UNL     1      -0.658  52.276 -21.862  1.00  0.00     0.038 C 
HETATM   11  C24 UNL     1      -0.431  51.298 -20.718  1.00  0.00     0.045 C 
HETATM   12  C25 UNL     1      -1.690  50.511 -20.260  1.00  0.00     0.090 C 
ENDROOT
BRANCH   5  13
HETATM   13  O3  UNL     1      -4.129  49.245 -19.781  1.00  0.00    -0.394 OA
HETATM   14  H19 UNL     1      -4.113  50.197 -19.537  1.00  0.00     0.210 HD
ENDBRANCH   5  13
BRANCH   6  15
HETATM   15  C16 UNL     1      -3.718  52.111 -22.335  1.00  0.00     0.012 C 
BRANCH  15  16
HETATM   16  C17 UNL     1      -4.858  52.161 -23.371  1.00  0.00     0.027 C 
BRANCH  16  17
HETATM   17  C18 UNL     1      -5.831  50.998 -23.224  1.00  0.00     0.164 C 
BRANCH  17  18
HETATM   18  O4  UNL     1      -6.007  50.356 -24.477  1.00  0.00    -0.401 OA
HETATM   19  H27 UNL     1      -6.631  49.622 -24.333  1.00  0.00     0.209 HD
ENDBRANCH  17  18
ENDBRANCH  16  17
ENDBRANCH  15  16
ENDBRANCH   6  15
BRANCH  12  20
HETATM   20  O6  UNL     1      -2.579  51.437 -19.602  1.00  0.00    -0.387 OA
HETATM   21  H36 UNL     1      -2.245  51.558 -18.690  1.00  0.00     0.210 HD
ENDBRANCH  12  20
BRANCH  12  22
HETATM   22  C26 UNL     1      -1.164  49.509 -19.171  1.00  0.00     0.202 C 
BRANCH  22  23
HETATM   23  O7  UNL     1      -0.209  50.059 -18.277  1.00  0.00    -0.398 OA
HETATM   24  H39 UNL     1      -0.570  50.912 -17.944  1.00  0.00     0.209 HD
ENDBRANCH  22  23
ENDBRANCH  12  22
BRANCH   1  25
HETATM   25  C6  UNL     1      -4.764  46.666 -21.214  1.00  0.00    -0.050 C 
HETATM   26  C5  UNL     1      -6.008  46.355 -21.645  1.00  0.00     0.005 C 
BRANCH  26  27
HETATM   27  C4  UNL     1      -6.841  46.966 -22.656  1.00  0.00     0.001 C 
HETATM   28  C3  UNL     1      -7.676  46.243 -23.424  1.00  0.00     0.006 C 
BRANCH  28  29
HETATM   29  C2  UNL     1      -8.617  46.749 -24.416  1.00  0.00    -0.067 C 
HETATM   30  C1  UNL     1      -8.393  47.946 -24.986  1.00  0.00     0.019 C 
BRANCH  29  31
HETATM   31  C27 UNL     1      -9.791  45.906 -24.871  1.00  0.00     0.041 C 
BRANCH  31  32
HETATM   32  C28 UNL     1     -10.816  46.699 -25.689  1.00  0.00     0.032 C 
BRANCH  32  33
HETATM   33  C29 UNL     1     -12.159  46.697 -25.003  1.00  0.00    -0.024 C 
HETATM   34  C30 UNL     1     -13.375  46.846 -25.563  1.00  0.00    -0.091 C 
HETATM   35  C31 UNL     1     -14.617  46.812 -24.712  1.00  0.00     0.042 C 
HETATM   36  C32 UNL     1     -13.640  47.025 -27.033  1.00  0.00     0.042 C 
ENDBRANCH  32  33
ENDBRANCH  31  32
ENDBRANCH  29  31
ENDBRANCH  28  29
ENDBRANCH  26  27
BRANCH  25  37
HETATM   37  C7  UNL     1      -4.183  45.732 -20.153  1.00  0.00     0.202 C 
BRANCH  37  38
HETATM   38  O1  UNL     1      -5.207  45.004 -19.474  1.00  0.00    -0.385 OA
BRANCH  38  39
HETATM   39  C8  UNL     1      -5.133  43.585 -19.645  1.00  0.00     0.194 C 
BRANCH  39  40
HETATM   40  C9  UNL     1      -4.192  42.947 -18.624  1.00  0.00     0.190 C 
BRANCH  40  41
HETATM   41  O2  UNL     1      -3.203  42.144 -19.268  1.00  0.00    -0.399 OA
HETATM   42  H12 UNL     1      -2.630  41.791 -18.566  1.00  0.00     0.209 HD
ENDBRANCH  40  41
ENDBRANCH  39  40
ENDBRANCH  38  39
ENDBRANCH  37  38
ENDBRANCH  25  37
ENDBRANCH   1  25
BRANCH   8  43
HETATM   43  C22 UNL     1      -1.501  50.985 -25.445  1.00  0.00     0.265 C 
HETATM   44  O5  UNL     1      -1.817  49.806 -25.514  1.00  0.00    -0.302 OA
ENDBRANCH   8  43
TORSDOF 20
ENDMDL
MODEL 7
REMARK minimizedAffinity -8.31808472
REMARK CNNscore 0.304381818
REMARK CNNaffinity 6.85833502
REMARK  20 active torsions:
REMARK  status: ('A' for Active; 'I' for Inactive)
REMARK    1  A    between atoms: C2_2  and  C3_3 
REMARK    2  A    between atoms: C2_2  and  C27_34 
REMARK    3  A    between atoms: C4_4  and  C5_5 
REMARK    4  A    between atoms: C6_6  and  C7_7 
REMARK    5  A    between atoms: C6_6  and  C10_12 
REMARK    6  A    between atoms: C7_7  and  O1_8 
REMARK    7  A    between atoms: O1_8  and  C8_9 
REMARK    8  A    between atoms: C8_9  and  C9_10 
REMARK    9  A    between atoms: C9_10  and  O2_11 
REMARK   10  A    between atoms: C14_16  and  O3_17 
REMARK   11  A    between atoms: C15_18  and  C16_19 
REMARK   12  A    between atoms: C16_19  and  C17_20 
REMARK   13  A    between atoms: C17_20  and  C18_21 
REMARK   14  A    between atoms: C18_21  and  O4_22 
REMARK   15  A    between atoms: C20_24  and  C22_26 
REMARK   16  A    between atoms: C25_30  and  O6_31 
REMARK   17  A    between atoms: C25_30  and  C26_32 
REMARK   18  A    between atoms: C26_32  and  O7_33 
REMARK   19  A    between atoms: C27_34  and  C28_35 
REMARK   20  A    between atoms: C28_35  and  C29_36 
ROOT
HETATM    1  C10 UNL     1      -1.818  49.122 -22.075  1.00  0.00     0.046 C 
HETATM    2  C11 UNL     1      -1.737  50.645 -21.927  1.00  0.00     0.013 C 
HETATM    3  C12 UNL     1      -1.679  51.136 -23.363  1.00  0.00     0.017 C 
HETATM    4  C13 UNL     1      -2.697  50.259 -24.157  1.00  0.00     0.027 C 
HETATM    5  C14 UNL     1      -2.842  48.984 -23.238  1.00  0.00     0.138 C 
HETATM    6  C15 UNL     1      -2.022  49.827 -25.537  1.00  0.00     0.029 C 
HETATM    7  C19 UNL     1      -1.797  51.062 -26.417  1.00  0.00    -0.066 C 
HETATM    8  C20 UNL     1      -0.602  51.476 -26.904  1.00  0.00    -0.021 C 
HETATM    9  C21 UNL     1      -0.409  52.670 -27.792  1.00  0.00     0.052 C 
HETATM   10  C23 UNL     1      -3.092  51.777 -26.735  1.00  0.00     0.038 C 
HETATM   11  C24 UNL     1      -3.809  52.209 -25.464  1.00  0.00     0.045 C 
HETATM   12  C25 UNL     1      -4.032  51.085 -24.415  1.00  0.00     0.090 C 
ENDROOT
BRANCH   5  13
HETATM   13  O3  UNL     1      -4.172  48.842 -22.763  1.00  0.00    -0.394 OA
HETATM   14  H19 UNL     1      -4.732  48.786 -23.569  1.00  0.00     0.210 HD
ENDBRANCH   5  13
BRANCH   6  15
HETATM   15  C16 UNL     1      -2.757  48.718 -26.353  1.00  0.00     0.012 C 
BRANCH  15  16
HETATM   16  C17 UNL     1      -3.280  49.234 -27.708  1.00  0.00     0.027 C 
BRANCH  16  17
HETATM   17  C18 UNL     1      -4.436  48.399 -28.244  1.00  0.00     0.164 C 
BRANCH  17  18
HETATM   18  O4  UNL     1      -4.906  48.953 -29.462  1.00  0.00    -0.401 OA
HETATM   19  H27 UNL     1      -5.637  48.387 -29.767  1.00  0.00     0.209 HD
ENDBRANCH  17  18
ENDBRANCH  16  17
ENDBRANCH  15  16
ENDBRANCH   6  15
BRANCH  12  20
HETATM   20  O6  UNL     1      -5.019  50.173 -24.941  1.00  0.00    -0.387 OA
HETATM   21  H36 UNL     1      -5.896  50.579 -24.788  1.00  0.00     0.210 HD
ENDBRANCH  12  20
BRANCH  12  22
HETATM   22  C26 UNL     1      -4.674  51.810 -23.179  1.00  0.00     0.202 C 
BRANCH  22  23
HETATM   23  O7  UNL     1      -6.022  51.449 -22.918  1.00  0.00    -0.398 OA
HETATM   24  H39 UNL     1      -6.071  50.466 -22.920  1.00  0.00     0.209 HD
ENDBRANCH  22  23
ENDBRANCH  12  22
BRANCH   1  25
HETATM   25  C6  UNL     1      -1.967  48.337 -20.764  1.00  0.00    -0.050 C 
HETATM   26  C5  UNL     1      -1.479  48.632 -19.537  1.00  0.00     0.005 C 
BRANCH  26  27
HETATM   27  C4  UNL     1      -0.637  49.717 -19.088  1.00  0.00     0.001 C 
HETATM   28  C3  UNL     1      -0.505  50.855 -19.792  1.00  0.00     0.006 C 
BRANCH  28  29
HETATM   29  C2  UNL     1       0.247  52.044 -19.408  1.00  0.00    -0.067 C 
HETATM   30  C1  UNL     1       0.793  52.816 -20.365  1.00  0.00     0.019 C 
BRANCH  29  31
HETATM   31  C27 UNL     1       0.346  52.463 -17.955  1.00  0.00     0.041 C 
BRANCH  31  32
HETATM   32  C28 UNL     1       1.788  52.705 -17.498  1.00  0.00     0.032 C 
BRANCH  32  33
HETATM   33  C29 UNL     1       2.030  52.078 -16.149  1.00  0.00    -0.024 C 
HETATM   34  C30 UNL     1       3.208  51.885 -15.525  1.00  0.00    -0.091 C 
HETATM   35  C31 UNL     1       3.256  51.240 -14.165  1.00  0.00     0.042 C 
HETATM   36  C32 UNL     1       4.554  52.293 -16.061  1.00  0.00     0.042 C 
ENDBRANCH  32  33
ENDBRANCH  31  32
ENDBRANCH  29  31
ENDBRANCH  28  29
ENDBRANCH  26  27
BRANCH  25  37
HETATM   37  C7  UNL     1      -2.888  47.119 -20.831  1.00  0.00     0.202 C 
BRANCH  37  38
HETATM   38  O1  UNL     1      -4.133  47.361 -20.175  1.00  0.00    -0.385 OA
BRANCH  38  39
HETATM   39  C8  UNL     1      -5.123  46.352 -20.398  1.00  0.00     0.194 C 
BRANCH  39  40
HETATM   40  C9  UNL     1      -4.804  45.075 -19.620  1.00  0.00     0.190 C 
BRANCH  40  41
HETATM   41  O2  UNL     1      -4.876  43.927 -20.466  1.00  0.00    -0.399 OA
HETATM   42  H12 UNL     1      -4.642  43.161 -19.915  1.00  0.00     0.209 HD
ENDBRANCH  40  41
ENDBRANCH  39  40
ENDBRANCH  38  39
ENDBRANCH  37  38
ENDBRANCH  25  37
ENDBRANCH   1  25
BRANCH   8  43
HETATM   43  C22 UNL     1       0.665  50.732 -26.641  1.00  0.00     0.265 C 
HETATM   44  O5  UNL     1       1.694  51.252 -26.234  1.00  0.00    -0.302 OA
ENDBRANCH   8  43
TORSDOF 20
ENDMDL
MODEL 8
REMARK minimizedAffinity -6.55508852
REMARK CNNscore 0.270225495
REMARK CNNaffinity 6.4331398
REMARK  20 active torsions:
REMARK  status: ('A' for Active; 'I' for Inactive)
REMARK    1  A    between atoms: C2_2  and  C3_3 
REMARK    2  A    between atoms: C2_2  and  C27_34 
REMARK    3  A    between atoms: C4_4  and  C5_5 
REMARK    4  A    between atoms: C6_6  and  C7_7 
REMARK    5  A    between atoms: C6_6  and  C10_12 
REMARK    6  A    between atoms: C7_7  and  O1_8 
REMARK    7  A    between atoms: O1_8  and  C8_9 
REMARK    8  A    between atoms: C8_9  and  C9_10 
REMARK    9  A    between atoms: C9_10  and  O2_11 
REMARK   10  A    between atoms: C14_16  and  O3_17 
REMARK   11  A    between atoms: C15_18  and  C16_19 
REMARK   12  A    between atoms: C16_19  and  C17_20 
REMARK   13  A    between atoms: C17_20  and  C18_21 
REMARK   14  A    between atoms: C18_21  and  O4_22 
REMARK   15  A    between atoms: C20_24  and  C22_26 
REMARK   16  A    between atoms: C25_30  and  O6_31 
REMARK   17  A    between atoms: C25_30  and  C26_32 
REMARK   18  A    between atoms: C26_32  and  O7_33 
REMARK   19  A    between atoms: C27_34  and  C28_35 
REMARK   20  A    between atoms: C28_35  and  C29_36 
ROOT
HETATM    1  C10 UNL     1      -0.538  52.390 -11.958  1.00  0.00     0.046 C 
HETATM    2  C11 UNL     1      -1.843  52.328 -12.759  1.00  0.00     0.013 C 
HETATM    3  C12 UNL     1      -1.427  51.665 -14.060  1.00  0.00     0.017 C 
HETATM    4  C13 UNL     1      -0.440  50.523 -13.663  1.00  0.00     0.027 C 
HETATM    5  C14 UNL     1       0.056  50.978 -12.235  1.00  0.00     0.138 C 
HETATM    6  C15 UNL     1       0.796  50.551 -14.671  1.00  0.00     0.029 C 
HETATM    7  C19 UNL     1       0.326  50.190 -16.084  1.00  0.00    -0.066 C 
HETATM    8  C20 UNL     1       0.462  50.970 -17.185  1.00  0.00    -0.021 C 
HETATM    9  C21 UNL     1       0.024  50.581 -18.566  1.00  0.00     0.052 C 
HETATM   10  C23 UNL     1      -0.291  48.810 -16.143  1.00  0.00     0.038 C 
HETATM   11  C24 UNL     1      -1.474  48.695 -15.191  1.00  0.00     0.045 C 
HETATM   12  C25 UNL     1      -1.187  49.120 -13.725  1.00  0.00     0.090 C 
ENDROOT
BRANCH   5  13
HETATM   13  O3  UNL     1      -0.318  50.039 -11.238  1.00  0.00    -0.394 OA
HETATM   14  H19 UNL     1       0.087  49.188 -11.519  1.00  0.00     0.210 HD
ENDBRANCH   5  13
BRANCH   6  15
HETATM   15  C16 UNL     1       2.031  49.680 -14.282  1.00  0.00     0.012 C 
BRANCH  15  16
HETATM   16  C17 UNL     1       3.288  50.528 -14.009  1.00  0.00     0.027 C 
BRANCH  16  17
HETATM   17  C18 UNL     1       3.975  50.152 -12.703  1.00  0.00     0.164 C 
BRANCH  17  18
HETATM   18  O4  UNL     1       5.250  49.589 -12.975  1.00  0.00    -0.401 OA
HETATM   19  H27 UNL     1       5.650  49.369 -12.115  1.00  0.00     0.209 HD
ENDBRANCH  17  18
ENDBRANCH  16  17
ENDBRANCH  15  16
ENDBRANCH   6  15
BRANCH  12  20
HETATM   20  O6  UNL     1      -0.317  48.131 -13.135  1.00  0.00    -0.387 OA
HETATM   21  H36 UNL     1      -0.878  47.374 -12.874  1.00  0.00     0.210 HD
ENDBRANCH  12  20
BRANCH  12  22
HETATM   22  C26 UNL     1      -2.575  49.017 -12.998  1.00  0.00     0.202 C 
BRANCH  22  23
HETATM   23  O7  UNL     1      -3.645  48.591 -13.827  1.00  0.00    -0.398 OA
HETATM   24  H39 UNL     1      -3.346  47.786 -14.307  1.00  0.00     0.209 HD
ENDBRANCH  22  23
ENDBRANCH  12  22
BRANCH   1  25
HETATM   25  C6  UNL     1      -0.661  52.953 -10.536  1.00  0.00    -0.050 C 
HETATM   26  C5  UNL     1       0.079  53.913  -9.935  1.00  0.00     0.005 C 
BRANCH  26  27
HETATM   27  C4  UNL     1       1.227  54.656 -10.403  1.00  0.00     0.001 C 
HETATM   28  C3  UNL     1       2.026  55.338  -9.564  1.00  0.00     0.006 C 
BRANCH  28  29
HETATM   29  C2  UNL     1       3.250  56.056  -9.903  1.00  0.00    -0.067 C 
HETATM   30  C1  UNL     1       3.506  56.348 -11.190  1.00  0.00     0.019 C 
BRANCH  29  31
HETATM   31  C27 UNL     1       4.185  56.547  -8.818  1.00  0.00     0.041 C 
BRANCH  31  32
HETATM   32  C28 UNL     1       3.712  57.848  -8.162  1.00  0.00     0.032 C 
BRANCH  32  33
HETATM   33  C29 UNL     1       3.657  57.698  -6.663  1.00  0.00    -0.024 C 
HETATM   34  C30 UNL     1       2.589  57.395  -5.899  1.00  0.00    -0.091 C 
HETATM   35  C31 UNL     1       2.726  57.282  -4.404  1.00  0.00     0.042 C 
HETATM   36  C32 UNL     1       1.203  57.114  -6.414  1.00  0.00     0.042 C 
ENDBRANCH  32  33
ENDBRANCH  31  32
ENDBRANCH  29  31
ENDBRANCH  28  29
ENDBRANCH  26  27
BRANCH  25  37
HETATM   37  C7  UNL     1      -1.854  52.442  -9.728  1.00  0.00     0.202 C 
BRANCH  37  38
HETATM   38  O1  UNL     1      -2.943  53.365  -9.753  1.00  0.00    -0.385 OA
BRANCH  38  39
HETATM   39  C8  UNL     1      -4.118  52.873 -10.406  1.00  0.00     0.194 C 
BRANCH  39  40
HETATM   40  C9  UNL     1      -4.165  51.346 -10.396  1.00  0.00     0.190 C 
BRANCH  40  41
HETATM   41  O2  UNL     1      -5.508  50.872 -10.500  1.00  0.00    -0.399 OA
HETATM   42  H12 UNL     1      -5.461  49.901 -10.510  1.00  0.00     0.209 HD
ENDBRANCH  40  41
ENDBRANCH  39  40
ENDBRANCH  38  39
ENDBRANCH  37  38
ENDBRANCH  25  37
ENDBRANCH   1  25
BRANCH   8  43
HETATM   43  C22 UNL     1       1.129  52.304 -17.136  1.00  0.00     0.265 C 
HETATM   44  O5  UNL     1       1.237  52.980 -16.123  1.00  0.00    -0.302 OA
ENDBRANCH   8  43
TORSDOF 20
ENDMDL
MODEL 9
REMARK minimizedAffinity -7.16967392
REMARK CNNscore 0.26681143
REMARK CNNaffinity 5.84248352
REMARK  20 active torsions:
REMARK  status: ('A' for Active; 'I' for Inactive)
REMARK    1  A    between atoms: C2_2  and  C3_3 
REMARK    2  A    between atoms: C2_2  and  C27_34 
REMARK    3  A    between atoms: C4_4  and  C5_5 
REMARK    4  A    between atoms: C6_6  and  C7_7 
REMARK    5  A    between atoms: C6_6  and  C10_12 
REMARK    6  A    between atoms: C7_7  and  O1_8 
REMARK    7  A    between atoms: O1_8  and  C8_9 
REMARK    8  A    between atoms: C8_9  and  C9_10 
REMARK    9  A    between atoms: C9_10  and  O2_11 
REMARK   10  A    between atoms: C14_16  and  O3_17 
REMARK   11  A    between atoms: C15_18  and  C16_19 
REMARK   12  A    between atoms: C16_19  and  C17_20 
REMARK   13  A    between atoms: C17_20  and  C18_21 
REMARK   14  A    between atoms: C18_21  and  O4_22 
REMARK   15  A    between atoms: C20_24  and  C22_26 
REMARK   16  A    between atoms: C25_30  and  O6_31 
REMARK   17  A    between atoms: C25_30  and  C26_32 
REMARK   18  A    between atoms: C26_32  and  O7_33 
REMARK   19  A    between atoms: C27_34  and  C28_35 
REMARK   20  A    between atoms: C28_35  and  C29_36 
ROOT
HETATM    1  C10 UNL     1      -8.368  46.635 -26.994  1.00  0.00     0.046 C 
HETATM    2  C11 UNL     1      -7.367  46.163 -28.053  1.00  0.00     0.013 C 
HETATM    3  C12 UNL     1      -8.242  45.880 -29.263  1.00  0.00     0.017 C 
HETATM    4  C13 UNL     1      -9.287  47.038 -29.317  1.00  0.00     0.027 C 
HETATM    5  C14 UNL     1      -9.277  47.578 -27.833  1.00  0.00     0.138 C 
HETATM    6  C15 UNL     1     -10.720  46.411 -29.628  1.00  0.00     0.029 C 
HETATM    7  C19 UNL     1     -10.731  45.807 -31.037  1.00  0.00    -0.066 C 
HETATM    8  C20 UNL     1     -11.006  44.514 -31.339  1.00  0.00    -0.021 C 
HETATM    9  C21 UNL     1     -11.044  43.951 -32.729  1.00  0.00     0.052 C 
HETATM   10  C23 UNL     1     -10.433  46.840 -32.101  1.00  0.00     0.038 C 
HETATM   11  C24 UNL     1      -9.083  47.501 -31.864  1.00  0.00     0.045 C 
HETATM   12  C25 UNL     1      -8.872  48.085 -30.440  1.00  0.00     0.090 C 
ENDROOT
BRANCH   5  13
HETATM   13  O3  UNL     1      -8.838  48.928 -27.781  1.00  0.00    -0.394 OA
HETATM   14  H19 UNL     1      -9.462  49.426 -28.355  1.00  0.00     0.210 HD
ENDBRANCH   5  13
BRANCH   6  15
HETATM   15  C16 UNL     1     -11.948  47.357 -29.445  1.00  0.00     0.012 C 
BRANCH  15  16
HETATM   16  C17 UNL     1     -13.003  46.772 -28.487  1.00  0.00     0.027 C 
BRANCH  16  17
HETATM   17  C18 UNL     1     -13.199  47.628 -27.242  1.00  0.00     0.164 C 
BRANCH  17  18
HETATM   18  O4  UNL     1     -12.522  48.866 -27.397  1.00  0.00    -0.401 OA
HETATM   19  H27 UNL     1     -12.678  49.377 -26.583  1.00  0.00     0.209 HD
ENDBRANCH  17  18
ENDBRANCH  16  17
ENDBRANCH  15  16
ENDBRANCH   6  15
BRANCH  12  20
HETATM   20  O6  UNL     1      -9.725  49.241 -30.301  1.00  0.00    -0.387 OA
HETATM   21  H36 UNL     1      -9.273  49.987 -30.744  1.00  0.00     0.210 HD
ENDBRANCH  12  20
BRANCH  12  22
HETATM   22  C26 UNL     1      -7.386  48.594 -30.430  1.00  0.00     0.202 C 
BRANCH  22  23
HETATM   23  O7  UNL     1      -6.586  48.096 -31.491  1.00  0.00    -0.398 OA
HETATM   24  H39 UNL     1      -7.085  48.230 -32.328  1.00  0.00     0.209 HD
ENDBRANCH  22  23
ENDBRANCH  12  22
BRANCH   1  25
HETATM   25  C6  UNL     1      -7.756  47.077 -25.657  1.00  0.00    -0.050 C 
HETATM   26  C5  UNL     1      -6.588  47.720 -25.429  1.00  0.00     0.005 C 
BRANCH  26  27
HETATM   27  C4  UNL     1      -5.543  48.138 -26.336  1.00  0.00     0.001 C 
HETATM   28  C3  UNL     1      -4.399  48.691 -25.898  1.00  0.00     0.006 C 
BRANCH  28  29
HETATM   29  C2  UNL     1      -3.246  49.079 -26.703  1.00  0.00    -0.067 C 
HETATM   30  C1  UNL     1      -2.113  48.360 -26.618  1.00  0.00     0.019 C 
BRANCH  29  31
HETATM   31  C27 UNL     1      -3.340  50.224 -27.689  1.00  0.00     0.041 C 
BRANCH  31  32
HETATM   32  C28 UNL     1      -2.568  51.469 -27.238  1.00  0.00     0.032 C 
BRANCH  32  33
HETATM   33  C29 UNL     1      -1.097  51.315 -27.524  1.00  0.00    -0.024 C 
HETATM   34  C30 UNL     1      -0.212  52.276 -27.855  1.00  0.00    -0.091 C 
HETATM   35  C31 UNL     1       1.232  51.933 -28.102  1.00  0.00     0.042 C 
HETATM   36  C32 UNL     1      -0.528  53.742 -27.982  1.00  0.00     0.042 C 
ENDBRANCH  32  33
ENDBRANCH  31  32
ENDBRANCH  29  31
ENDBRANCH  28  29
ENDBRANCH  26  27
BRANCH  25  37
HETATM   37  C7  UNL     1      -8.640  46.861 -24.428  1.00  0.00     0.202 C 
BRANCH  37  38
HETATM   38  O1  UNL     1      -8.745  48.047 -23.639  1.00  0.00    -0.385 OA
BRANCH  38  39
HETATM   39  C8  UNL     1      -8.539  47.843 -22.238  1.00  0.00     0.194 C 
BRANCH  39  40
HETATM   40  C9  UNL     1      -7.244  48.502 -21.762  1.00  0.00     0.190 C 
BRANCH  40  41
HETATM   41  O2  UNL     1      -6.131  47.620 -21.917  1.00  0.00    -0.399 OA
HETATM   42  H12 UNL     1      -5.346  48.108 -21.619  1.00  0.00     0.209 HD
ENDBRANCH  40  41
ENDBRANCH  39  40
ENDBRANCH  38  39
ENDBRANCH  37  38
ENDBRANCH  25  37
ENDBRANCH   1  25
BRANCH   8  43
HETATM   43  C22 UNL     1     -11.362  43.511 -30.292  1.00  0.00     0.265 C 
HETATM   44  O5  UNL     1     -10.542  42.906 -29.616  1.00  0.00    -0.302 OA
ENDBRANCH   8  43
TORSDOF 20
ENDMDL
