MODEL 1
REMARK minimizedAffinity -8.11248302
REMARK CNNscore 0.623709679
REMARK CNNaffinity 8.12875748
REMARK  12 active torsions:
REMARK  status: ('A' for Active; 'I' for Inactive)
REMARK    1  A    between atoms: O1_2  and  C2_3 
REMARK    2  A    between atoms: C2_3  and  C5_6 
REMARK    3  A    between atoms: C6_7  and  C7_8 
REMARK    4  A    between atoms: C7_8  and  C8_9 
REMARK    5  A    between atoms: C8_9  and  C10_11 
REMARK    6  A    between atoms: C28_30  and  O3_31 
REMARK    7  A    between atoms: O3_31  and  C29_32 
REMARK    8  A    between atoms: C30_34  and  C31_35 
REMARK    9  A    between atoms: C31_35  and  O5_36 
REMARK   10  A    between atoms: C32_37  and  O6_38 
REMARK   11  A    between atoms: C33_39  and  O7_40 
REMARK   12  A    between atoms: C34_41  and  O8_42 
ROOT
HETATM    1  C10 UNL     1     -10.654   9.033  16.025  1.00  0.00    -0.002 C 
HETATM    2  C11 UNL     1     -11.313   9.259  14.624  1.00  0.00     0.006 C 
HETATM    3  C12 UNL     1     -10.591   8.345  13.612  1.00  0.00     0.011 C 
HETATM    4  C13 UNL     1      -9.777   7.379  14.488  1.00  0.00    -0.029 C 
HETATM    5  C14 UNL     1     -10.791   6.285  14.955  1.00  0.00     0.016 C 
HETATM    6  C15 UNL     1      -8.534   6.736  13.805  1.00  0.00     0.028 C 
HETATM    7  C16 UNL     1      -8.811   5.888  12.588  1.00  0.00    -0.021 C 
HETATM    8  C17 UNL     1      -8.051   4.813  12.325  1.00  0.00     0.008 C 
HETATM    9  C18 UNL     1      -6.853   4.418  13.191  1.00  0.00     0.092 C 
HETATM   10  O2  UNL     1      -7.460   3.584  14.203  1.00  0.00    -0.374 OA
HETATM   11  C19 UNL     1      -8.088   4.497  15.162  1.00  0.00     0.179 C 
HETATM   12  C20 UNL     1      -7.618   5.959  14.825  1.00  0.00    -0.004 C 
HETATM   13  C21 UNL     1      -7.353   6.769  16.116  1.00  0.00     0.014 C 
HETATM   14  C22 UNL     1      -8.573   7.510  16.705  1.00  0.00     0.011 C 
HETATM   15  C23 UNL     1      -9.299   8.356  15.640  1.00  0.00    -0.032 C 
HETATM   16  C24 UNL     1      -8.315   9.476  15.167  1.00  0.00     0.016 C 
HETATM   17  C25 UNL     1      -6.327   5.544  14.109  1.00  0.00     0.036 C 
HETATM   18  C26 UNL     1      -5.452   6.516  13.344  1.00  0.00     0.011 C 
HETATM   19  C27 UNL     1      -4.175   5.777  12.906  1.00  0.00     0.033 C 
HETATM   20  C28 UNL     1      -4.291   4.230  12.934  1.00  0.00     0.136 C 
HETATM   21  C35 UNL     1      -5.677   3.730  12.385  1.00  0.00     0.014 C 
HETATM   22  C36 UNL     1      -5.755   2.194  12.524  1.00  0.00     0.021 C 
HETATM   23  C37 UNL     1      -5.723   4.043  10.861  1.00  0.00     0.021 C 
ENDROOT
BRANCH  20  24
HETATM   24  O3  UNL     1      -3.232   3.640  12.160  1.00  0.00    -0.352 OA
BRANCH  24  25
HETATM   25  C29 UNL     1      -1.915   3.941  12.634  1.00  0.00     0.292 C 
HETATM   26  O4  UNL     1      -1.914   5.084  13.480  1.00  0.00    -0.348 OA
HETATM   27  C30 UNL     1      -0.607   5.419  13.972  1.00  0.00     0.179 C 
HETATM   28  C32 UNL     1       0.331   5.755  12.805  1.00  0.00     0.180 C 
HETATM   29  C33 UNL     1       0.355   4.593  11.809  1.00  0.00     0.183 C 
HETATM   30  C34 UNL     1      -1.059   4.215  11.384  1.00  0.00     0.204 C 
BRANCH  27  31
HETATM   31  C31 UNL     1      -0.740   6.612  14.932  1.00  0.00     0.198 C 
BRANCH  31  32
HETATM   32  O5  UNL     1       0.224   6.526  15.987  1.00  0.00    -0.398 OA
HETATM   33  H48 UNL     1       1.104   6.587  15.581  1.00  0.00     0.209 HD
ENDBRANCH  31  32
ENDBRANCH  27  31
BRANCH  28  34
HETATM   34  O6  UNL     1       1.661   5.993  13.272  1.00  0.00    -0.390 OA
HETATM   35  H50 UNL     1       2.214   6.022  12.462  1.00  0.00     0.210 HD
ENDBRANCH  28  34
BRANCH  29  36
HETATM   36  O7  UNL     1       1.139   4.971  10.666  1.00  0.00    -0.390 OA
HETATM   37  H52 UNL     1       0.971   4.273  10.001  1.00  0.00     0.210 HD
ENDBRANCH  29  36
BRANCH  30  38
HETATM   38  O8  UNL     1      -0.994   3.065  10.526  1.00  0.00    -0.388 OA
HETATM   39  H54 UNL     1      -1.927   2.802  10.385  1.00  0.00     0.210 HD
ENDBRANCH  30  38
ENDBRANCH  24  25
ENDBRANCH  20  24
BRANCH   1  40
HETATM   40  C8  UNL     1     -10.677  10.332  16.889  1.00  0.00    -0.010 C 
HETATM   41  C9  UNL     1     -12.087  10.670  17.385  1.00  0.00     0.010 C 
BRANCH  40  42
HETATM   42  C7  UNL     1     -10.094  11.522  16.077  1.00  0.00     0.031 C 
BRANCH  42  43
HETATM   43  C6  UNL     1     -11.088  12.620  15.797  1.00  0.00    -0.027 C 
HETATM   44  C5  UNL     1     -10.975  13.472  14.763  1.00  0.00     0.006 C 
BRANCH  44  45
HETATM   45  C2  UNL     1     -11.918  14.599  14.384  1.00  0.00     0.070 C 
HETATM   46  C3  UNL     1     -11.275  15.786  13.647  1.00  0.00     0.050 C 
HETATM   47  C4  UNL     1     -12.554  15.133  15.679  1.00  0.00     0.050 C 
BRANCH  45  48
HETATM   48  O1  UNL     1     -13.012  14.042  13.633  1.00  0.00    -0.382 OA
HETATM   49  C1  UNL     1     -13.263  14.633  12.363  1.00  0.00     0.202 C 
ENDBRANCH  45  48
ENDBRANCH  44  45
ENDBRANCH  42  43
ENDBRANCH  40  42
ENDBRANCH   1  40
TORSDOF 12
ENDMDL
MODEL 2
REMARK minimizedAffinity -8.02918339
REMARK CNNscore 0.583108544
REMARK CNNaffinity 6.99641848
REMARK  12 active torsions:
REMARK  status: ('A' for Active; 'I' for Inactive)
REMARK    1  A    between atoms: O1_2  and  C2_3 
REMARK    2  A    between atoms: C2_3  and  C5_6 
REMARK    3  A    between atoms: C6_7  and  C7_8 
REMARK    4  A    between atoms: C7_8  and  C8_9 
REMARK    5  A    between atoms: C8_9  and  C10_11 
REMARK    6  A    between atoms: C28_30  and  O3_31 
REMARK    7  A    between atoms: O3_31  and  C29_32 
REMARK    8  A    between atoms: C30_34  and  C31_35 
REMARK    9  A    between atoms: C31_35  and  O5_36 
REMARK   10  A    between atoms: C32_37  and  O6_38 
REMARK   11  A    between atoms: C33_39  and  O7_40 
REMARK   12  A    between atoms: C34_41  and  O8_42 
ROOT
HETATM    1  C10 UNL     1      -2.884  13.921  18.910  1.00  0.00    -0.002 C 
HETATM    2  C11 UNL     1      -4.382  14.044  18.474  1.00  0.00     0.006 C 
HETATM    3  C12 UNL     1      -4.677  12.906  17.476  1.00  0.00     0.011 C 
HETATM    4  C13 UNL     1      -3.471  11.962  17.610  1.00  0.00    -0.029 C 
HETATM    5  C14 UNL     1      -3.756  11.101  18.883  1.00  0.00     0.016 C 
HETATM    6  C15 UNL     1      -3.181  11.059  16.376  1.00  0.00     0.028 C 
HETATM    7  C16 UNL     1      -4.279  10.101  15.984  1.00  0.00    -0.021 C 
HETATM    8  C17 UNL     1      -3.975   8.902  15.460  1.00  0.00     0.008 C 
HETATM    9  C18 UNL     1      -2.535   8.462  15.189  1.00  0.00     0.092 C 
HETATM   10  O2  UNL     1      -2.145   7.870  16.449  1.00  0.00    -0.374 OA
HETATM   11  C19 UNL     1      -1.831   8.987  17.343  1.00  0.00     0.179 C 
HETATM   12  C20 UNL     1      -1.802  10.306  16.488  1.00  0.00    -0.004 C 
HETATM   13  C21 UNL     1      -0.655  11.240  16.943  1.00  0.00     0.014 C 
HETATM   14  C22 UNL     1      -1.003  12.222  18.082  1.00  0.00     0.011 C 
HETATM   15  C23 UNL     1      -2.295  13.009  17.786  1.00  0.00    -0.032 C 
HETATM   16  C24 UNL     1      -2.033  13.900  16.527  1.00  0.00     0.016 C 
HETATM   17  C25 UNL     1      -1.508   9.615  15.150  1.00  0.00     0.036 C 
HETATM   18  C26 UNL     1      -1.539  10.336  13.818  1.00  0.00     0.011 C 
HETATM   19  C27 UNL     1      -1.039   9.368  12.732  1.00  0.00     0.033 C 
HETATM   20  C28 UNL     1      -1.074   7.872  13.144  1.00  0.00     0.136 C 
HETATM   21  C35 UNL     1      -2.382   7.507  13.935  1.00  0.00     0.014 C 
HETATM   22  C36 UNL     1      -2.308   6.032  14.386  1.00  0.00     0.021 C 
HETATM   23  C37 UNL     1      -3.578   7.611  12.945  1.00  0.00     0.021 C 
ENDROOT
BRANCH  20  24
HETATM   24  O3  UNL     1      -0.973   7.036  11.978  1.00  0.00    -0.352 OA
BRANCH  24  25
HETATM   25  C29 UNL     1       0.327   7.009  11.380  1.00  0.00     0.292 C 
HETATM   26  O4  UNL     1       0.314   7.583  10.079  1.00  0.00    -0.348 OA
HETATM   27  C30 UNL     1       1.604   7.569   9.445  1.00  0.00     0.179 C 
HETATM   28  C32 UNL     1       2.093   6.126   9.266  1.00  0.00     0.180 C 
HETATM   29  C33 UNL     1       2.092   5.408  10.618  1.00  0.00     0.183 C 
HETATM   30  C34 UNL     1       0.731   5.526  11.293  1.00  0.00     0.204 C 
BRANCH  27  31
HETATM   31  C31 UNL     1       1.486   8.283   8.089  1.00  0.00     0.198 C 
BRANCH  31  32
HETATM   32  O5  UNL     1       2.770   8.713   7.627  1.00  0.00    -0.398 OA
HETATM   33  H48 UNL     1       3.307   7.917   7.482  1.00  0.00     0.209 HD
ENDBRANCH  31  32
ENDBRANCH  27  31
BRANCH  28  34
HETATM   34  O6  UNL     1       3.417   6.100   8.728  1.00  0.00    -0.390 OA
HETATM   35  H50 UNL     1       3.709   5.167   8.815  1.00  0.00     0.210 HD
ENDBRANCH  28  34
BRANCH  29  36
HETATM   36  O7  UNL     1       2.436   4.028  10.416  1.00  0.00    -0.390 OA
HETATM   37  H52 UNL     1       2.245   3.591  11.270  1.00  0.00     0.210 HD
ENDBRANCH  29  36
BRANCH  30  38
HETATM   38  O8  UNL     1       0.804   4.920  12.593  1.00  0.00    -0.388 OA
HETATM   39  H54 UNL     1      -0.053   5.130  13.018  1.00  0.00     0.210 HD
ENDBRANCH  30  38
ENDBRANCH  24  25
ENDBRANCH  20  24
BRANCH   1  40
HETATM   40  C8  UNL     1      -2.256  15.315  19.214  1.00  0.00    -0.010 C 
HETATM   41  C9  UNL     1      -1.167  15.235  20.290  1.00  0.00     0.010 C 
BRANCH  40  42
HETATM   42  C7  UNL     1      -3.363  16.317  19.646  1.00  0.00     0.031 C 
BRANCH  42  43
HETATM   43  C6  UNL     1      -3.611  16.357  21.131  1.00  0.00    -0.027 C 
HETATM   44  C5  UNL     1      -4.788  16.030  21.693  1.00  0.00     0.006 C 
BRANCH  44  45
HETATM   45  C2  UNL     1      -5.142  16.024  23.168  1.00  0.00     0.070 C 
HETATM   46  C3  UNL     1      -3.974  15.758  24.133  1.00  0.00     0.050 C 
HETATM   47  C4  UNL     1      -6.200  14.929  23.391  1.00  0.00     0.050 C 
BRANCH  45  48
HETATM   48  O1  UNL     1      -5.812  17.259  23.479  1.00  0.00    -0.382 OA
HETATM   49  C1  UNL     1      -5.026  18.250  24.129  1.00  0.00     0.202 C 
ENDBRANCH  45  48
ENDBRANCH  44  45
ENDBRANCH  42  43
ENDBRANCH  40  42
ENDBRANCH   1  40
TORSDOF 12
ENDMDL
MODEL 3
REMARK minimizedAffinity -8.91018486
REMARK CNNscore 0.456847996
REMARK CNNaffinity 7.38398504
REMARK  12 active torsions:
REMARK  status: ('A' for Active; 'I' for Inactive)
REMARK    1  A    between atoms: O1_2  and  C2_3 
REMARK    2  A    between atoms: C2_3  and  C5_6 
REMARK    3  A    between atoms: C6_7  and  C7_8 
REMARK    4  A    between atoms: C7_8  and  C8_9 
REMARK    5  A    between atoms: C8_9  and  C10_11 
REMARK    6  A    between atoms: C28_30  and  O3_31 
REMARK    7  A    between atoms: O3_31  and  C29_32 
REMARK    8  A    between atoms: C30_34  and  C31_35 
REMARK    9  A    between atoms: C31_35  and  O5_36 
REMARK   10  A    between atoms: C32_37  and  O6_38 
REMARK   11  A    between atoms: C33_39  and  O7_40 
REMARK   12  A    between atoms: C34_41  and  O8_42 
ROOT
HETATM    1  C10 UNL     1      -6.356   4.520  13.878  1.00  0.00    -0.002 C 
HETATM    2  C11 UNL     1      -6.548   4.022  12.407  1.00  0.00     0.006 C 
HETATM    3  C12 UNL     1      -5.241   4.307  11.639  1.00  0.00     0.011 C 
HETATM    4  C13 UNL     1      -4.221   4.644  12.739  1.00  0.00    -0.029 C 
HETATM    5  C14 UNL     1      -3.747   3.265  13.303  1.00  0.00     0.016 C 
HETATM    6  C15 UNL     1      -3.010   5.512  12.292  1.00  0.00     0.028 C 
HETATM    7  C16 UNL     1      -2.125   4.916  11.225  1.00  0.00    -0.021 C 
HETATM    8  C17 UNL     1      -0.806   5.166  11.223  1.00  0.00     0.008 C 
HETATM    9  C18 UNL     1      -0.139   6.088  12.246  1.00  0.00     0.092 C 
HETATM   10  O2  UNL     1       0.161   5.183  13.333  1.00  0.00    -0.374 OA
HETATM   11  C19 UNL     1      -1.097   4.984  14.057  1.00  0.00     0.179 C 
HETATM   12  C20 UNL     1      -2.146   6.018  13.509  1.00  0.00    -0.004 C 
HETATM   13  C21 UNL     1      -3.017   6.588  14.655  1.00  0.00     0.014 C 
HETATM   14  C22 UNL     1      -4.288   5.780  14.995  1.00  0.00     0.011 C 
HETATM   15  C23 UNL     1      -5.128   5.476  13.738  1.00  0.00    -0.032 C 
HETATM   16  C24 UNL     1      -5.636   6.838  13.162  1.00  0.00     0.016 C 
HETATM   17  C25 UNL     1      -1.112   7.027  12.993  1.00  0.00     0.036 C 
HETATM   18  C26 UNL     1      -1.475   8.230  12.147  1.00  0.00     0.011 C 
HETATM   19  C27 UNL     1      -0.213   9.089  11.959  1.00  0.00     0.033 C 
HETATM   20  C28 UNL     1       1.117   8.343  12.250  1.00  0.00     0.136 C 
HETATM   21  C35 UNL     1       1.111   6.878  11.680  1.00  0.00     0.014 C 
HETATM   22  C36 UNL     1       2.423   6.171  12.081  1.00  0.00     0.021 C 
HETATM   23  C37 UNL     1       1.112   6.976  10.127  1.00  0.00     0.021 C 
ENDROOT
BRANCH  20  24
HETATM   24  O3  UNL     1       2.224   9.068  11.688  1.00  0.00    -0.352 OA
BRANCH  24  25
HETATM   25  C29 UNL     1       3.294   9.319  12.605  1.00  0.00     0.292 C 
HETATM   26  O4  UNL     1       4.258   8.274  12.580  1.00  0.00    -0.348 OA
HETATM   27  C30 UNL     1       5.346   8.490  13.493  1.00  0.00     0.179 C 
HETATM   28  C32 UNL     1       4.826   8.551  14.935  1.00  0.00     0.180 C 
HETATM   29  C33 UNL     1       3.739   9.622  15.048  1.00  0.00     0.183 C 
HETATM   30  C34 UNL     1       2.652   9.405  14.002  1.00  0.00     0.204 C 
BRANCH  27  31
HETATM   31  C31 UNL     1       6.358   7.346  13.321  1.00  0.00     0.198 C 
BRANCH  31  32
HETATM   32  O5  UNL     1       6.283   6.430  14.419  1.00  0.00    -0.398 OA
HETATM   33  H48 UNL     1       5.397   6.030  14.402  1.00  0.00     0.209 HD
ENDBRANCH  31  32
ENDBRANCH  27  31
BRANCH  28  34
HETATM   34  O6  UNL     1       5.883   8.864  15.845  1.00  0.00    -0.390 OA
HETATM   35  H50 UNL     1       5.436   9.056  16.698  1.00  0.00     0.210 HD
ENDBRANCH  28  34
BRANCH  29  36
HETATM   36  O7  UNL     1       3.179   9.585  16.371  1.00  0.00    -0.390 OA
HETATM   37  H52 UNL     1       2.385  10.155  16.326  1.00  0.00     0.210 HD
ENDBRANCH  29  36
BRANCH  30  38
HETATM   38  O8  UNL     1       1.707  10.482  14.084  1.00  0.00    -0.388 OA
HETATM   39  H54 UNL     1       1.108  10.351  13.320  1.00  0.00     0.210 HD
ENDBRANCH  30  38
ENDBRANCH  24  25
ENDBRANCH  20  24
BRANCH   1  40
HETATM   40  C8  UNL     1      -7.695   5.032  14.493  1.00  0.00    -0.010 C 
HETATM   41  C9  UNL     1      -8.627   5.628  13.431  1.00  0.00     0.010 C 
BRANCH  40  42
HETATM   42  C7  UNL     1      -7.407   6.080  15.603  1.00  0.00     0.031 C 
BRANCH  42  43
HETATM   43  C6  UNL     1      -8.549   7.027  15.866  1.00  0.00    -0.027 C 
HETATM   44  C5  UNL     1      -8.584   8.289  15.404  1.00  0.00     0.006 C 
BRANCH  44  45
HETATM   45  C2  UNL     1      -9.683   9.318  15.598  1.00  0.00     0.070 C 
HETATM   46  C3  UNL     1     -10.471   9.211  16.914  1.00  0.00     0.050 C 
HETATM   47  C4  UNL     1     -10.677   9.166  14.434  1.00  0.00     0.050 C 
BRANCH  45  48
HETATM   48  O1  UNL     1      -9.111  10.628  15.430  1.00  0.00    -0.382 OA
HETATM   49  C1  UNL     1      -9.993  11.638  14.955  1.00  0.00     0.202 C 
ENDBRANCH  45  48
ENDBRANCH  44  45
ENDBRANCH  42  43
ENDBRANCH  40  42
ENDBRANCH   1  40
TORSDOF 12
ENDMDL
MODEL 4
REMARK minimizedAffinity -7.14497137
REMARK CNNscore 0.419732183
REMARK CNNaffinity 6.62243986
REMARK  12 active torsions:
REMARK  status: ('A' for Active; 'I' for Inactive)
REMARK    1  A    between atoms: O1_2  and  C2_3 
REMARK    2  A    between atoms: C2_3  and  C5_6 
REMARK    3  A    between atoms: C6_7  and  C7_8 
REMARK    4  A    between atoms: C7_8  and  C8_9 
REMARK    5  A    between atoms: C8_9  and  C10_11 
REMARK    6  A    between atoms: C28_30  and  O3_31 
REMARK    7  A    between atoms: O3_31  and  C29_32 
REMARK    8  A    between atoms: C30_34  and  C31_35 
REMARK    9  A    between atoms: C31_35  and  O5_36 
REMARK   10  A    between atoms: C32_37  and  O6_38 
REMARK   11  A    between atoms: C33_39  and  O7_40 
REMARK   12  A    between atoms: C34_41  and  O8_42 
ROOT
HETATM    1  C10 UNL     1      -4.046 -10.918   6.460  1.00  0.00    -0.002 C 
HETATM    2  C11 UNL     1      -4.817 -12.248   6.756  1.00  0.00     0.006 C 
HETATM    3  C12 UNL     1      -5.338 -12.798   5.412  1.00  0.00     0.011 C 
HETATM    4  C13 UNL     1      -4.585 -11.980   4.350  1.00  0.00    -0.029 C 
HETATM    5  C14 UNL     1      -3.176 -12.647   4.232  1.00  0.00     0.016 C 
HETATM    6  C15 UNL     1      -5.277 -11.882   2.959  1.00  0.00     0.028 C 
HETATM    7  C16 UNL     1      -5.502 -13.188   2.237  1.00  0.00    -0.021 C 
HETATM    8  C17 UNL     1      -5.440 -13.239   0.897  1.00  0.00     0.008 C 
HETATM    9  C18 UNL     1      -5.194 -12.000   0.035  1.00  0.00     0.092 C 
HETATM   10  O2  UNL     1      -3.751 -11.943  -0.026  1.00  0.00    -0.374 OA
HETATM   11  C19 UNL     1      -3.311 -11.371   1.248  1.00  0.00     0.179 C 
HETATM   12  C20 UNL     1      -4.579 -10.837   2.009  1.00  0.00    -0.004 C 
HETATM   13  C21 UNL     1      -4.277  -9.498   2.724  1.00  0.00     0.014 C 
HETATM   14  C22 UNL     1      -3.713  -9.616   4.156  1.00  0.00     0.011 C 
HETATM   15  C23 UNL     1      -4.571 -10.551   5.034  1.00  0.00    -0.032 C 
HETATM   16  C24 UNL     1      -5.983  -9.898   5.190  1.00  0.00     0.016 C 
HETATM   17  C25 UNL     1      -5.445 -10.657   0.755  1.00  0.00     0.036 C 
HETATM   18  C26 UNL     1      -6.923 -10.327   0.806  1.00  0.00     0.011 C 
HETATM   19  C27 UNL     1      -7.411 -10.066  -0.629  1.00  0.00     0.033 C 
HETATM   20  C28 UNL     1      -6.472 -10.620  -1.734  1.00  0.00     0.136 C 
HETATM   21  C35 UNL     1      -5.914 -12.046  -1.375  1.00  0.00     0.014 C 
HETATM   22  C36 UNL     1      -4.924 -12.494  -2.471  1.00  0.00     0.021 C 
HETATM   23  C37 UNL     1      -7.106 -13.044  -1.414  1.00  0.00     0.021 C 
ENDROOT
BRANCH  20  24
HETATM   24  O3  UNL     1      -7.171 -10.685  -2.989  1.00  0.00    -0.352 OA
BRANCH  24  25
HETATM   25  C29 UNL     1      -7.186  -9.455  -3.721  1.00  0.00     0.292 C 
HETATM   26  O4  UNL     1      -8.188  -8.572  -3.234  1.00  0.00    -0.348 OA
HETATM   27  C30 UNL     1      -8.237  -7.326  -3.949  1.00  0.00     0.179 C 
HETATM   28  C32 UNL     1      -8.573  -7.574  -5.426  1.00  0.00     0.180 C 
HETATM   29  C33 UNL     1      -7.570  -8.561  -6.027  1.00  0.00     0.183 C 
HETATM   30  C34 UNL     1      -7.486  -9.829  -5.185  1.00  0.00     0.204 C 
BRANCH  27  31
HETATM   31  C31 UNL     1      -9.293  -6.427  -3.287  1.00  0.00     0.198 C 
BRANCH  31  32
HETATM   32  O5  UNL     1      -9.225  -5.095  -3.807  1.00  0.00    -0.398 OA
HETATM   33  H48 UNL     1      -9.445  -5.142  -4.752  1.00  0.00     0.209 HD
ENDBRANCH  31  32
ENDBRANCH  27  31
BRANCH  28  34
HETATM   34  O6  UNL     1      -8.527  -6.354  -6.170  1.00  0.00    -0.390 OA
HETATM   35  H50 UNL     1      -8.576  -6.628  -7.111  1.00  0.00     0.210 HD
ENDBRANCH  28  34
BRANCH  29  36
HETATM   36  O7  UNL     1      -7.968  -8.874  -7.371  1.00  0.00    -0.390 OA
HETATM   37  H52 UNL     1      -7.404  -9.630  -7.632  1.00  0.00     0.210 HD
ENDBRANCH  29  36
BRANCH  30  38
HETATM   38  O8  UNL     1      -6.470 -10.683  -5.732  1.00  0.00    -0.388 OA
HETATM   39  H54 UNL     1      -6.382 -11.416  -5.088  1.00  0.00     0.210 HD
ENDBRANCH  30  38
ENDBRANCH  24  25
ENDBRANCH  20  24
BRANCH   1  40
HETATM   40  C8  UNL     1      -4.173  -9.905   7.639  1.00  0.00    -0.010 C 
HETATM   41  C9  UNL     1      -2.916  -9.040   7.794  1.00  0.00     0.010 C 
BRANCH  40  42
HETATM   42  C7  UNL     1      -4.470 -10.662   8.963  1.00  0.00     0.031 C 
BRANCH  42  43
HETATM   43  C6  UNL     1      -5.723 -10.205   9.665  1.00  0.00    -0.027 C 
HETATM   44  C5  UNL     1      -5.716  -9.413  10.750  1.00  0.00     0.006 C 
BRANCH  44  45
HETATM   45  C2  UNL     1      -6.911  -8.888  11.524  1.00  0.00     0.070 C 
HETATM   46  C3  UNL     1      -6.779  -7.453  12.062  1.00  0.00     0.050 C 
HETATM   47  C4  UNL     1      -7.141  -9.825  12.722  1.00  0.00     0.050 C 
BRANCH  45  48
HETATM   48  O1  UNL     1      -8.083  -9.037  10.703  1.00  0.00    -0.382 OA
HETATM   49  C1  UNL     1      -9.217  -9.621  11.334  1.00  0.00     0.202 C 
ENDBRANCH  45  48
ENDBRANCH  44  45
ENDBRANCH  42  43
ENDBRANCH  40  42
ENDBRANCH   1  40
TORSDOF 12
ENDMDL
MODEL 5
REMARK minimizedAffinity -7.53825998
REMARK CNNscore 0.383862078
REMARK CNNaffinity 6.56752968
REMARK  12 active torsions:
REMARK  status: ('A' for Active; 'I' for Inactive)
REMARK    1  A    between atoms: O1_2  and  C2_3 
REMARK    2  A    between atoms: C2_3  and  C5_6 
REMARK    3  A    between atoms: C6_7  and  C7_8 
REMARK    4  A    between atoms: C7_8  and  C8_9 
REMARK    5  A    between atoms: C8_9  and  C10_11 
REMARK    6  A    between atoms: C28_30  and  O3_31 
REMARK    7  A    between atoms: O3_31  and  C29_32 
REMARK    8  A    between atoms: C30_34  and  C31_35 
REMARK    9  A    between atoms: C31_35  and  O5_36 
REMARK   10  A    between atoms: C32_37  and  O6_38 
REMARK   11  A    between atoms: C33_39  and  O7_40 
REMARK   12  A    between atoms: C34_41  and  O8_42 
ROOT
HETATM    1  C10 UNL     1      -7.214  15.702  22.748  1.00  0.00    -0.002 C 
HETATM    2  C11 UNL     1      -5.934  16.006  23.596  1.00  0.00     0.006 C 
HETATM    3  C12 UNL     1      -4.707  15.578  22.765  1.00  0.00     0.011 C 
HETATM    4  C13 UNL     1      -5.266  15.356  21.350  1.00  0.00    -0.029 C 
HETATM    5  C14 UNL     1      -5.366  16.781  20.715  1.00  0.00     0.016 C 
HETATM    6  C15 UNL     1      -4.443  14.395  20.443  1.00  0.00     0.028 C 
HETATM    7  C16 UNL     1      -3.023  14.814  20.150  1.00  0.00    -0.021 C 
HETATM    8  C17 UNL     1      -2.462  14.522  18.966  1.00  0.00     0.008 C 
HETATM    9  C18 UNL     1      -3.190  13.722  17.884  1.00  0.00     0.092 C 
HETATM   10  O2  UNL     1      -3.895  14.752  17.154  1.00  0.00    -0.374 OA
HETATM   11  C19 UNL     1      -5.072  15.089  17.958  1.00  0.00     0.179 C 
HETATM   12  C20 UNL     1      -5.198  14.026  19.111  1.00  0.00    -0.004 C 
HETATM   13  C21 UNL     1      -6.677  13.644  19.357  1.00  0.00     0.014 C 
HETATM   14  C22 UNL     1      -7.440  14.532  20.362  1.00  0.00     0.011 C 
HETATM   15  C23 UNL     1      -6.666  14.695  21.686  1.00  0.00    -0.032 C 
HETATM   16  C24 UNL     1      -6.568  13.287  22.359  1.00  0.00     0.016 C 
HETATM   17  C25 UNL     1      -4.413  12.924  18.389  1.00  0.00     0.036 C 
HETATM   18  C26 UNL     1      -3.989  11.632  19.057  1.00  0.00     0.011 C 
HETATM   19  C27 UNL     1      -3.371  10.714  17.989  1.00  0.00     0.033 C 
HETATM   20  C28 UNL     1      -2.932  11.446  16.693  1.00  0.00     0.136 C 
HETATM   21  C35 UNL     1      -2.235  12.822  16.999  1.00  0.00     0.014 C 
HETATM   22  C36 UNL     1      -1.905  13.532  15.668  1.00  0.00     0.021 C 
HETATM   23  C37 UNL     1      -0.875  12.519  17.692  1.00  0.00     0.021 C 
ENDROOT
BRANCH  20  24
HETATM   24  O3  UNL     1      -2.034  10.616  15.936  1.00  0.00    -0.352 OA
BRANCH  24  25
HETATM   25  C29 UNL     1      -2.681   9.748  14.998  1.00  0.00     0.292 C 
HETATM   26  O4  UNL     1      -3.149   8.561  15.625  1.00  0.00    -0.348 OA
HETATM   27  C30 UNL     1      -3.801   7.663  14.712  1.00  0.00     0.179 C 
HETATM   28  C32 UNL     1      -2.820   7.208  13.623  1.00  0.00     0.180 C 
HETATM   29  C33 UNL     1      -2.222   8.430  12.922  1.00  0.00     0.183 C 
HETATM   30  C34 UNL     1      -1.623   9.396  13.936  1.00  0.00     0.204 C 
BRANCH  27  31
HETATM   31  C31 UNL     1      -4.333   6.462  15.510  1.00  0.00     0.198 C 
BRANCH  31  32
HETATM   32  O5  UNL     1      -3.373   6.029  16.479  1.00  0.00    -0.398 OA
HETATM   33  H48 UNL     1      -3.251   6.757  17.111  1.00  0.00     0.209 HD
ENDBRANCH  31  32
ENDBRANCH  27  31
BRANCH  28  34
HETATM   34  O6  UNL     1      -3.480   6.393  12.651  1.00  0.00    -0.390 OA
HETATM   35  H50 UNL     1      -2.836   6.300  11.917  1.00  0.00     0.210 HD
ENDBRANCH  28  34
BRANCH  29  36
HETATM   36  O7  UNL     1      -1.220   7.992  11.991  1.00  0.00    -0.390 OA
HETATM   37  H52 UNL     1      -0.757   8.809  11.713  1.00  0.00     0.210 HD
ENDBRANCH  29  36
BRANCH  30  38
HETATM   38  O8  UNL     1      -1.158  10.566  13.245  1.00  0.00    -0.388 OA
HETATM   39  H54 UNL     1      -0.897  11.191  13.952  1.00  0.00     0.210 HD
ENDBRANCH  30  38
ENDBRANCH  24  25
ENDBRANCH  20  24
BRANCH   1  40
HETATM   40  C8  UNL     1      -8.426  15.322  23.653  1.00  0.00    -0.010 C 
HETATM   41  C9  UNL     1      -8.564  16.260  24.858  1.00  0.00     0.010 C 
BRANCH  40  42
HETATM   42  C7  UNL     1      -8.294  13.849  24.132  1.00  0.00     0.031 C 
BRANCH  42  43
HETATM   43  C6  UNL     1      -9.380  12.937  23.623  1.00  0.00    -0.027 C 
HETATM   44  C5  UNL     1     -10.201  12.243  24.430  1.00  0.00     0.006 C 
BRANCH  44  45
HETATM   45  C2  UNL     1     -11.328  11.311  24.027  1.00  0.00     0.070 C 
HETATM   46  C3  UNL     1     -10.944  10.181  23.057  1.00  0.00     0.050 C 
HETATM   47  C4  UNL     1     -12.422  12.161  23.357  1.00  0.00     0.050 C 
BRANCH  45  48
HETATM   48  O1  UNL     1     -11.939  10.794  25.223  1.00  0.00    -0.382 OA
HETATM   49  C1  UNL     1     -13.200  10.157  25.056  1.00  0.00     0.202 C 
ENDBRANCH  45  48
ENDBRANCH  44  45
ENDBRANCH  42  43
ENDBRANCH  40  42
ENDBRANCH   1  40
TORSDOF 12
ENDMDL
MODEL 6
REMARK minimizedAffinity -7.22574568
REMARK CNNscore 0.33565858
REMARK CNNaffinity 7.13166189
REMARK  12 active torsions:
REMARK  status: ('A' for Active; 'I' for Inactive)
REMARK    1  A    between atoms: O1_2  and  C2_3 
REMARK    2  A    between atoms: C2_3  and  C5_6 
REMARK    3  A    between atoms: C6_7  and  C7_8 
REMARK    4  A    between atoms: C7_8  and  C8_9 
REMARK    5  A    between atoms: C8_9  and  C10_11 
REMARK    6  A    between atoms: C28_30  and  O3_31 
REMARK    7  A    between atoms: O3_31  and  C29_32 
REMARK    8  A    between atoms: C30_34  and  C31_35 
REMARK    9  A    between atoms: C31_35  and  O5_36 
REMARK   10  A    between atoms: C32_37  and  O6_38 
REMARK   11  A    between atoms: C33_39  and  O7_40 
REMARK   12  A    between atoms: C34_41  and  O8_42 
ROOT
HETATM    1  C10 UNL     1     -10.814  -7.860  -5.043  1.00  0.00    -0.002 C 
HETATM    2  C11 UNL     1     -11.567  -9.222  -5.205  1.00  0.00     0.006 C 
HETATM    3  C12 UNL     1     -11.510  -9.955  -3.849  1.00  0.00     0.011 C 
HETATM    4  C13 UNL     1     -11.035  -8.881  -2.857  1.00  0.00    -0.029 C 
HETATM    5  C14 UNL     1     -12.309  -8.047  -2.505  1.00  0.00     0.016 C 
HETATM    6  C15 UNL     1     -10.340  -9.412  -1.570  1.00  0.00     0.028 C 
HETATM    7  C16 UNL     1     -11.177 -10.300  -0.683  1.00  0.00    -0.021 C 
HETATM    8  C17 UNL     1     -11.012 -10.274   0.649  1.00  0.00     0.008 C 
HETATM    9  C18 UNL     1      -9.956  -9.403   1.333  1.00  0.00     0.092 C 
HETATM   10  O2  UNL     1     -10.657  -8.153   1.522  1.00  0.00    -0.374 OA
HETATM   11  C19 UNL     1     -10.642  -7.476   0.223  1.00  0.00     0.179 C 
HETATM   12  C20 UNL     1      -9.667  -8.263  -0.728  1.00  0.00    -0.004 C 
HETATM   13  C21 UNL     1      -8.842  -7.293  -1.606  1.00  0.00     0.014 C 
HETATM   14  C22 UNL     1      -9.494  -6.881  -2.943  1.00  0.00     0.011 C 
HETATM   15  C23 UNL     1      -9.977  -8.105  -3.747  1.00  0.00    -0.032 C 
HETATM   16  C24 UNL     1      -8.719  -8.950  -4.134  1.00  0.00     0.016 C 
HETATM   17  C25 UNL     1      -8.837  -8.897   0.396  1.00  0.00     0.036 C 
HETATM   18  C26 UNL     1      -7.795  -9.970   0.155  1.00  0.00     0.011 C 
HETATM   19  C27 UNL     1      -7.063 -10.242   1.481  1.00  0.00     0.033 C 
HETATM   20  C28 UNL     1      -7.820  -9.744   2.741  1.00  0.00     0.136 C 
HETATM   21  C35 UNL     1      -9.363 -10.034   2.658  1.00  0.00     0.014 C 
HETATM   22  C36 UNL     1     -10.060  -9.437   3.899  1.00  0.00     0.021 C 
HETATM   23  C37 UNL     1      -9.559 -11.576   2.734  1.00  0.00     0.021 C 
ENDROOT
BRANCH  20  24
HETATM   24  O3  UNL     1      -7.281 -10.368   3.920  1.00  0.00    -0.352 OA
BRANCH  24  25
HETATM   25  C29 UNL     1      -5.952  -9.953   4.253  1.00  0.00     0.292 C 
HETATM   26  O4  UNL     1      -4.995 -10.949   3.915  1.00  0.00    -0.348 OA
HETATM   27  C30 UNL     1      -3.649 -10.569   4.241  1.00  0.00     0.179 C 
HETATM   28  C32 UNL     1      -3.510 -10.344   5.753  1.00  0.00     0.180 C 
HETATM   29  C33 UNL     1      -4.543  -9.316   6.220  1.00  0.00     0.183 C 
HETATM   30  C34 UNL     1      -5.945  -9.716   5.775  1.00  0.00     0.204 C 
BRANCH  27  31
HETATM   31  C31 UNL     1      -2.701 -11.679   3.760  1.00  0.00     0.198 C 
BRANCH  31  32
HETATM   32  O5  UNL     1      -1.497 -11.123   3.221  1.00  0.00    -0.398 OA
HETATM   33  H48 UNL     1      -1.044 -10.657   3.944  1.00  0.00     0.209 HD
ENDBRANCH  31  32
ENDBRANCH  27  31
BRANCH  28  34
HETATM   34  O6  UNL     1      -2.202  -9.869   6.079  1.00  0.00    -0.390 OA
HETATM   35  H50 UNL     1      -2.260  -9.588   7.017  1.00  0.00     0.210 HD
ENDBRANCH  28  34
BRANCH  29  36
HETATM   36  O7  UNL     1      -4.481  -9.207   7.651  1.00  0.00    -0.390 OA
HETATM   37  H52 UNL     1      -5.270  -8.683   7.899  1.00  0.00     0.210 HD
ENDBRANCH  29  36
BRANCH  30  38
HETATM   38  O8  UNL     1      -6.865  -8.680   6.153  1.00  0.00    -0.388 OA
HETATM   39  H54 UNL     1      -7.716  -8.935   5.741  1.00  0.00     0.210 HD
ENDBRANCH  30  38
ENDBRANCH  24  25
ENDBRANCH  20  24
BRANCH   1  40
HETATM   40  C8  UNL     1     -10.117  -7.426  -6.369  1.00  0.00    -0.010 C 
HETATM   41  C9  UNL     1      -9.393  -8.594  -7.049  1.00  0.00     0.010 C 
BRANCH  40  42
HETATM   42  C7  UNL     1      -9.121  -6.265  -6.094  1.00  0.00     0.031 C 
BRANCH  42  43
HETATM   43  C6  UNL     1      -9.673  -4.897  -6.397  1.00  0.00    -0.027 C 
HETATM   44  C5  UNL     1      -9.595  -3.863  -5.541  1.00  0.00     0.006 C 
BRANCH  44  45
HETATM   45  C2  UNL     1     -10.104  -2.448  -5.747  1.00  0.00     0.070 C 
HETATM   46  C3  UNL     1     -11.569  -2.202  -5.351  1.00  0.00     0.050 C 
HETATM   47  C4  UNL     1      -9.952  -2.109  -7.240  1.00  0.00     0.050 C 
BRANCH  45  48
HETATM   48  O1  UNL     1      -9.215  -1.543  -5.068  1.00  0.00    -0.382 OA
HETATM   49  C1  UNL     1      -7.864  -1.972  -4.939  1.00  0.00     0.202 C 
ENDBRANCH  45  48
ENDBRANCH  44  45
ENDBRANCH  42  43
ENDBRANCH  40  42
ENDBRANCH   1  40
TORSDOF 12
ENDMDL
MODEL 7
REMARK minimizedAffinity -7.51777411
REMARK CNNscore 0.327957898
REMARK CNNaffinity 6.55954218
REMARK  12 active torsions:
REMARK  status: ('A' for Active; 'I' for Inactive)
REMARK    1  A    between atoms: O1_2  and  C2_3 
REMARK    2  A    between atoms: C2_3  and  C5_6 
REMARK    3  A    between atoms: C6_7  and  C7_8 
REMARK    4  A    between atoms: C7_8  and  C8_9 
REMARK    5  A    between atoms: C8_9  and  C10_11 
REMARK    6  A    between atoms: C28_30  and  O3_31 
REMARK    7  A    between atoms: O3_31  and  C29_32 
REMARK    8  A    between atoms: C30_34  and  C31_35 
REMARK    9  A    between atoms: C31_35  and  O5_36 
REMARK   10  A    between atoms: C32_37  and  O6_38 
REMARK   11  A    between atoms: C33_39  and  O7_40 
REMARK   12  A    between atoms: C34_41  and  O8_42 
ROOT
HETATM    1  C10 UNL     1      -7.254  15.451  23.170  1.00  0.00    -0.002 C 
HETATM    2  C11 UNL     1      -5.943  15.841  23.932  1.00  0.00     0.006 C 
HETATM    3  C12 UNL     1      -4.757  15.613  22.973  1.00  0.00     0.011 C 
HETATM    4  C13 UNL     1      -5.413  15.426  21.596  1.00  0.00    -0.029 C 
HETATM    5  C14 UNL     1      -5.723  16.869  21.083  1.00  0.00     0.016 C 
HETATM    6  C15 UNL     1      -4.575  14.629  20.553  1.00  0.00     0.028 C 
HETATM    7  C16 UNL     1      -3.241  15.226  20.179  1.00  0.00    -0.021 C 
HETATM    8  C17 UNL     1      -2.760  15.080  18.934  1.00  0.00     0.008 C 
HETATM    9  C18 UNL     1      -3.492  14.278  17.856  1.00  0.00     0.092 C 
HETATM   10  O2  UNL     1      -4.366  15.269  17.268  1.00  0.00    -0.374 OA
HETATM   11  C19 UNL     1      -5.496  15.413  18.189  1.00  0.00     0.179 C 
HETATM   12  C20 UNL     1      -5.402  14.268  19.262  1.00  0.00    -0.004 C 
HETATM   13  C21 UNL     1      -6.804  13.703  19.597  1.00  0.00     0.014 C 
HETATM   14  C22 UNL     1      -7.565  14.428  20.727  1.00  0.00     0.011 C 
HETATM   15  C23 UNL     1      -6.698  14.587  21.992  1.00  0.00    -0.032 C 
HETATM   16  C24 UNL     1      -6.389  13.157  22.543  1.00  0.00     0.016 C 
HETATM   17  C25 UNL     1      -4.571  13.314  18.395  1.00  0.00     0.036 C 
HETATM   18  C26 UNL     1      -3.952  12.036  18.925  1.00  0.00     0.011 C 
HETATM   19  C27 UNL     1      -3.337  11.269  17.742  1.00  0.00     0.033 C 
HETATM   20  C28 UNL     1      -3.097  12.133  16.475  1.00  0.00     0.136 C 
HETATM   21  C35 UNL     1      -2.527  13.555  16.829  1.00  0.00     0.014 C 
HETATM   22  C36 UNL     1      -2.397  14.387  15.535  1.00  0.00     0.021 C 
HETATM   23  C37 UNL     1      -1.086  13.363  17.384  1.00  0.00     0.021 C 
ENDROOT
BRANCH  20  24
HETATM   24  O3  UNL     1      -2.187  11.464  15.585  1.00  0.00    -0.352 OA
BRANCH  24  25
HETATM   25  C29 UNL     1      -1.612  10.266  16.118  1.00  0.00     0.292 C 
HETATM   26  O4  UNL     1      -0.193  10.342  16.158  1.00  0.00    -0.348 OA
HETATM   27  C30 UNL     1       0.420   9.153  16.684  1.00  0.00     0.179 C 
HETATM   28  C32 UNL     1       0.086   7.946  15.798  1.00  0.00     0.180 C 
HETATM   29  C33 UNL     1      -1.432   7.814  15.654  1.00  0.00     0.183 C 
HETATM   30  C34 UNL     1      -2.048   9.125  15.181  1.00  0.00     0.204 C 
BRANCH  27  31
HETATM   31  C31 UNL     1       1.938   9.380  16.755  1.00  0.00     0.198 C 
BRANCH  31  32
HETATM   32  O5  UNL     1       2.362   9.568  18.109  1.00  0.00    -0.398 OA
HETATM   33  H48 UNL     1       2.177   8.742  18.587  1.00  0.00     0.209 HD
ENDBRANCH  31  32
ENDBRANCH  27  31
BRANCH  28  34
HETATM   34  O6  UNL     1       0.605   6.740  16.363  1.00  0.00    -0.390 OA
HETATM   35  H50 UNL     1       0.199   6.017  15.837  1.00  0.00     0.210 HD
ENDBRANCH  28  34
BRANCH  29  36
HETATM   36  O7  UNL     1      -1.726   6.756  14.728  1.00  0.00    -0.390 OA
HETATM   37  H52 UNL     1      -2.683   6.839  14.543  1.00  0.00     0.210 HD
ENDBRANCH  29  36
BRANCH  30  38
HETATM   38  O8  UNL     1      -3.477   8.983  15.150  1.00  0.00    -0.388 OA
HETATM   39  H54 UNL     1      -3.816   9.881  14.956  1.00  0.00     0.210 HD
ENDBRANCH  30  38
ENDBRANCH  24  25
ENDBRANCH  20  24
BRANCH   1  40
HETATM   40  C8  UNL     1      -8.332  14.875  24.138  1.00  0.00    -0.010 C 
HETATM   41  C9  UNL     1      -8.184  15.426  25.561  1.00  0.00     0.010 C 
BRANCH  40  42
HETATM   42  C7  UNL     1      -8.260  13.322  24.154  1.00  0.00     0.031 C 
BRANCH  42  43
HETATM   43  C6  UNL     1      -9.596  12.647  24.331  1.00  0.00    -0.027 C 
HETATM   44  C5  UNL     1     -10.049  11.681  23.513  1.00  0.00     0.006 C 
BRANCH  44  45
HETATM   45  C2  UNL     1     -11.364  10.930  23.605  1.00  0.00     0.070 C 
HETATM   46  C3  UNL     1     -11.271   9.402  23.461  1.00  0.00     0.050 C 
HETATM   47  C4  UNL     1     -12.283  11.457  22.489  1.00  0.00     0.050 C 
BRANCH  45  48
HETATM   48  O1  UNL     1     -12.017  11.306  24.832  1.00  0.00    -0.382 OA
HETATM   49  C1  UNL     1     -13.162  10.542  25.190  1.00  0.00     0.202 C 
ENDBRANCH  45  48
ENDBRANCH  44  45
ENDBRANCH  42  43
ENDBRANCH  40  42
ENDBRANCH   1  40
TORSDOF 12
ENDMDL
MODEL 8
REMARK minimizedAffinity -9.04890537
REMARK CNNscore 0.327299446
REMARK CNNaffinity 7.40633392
REMARK  12 active torsions:
REMARK  status: ('A' for Active; 'I' for Inactive)
REMARK    1  A    between atoms: O1_2  and  C2_3 
REMARK    2  A    between atoms: C2_3  and  C5_6 
REMARK    3  A    between atoms: C6_7  and  C7_8 
REMARK    4  A    between atoms: C7_8  and  C8_9 
REMARK    5  A    between atoms: C8_9  and  C10_11 
REMARK    6  A    between atoms: C28_30  and  O3_31 
REMARK    7  A    between atoms: O3_31  and  C29_32 
REMARK    8  A    between atoms: C30_34  and  C31_35 
REMARK    9  A    between atoms: C31_35  and  O5_36 
REMARK   10  A    between atoms: C32_37  and  O6_38 
REMARK   11  A    between atoms: C33_39  and  O7_40 
REMARK   12  A    between atoms: C34_41  and  O8_42 
ROOT
HETATM    1  C10 UNL     1      -7.156   6.789  15.177  1.00  0.00    -0.002 C 
HETATM    2  C11 UNL     1      -7.067   5.345  14.581  1.00  0.00     0.006 C 
HETATM    3  C12 UNL     1      -5.607   5.105  14.146  1.00  0.00     0.011 C 
HETATM    4  C13 UNL     1      -4.824   6.258  14.795  1.00  0.00    -0.029 C 
HETATM    5  C14 UNL     1      -4.594   5.823  16.278  1.00  0.00     0.016 C 
HETATM    6  C15 UNL     1      -3.479   6.631  14.106  1.00  0.00     0.028 C 
HETATM    7  C16 UNL     1      -2.435   5.542  14.056  1.00  0.00    -0.021 C 
HETATM    8  C17 UNL     1      -1.131   5.850  14.133  1.00  0.00     0.008 C 
HETATM    9  C18 UNL     1      -0.629   7.293  14.224  1.00  0.00     0.092 C 
HETATM   10  O2  UNL     1      -0.643   7.540  15.649  1.00  0.00    -0.374 OA
HETATM   11  C19 UNL     1      -2.039   7.808  16.002  1.00  0.00     0.179 C 
HETATM   12  C20 UNL     1      -2.860   7.966  14.670  1.00  0.00    -0.004 C 
HETATM   13  C21 UNL     1      -3.908   9.097  14.793  1.00  0.00     0.014 C 
HETATM   14  C22 UNL     1      -5.283   8.678  15.357  1.00  0.00     0.011 C 
HETATM   15  C23 UNL     1      -5.854   7.450  14.620  1.00  0.00    -0.032 C 
HETATM   16  C24 UNL     1      -6.116   7.861  13.135  1.00  0.00     0.016 C 
HETATM   17  C25 UNL     1      -1.661   8.360  13.798  1.00  0.00     0.036 C 
HETATM   18  C26 UNL     1      -1.736   8.482  12.289  1.00  0.00     0.011 C 
HETATM   19  C27 UNL     1      -0.398   9.047  11.782  1.00  0.00     0.033 C 
HETATM   20  C28 UNL     1       0.773   8.920  12.792  1.00  0.00     0.136 C 
HETATM   21  C35 UNL     1       0.773   7.529  13.526  1.00  0.00     0.014 C 
HETATM   22  C36 UNL     1       1.907   7.507  14.574  1.00  0.00     0.021 C 
HETATM   23  C37 UNL     1       1.116   6.438  12.472  1.00  0.00     0.021 C 
ENDROOT
BRANCH  20  24
HETATM   24  O3  UNL     1       2.030   9.100  12.117  1.00  0.00    -0.352 OA
BRANCH  24  25
HETATM   25  C29 UNL     1       2.777   7.894  11.924  1.00  0.00     0.292 C 
HETATM   26  O4  UNL     1       4.094   8.007  12.446  1.00  0.00    -0.348 OA
HETATM   27  C30 UNL     1       4.875   6.814  12.266  1.00  0.00     0.179 C 
HETATM   28  C32 UNL     1       5.038   6.506  10.772  1.00  0.00     0.180 C 
HETATM   29  C33 UNL     1       3.661   6.415  10.109  1.00  0.00     0.183 C 
HETATM   30  C34 UNL     1       2.836   7.662  10.402  1.00  0.00     0.204 C 
BRANCH  27  31
HETATM   31  C31 UNL     1       6.242   7.024  12.937  1.00  0.00     0.198 C 
BRANCH  31  32
HETATM   32  O5  UNL     1       6.306   6.332  14.189  1.00  0.00    -0.398 OA
HETATM   33  H48 UNL     1       6.226   5.382  13.999  1.00  0.00     0.209 HD
ENDBRANCH  31  32
ENDBRANCH  27  31
BRANCH  28  34
HETATM   34  O6  UNL     1       5.728   5.269  10.579  1.00  0.00    -0.390 OA
HETATM   35  H50 UNL     1       5.629   5.068   9.624  1.00  0.00     0.210 HD
ENDBRANCH  28  34
BRANCH  29  36
HETATM   36  O7  UNL     1       3.833   6.247   8.693  1.00  0.00    -0.390 OA
HETATM   37  H52 UNL     1       2.940   6.375   8.313  1.00  0.00     0.210 HD
ENDBRANCH  29  36
BRANCH  30  38
HETATM   38  O8  UNL     1       1.525   7.494   9.842  1.00  0.00    -0.388 OA
HETATM   39  H54 UNL     1       1.012   8.265  10.161  1.00  0.00     0.210 HD
ENDBRANCH  30  38
ENDBRANCH  24  25
ENDBRANCH  20  24
BRANCH   1  40
HETATM   40  C8  UNL     1      -8.551   7.436  14.913  1.00  0.00    -0.010 C 
HETATM   41  C9  UNL     1      -9.310   7.721  16.214  1.00  0.00     0.010 C 
BRANCH  40  42
HETATM   42  C7  UNL     1      -9.398   6.519  13.988  1.00  0.00     0.031 C 
BRANCH  42  43
HETATM   43  C6  UNL     1     -10.878   6.793  14.038  1.00  0.00    -0.027 C 
HETATM   44  C5  UNL     1     -11.400   8.032  14.039  1.00  0.00     0.006 C 
BRANCH  44  45
HETATM   45  C2  UNL     1     -12.867   8.421  14.076  1.00  0.00     0.070 C 
HETATM   46  C3  UNL     1     -13.598   8.140  15.399  1.00  0.00     0.050 C 
HETATM   47  C4  UNL     1     -13.586   7.642  12.961  1.00  0.00     0.050 C 
BRANCH  45  48
HETATM   48  O1  UNL     1     -12.979   9.804  13.695  1.00  0.00    -0.382 OA
HETATM   49  C1  UNL     1     -13.249  10.054  12.321  1.00  0.00     0.202 C 
ENDBRANCH  45  48
ENDBRANCH  44  45
ENDBRANCH  42  43
ENDBRANCH  40  42
ENDBRANCH   1  40
TORSDOF 12
ENDMDL
MODEL 9
REMARK minimizedAffinity -9.52232838
REMARK CNNscore 0.315254092
REMARK CNNaffinity 6.83931732
REMARK  12 active torsions:
REMARK  status: ('A' for Active; 'I' for Inactive)
REMARK    1  A    between atoms: O1_2  and  C2_3 
REMARK    2  A    between atoms: C2_3  and  C5_6 
REMARK    3  A    between atoms: C6_7  and  C7_8 
REMARK    4  A    between atoms: C7_8  and  C8_9 
REMARK    5  A    between atoms: C8_9  and  C10_11 
REMARK    6  A    between atoms: C28_30  and  O3_31 
REMARK    7  A    between atoms: O3_31  and  C29_32 
REMARK    8  A    between atoms: C30_34  and  C31_35 
REMARK    9  A    between atoms: C31_35  and  O5_36 
REMARK   10  A    between atoms: C32_37  and  O6_38 
REMARK   11  A    between atoms: C33_39  and  O7_40 
REMARK   12  A    between atoms: C34_41  and  O8_42 
ROOT
HETATM    1  C10 UNL     1      -3.091   7.470  13.837  1.00  0.00    -0.002 C 
HETATM    2  C11 UNL     1      -3.379   8.569  12.760  1.00  0.00     0.006 C 
HETATM    3  C12 UNL     1      -2.060   8.850  12.012  1.00  0.00     0.011 C 
HETATM    4  C13 UNL     1      -1.135   7.695  12.426  1.00  0.00    -0.029 C 
HETATM    5  C14 UNL     1      -1.546   6.488  11.522  1.00  0.00     0.016 C 
HETATM    6  C15 UNL     1       0.392   7.981  12.317  1.00  0.00     0.028 C 
HETATM    7  C16 UNL     1       0.908   8.308  10.937  1.00  0.00    -0.021 C 
HETATM    8  C17 UNL     1       2.143   7.931  10.570  1.00  0.00     0.008 C 
HETATM    9  C18 UNL     1       3.100   7.206  11.519  1.00  0.00     0.092 C 
HETATM   10  O2  UNL     1       2.751   5.818  11.316  1.00  0.00    -0.374 OA
HETATM   11  C19 UNL     1       1.524   5.590  12.083  1.00  0.00     0.179 C 
HETATM   12  C20 UNL     1       1.268   6.854  12.983  1.00  0.00    -0.004 C 
HETATM   13  C21 UNL     1       0.741   6.445  14.380  1.00  0.00     0.014 C 
HETATM   14  C22 UNL     1      -0.791   6.294  14.500  1.00  0.00     0.011 C 
HETATM   15  C23 UNL     1      -1.533   7.529  13.951  1.00  0.00    -0.032 C 
HETATM   16  C24 UNL     1      -1.158   8.752  14.850  1.00  0.00     0.016 C 
HETATM   17  C25 UNL     1       2.729   7.319  13.014  1.00  0.00     0.036 C 
HETATM   18  C26 UNL     1       3.165   8.651  13.591  1.00  0.00     0.011 C 
HETATM   19  C27 UNL     1       4.703   8.697  13.593  1.00  0.00     0.033 C 
HETATM   20  C28 UNL     1       5.375   7.664  12.650  1.00  0.00     0.136 C 
HETATM   21  C35 UNL     1       4.627   7.547  11.272  1.00  0.00     0.014 C 
HETATM   22  C36 UNL     1       5.295   6.444  10.423  1.00  0.00     0.021 C 
HETATM   23  C37 UNL     1       4.833   8.886  10.507  1.00  0.00     0.021 C 
ENDROOT
BRANCH  20  24
HETATM   24  O3  UNL     1       6.747   8.027  12.417  1.00  0.00    -0.352 OA
BRANCH  24  25
HETATM   25  C29 UNL     1       7.359   8.747  13.493  1.00  0.00     0.292 C 
HETATM   26  O4  UNL     1       8.475   9.504  13.044  1.00  0.00    -0.348 OA
HETATM   27  C30 UNL     1       9.119  10.237  14.099  1.00  0.00     0.179 C 
HETATM   28  C32 UNL     1       9.661   9.274  15.162  1.00  0.00     0.180 C 
HETATM   29  C33 UNL     1       8.531   8.376  15.672  1.00  0.00     0.183 C 
HETATM   30  C34 UNL     1       7.821   7.689  14.512  1.00  0.00     0.204 C 
BRANCH  27  31
HETATM   31  C31 UNL     1      10.252  11.076  13.486  1.00  0.00     0.198 C 
BRANCH  31  32
HETATM   32  O5  UNL     1      11.020  10.296  12.564  1.00  0.00    -0.398 OA
HETATM   33  H48 UNL     1      10.429  10.043  11.835  1.00  0.00     0.209 HD
ENDBRANCH  31  32
ENDBRANCH  27  31
BRANCH  28  34
HETATM   34  O6  UNL     1      10.216   9.993  16.266  1.00  0.00    -0.390 OA
HETATM   35  H50 UNL     1      10.370   9.316  16.959  1.00  0.00     0.210 HD
ENDBRANCH  28  34
BRANCH  29  36
HETATM   36  O7  UNL     1       9.077   7.402  16.575  1.00  0.00    -0.390 OA
HETATM   37  H52 UNL     1       8.355   6.759  16.722  1.00  0.00     0.210 HD
ENDBRANCH  29  36
BRANCH  30  38
HETATM   38  O8  UNL     1       6.714   6.933  15.028  1.00  0.00    -0.388 OA
HETATM   39  H54 UNL     1       6.233   6.616  14.235  1.00  0.00     0.210 HD
ENDBRANCH  30  38
ENDBRANCH  24  25
ENDBRANCH  20  24
BRANCH   1  40
HETATM   40  C8  UNL     1      -3.987   7.653  15.100  1.00  0.00    -0.010 C 
HETATM   41  C9  UNL     1      -4.160   6.344  15.880  1.00  0.00     0.010 C 
BRANCH  40  42
HETATM   42  C7  UNL     1      -5.375   8.221  14.693  1.00  0.00     0.031 C 
BRANCH  42  43
HETATM   43  C6  UNL     1      -6.222   7.263  13.897  1.00  0.00    -0.027 C 
HETATM   44  C5  UNL     1      -6.029   5.932  13.896  1.00  0.00     0.006 C 
BRANCH  44  45
HETATM   45  C2  UNL     1      -6.825   4.881  13.145  1.00  0.00     0.070 C 
HETATM   46  C3  UNL     1      -8.003   5.407  12.309  1.00  0.00     0.050 C 
HETATM   47  C4  UNL     1      -7.383   3.889  14.181  1.00  0.00     0.050 C 
BRANCH  45  48
HETATM   48  O1  UNL     1      -5.913   4.108  12.344  1.00  0.00    -0.382 OA
HETATM   49  C1  UNL     1      -4.529   4.305  12.608  1.00  0.00     0.202 C 
ENDBRANCH  45  48
ENDBRANCH  44  45
ENDBRANCH  42  43
ENDBRANCH  40  42
ENDBRANCH   1  40
TORSDOF 12
ENDMDL
