MODEL 1
REMARK minimizedAffinity -7.76468372
REMARK CNNscore 0.821581244
REMARK CNNaffinity 6.31984282
REMARK  13 active torsions:
REMARK  status: ('A' for Active; 'I' for Inactive)
REMARK    1  A    between atoms: C2_2  and  C3_3 
REMARK    2  A    between atoms: C2_2  and  C9_11 
REMARK    3  A    between atoms: C3_3  and  C4_4 
REMARK    4  A    between atoms: C4_4  and  C5_5 
REMARK    5  A    between atoms: C5_5  and  C6_6 
REMARK    6  A    between atoms: C6_6  and  O1_8 
REMARK    7  A    between atoms: C6_6  and  C8_9 
REMARK    8  A    between atoms: C8_9  and  O2_10 
REMARK    9  A    between atoms: C10_12  and  O3_13 
REMARK   10  A    between atoms: C11_14  and  O4_15 
REMARK   11  A    between atoms: C13_17  and  O5_18 
REMARK   12  A    between atoms: C15_20  and  O6_21 
REMARK   13  A    between atoms: C18_24  and  O7_25 
ROOT
HETATM    1  C9  UNL     1     -13.389  46.369 -27.826  1.00  0.00     0.029 C 
HETATM    2  C10 UNL     1     -13.119  47.522 -26.816  1.00  0.00     0.152 C 
HETATM    3  C11 UNL     1     -11.600  47.799 -26.859  1.00  0.00     0.155 C 
HETATM    4  C12 UNL     1     -11.194  47.277 -28.241  1.00  0.00     0.060 C 
HETATM    5  C13 UNL     1      -9.684  47.189 -28.603  1.00  0.00     0.071 C 
HETATM    6  C14 UNL     1      -9.123  48.591 -28.942  1.00  0.00     0.071 C 
HETATM    7  C15 UNL     1      -9.090  48.892 -30.433  1.00  0.00     0.126 C 
HETATM    8  C16 UNL     1      -8.165  47.931 -31.204  1.00  0.00     0.025 C 
HETATM    9  C17 UNL     1      -8.517  47.951 -32.708  1.00  0.00     0.039 C 
HETATM   10  C18 UNL     1      -7.496  47.175 -33.545  1.00  0.00     0.118 C 
HETATM   11  C19 UNL     1      -6.966  45.921 -32.849  1.00  0.00     0.032 C 
HETATM   12  C20 UNL     1      -7.935  45.427 -31.776  1.00  0.00     0.012 C 
HETATM   13  C21 UNL     1      -8.147  46.472 -30.631  1.00  0.00    -0.031 C 
HETATM   14  C22 UNL     1      -6.898  46.325 -29.704  1.00  0.00     0.016 C 
HETATM   15  C23 UNL     1      -9.439  46.150 -29.771  1.00  0.00     0.029 C 
HETATM   16  C24 UNL     1     -10.736  45.953 -30.597  1.00  0.00     0.009 C 
HETATM   17  C25 UNL     1     -11.933  45.435 -29.778  1.00  0.00     0.011 C 
HETATM   18  C26 UNL     1     -11.962  45.921 -28.314  1.00  0.00    -0.029 C 
HETATM   19  C27 UNL     1     -11.370  44.824 -27.403  1.00  0.00     0.016 C 
ENDROOT
BRANCH   1  20
HETATM   20  C2  UNL     1     -14.500  45.352 -27.427  1.00  0.00    -0.011 C 
HETATM   21  C1  UNL     1     -14.069  44.122 -26.618  1.00  0.00     0.010 C 
BRANCH  20  22
HETATM   22  C3  UNL     1     -15.331  44.923 -28.661  1.00  0.00     0.005 C 
BRANCH  22  23
HETATM   23  C4  UNL     1     -16.042  43.563 -28.568  1.00  0.00     0.003 C 
BRANCH  23  24
HETATM   24  C5  UNL     1     -17.524  43.619 -28.955  1.00  0.00     0.040 C 
BRANCH  24  25
HETATM   25  C6  UNL     1     -18.513  43.007 -27.935  1.00  0.00     0.075 C 
HETATM   26  C7  UNL     1     -17.767  41.982 -27.074  1.00  0.00     0.048 C 
BRANCH  25  27
HETATM   27  O1  UNL     1     -19.536  42.298 -28.647  1.00  0.00    -0.388 OA
HETATM   28  H14 UNL     1     -20.195  42.981 -28.887  1.00  0.00     0.210 HD
ENDBRANCH  25  27
BRANCH  25  29
HETATM   29  C8  UNL     1     -19.194  44.047 -27.021  1.00  0.00     0.201 C 
BRANCH  29  30
HETATM   30  O2  UNL     1     -18.801  45.368 -27.399  1.00  0.00    -0.398 OA
HETATM   31  H17 UNL     1     -19.272  45.981 -26.805  1.00  0.00     0.209 HD
ENDBRANCH  29  30
ENDBRANCH  25  29
ENDBRANCH  24  25
ENDBRANCH  23  24
ENDBRANCH  22  23
ENDBRANCH  20  22
ENDBRANCH   1  20
BRANCH   2  32
HETATM   32  O3  UNL     1     -13.538  47.268 -25.486  1.00  0.00    -0.393 OA
HETATM   33  H20 UNL     1     -13.326  48.072 -24.977  1.00  0.00     0.210 HD
ENDBRANCH   2  32
BRANCH   3  34
HETATM   34  O4  UNL     1     -11.384  49.192 -26.682  1.00  0.00    -0.392 OA
HETATM   35  H22 UNL     1     -10.464  49.320 -26.396  1.00  0.00     0.210 HD
ENDBRANCH   3  34
BRANCH   5  36
HETATM   36  O5  UNL     1      -8.975  46.702 -27.454  1.00  0.00    -0.389 OA
HETATM   37  H24 UNL     1      -8.765  47.447 -26.866  1.00  0.00     0.210 HD
ENDBRANCH   5  36
BRANCH   7  38
HETATM   38  O6  UNL     1      -8.625  50.237 -30.575  1.00  0.00    -0.395 OA
HETATM   39  H28 UNL     1      -8.456  50.408 -31.517  1.00  0.00     0.210 HD
ENDBRANCH   7  38
BRANCH  10  40
HETATM   40  O7  UNL     1      -6.404  48.041 -33.841  1.00  0.00    -0.396 OA
HETATM   41  H33 UNL     1      -5.785  47.549 -34.407  1.00  0.00     0.210 HD
ENDBRANCH  10  40
TORSDOF 13
ENDMDL
MODEL 2
REMARK minimizedAffinity -8.14697838
REMARK CNNscore 0.776216447
REMARK CNNaffinity 6.3244648
REMARK  13 active torsions:
REMARK  status: ('A' for Active; 'I' for Inactive)
REMARK    1  A    between atoms: C2_2  and  C3_3 
REMARK    2  A    between atoms: C2_2  and  C9_11 
REMARK    3  A    between atoms: C3_3  and  C4_4 
REMARK    4  A    between atoms: C4_4  and  C5_5 
REMARK    5  A    between atoms: C5_5  and  C6_6 
REMARK    6  A    between atoms: C6_6  and  O1_8 
REMARK    7  A    between atoms: C6_6  and  C8_9 
REMARK    8  A    between atoms: C8_9  and  O2_10 
REMARK    9  A    between atoms: C10_12  and  O3_13 
REMARK   10  A    between atoms: C11_14  and  O4_15 
REMARK   11  A    between atoms: C13_17  and  O5_18 
REMARK   12  A    between atoms: C15_20  and  O6_21 
REMARK   13  A    between atoms: C18_24  and  O7_25 
ROOT
HETATM    1  C9  UNL     1      -1.931  50.518 -21.388  1.00  0.00     0.029 C 
HETATM    2  C10 UNL     1      -3.160  51.458 -21.560  1.00  0.00     0.152 C 
HETATM    3  C11 UNL     1      -4.412  50.554 -21.530  1.00  0.00     0.155 C 
HETATM    4  C12 UNL     1      -3.927  49.319 -20.765  1.00  0.00     0.060 C 
HETATM    5  C13 UNL     1      -4.846  48.066 -20.689  1.00  0.00     0.071 C 
HETATM    6  C14 UNL     1      -5.982  48.286 -19.661  1.00  0.00     0.071 C 
HETATM    7  C15 UNL     1      -5.685  47.701 -18.288  1.00  0.00     0.126 C 
HETATM    8  C16 UNL     1      -5.518  46.170 -18.327  1.00  0.00     0.025 C 
HETATM    9  C17 UNL     1      -4.768  45.688 -17.065  1.00  0.00     0.039 C 
HETATM   10  C18 UNL     1      -4.759  44.161 -16.953  1.00  0.00     0.118 C 
HETATM   11  C19 UNL     1      -4.623  43.454 -18.302  1.00  0.00     0.032 C 
HETATM   12  C20 UNL     1      -3.984  44.365 -19.348  1.00  0.00     0.012 C 
HETATM   13  C21 UNL     1      -4.845  45.640 -19.640  1.00  0.00    -0.031 C 
HETATM   14  C22 UNL     1      -5.974  45.160 -20.608  1.00  0.00     0.016 C 
HETATM   15  C23 UNL     1      -4.005  46.762 -20.379  1.00  0.00     0.029 C 
HETATM   16  C24 UNL     1      -2.669  47.135 -19.687  1.00  0.00     0.009 C 
HETATM   17  C25 UNL     1      -1.766  48.066 -20.517  1.00  0.00     0.011 C 
HETATM   18  C26 UNL     1      -2.530  49.064 -21.411  1.00  0.00    -0.029 C 
HETATM   19  C27 UNL     1      -2.605  48.505 -22.848  1.00  0.00     0.016 C 
ENDROOT
BRANCH   1  20
HETATM   20  C2  UNL     1      -0.648  50.914 -22.180  1.00  0.00    -0.011 C 
HETATM   21  C1  UNL     1       0.197  52.063 -21.619  1.00  0.00     0.010 C 
BRANCH  20  22
HETATM   22  C3  UNL     1      -0.971  51.158 -23.674  1.00  0.00     0.005 C 
BRANCH  22  23
HETATM   23  C4  UNL     1      -0.096  52.191 -24.402  1.00  0.00     0.003 C 
BRANCH  23  24
HETATM   24  C5  UNL     1      -0.793  52.852 -25.597  1.00  0.00     0.040 C 
BRANCH  24  25
HETATM   25  C6  UNL     1      -0.056  52.749 -26.953  1.00  0.00     0.075 C 
HETATM   26  C7  UNL     1      -0.381  51.394 -27.593  1.00  0.00     0.048 C 
BRANCH  25  27
HETATM   27  O1  UNL     1       1.358  52.778 -26.717  1.00  0.00    -0.388 OA
HETATM   28  H14 UNL     1       1.583  53.729 -26.659  1.00  0.00     0.210 HD
ENDBRANCH  25  27
BRANCH  25  29
HETATM   29  C8  UNL     1      -0.403  53.880 -27.944  1.00  0.00     0.201 C 
BRANCH  29  30
HETATM   30  O2  UNL     1      -1.817  53.937 -28.150  1.00  0.00    -0.398 OA
HETATM   31  H17 UNL     1      -1.980  54.675 -28.765  1.00  0.00     0.209 HD
ENDBRANCH  29  30
ENDBRANCH  25  29
ENDBRANCH  24  25
ENDBRANCH  23  24
ENDBRANCH  22  23
ENDBRANCH  20  22
ENDBRANCH   1  20
BRANCH   2  32
HETATM   32  O3  UNL     1      -3.152  52.252 -22.734  1.00  0.00    -0.393 OA
HETATM   33  H20 UNL     1      -3.961  52.795 -22.699  1.00  0.00     0.210 HD
ENDBRANCH   2  32
BRANCH   3  34
HETATM   34  O4  UNL     1      -5.467  51.254 -20.886  1.00  0.00    -0.392 OA
HETATM   35  H22 UNL     1      -6.306  50.837 -21.142  1.00  0.00     0.210 HD
ENDBRANCH   3  34
BRANCH   5  36
HETATM   36  O5  UNL     1      -5.453  47.877 -21.976  1.00  0.00    -0.389 OA
HETATM   37  H24 UNL     1      -6.251  48.427 -22.039  1.00  0.00     0.210 HD
ENDBRANCH   5  36
BRANCH   7  38
HETATM   38  O6  UNL     1      -6.784  48.052 -17.442  1.00  0.00    -0.395 OA
HETATM   39  H28 UNL     1      -6.692  47.571 -16.601  1.00  0.00     0.210 HD
ENDBRANCH   7  38
BRANCH  10  40
HETATM   40  O7  UNL     1      -5.972  43.747 -16.330  1.00  0.00    -0.396 OA
HETATM   41  H33 UNL     1      -5.933  42.781 -16.228  1.00  0.00     0.210 HD
ENDBRANCH  10  40
TORSDOF 13
ENDMDL
MODEL 3
REMARK minimizedAffinity -8.34226322
REMARK CNNscore 0.749699056
REMARK CNNaffinity 6.16890717
REMARK  13 active torsions:
REMARK  status: ('A' for Active; 'I' for Inactive)
REMARK    1  A    between atoms: C2_2  and  C3_3 
REMARK    2  A    between atoms: C2_2  and  C9_11 
REMARK    3  A    between atoms: C3_3  and  C4_4 
REMARK    4  A    between atoms: C4_4  and  C5_5 
REMARK    5  A    between atoms: C5_5  and  C6_6 
REMARK    6  A    between atoms: C6_6  and  O1_8 
REMARK    7  A    between atoms: C6_6  and  C8_9 
REMARK    8  A    between atoms: C8_9  and  O2_10 
REMARK    9  A    between atoms: C10_12  and  O3_13 
REMARK   10  A    between atoms: C11_14  and  O4_15 
REMARK   11  A    between atoms: C13_17  and  O5_18 
REMARK   12  A    between atoms: C15_20  and  O6_21 
REMARK   13  A    between atoms: C18_24  and  O7_25 
ROOT
HETATM    1  C9  UNL     1     -13.444  46.346 -27.838  1.00  0.00     0.029 C 
HETATM    2  C10 UNL     1     -13.167  47.492 -26.821  1.00  0.00     0.152 C 
HETATM    3  C11 UNL     1     -11.650  47.773 -26.877  1.00  0.00     0.155 C 
HETATM    4  C12 UNL     1     -11.256  47.263 -28.267  1.00  0.00     0.060 C 
HETATM    5  C13 UNL     1      -9.749  47.181 -28.644  1.00  0.00     0.071 C 
HETATM    6  C14 UNL     1      -9.195  48.587 -28.978  1.00  0.00     0.071 C 
HETATM    7  C15 UNL     1      -9.177  48.899 -30.467  1.00  0.00     0.126 C 
HETATM    8  C16 UNL     1      -8.257  47.946 -31.254  1.00  0.00     0.025 C 
HETATM    9  C17 UNL     1      -8.624  47.977 -32.754  1.00  0.00     0.039 C 
HETATM   10  C18 UNL     1      -7.610  47.211 -33.607  1.00  0.00     0.118 C 
HETATM   11  C19 UNL     1      -7.070  45.952 -32.926  1.00  0.00     0.032 C 
HETATM   12  C20 UNL     1      -8.027  45.447 -31.848  1.00  0.00     0.012 C 
HETATM   13  C21 UNL     1      -8.231  46.483 -30.693  1.00  0.00    -0.031 C 
HETATM   14  C22 UNL     1      -6.972  46.332 -29.779  1.00  0.00     0.016 C 
HETATM   15  C23 UNL     1      -9.514  46.152 -29.823  1.00  0.00     0.029 C 
HETATM   16  C24 UNL     1     -10.818  45.958 -30.637  1.00  0.00     0.009 C 
HETATM   17  C25 UNL     1     -12.006  45.431 -29.811  1.00  0.00     0.011 C 
HETATM   18  C26 UNL     1     -12.021  45.905 -28.343  1.00  0.00    -0.029 C 
HETATM   19  C27 UNL     1     -11.419  44.803 -27.447  1.00  0.00     0.016 C 
ENDROOT
BRANCH   1  20
HETATM   20  C2  UNL     1     -14.550  45.323 -27.436  1.00  0.00    -0.011 C 
HETATM   21  C1  UNL     1     -15.427  44.759 -28.560  1.00  0.00     0.010 C 
BRANCH  20  22
HETATM   22  C3  UNL     1     -15.430  45.879 -26.290  1.00  0.00     0.005 C 
BRANCH  22  23
HETATM   23  C4  UNL     1     -16.828  45.258 -26.140  1.00  0.00     0.003 C 
BRANCH  23  24
HETATM   24  C5  UNL     1     -17.748  46.038 -25.192  1.00  0.00     0.040 C 
BRANCH  24  25
HETATM   25  C6  UNL     1     -19.219  45.565 -25.135  1.00  0.00     0.075 C 
HETATM   26  C7  UNL     1     -19.528  44.749 -26.395  1.00  0.00     0.048 C 
BRANCH  25  27
HETATM   27  O1  UNL     1     -20.078  46.714 -25.152  1.00  0.00    -0.388 OA
HETATM   28  H14 UNL     1     -20.128  47.005 -24.219  1.00  0.00     0.210 HD
ENDBRANCH  25  27
BRANCH  25  29
HETATM   29  C8  UNL     1     -19.560  44.727 -23.885  1.00  0.00     0.201 C 
BRANCH  29  30
HETATM   30  O2  UNL     1     -19.244  45.460 -22.699  1.00  0.00    -0.398 OA
HETATM   31  H17 UNL     1     -19.494  44.895 -21.946  1.00  0.00     0.209 HD
ENDBRANCH  29  30
ENDBRANCH  25  29
ENDBRANCH  24  25
ENDBRANCH  23  24
ENDBRANCH  22  23
ENDBRANCH  20  22
ENDBRANCH   1  20
BRANCH   2  32
HETATM   32  O3  UNL     1     -13.572  47.227 -25.489  1.00  0.00    -0.393 OA
HETATM   33  H20 UNL     1     -13.357  48.028 -24.976  1.00  0.00     0.210 HD
ENDBRANCH   2  32
BRANCH   3  34
HETATM   34  O4  UNL     1     -11.434  49.164 -26.691  1.00  0.00    -0.392 OA
HETATM   35  H22 UNL     1     -10.512  49.292 -26.413  1.00  0.00     0.210 HD
ENDBRANCH   3  34
BRANCH   5  36
HETATM   36  O5  UNL     1      -9.028  46.686 -27.506  1.00  0.00    -0.389 OA
HETATM   37  H24 UNL     1      -8.814  47.427 -26.914  1.00  0.00     0.210 HD
ENDBRANCH   5  36
BRANCH   7  38
HETATM   38  O6  UNL     1      -8.716  50.247 -30.602  1.00  0.00    -0.395 OA
HETATM   39  H28 UNL     1      -8.557  50.425 -31.545  1.00  0.00     0.210 HD
ENDBRANCH   7  38
BRANCH  10  40
HETATM   40  O7  UNL     1      -6.522  48.081 -33.907  1.00  0.00    -0.396 OA
HETATM   41  H33 UNL     1      -5.908  47.595 -34.483  1.00  0.00     0.210 HD
ENDBRANCH  10  40
TORSDOF 13
ENDMDL
MODEL 4
REMARK minimizedAffinity -7.01749086
REMARK CNNscore 0.701576173
REMARK CNNaffinity 5.84035921
REMARK  13 active torsions:
REMARK  status: ('A' for Active; 'I' for Inactive)
REMARK    1  A    between atoms: C2_2  and  C3_3 
REMARK    2  A    between atoms: C2_2  and  C9_11 
REMARK    3  A    between atoms: C3_3  and  C4_4 
REMARK    4  A    between atoms: C4_4  and  C5_5 
REMARK    5  A    between atoms: C5_5  and  C6_6 
REMARK    6  A    between atoms: C6_6  and  O1_8 
REMARK    7  A    between atoms: C6_6  and  C8_9 
REMARK    8  A    between atoms: C8_9  and  O2_10 
REMARK    9  A    between atoms: C10_12  and  O3_13 
REMARK   10  A    between atoms: C11_14  and  O4_15 
REMARK   11  A    between atoms: C13_17  and  O5_18 
REMARK   12  A    between atoms: C15_20  and  O6_21 
REMARK   13  A    between atoms: C18_24  and  O7_25 
ROOT
HETATM    1  C9  UNL     1      -7.209  46.301 -30.673  1.00  0.00     0.029 C 
HETATM    2  C10 UNL     1      -7.516  47.704 -31.274  1.00  0.00     0.152 C 
HETATM    3  C11 UNL     1      -9.040  47.914 -31.147  1.00  0.00     0.155 C 
HETATM    4  C12 UNL     1      -9.422  46.977 -29.996  1.00  0.00     0.060 C 
HETATM    5  C13 UNL     1     -10.927  46.741 -29.679  1.00  0.00     0.071 C 
HETATM    6  C14 UNL     1     -11.520  47.953 -28.921  1.00  0.00     0.071 C 
HETATM    7  C15 UNL     1     -11.548  47.774 -27.410  1.00  0.00     0.126 C 
HETATM    8  C16 UNL     1     -12.443  46.597 -26.977  1.00  0.00     0.025 C 
HETATM    9  C17 UNL     1     -12.079  46.157 -25.541  1.00  0.00     0.039 C 
HETATM   10  C18 UNL     1     -13.073  45.133 -24.987  1.00  0.00     0.118 C 
HETATM   11  C19 UNL     1     -13.578  44.145 -26.039  1.00  0.00     0.032 C 
HETATM   12  C20 UNL     1     -12.606  44.034 -27.213  1.00  0.00     0.012 C 
HETATM   13  C21 UNL     1     -12.429  45.389 -27.976  1.00  0.00    -0.031 C 
HETATM   14  C22 UNL     1     -13.681  45.505 -28.902  1.00  0.00     0.016 C 
HETATM   15  C23 UNL     1     -11.136  45.385 -28.893  1.00  0.00     0.029 C 
HETATM   16  C24 UNL     1      -9.828  44.974 -28.170  1.00  0.00     0.009 C 
HETATM   17  C25 UNL     1      -8.625  44.768 -29.109  1.00  0.00     0.011 C 
HETATM   18  C26 UNL     1      -8.620  45.686 -30.349  1.00  0.00    -0.029 C 
HETATM   19  C27 UNL     1      -9.192  44.912 -31.556  1.00  0.00     0.016 C 
ENDROOT
BRANCH   1  20
HETATM   20  C2  UNL     1      -6.076  45.488 -31.369  1.00  0.00    -0.011 C 
HETATM   21  C1  UNL     1      -4.764  46.224 -31.665  1.00  0.00     0.010 C 
BRANCH  20  22
HETATM   22  C3  UNL     1      -6.600  44.784 -32.644  1.00  0.00     0.005 C 
BRANCH  22  23
HETATM   23  C4  UNL     1      -6.255  43.293 -32.792  1.00  0.00     0.003 C 
BRANCH  23  24
HETATM   24  C5  UNL     1      -4.794  42.965 -32.460  1.00  0.00     0.040 C 
BRANCH  24  25
HETATM   25  C6  UNL     1      -4.181  41.763 -33.217  1.00  0.00     0.075 C 
HETATM   26  C7  UNL     1      -5.267  40.700 -33.422  1.00  0.00     0.048 C 
BRANCH  25  27
HETATM   27  O1  UNL     1      -3.159  41.173 -32.403  1.00  0.00    -0.388 OA
HETATM   28  H14 UNL     1      -2.356  41.705 -32.583  1.00  0.00     0.210 HD
ENDBRANCH  25  27
BRANCH  25  29
HETATM   29  C8  UNL     1      -3.560  42.132 -34.580  1.00  0.00     0.201 C 
BRANCH  29  30
HETATM   30  O2  UNL     1      -4.542  42.028 -35.614  1.00  0.00    -0.398 OA
HETATM   31  H17 UNL     1      -4.103  42.288 -36.444  1.00  0.00     0.209 HD
ENDBRANCH  29  30
ENDBRANCH  25  29
ENDBRANCH  24  25
ENDBRANCH  23  24
ENDBRANCH  22  23
ENDBRANCH  20  22
ENDBRANCH   1  20
BRANCH   2  32
HETATM   32  O3  UNL     1      -7.102  47.888 -32.617  1.00  0.00    -0.393 OA
HETATM   33  H20 UNL     1      -7.338  48.804 -32.850  1.00  0.00     0.210 HD
ENDBRANCH   2  32
BRANCH   3  34
HETATM   34  O4  UNL     1      -9.293  49.286 -30.882  1.00  0.00    -0.392 OA
HETATM   35  H22 UNL     1     -10.218  49.473 -31.113  1.00  0.00     0.210 HD
ENDBRANCH   3  34
BRANCH   5  36
HETATM   36  O5  UNL     1     -11.633  46.618 -30.923  1.00  0.00    -0.389 OA
HETATM   37  H24 UNL     1     -11.866  47.503 -31.250  1.00  0.00     0.210 HD
ENDBRANCH   5  36
BRANCH   7  38
HETATM   38  O6  UNL     1     -12.045  48.996 -26.857  1.00  0.00    -0.395 OA
HETATM   39  H28 UNL     1     -12.210  48.861 -25.908  1.00  0.00     0.210 HD
ENDBRANCH   7  38
BRANCH  10  40
HETATM   40  O7  UNL     1     -14.185  45.835 -24.437  1.00  0.00    -0.396 OA
HETATM   41  H33 UNL     1     -14.786  45.175 -24.052  1.00  0.00     0.210 HD
ENDBRANCH  10  40
TORSDOF 13
ENDMDL
MODEL 5
REMARK minimizedAffinity -9.12849998
REMARK CNNscore 0.624275923
REMARK CNNaffinity 6.41280413
REMARK  13 active torsions:
REMARK  status: ('A' for Active; 'I' for Inactive)
REMARK    1  A    between atoms: C2_2  and  C3_3 
REMARK    2  A    between atoms: C2_2  and  C9_11 
REMARK    3  A    between atoms: C3_3  and  C4_4 
REMARK    4  A    between atoms: C4_4  and  C5_5 
REMARK    5  A    between atoms: C5_5  and  C6_6 
REMARK    6  A    between atoms: C6_6  and  O1_8 
REMARK    7  A    between atoms: C6_6  and  C8_9 
REMARK    8  A    between atoms: C8_9  and  O2_10 
REMARK    9  A    between atoms: C10_12  and  O3_13 
REMARK   10  A    between atoms: C11_14  and  O4_15 
REMARK   11  A    between atoms: C13_17  and  O5_18 
REMARK   12  A    between atoms: C15_20  and  O6_21 
REMARK   13  A    between atoms: C18_24  and  O7_25 
ROOT
HETATM    1  C9  UNL     1      -2.253  51.438 -21.289  1.00  0.00     0.029 C 
HETATM    2  C10 UNL     1      -3.478  50.480 -21.208  1.00  0.00     0.152 C 
HETATM    3  C11 UNL     1      -3.201  49.508 -20.041  1.00  0.00     0.155 C 
HETATM    4  C12 UNL     1      -2.212  50.289 -19.169  1.00  0.00     0.060 C 
HETATM    5  C13 UNL     1      -1.522  49.569 -17.976  1.00  0.00     0.071 C 
HETATM    6  C14 UNL     1      -2.500  49.431 -16.784  1.00  0.00     0.071 C 
HETATM    7  C15 UNL     1      -2.348  50.526 -15.739  1.00  0.00     0.126 C 
HETATM    8  C16 UNL     1      -0.958  50.512 -15.076  1.00  0.00     0.025 C 
HETATM    9  C17 UNL     1      -0.680  51.876 -14.404  1.00  0.00     0.039 C 
HETATM   10  C18 UNL     1       0.594  51.847 -13.555  1.00  0.00     0.118 C 
HETATM   11  C19 UNL     1       1.710  50.995 -14.163  1.00  0.00     0.032 C 
HETATM   12  C20 UNL     1       1.531  50.835 -15.671  1.00  0.00     0.012 C 
HETATM   13  C21 UNL     1       0.203  50.095 -16.043  1.00  0.00    -0.031 C 
HETATM   14  C22 UNL     1       0.502  48.578 -15.822  1.00  0.00     0.016 C 
HETATM   15  C23 UNL     1      -0.182  50.304 -17.566  1.00  0.00     0.029 C 
HETATM   16  C24 UNL     1      -0.216  51.783 -18.030  1.00  0.00     0.009 C 
HETATM   17  C25 UNL     1      -0.382  51.964 -19.550  1.00  0.00     0.011 C 
HETATM   18  C26 UNL     1      -1.232  50.873 -20.233  1.00  0.00    -0.029 C 
HETATM   19  C27 UNL     1      -0.296  49.818 -20.859  1.00  0.00     0.016 C 
ENDROOT
BRANCH   1  20
HETATM   20  C2  UNL     1      -1.824  51.887 -22.719  1.00  0.00    -0.011 C 
HETATM   21  C1  UNL     1      -2.869  52.624 -23.565  1.00  0.00     0.010 C 
BRANCH  20  22
HETATM   22  C3  UNL     1      -1.219  50.706 -23.514  1.00  0.00     0.005 C 
BRANCH  22  23
HETATM   23  C4  UNL     1      -1.277  50.812 -25.046  1.00  0.00     0.003 C 
BRANCH  23  24
HETATM   24  C5  UNL     1      -0.010  51.410 -25.669  1.00  0.00     0.040 C 
BRANCH  24  25
HETATM   25  C6  UNL     1      -0.231  52.393 -26.842  1.00  0.00     0.075 C 
HETATM   26  C7  UNL     1       0.440  51.825 -28.098  1.00  0.00     0.048 C 
BRANCH  25  27
HETATM   27  O1  UNL     1       0.420  53.634 -26.538  1.00  0.00    -0.388 OA
HETATM   28  H14 UNL     1      -0.225  54.129 -25.992  1.00  0.00     0.210 HD
ENDBRANCH  25  27
BRANCH  25  29
HETATM   29  C8  UNL     1      -1.715  52.688 -27.142  1.00  0.00     0.201 C 
BRANCH  29  30
HETATM   30  O2  UNL     1      -1.824  53.727 -28.118  1.00  0.00    -0.398 OA
HETATM   31  H17 UNL     1      -2.776  53.858 -28.282  1.00  0.00     0.209 HD
ENDBRANCH  29  30
ENDBRANCH  25  29
ENDBRANCH  24  25
ENDBRANCH  23  24
ENDBRANCH  22  23
ENDBRANCH  20  22
ENDBRANCH   1  20
BRANCH   2  32
HETATM   32  O3  UNL     1      -3.758  49.760 -22.396  1.00  0.00    -0.393 OA
HETATM   33  H20 UNL     1      -4.550  49.224 -22.207  1.00  0.00     0.210 HD
ENDBRANCH   2  32
BRANCH   3  34
HETATM   34  O4  UNL     1      -4.429  49.208 -19.394  1.00  0.00    -0.392 OA
HETATM   35  H22 UNL     1      -4.311  48.386 -18.891  1.00  0.00     0.210 HD
ENDBRANCH   3  34
BRANCH   5  36
HETATM   36  O5  UNL     1      -1.161  48.246 -18.399  1.00  0.00    -0.389 OA
HETATM   37  H24 UNL     1      -1.922  47.652 -18.285  1.00  0.00     0.210 HD
ENDBRANCH   5  36
BRANCH   7  38
HETATM   38  O6  UNL     1      -3.362  50.303 -14.755  1.00  0.00    -0.395 OA
HETATM   39  H28 UNL     1      -3.199  50.898 -14.003  1.00  0.00     0.210 HD
ENDBRANCH   7  38
BRANCH  10  40
HETATM   40  O7  UNL     1       0.267  51.335 -12.266  1.00  0.00    -0.396 OA
HETATM   41  H33 UNL     1       1.075  51.362 -11.726  1.00  0.00     0.210 HD
ENDBRANCH  10  40
TORSDOF 13
ENDMDL
MODEL 6
REMARK minimizedAffinity -8.42694473
REMARK CNNscore 0.61011076
REMARK CNNaffinity 5.93603182
REMARK  13 active torsions:
REMARK  status: ('A' for Active; 'I' for Inactive)
REMARK    1  A    between atoms: C2_2  and  C3_3 
REMARK    2  A    between atoms: C2_2  and  C9_11 
REMARK    3  A    between atoms: C3_3  and  C4_4 
REMARK    4  A    between atoms: C4_4  and  C5_5 
REMARK    5  A    between atoms: C5_5  and  C6_6 
REMARK    6  A    between atoms: C6_6  and  O1_8 
REMARK    7  A    between atoms: C6_6  and  C8_9 
REMARK    8  A    between atoms: C8_9  and  O2_10 
REMARK    9  A    between atoms: C10_12  and  O3_13 
REMARK   10  A    between atoms: C11_14  and  O4_15 
REMARK   11  A    between atoms: C13_17  and  O5_18 
REMARK   12  A    between atoms: C15_20  and  O6_21 
REMARK   13  A    between atoms: C18_24  and  O7_25 
ROOT
HETATM    1  C9  UNL     1       5.958  65.547 -36.394  1.00  0.00     0.029 C 
HETATM    2  C10 UNL     1       4.936  64.912 -35.405  1.00  0.00     0.152 C 
HETATM    3  C11 UNL     1       3.633  65.731 -35.533  1.00  0.00     0.155 C 
HETATM    4  C12 UNL     1       3.747  66.343 -36.933  1.00  0.00     0.060 C 
HETATM    5  C13 UNL     1       2.710  67.415 -37.377  1.00  0.00     0.071 C 
HETATM    6  C14 UNL     1       1.365  66.748 -37.753  1.00  0.00     0.071 C 
HETATM    7  C15 UNL     1       1.203  66.498 -39.245  1.00  0.00     0.126 C 
HETATM    8  C16 UNL     1       1.204  67.805 -40.060  1.00  0.00     0.025 C 
HETATM    9  C17 UNL     1       1.516  67.502 -41.543  1.00  0.00     0.039 C 
HETATM   10  C18 UNL     1       1.325  68.734 -42.432  1.00  0.00     0.118 C 
HETATM   11  C19 UNL     1       1.751  70.040 -41.760  1.00  0.00     0.032 C 
HETATM   12  C20 UNL     1       2.751  69.788 -40.633  1.00  0.00     0.012 C 
HETATM   13  C21 UNL     1       2.151  68.912 -39.483  1.00  0.00    -0.031 C 
HETATM   14  C22 UNL     1       1.291  69.894 -38.626  1.00  0.00     0.016 C 
HETATM   15  C23 UNL     1       3.283  68.307 -38.552  1.00  0.00     0.029 C 
HETATM   16  C24 UNL     1       4.407  67.550 -39.304  1.00  0.00     0.009 C 
HETATM   17  C25 UNL     1       5.602  67.152 -38.418  1.00  0.00     0.011 C 
HETATM   18  C26 UNL     1       5.231  66.823 -36.957  1.00  0.00    -0.029 C 
HETATM   19  C27 UNL     1       5.497  68.062 -36.076  1.00  0.00     0.016 C 
ENDROOT
BRANCH   1  20
HETATM   20  C2  UNL     1       7.446  65.560 -35.930  1.00  0.00    -0.011 C 
HETATM   21  C1  UNL     1       8.459  66.264 -36.840  1.00  0.00     0.010 C 
BRANCH  20  22
HETATM   22  C3  UNL     1       7.932  64.133 -35.581  1.00  0.00     0.005 C 
BRANCH  22  23
HETATM   23  C4  UNL     1       9.271  63.697 -36.198  1.00  0.00     0.003 C 
BRANCH  23  24
HETATM   24  C5  UNL     1      10.421  63.632 -35.186  1.00  0.00     0.040 C 
BRANCH  24  25
HETATM   25  C6  UNL     1      11.837  63.450 -35.781  1.00  0.00     0.075 C 
HETATM   26  C7  UNL     1      11.831  62.230 -36.710  1.00  0.00     0.048 C 
BRANCH  25  27
HETATM   27  O1  UNL     1      12.756  63.168 -34.716  1.00  0.00    -0.388 OA
HETATM   28  H14 UNL     1      13.009  64.046 -34.364  1.00  0.00     0.210 HD
ENDBRANCH  25  27
BRANCH  25  29
HETATM   29  C8  UNL     1      12.356  64.680 -36.553  1.00  0.00     0.201 C 
BRANCH  29  30
HETATM   30  O2  UNL     1      13.718  64.941 -36.206  1.00  0.00    -0.398 OA
HETATM   31  H17 UNL     1      13.998  65.712 -36.732  1.00  0.00     0.209 HD
ENDBRANCH  29  30
ENDBRANCH  25  29
ENDBRANCH  24  25
ENDBRANCH  23  24
ENDBRANCH  22  23
ENDBRANCH  20  22
ENDBRANCH   1  20
BRANCH   2  32
HETATM   32  O3  UNL     1       5.358  64.862 -34.053  1.00  0.00    -0.393 OA
HETATM   33  H20 UNL     1       4.636  64.429 -33.561  1.00  0.00     0.210 HD
ENDBRANCH   2  32
BRANCH   3  34
HETATM   34  O4  UNL     1       2.525  64.856 -35.375  1.00  0.00    -0.392 OA
HETATM   35  H22 UNL     1       1.749  65.392 -35.140  1.00  0.00     0.210 HD
ENDBRANCH   3  34
BRANCH   5  36
HETATM   36  O5  UNL     1       2.467  68.291 -36.266  1.00  0.00    -0.389 OA
HETATM   37  H24 UNL     1       1.784  67.903 -35.694  1.00  0.00     0.210 HD
ENDBRANCH   5  36
BRANCH   7  38
HETATM   38  O6  UNL     1      -0.042  65.815 -39.418  1.00  0.00    -0.395 OA
HETATM   39  H28 UNL     1      -0.241  65.771 -40.369  1.00  0.00     0.210 HD
ENDBRANCH   7  38
BRANCH  10  40
HETATM   40  O7  UNL     1      -0.052  68.823 -42.791  1.00  0.00    -0.396 OA
HETATM   41  H33 UNL     1      -0.150  69.584 -43.388  1.00  0.00     0.210 HD
ENDBRANCH  10  40
TORSDOF 13
ENDMDL
MODEL 7
REMARK minimizedAffinity -7.25041294
REMARK CNNscore 0.605301023
REMARK CNNaffinity 6.51537466
REMARK  13 active torsions:
REMARK  status: ('A' for Active; 'I' for Inactive)
REMARK    1  A    between atoms: C2_2  and  C3_3 
REMARK    2  A    between atoms: C2_2  and  C9_11 
REMARK    3  A    between atoms: C3_3  and  C4_4 
REMARK    4  A    between atoms: C4_4  and  C5_5 
REMARK    5  A    between atoms: C5_5  and  C6_6 
REMARK    6  A    between atoms: C6_6  and  O1_8 
REMARK    7  A    between atoms: C6_6  and  C8_9 
REMARK    8  A    between atoms: C8_9  and  O2_10 
REMARK    9  A    between atoms: C10_12  and  O3_13 
REMARK   10  A    between atoms: C11_14  and  O4_15 
REMARK   11  A    between atoms: C13_17  and  O5_18 
REMARK   12  A    between atoms: C15_20  and  O6_21 
REMARK   13  A    between atoms: C18_24  and  O7_25 
ROOT
HETATM    1  C9  UNL     1      -3.946  47.350 -21.088  1.00  0.00     0.029 C 
HETATM    2  C10 UNL     1      -5.237  46.817 -21.775  1.00  0.00     0.152 C 
HETATM    3  C11 UNL     1      -5.589  47.824 -22.891  1.00  0.00     0.155 C 
HETATM    4  C12 UNL     1      -4.244  48.492 -23.190  1.00  0.00     0.060 C 
HETATM    5  C13 UNL     1      -4.205  49.728 -24.134  1.00  0.00     0.071 C 
HETATM    6  C14 UNL     1      -4.341  49.289 -25.611  1.00  0.00     0.071 C 
HETATM    7  C15 UNL     1      -3.008  49.151 -26.333  1.00  0.00     0.126 C 
HETATM    8  C16 UNL     1      -2.248  50.488 -26.417  1.00  0.00     0.025 C 
HETATM    9  C17 UNL     1      -0.752  50.228 -26.708  1.00  0.00     0.039 C 
HETATM   10  C18 UNL     1       0.006  51.524 -27.006  1.00  0.00     0.118 C 
HETATM   11  C19 UNL     1      -0.466  52.713 -26.168  1.00  0.00     0.032 C 
HETATM   12  C20 UNL     1      -1.154  52.252 -24.885  1.00  0.00     0.012 C 
HETATM   13  C21 UNL     1      -2.444  51.409 -25.164  1.00  0.00    -0.031 C 
HETATM   14  C22 UNL     1      -3.555  52.456 -25.496  1.00  0.00     0.016 C 
HETATM   15  C23 UNL     1      -2.902  50.592 -23.886  1.00  0.00     0.029 C 
HETATM   16  C24 UNL     1      -1.795  49.722 -23.239  1.00  0.00     0.009 C 
HETATM   17  C25 UNL     1      -2.188  49.103 -21.885  1.00  0.00     0.011 C 
HETATM   18  C26 UNL     1      -3.684  48.749 -21.757  1.00  0.00    -0.029 C 
HETATM   19  C27 UNL     1      -4.410  49.883 -21.002  1.00  0.00     0.016 C 
ENDROOT
BRANCH   1  20
HETATM   20  C2  UNL     1      -3.841  47.118 -19.550  1.00  0.00    -0.011 C 
HETATM   21  C1  UNL     1      -2.802  47.946 -18.785  1.00  0.00     0.010 C 
BRANCH  20  22
HETATM   22  C3  UNL     1      -3.679  45.614 -19.224  1.00  0.00     0.005 C 
BRANCH  22  23
HETATM   23  C4  UNL     1      -3.360  45.261 -17.763  1.00  0.00     0.003 C 
BRANCH  23  24
HETATM   24  C5  UNL     1      -3.934  43.910 -17.319  1.00  0.00     0.040 C 
BRANCH  24  25
HETATM   25  C6  UNL     1      -2.916  42.751 -17.192  1.00  0.00     0.075 C 
HETATM   26  C7  UNL     1      -3.236  41.946 -15.928  1.00  0.00     0.048 C 
BRANCH  25  27
HETATM   27  O1  UNL     1      -1.603  43.301 -17.023  1.00  0.00    -0.388 OA
HETATM   28  H14 UNL     1      -1.290  43.487 -17.932  1.00  0.00     0.210 HD
ENDBRANCH  25  27
BRANCH  25  29
HETATM   29  C8  UNL     1      -2.890  41.804 -18.410  1.00  0.00     0.201 C 
BRANCH  29  30
HETATM   30  O2  UNL     1      -1.568  41.298 -18.612  1.00  0.00    -0.398 OA
HETATM   31  H17 UNL     1      -1.613  40.696 -19.376  1.00  0.00     0.209 HD
ENDBRANCH  29  30
ENDBRANCH  25  29
ENDBRANCH  24  25
ENDBRANCH  23  24
ENDBRANCH  22  23
ENDBRANCH  20  22
ENDBRANCH   1  20
BRANCH   2  32
HETATM   32  O3  UNL     1      -6.345  46.627 -20.912  1.00  0.00    -0.393 OA
HETATM   33  H20 UNL     1      -7.065  46.278 -21.469  1.00  0.00     0.210 HD
ENDBRANCH   2  32
BRANCH   3  34
HETATM   34  O4  UNL     1      -6.138  47.114 -23.993  1.00  0.00    -0.392 OA
HETATM   35  H22 UNL     1      -6.637  47.743 -24.539  1.00  0.00     0.210 HD
ENDBRANCH   3  34
BRANCH   5  36
HETATM   36  O5  UNL     1      -5.328  50.565 -23.823  1.00  0.00    -0.389 OA
HETATM   37  H24 UNL     1      -6.109  50.250 -24.309  1.00  0.00     0.210 HD
ENDBRANCH   5  36
BRANCH   7  38
HETATM   38  O6  UNL     1      -3.297  48.669 -27.649  1.00  0.00    -0.395 OA
HETATM   39  H28 UNL     1      -2.482  48.710 -28.178  1.00  0.00     0.210 HD
ENDBRANCH   7  38
BRANCH  10  40
HETATM   40  O7  UNL     1      -0.156  51.834 -28.388  1.00  0.00    -0.396 OA
HETATM   41  H33 UNL     1       0.364  52.635 -28.572  1.00  0.00     0.210 HD
ENDBRANCH  10  40
TORSDOF 13
ENDMDL
MODEL 8
REMARK minimizedAffinity -8.20993996
REMARK CNNscore 0.565904617
REMARK CNNaffinity 6.02114916
REMARK  13 active torsions:
REMARK  status: ('A' for Active; 'I' for Inactive)
REMARK    1  A    between atoms: C2_2  and  C3_3 
REMARK    2  A    between atoms: C2_2  and  C9_11 
REMARK    3  A    between atoms: C3_3  and  C4_4 
REMARK    4  A    between atoms: C4_4  and  C5_5 
REMARK    5  A    between atoms: C5_5  and  C6_6 
REMARK    6  A    between atoms: C6_6  and  O1_8 
REMARK    7  A    between atoms: C6_6  and  C8_9 
REMARK    8  A    between atoms: C8_9  and  O2_10 
REMARK    9  A    between atoms: C10_12  and  O3_13 
REMARK   10  A    between atoms: C11_14  and  O4_15 
REMARK   11  A    between atoms: C13_17  and  O5_18 
REMARK   12  A    between atoms: C15_20  and  O6_21 
REMARK   13  A    between atoms: C18_24  and  O7_25 
ROOT
HETATM    1  C9  UNL     1      -7.988  47.366 -25.459  1.00  0.00     0.029 C 
HETATM    2  C10 UNL     1      -8.933  48.574 -25.191  1.00  0.00     0.152 C 
HETATM    3  C11 UNL     1      -9.466  49.030 -26.567  1.00  0.00     0.155 C 
HETATM    4  C12 UNL     1      -9.322  47.771 -27.427  1.00  0.00     0.060 C 
HETATM    5  C13 UNL     1      -9.569  47.868 -28.960  1.00  0.00     0.071 C 
HETATM    6  C14 UNL     1     -11.085  47.930 -29.263  1.00  0.00     0.071 C 
HETATM    7  C15 UNL     1     -11.693  46.581 -29.619  1.00  0.00     0.126 C 
HETATM    8  C16 UNL     1     -11.086  45.986 -30.903  1.00  0.00     0.025 C 
HETATM    9  C17 UNL     1     -11.361  44.467 -30.963  1.00  0.00     0.039 C 
HETATM   10  C18 UNL     1     -10.962  43.866 -32.314  1.00  0.00     0.118 C 
HETATM   11  C19 UNL     1      -9.699  44.490 -32.908  1.00  0.00     0.032 C 
HETATM   12  C20 UNL     1      -8.834  45.135 -31.827  1.00  0.00     0.012 C 
HETATM   13  C21 UNL     1      -9.564  46.309 -31.094  1.00  0.00    -0.031 C 
HETATM   14  C22 UNL     1      -9.441  47.534 -32.057  1.00  0.00     0.016 C 
HETATM   15  C23 UNL     1      -8.855  46.683 -29.727  1.00  0.00     0.029 C 
HETATM   16  C24 UNL     1      -8.618  45.487 -28.770  1.00  0.00     0.009 C 
HETATM   17  C25 UNL     1      -7.745  45.822 -27.547  1.00  0.00     0.011 C 
HETATM   18  C26 UNL     1      -7.901  47.265 -27.027  1.00  0.00    -0.029 C 
HETATM   19  C27 UNL     1      -6.754  48.133 -27.587  1.00  0.00     0.016 C 
ENDROOT
BRANCH   1  20
HETATM   20  C2  UNL     1      -6.736  47.254 -24.537  1.00  0.00    -0.011 C 
HETATM   21  C1  UNL     1      -6.961  46.748 -23.108  1.00  0.00     0.010 C 
BRANCH  20  22
HETATM   22  C3  UNL     1      -5.937  48.580 -24.522  1.00  0.00     0.005 C 
BRANCH  22  23
HETATM   23  C4  UNL     1      -4.410  48.456 -24.401  1.00  0.00     0.003 C 
BRANCH  23  24
HETATM   24  C5  UNL     1      -3.656  48.914 -25.656  1.00  0.00     0.040 C 
BRANCH  24  25
HETATM   25  C6  UNL     1      -2.885  50.249 -25.533  1.00  0.00     0.075 C 
HETATM   26  C7  UNL     1      -2.062  50.466 -26.808  1.00  0.00     0.048 C 
BRANCH  25  27
HETATM   27  O1  UNL     1      -1.959  50.153 -24.442  1.00  0.00    -0.388 OA
HETATM   28  H14 UNL     1      -2.484  50.375 -23.646  1.00  0.00     0.210 HD
ENDBRANCH  25  27
BRANCH  25  29
HETATM   29  C8  UNL     1      -3.789  51.475 -25.291  1.00  0.00     0.201 C 
BRANCH  29  30
HETATM   30  O2  UNL     1      -3.276  52.611 -25.991  1.00  0.00    -0.398 OA
HETATM   31  H17 UNL     1      -3.892  53.347 -25.820  1.00  0.00     0.209 HD
ENDBRANCH  29  30
ENDBRANCH  25  29
ENDBRANCH  24  25
ENDBRANCH  23  24
ENDBRANCH  22  23
ENDBRANCH  20  22
ENDBRANCH   1  20
BRANCH   2  32
HETATM   32  O3  UNL     1      -8.339  49.663 -24.505  1.00  0.00    -0.393 OA
HETATM   33  H20 UNL     1      -9.043  50.327 -24.392  1.00  0.00     0.210 HD
ENDBRANCH   2  32
BRANCH   3  34
HETATM   34  O4  UNL     1     -10.807  49.474 -26.414  1.00  0.00    -0.392 OA
HETATM   35  H22 UNL     1     -11.026  50.037 -27.173  1.00  0.00     0.210 HD
ENDBRANCH   3  34
BRANCH   5  36
HETATM   36  O5  UNL     1      -8.980  49.089 -29.432  1.00  0.00    -0.389 OA
HETATM   37  H24 UNL     1      -9.609  49.819 -29.309  1.00  0.00     0.210 HD
ENDBRANCH   5  36
BRANCH   7  38
HETATM   38  O6  UNL     1     -13.097  46.792 -29.793  1.00  0.00    -0.395 OA
HETATM   39  H28 UNL     1     -13.488  45.981 -30.161  1.00  0.00     0.210 HD
ENDBRANCH   7  38
BRANCH  10  40
HETATM   40  O7  UNL     1     -12.044  44.046 -33.225  1.00  0.00    -0.396 OA
HETATM   41  H33 UNL     1     -11.793  43.624 -34.064  1.00  0.00     0.210 HD
ENDBRANCH  10  40
TORSDOF 13
ENDMDL
MODEL 9
REMARK minimizedAffinity -8.03929424
REMARK CNNscore 0.563066006
REMARK CNNaffinity 6.23281479
REMARK  13 active torsions:
REMARK  status: ('A' for Active; 'I' for Inactive)
REMARK    1  A    between atoms: C2_2  and  C3_3 
REMARK    2  A    between atoms: C2_2  and  C9_11 
REMARK    3  A    between atoms: C3_3  and  C4_4 
REMARK    4  A    between atoms: C4_4  and  C5_5 
REMARK    5  A    between atoms: C5_5  and  C6_6 
REMARK    6  A    between atoms: C6_6  and  O1_8 
REMARK    7  A    between atoms: C6_6  and  C8_9 
REMARK    8  A    between atoms: C8_9  and  O2_10 
REMARK    9  A    between atoms: C10_12  and  O3_13 
REMARK   10  A    between atoms: C11_14  and  O4_15 
REMARK   11  A    between atoms: C13_17  and  O5_18 
REMARK   12  A    between atoms: C15_20  and  O6_21 
REMARK   13  A    between atoms: C18_24  and  O7_25 
ROOT
HETATM    1  C9  UNL     1      -3.460  50.163 -22.146  1.00  0.00     0.029 C 
HETATM    2  C10 UNL     1      -4.496  51.218 -22.634  1.00  0.00     0.152 C 
HETATM    3  C11 UNL     1      -5.714  50.428 -23.162  1.00  0.00     0.155 C 
HETATM    4  C12 UNL     1      -5.601  49.089 -22.425  1.00  0.00     0.060 C 
HETATM    5  C13 UNL     1      -6.543  47.920 -22.833  1.00  0.00     0.071 C 
HETATM    6  C14 UNL     1      -7.963  48.141 -22.261  1.00  0.00     0.071 C 
HETATM    7  C15 UNL     1      -8.217  47.408 -20.952  1.00  0.00     0.126 C 
HETATM    8  C16 UNL     1      -8.120  45.878 -21.110  1.00  0.00     0.025 C 
HETATM    9  C17 UNL     1      -7.907  45.217 -19.730  1.00  0.00     0.039 C 
HETATM   10  C18 UNL     1      -8.012  43.691 -19.804  1.00  0.00     0.118 C 
HETATM   11  C19 UNL     1      -7.426  43.103 -21.089  1.00  0.00     0.032 C 
HETATM   12  C20 UNL     1      -6.407  44.049 -21.721  1.00  0.00     0.012 C 
HETATM   13  C21 UNL     1      -7.040  45.416 -22.148  1.00  0.00    -0.031 C 
HETATM   14  C22 UNL     1      -7.758  45.129 -23.506  1.00  0.00     0.016 C 
HETATM   15  C23 UNL     1      -5.936  46.525 -22.399  1.00  0.00     0.029 C 
HETATM   16  C24 UNL     1      -4.929  46.713 -21.236  1.00  0.00     0.009 C 
HETATM   17  C25 UNL     1      -3.742  47.635 -21.572  1.00  0.00     0.011 C 
HETATM   18  C26 UNL     1      -4.078  48.775 -22.554  1.00  0.00    -0.029 C 
HETATM   19  C27 UNL     1      -3.649  48.361 -23.978  1.00  0.00     0.016 C 
ENDROOT
BRANCH   1  20
HETATM   20  C2  UNL     1      -1.959  50.517 -22.374  1.00  0.00    -0.011 C 
HETATM   21  C1  UNL     1      -1.402  51.730 -21.620  1.00  0.00     0.010 C 
BRANCH  20  22
HETATM   22  C3  UNL     1      -1.637  50.622 -23.883  1.00  0.00     0.005 C 
BRANCH  22  23
HETATM   23  C4  UNL     1      -0.551  51.635 -24.282  1.00  0.00     0.003 C 
BRANCH  23  24
HETATM   24  C5  UNL     1      -1.057  52.742 -25.215  1.00  0.00     0.040 C 
BRANCH  24  25
HETATM   25  C6  UNL     1      -0.141  53.087 -26.413  1.00  0.00     0.075 C 
HETATM   26  C7  UNL     1       1.155  52.276 -26.298  1.00  0.00     0.048 C 
BRANCH  25  27
HETATM   27  O1  UNL     1       0.218  54.473 -26.340  1.00  0.00    -0.388 OA
HETATM   28  H14 UNL     1      -0.526  54.949 -26.762  1.00  0.00     0.210 HD
ENDBRANCH  25  27
BRANCH  25  29
HETATM   29  C8  UNL     1      -0.787  52.829 -27.791  1.00  0.00     0.201 C 
BRANCH  29  30
HETATM   30  O2  UNL     1      -1.874  53.733 -28.003  1.00  0.00    -0.398 OA
HETATM   31  H17 UNL     1      -2.230  53.539 -28.889  1.00  0.00     0.209 HD
ENDBRANCH  29  30
ENDBRANCH  25  29
ENDBRANCH  24  25
ENDBRANCH  23  24
ENDBRANCH  22  23
ENDBRANCH  20  22
ENDBRANCH   1  20
BRANCH   2  32
HETATM   32  O3  UNL     1      -4.021  52.115 -23.624  1.00  0.00    -0.393 OA
HETATM   33  H20 UNL     1      -4.760  52.720 -23.817  1.00  0.00     0.210 HD
ENDBRANCH   2  32
BRANCH   3  34
HETATM   34  O4  UNL     1      -6.896  51.155 -22.860  1.00  0.00    -0.392 OA
HETATM   35  H22 UNL     1      -7.602  50.838 -23.447  1.00  0.00     0.210 HD
ENDBRANCH   3  34
BRANCH   5  36
HETATM   36  O5  UNL     1      -6.646  47.905 -24.264  1.00  0.00    -0.389 OA
HETATM   37  H24 UNL     1      -7.338  48.527 -24.544  1.00  0.00     0.210 HD
ENDBRANCH   5  36
BRANCH   7  38
HETATM   38  O6  UNL     1      -9.531  47.772 -20.520  1.00  0.00    -0.395 OA
HETATM   39  H28 UNL     1      -9.775  47.209 -19.766  1.00  0.00     0.210 HD
ENDBRANCH   7  38
BRANCH  10  40
HETATM   40  O7  UNL     1      -9.387  43.328 -19.710  1.00  0.00    -0.396 OA
HETATM   41  H33 UNL     1      -9.434  42.357 -19.717  1.00  0.00     0.210 HD
ENDBRANCH  10  40
TORSDOF 13
ENDMDL
