MODEL 1
REMARK minimizedAffinity -7.98969936
REMARK  7 active torsions:
REMARK  status: ('A' for Active; 'I' for Inactive)
REMARK    1  A    between atoms: O1_2  and  C2_3 
REMARK    2  A    between atoms: C2_3  and  C3_5 
REMARK    3  A    between atoms: C17_20  and  C18_21 
REMARK    4  A    between atoms: C18_21  and  O5_23 
REMARK    5  A    between atoms: O5_23  and  C19_24 
REMARK    6  A    between atoms: C19_24  and  C20_25 
REMARK    7  A    between atoms: C20_25  and  N1_26 
ROOT
HETATM    1  C3  UNL     1       0.663  50.737 -16.091  1.00  0.00     0.049 C 
HETATM    2  C4  UNL     1       2.064  51.196 -15.622  1.00  0.00     0.026 C 
HETATM    3  C5  UNL     1       0.633  49.190 -15.984  1.00  0.00     0.020 C 
HETATM    4  C6  UNL     1      -0.642  48.578 -16.547  1.00  0.00     0.002 C 
HETATM    5  C7  UNL     1      -0.838  48.955 -18.011  1.00  0.00     0.010 C 
HETATM    6  C8  UNL     1      -0.845  50.487 -18.277  1.00  0.00    -0.034 C 
HETATM    7  C9  UNL     1      -2.172  51.069 -17.735  1.00  0.00     0.016 C 
HETATM    8  C10 UNL     1       0.424  51.130 -17.597  1.00  0.00     0.019 C 
HETATM    9  C11 UNL     1       0.514  52.636 -17.891  1.00  0.00     0.085 C 
HETATM   10  C12 UNL     1       0.545  52.893 -19.379  1.00  0.00     0.132 C 
HETATM   11  O3  UNL     1       1.335  53.714 -19.848  1.00  0.00    -0.298 OA
HETATM   12  C13 UNL     1      -0.531  52.219 -20.218  1.00  0.00     0.068 C 
HETATM   13  C14 UNL     1      -0.289  52.406 -21.739  1.00  0.00     0.022 C 
HETATM   14  C15 UNL     1       1.035  51.822 -22.260  1.00  0.00     0.015 C 
HETATM   15  C16 UNL     1      -1.453  51.795 -22.518  1.00  0.00    -0.070 C 
HETATM   16  C17 UNL     1      -2.134  52.549 -23.404  1.00  0.00     0.085 C 
HETATM   17  C23 UNL     1      -1.749  50.355 -22.170  1.00  0.00     0.035 C 
HETATM   18  C24 UNL     1      -1.905  50.156 -20.658  1.00  0.00     0.010 C 
HETATM   19  C25 UNL     1      -0.725  50.731 -19.838  1.00  0.00     0.006 C 
ENDROOT
BRANCH  16  20
HETATM   20  C18 UNL     1      -3.263  52.160 -24.276  1.00  0.00     0.283 C 
HETATM   21  O4  UNL     1      -4.196  51.484 -23.869  1.00  0.00    -0.260 OA
BRANCH  20  22
HETATM   22  O5  UNL     1      -3.158  52.723 -25.501  1.00  0.00    -0.316 OA
BRANCH  22  23
HETATM   23  C19 UNL     1      -2.517  51.908 -26.500  1.00  0.00     0.209 C 
BRANCH  23  24
HETATM   24  C20 UNL     1      -1.249  52.597 -27.028  1.00  0.00     0.298 C 
BRANCH  24  25
HETATM   25  N1  UNL     1      -0.045  51.746 -26.972  1.00  0.00     0.082 N 
HETATM   26  C21 UNL     1       0.680  51.762 -28.247  1.00  0.00     0.309 C 
HETATM   27  C22 UNL     1       0.843  52.208 -25.900  1.00  0.00     0.309 C 
ENDBRANCH  24  25
ENDBRANCH  23  24
ENDBRANCH  22  23
ENDBRANCH  20  22
ENDBRANCH  16  20
BRANCH   1  28
HETATM   28  C2  UNL     1      -0.314  51.415 -15.112  1.00  0.00     0.267 C 
HETATM   29  O2  UNL     1      -1.481  51.076 -14.955  1.00  0.00    -0.264 OA
BRANCH  28  30
HETATM   30  O1  UNL     1       0.250  52.482 -14.483  1.00  0.00    -0.326 OA
HETATM   31  C1  UNL     1       0.015  52.531 -13.075  1.00  0.00     0.213 C 
ENDBRANCH  28  30
ENDBRANCH   1  28
TORSDOF 7
ENDMDL
MODEL 2
REMARK minimizedAffinity -7.98180199
REMARK  7 active torsions:
REMARK  status: ('A' for Active; 'I' for Inactive)
REMARK    1  A    between atoms: O1_2  and  C2_3 
REMARK    2  A    between atoms: C2_3  and  C3_5 
REMARK    3  A    between atoms: C17_20  and  C18_21 
REMARK    4  A    between atoms: C18_21  and  O5_23 
REMARK    5  A    between atoms: O5_23  and  C19_24 
REMARK    6  A    between atoms: C19_24  and  C20_25 
REMARK    7  A    between atoms: C20_25  and  N1_26 
ROOT
HETATM    1  C3  UNL     1      -1.499  51.070 -20.486  1.00  0.00     0.049 C 
HETATM    2  C4  UNL     1      -0.493  52.189 -20.129  1.00  0.00     0.026 C 
HETATM    3  C5  UNL     1      -0.887  49.735 -19.991  1.00  0.00     0.020 C 
HETATM    4  C6  UNL     1      -1.704  48.517 -20.399  1.00  0.00     0.002 C 
HETATM    5  C7  UNL     1      -1.855  48.434 -21.913  1.00  0.00     0.010 C 
HETATM    6  C8  UNL     1      -2.474  49.705 -22.561  1.00  0.00    -0.034 C 
HETATM    7  C9  UNL     1      -3.979  49.749 -22.205  1.00  0.00     0.016 C 
HETATM    8  C10 UNL     1      -1.690  50.973 -22.047  1.00  0.00     0.019 C 
HETATM    9  C11 UNL     1      -2.207  52.258 -22.713  1.00  0.00     0.085 C 
HETATM   10  C12 UNL     1      -2.101  52.166 -24.217  1.00  0.00     0.132 C 
HETATM   11  O3  UNL     1      -1.679  53.123 -24.866  1.00  0.00    -0.298 OA
HETATM   12  C13 UNL     1      -2.678  50.920 -24.874  1.00  0.00     0.068 C 
HETATM   13  C14 UNL     1      -2.349  50.851 -26.388  1.00  0.00     0.022 C 
HETATM   14  C15 UNL     1      -0.848  50.809 -26.722  1.00  0.00     0.015 C 
HETATM   15  C16 UNL     1      -3.039  49.635 -27.004  1.00  0.00    -0.070 C 
HETATM   16  C17 UNL     1      -3.858  49.795 -28.063  1.00  0.00     0.085 C 
HETATM   17  C23 UNL     1      -2.742  48.329 -26.306  1.00  0.00     0.035 C 
HETATM   18  C24 UNL     1      -2.988  48.423 -24.796  1.00  0.00     0.010 C 
HETATM   19  C25 UNL     1      -2.273  49.624 -24.131  1.00  0.00     0.006 C 
ENDROOT
BRANCH  16  20
HETATM   20  C18 UNL     1      -4.599  48.768 -28.825  1.00  0.00     0.283 C 
HETATM   21  O4  UNL     1      -5.100  47.793 -28.285  1.00  0.00    -0.260 OA
BRANCH  20  22
HETATM   22  O5  UNL     1      -4.714  49.107 -30.129  1.00  0.00    -0.316 OA
BRANCH  22  23
HETATM   23  C19 UNL     1      -5.366  48.132 -30.964  1.00  0.00     0.209 C 
BRANCH  23  24
HETATM   24  C20 UNL     1      -6.839  48.509 -31.184  1.00  0.00     0.298 C 
BRANCH  24  25
HETATM   25  N1  UNL     1      -7.362  48.111 -32.506  1.00  0.00     0.082 N 
HETATM   26  C21 UNL     1      -6.330  47.454 -33.313  1.00  0.00     0.309 C 
HETATM   27  C22 UNL     1      -8.502  47.204 -32.339  1.00  0.00     0.309 C 
ENDBRANCH  24  25
ENDBRANCH  23  24
ENDBRANCH  22  23
ENDBRANCH  20  22
ENDBRANCH  16  20
BRANCH   1  28
HETATM   28  C2  UNL     1      -2.785  51.449 -19.728  1.00  0.00     0.267 C 
HETATM   29  O2  UNL     1      -3.905  51.447 -20.224  1.00  0.00    -0.264 OA
BRANCH  28  30
HETATM   30  O1  UNL     1      -2.527  51.850 -18.453  1.00  0.00    -0.326 OA
HETATM   31  C1  UNL     1      -2.809  50.867 -17.455  1.00  0.00     0.213 C 
ENDBRANCH  28  30
ENDBRANCH   1  28
TORSDOF 7
ENDMDL
MODEL 3
REMARK minimizedAffinity -7.69753265
REMARK  7 active torsions:
REMARK  status: ('A' for Active; 'I' for Inactive)
REMARK    1  A    between atoms: O1_2  and  C2_3 
REMARK    2  A    between atoms: C2_3  and  C3_5 
REMARK    3  A    between atoms: C17_20  and  C18_21 
REMARK    4  A    between atoms: C18_21  and  O5_23 
REMARK    5  A    between atoms: O5_23  and  C19_24 
REMARK    6  A    between atoms: C19_24  and  C20_25 
REMARK    7  A    between atoms: C20_25  and  N1_26 
ROOT
HETATM    1  C3  UNL     1      -1.113  52.226 -27.172  1.00  0.00     0.049 C 
HETATM    2  C4  UNL     1      -2.303  51.673 -27.991  1.00  0.00     0.026 C 
HETATM    3  C5  UNL     1       0.154  51.468 -27.645  1.00  0.00     0.020 C 
HETATM    4  C6  UNL     1       1.392  51.806 -26.826  1.00  0.00     0.002 C 
HETATM    5  C7  UNL     1       1.180  51.495 -25.349  1.00  0.00     0.010 C 
HETATM    6  C8  UNL     1      -0.056  52.200 -24.722  1.00  0.00    -0.034 C 
HETATM    7  C9  UNL     1       0.266  53.706 -24.572  1.00  0.00     0.016 C 
HETATM    8  C10 UNL     1      -1.313  51.936 -25.636  1.00  0.00     0.019 C 
HETATM    9  C11 UNL     1      -2.586  52.544 -25.028  1.00  0.00     0.085 C 
HETATM   10  C12 UNL     1      -2.836  51.996 -23.643  1.00  0.00     0.132 C 
HETATM   11  O3  UNL     1      -3.972  51.658 -23.307  1.00  0.00    -0.298 OA
HETATM   12  C13 UNL     1      -1.670  52.035 -22.665  1.00  0.00     0.068 C 
HETATM   13  C14 UNL     1      -1.987  51.283 -21.346  1.00  0.00     0.022 C 
HETATM   14  C15 UNL     1      -2.306  49.787 -21.514  1.00  0.00     0.015 C 
HETATM   15  C16 UNL     1      -0.820  51.444 -20.374  1.00  0.00    -0.070 C 
HETATM   16  C17 UNL     1      -1.040  51.942 -19.140  1.00  0.00     0.085 C 
HETATM   17  C23 UNL     1       0.522  51.043 -20.939  1.00  0.00     0.035 C 
HETATM   18  C24 UNL     1       0.799  51.723 -22.284  1.00  0.00     0.010 C 
HETATM   19  C25 UNL     1      -0.349  51.548 -23.308  1.00  0.00     0.006 C 
ENDROOT
BRANCH  16  20
HETATM   20  C18 UNL     1      -0.074  52.157 -18.042  1.00  0.00     0.283 C 
HETATM   21  O4  UNL     1       0.871  52.924 -18.148  1.00  0.00    -0.260 OA
BRANCH  20  22
HETATM   22  O5  UNL     1      -0.435  51.481 -16.927  1.00  0.00    -0.316 OA
BRANCH  22  23
HETATM   23  C19 UNL     1       0.647  51.113 -16.052  1.00  0.00     0.209 C 
BRANCH  23  24
HETATM   24  C20 UNL     1       0.111  50.721 -14.666  1.00  0.00     0.298 C 
BRANCH  24  25
HETATM   25  N1  UNL     1      -0.233  51.876 -13.815  1.00  0.00     0.082 N 
HETATM   26  C21 UNL     1      -1.652  51.863 -13.444  1.00  0.00     0.309 C 
HETATM   27  C22 UNL     1       0.589  51.863 -12.601  1.00  0.00     0.309 C 
ENDBRANCH  24  25
ENDBRANCH  23  24
ENDBRANCH  22  23
ENDBRANCH  20  22
ENDBRANCH  16  20
BRANCH   1  28
HETATM   28  C2  UNL     1      -1.068  53.726 -27.517  1.00  0.00     0.267 C 
HETATM   29  O2  UNL     1      -1.928  54.311 -28.164  1.00  0.00    -0.264 OA
BRANCH  28  30
HETATM   30  O1  UNL     1       0.074  54.319 -27.075  1.00  0.00    -0.326 OA
HETATM   31  C1  UNL     1       0.028  55.747 -27.048  1.00  0.00     0.213 C 
ENDBRANCH  28  30
ENDBRANCH   1  28
TORSDOF 7
ENDMDL
MODEL 4
REMARK minimizedAffinity -7.59914112
REMARK  7 active torsions:
REMARK  status: ('A' for Active; 'I' for Inactive)
REMARK    1  A    between atoms: O1_2  and  C2_3 
REMARK    2  A    between atoms: C2_3  and  C3_5 
REMARK    3  A    between atoms: C17_20  and  C18_21 
REMARK    4  A    between atoms: C18_21  and  O5_23 
REMARK    5  A    between atoms: O5_23  and  C19_24 
REMARK    6  A    between atoms: C19_24  and  C20_25 
REMARK    7  A    between atoms: C20_25  and  N1_26 
ROOT
HETATM    1  C3  UNL     1      -3.228  51.426 -24.689  1.00  0.00     0.049 C 
HETATM    2  C4  UNL     1      -2.673  52.336 -25.810  1.00  0.00     0.026 C 
HETATM    3  C5  UNL     1      -4.675  51.898 -24.395  1.00  0.00     0.020 C 
HETATM    4  C6  UNL     1      -5.306  51.182 -23.209  1.00  0.00     0.002 C 
HETATM    5  C7  UNL     1      -4.480  51.375 -21.943  1.00  0.00     0.010 C 
HETATM    6  C8  UNL     1      -2.997  50.929 -22.078  1.00  0.00    -0.034 C 
HETATM    7  C9  UNL     1      -2.955  49.383 -22.119  1.00  0.00     0.016 C 
HETATM    8  C10 UNL     1      -2.381  51.589 -23.371  1.00  0.00     0.019 C 
HETATM    9  C11 UNL     1      -0.890  51.247 -23.518  1.00  0.00     0.085 C 
HETATM   10  C12 UNL     1      -0.114  51.688 -22.299  1.00  0.00     0.132 C 
HETATM   11  O3  UNL     1       0.972  52.254 -22.429  1.00  0.00    -0.298 OA
HETATM   12  C13 UNL     1      -0.658  51.261 -20.943  1.00  0.00     0.068 C 
HETATM   13  C14 UNL     1       0.111  51.921 -19.770  1.00  0.00     0.022 C 
HETATM   14  C15 UNL     1       0.060  53.458 -19.745  1.00  0.00     0.015 C 
HETATM   15  C16 UNL     1      -0.416  51.376 -18.444  1.00  0.00    -0.070 C 
HETATM   16  C17 UNL     1       0.437  50.818 -17.562  1.00  0.00     0.085 C 
HETATM   17  C23 UNL     1      -1.912  51.497 -18.271  1.00  0.00     0.035 C 
HETATM   18  C24 UNL     1      -2.671  50.918 -19.471  1.00  0.00     0.010 C 
HETATM   19  C25 UNL     1      -2.187  51.477 -20.831  1.00  0.00     0.006 C 
ENDROOT
BRANCH  16  20
HETATM   20  C18 UNL     1       0.152  50.257 -16.224  1.00  0.00     0.283 C 
HETATM   21  O4  UNL     1       0.532  49.145 -15.890  1.00  0.00    -0.260 OA
BRANCH  20  22
HETATM   22  O5  UNL     1      -0.480  51.157 -15.436  1.00  0.00    -0.316 OA
BRANCH  22  23
HETATM   23  C19 UNL     1      -0.268  50.993 -14.022  1.00  0.00     0.209 C 
BRANCH  23  24
HETATM   24  C20 UNL     1      -0.154  52.361 -13.331  1.00  0.00     0.298 C 
BRANCH  24  25
HETATM   25  N1  UNL     1      -0.808  52.414 -12.009  1.00  0.00     0.082 N 
HETATM   26  C21 UNL     1      -0.425  53.622 -11.272  1.00  0.00     0.309 C 
HETATM   27  C22 UNL     1      -2.265  52.383 -12.172  1.00  0.00     0.309 C 
ENDBRANCH  24  25
ENDBRANCH  23  24
ENDBRANCH  22  23
ENDBRANCH  20  22
ENDBRANCH  16  20
BRANCH   1  28
HETATM   28  C2  UNL     1      -3.179  50.006 -25.284  1.00  0.00     0.267 C 
HETATM   29  O2  UNL     1      -2.895  49.000 -24.645  1.00  0.00    -0.264 OA
BRANCH  28  30
HETATM   30  O1  UNL     1      -3.424  50.003 -26.623  1.00  0.00    -0.326 OA
HETATM   31  C1  UNL     1      -3.839  48.740 -27.146  1.00  0.00     0.213 C 
ENDBRANCH  28  30
ENDBRANCH   1  28
TORSDOF 7
ENDMDL
MODEL 5
REMARK minimizedAffinity -7.53812265
REMARK  7 active torsions:
REMARK  status: ('A' for Active; 'I' for Inactive)
REMARK    1  A    between atoms: O1_2  and  C2_3 
REMARK    2  A    between atoms: C2_3  and  C3_5 
REMARK    3  A    between atoms: C17_20  and  C18_21 
REMARK    4  A    between atoms: C18_21  and  O5_23 
REMARK    5  A    between atoms: O5_23  and  C19_24 
REMARK    6  A    between atoms: C19_24  and  C20_25 
REMARK    7  A    between atoms: C20_25  and  N1_26 
ROOT
HETATM    1  C3  UNL     1      -1.093  51.317 -25.888  1.00  0.00     0.049 C 
HETATM    2  C4  UNL     1      -1.187  50.215 -26.970  1.00  0.00     0.026 C 
HETATM    3  C5  UNL     1       0.337  51.910 -25.967  1.00  0.00     0.020 C 
HETATM    4  C6  UNL     1       0.627  52.916 -24.862  1.00  0.00     0.002 C 
HETATM    5  C7  UNL     1       0.449  52.291 -23.483  1.00  0.00     0.010 C 
HETATM    6  C8  UNL     1      -0.953  51.662 -23.247  1.00  0.00    -0.034 C 
HETATM    7  C9  UNL     1      -1.980  52.807 -23.088  1.00  0.00     0.016 C 
HETATM    8  C10 UNL     1      -1.292  50.703 -24.452  1.00  0.00     0.019 C 
HETATM    9  C11 UNL     1      -2.637  49.989 -24.238  1.00  0.00     0.085 C 
HETATM   10  C12 UNL     1      -2.631  49.206 -22.947  1.00  0.00     0.132 C 
HETATM   11  O3  UNL     1      -3.095  48.065 -22.913  1.00  0.00    -0.298 OA
HETATM   12  C13 UNL     1      -2.179  49.944 -21.694  1.00  0.00     0.068 C 
HETATM   13  C14 UNL     1      -2.040  48.996 -20.475  1.00  0.00     0.022 C 
HETATM   14  C15 UNL     1      -1.015  47.862 -20.651  1.00  0.00     0.015 C 
HETATM   15  C16 UNL     1      -1.683  49.811 -19.233  1.00  0.00    -0.070 C 
HETATM   16  C17 UNL     1      -2.453  49.722 -18.129  1.00  0.00     0.085 C 
HETATM   17  C23 UNL     1      -0.470  50.697 -19.396  1.00  0.00     0.035 C 
HETATM   18  C24 UNL     1      -0.572  51.575 -20.649  1.00  0.00     0.010 C 
HETATM   19  C25 UNL     1      -0.896  50.776 -21.934  1.00  0.00     0.006 C 
ENDROOT
BRANCH  16  20
HETATM   20  C18 UNL     1      -2.280  50.393 -16.824  1.00  0.00     0.283 C 
HETATM   21  O4  UNL     1      -3.012  51.299 -16.456  1.00  0.00    -0.260 OA
BRANCH  20  22
HETATM   22  O5  UNL     1      -1.299  49.812 -16.096  1.00  0.00    -0.316 OA
BRANCH  22  23
HETATM   23  C19 UNL     1      -0.473  50.718 -15.341  1.00  0.00     0.209 C 
BRANCH  23  24
HETATM   24  C20 UNL     1       0.789  51.088 -16.136  1.00  0.00     0.298 C 
BRANCH  24  25
HETATM   25  N1  UNL     1       1.623  52.114 -15.481  1.00  0.00     0.082 N 
HETATM   26  C21 UNL     1       2.311  51.572 -14.305  1.00  0.00     0.309 C 
HETATM   27  C22 UNL     1       2.613  52.632 -16.430  1.00  0.00     0.309 C 
ENDBRANCH  24  25
ENDBRANCH  23  24
ENDBRANCH  22  23
ENDBRANCH  20  22
ENDBRANCH  16  20
BRANCH   1  28
HETATM   28  C2  UNL     1      -2.178  52.338 -26.281  1.00  0.00     0.267 C 
HETATM   29  O2  UNL     1      -2.996  52.809 -25.500  1.00  0.00    -0.264 OA
BRANCH  28  30
HETATM   30  O1  UNL     1      -2.167  52.609 -27.614  1.00  0.00    -0.326 OA
HETATM   31  C1  UNL     1      -1.402  53.760 -27.977  1.00  0.00     0.213 C 
ENDBRANCH  28  30
ENDBRANCH   1  28
TORSDOF 7
ENDMDL
MODEL 6
REMARK minimizedAffinity -7.51909447
REMARK  7 active torsions:
REMARK  status: ('A' for Active; 'I' for Inactive)
REMARK    1  A    between atoms: O1_2  and  C2_3 
REMARK    2  A    between atoms: C2_3  and  C3_5 
REMARK    3  A    between atoms: C17_20  and  C18_21 
REMARK    4  A    between atoms: C18_21  and  O5_23 
REMARK    5  A    between atoms: O5_23  and  C19_24 
REMARK    6  A    between atoms: C19_24  and  C20_25 
REMARK    7  A    between atoms: C20_25  and  N1_26 
ROOT
HETATM    1  C3  UNL     1      -1.275  52.330 -25.058  1.00  0.00     0.049 C 
HETATM    2  C4  UNL     1      -0.525  53.503 -25.731  1.00  0.00     0.026 C 
HETATM    3  C5  UNL     1      -2.791  52.609 -25.219  1.00  0.00     0.020 C 
HETATM    4  C6  UNL     1      -3.664  51.605 -24.479  1.00  0.00     0.002 C 
HETATM    5  C7  UNL     1      -3.343  51.584 -22.989  1.00  0.00     0.010 C 
HETATM    6  C8  UNL     1      -1.849  51.299 -22.666  1.00  0.00    -0.034 C 
HETATM    7  C9  UNL     1      -1.564  49.807 -22.960  1.00  0.00     0.016 C 
HETATM    8  C10 UNL     1      -0.947  52.271 -23.519  1.00  0.00     0.019 C 
HETATM    9  C11 UNL     1       0.542  52.090 -23.185  1.00  0.00     0.085 C 
HETATM   10  C12 UNL     1       0.795  52.316 -21.713  1.00  0.00     0.132 C 
HETATM   11  O3  UNL     1       1.765  52.983 -21.348  1.00  0.00    -0.298 OA
HETATM   12  C13 UNL     1      -0.097  51.563 -20.736  1.00  0.00     0.068 C 
HETATM   13  C14 UNL     1       0.133  52.013 -19.269  1.00  0.00     0.022 C 
HETATM   14  C15 UNL     1      -0.155  53.499 -18.996  1.00  0.00     0.015 C 
HETATM   15  C16 UNL     1      -0.716  51.153 -18.334  1.00  0.00    -0.070 C 
HETATM   16  C17 UNL     1      -0.128  50.487 -17.320  1.00  0.00     0.085 C 
HETATM   17  C23 UNL     1      -2.185  51.113 -18.685  1.00  0.00     0.035 C 
HETATM   18  C24 UNL     1      -2.407  50.749 -20.158  1.00  0.00     0.010 C 
HETATM   19  C25 UNL     1      -1.590  51.627 -21.137  1.00  0.00     0.006 C 
ENDROOT
BRANCH  16  20
HETATM   20  C18 UNL     1      -0.753  49.628 -16.291  1.00  0.00     0.283 C 
HETATM   21  O4  UNL     1      -1.883  49.181 -16.415  1.00  0.00    -0.260 OA
BRANCH  20  22
HETATM   22  O5  UNL     1       0.112  49.349 -15.289  1.00  0.00    -0.316 OA
BRANCH  22  23
HETATM   23  C19 UNL     1       1.070  50.383 -14.996  1.00  0.00     0.209 C 
BRANCH  23  24
HETATM   24  C20 UNL     1       1.956  49.977 -13.808  1.00  0.00     0.298 C 
BRANCH  24  25
HETATM   25  N1  UNL     1       3.239  50.704 -13.750  1.00  0.00     0.082 N 
HETATM   26  C21 UNL     1       4.378  49.785 -13.839  1.00  0.00     0.309 C 
HETATM   27  C22 UNL     1       3.311  51.677 -14.844  1.00  0.00     0.309 C 
ENDBRANCH  24  25
ENDBRANCH  23  24
ENDBRANCH  22  23
ENDBRANCH  20  22
ENDBRANCH  16  20
BRANCH   1  28
HETATM   28  C2  UNL     1      -0.819  51.081 -25.836  1.00  0.00     0.267 C 
HETATM   29  O2  UNL     1      -1.555  50.151 -26.142  1.00  0.00    -0.264 OA
BRANCH  28  30
HETATM   30  O1  UNL     1       0.518  51.098 -26.091  1.00  0.00    -0.326 OA
HETATM   31  C1  UNL     1       0.855  51.184 -27.477  1.00  0.00     0.213 C 
ENDBRANCH  28  30
ENDBRANCH   1  28
TORSDOF 7
ENDMDL
MODEL 7
REMARK minimizedAffinity -7.31198645
REMARK  7 active torsions:
REMARK  status: ('A' for Active; 'I' for Inactive)
REMARK    1  A    between atoms: O1_2  and  C2_3 
REMARK    2  A    between atoms: C2_3  and  C3_5 
REMARK    3  A    between atoms: C17_20  and  C18_21 
REMARK    4  A    between atoms: C18_21  and  O5_23 
REMARK    5  A    between atoms: O5_23  and  C19_24 
REMARK    6  A    between atoms: C19_24  and  C20_25 
REMARK    7  A    between atoms: C20_25  and  N1_26 
ROOT
HETATM    1  C3  UNL     1      -0.284  51.796 -25.625  1.00  0.00     0.049 C 
HETATM    2  C4  UNL     1       0.270  50.998 -26.829  1.00  0.00     0.026 C 
HETATM    3  C5  UNL     1       0.938  52.336 -24.838  1.00  0.00     0.020 C 
HETATM    4  C6  UNL     1       0.551  53.028 -23.539  1.00  0.00     0.002 C 
HETATM    5  C7  UNL     1      -0.224  52.091 -22.621  1.00  0.00     0.010 C 
HETATM    6  C8  UNL     1      -1.496  51.476 -23.270  1.00  0.00    -0.034 C 
HETATM    7  C9  UNL     1      -2.568  52.585 -23.387  1.00  0.00     0.016 C 
HETATM    8  C10 UNL     1      -1.108  50.855 -24.667  1.00  0.00     0.019 C 
HETATM    9  C11 UNL     1      -2.311  50.161 -25.325  1.00  0.00     0.085 C 
HETATM   10  C12 UNL     1      -2.870  49.085 -24.425  1.00  0.00     0.132 C 
HETATM   11  O3  UNL     1      -3.184  47.990 -24.893  1.00  0.00    -0.298 OA
HETATM   12  C13 UNL     1      -3.165  49.476 -22.984  1.00  0.00     0.068 C 
HETATM   13  C14 UNL     1      -3.558  48.253 -22.115  1.00  0.00     0.022 C 
HETATM   14  C15 UNL     1      -2.481  47.160 -22.011  1.00  0.00     0.015 C 
HETATM   15  C16 UNL     1      -3.937  48.724 -20.713  1.00  0.00    -0.070 C 
HETATM   16  C17 UNL     1      -5.139  48.395 -20.197  1.00  0.00     0.085 C 
HETATM   17  C23 UNL     1      -2.889  49.578 -20.037  1.00  0.00     0.035 C 
HETATM   18  C24 UNL     1      -2.440  50.740 -20.931  1.00  0.00     0.010 C 
HETATM   19  C25 UNL     1      -2.013  50.293 -22.351  1.00  0.00     0.006 C 
ENDROOT
BRANCH  16  20
HETATM   20  C18 UNL     1      -5.695  48.718 -18.866  1.00  0.00     0.283 C 
HETATM   21  O4  UNL     1      -5.004  48.736 -17.859  1.00  0.00    -0.260 OA
BRANCH  20  22
HETATM   22  O5  UNL     1      -6.999  49.069 -18.948  1.00  0.00    -0.316 OA
BRANCH  22  23
HETATM   23  C19 UNL     1      -7.938  48.047 -18.564  1.00  0.00     0.209 C 
BRANCH  23  24
HETATM   24  C20 UNL     1      -9.276  48.243 -19.292  1.00  0.00     0.298 C 
BRANCH  24  25
HETATM   25  N1  UNL     1     -10.449  48.212 -18.396  1.00  0.00     0.082 N 
HETATM   26  C21 UNL     1     -11.440  47.231 -18.847  1.00  0.00     0.309 C 
HETATM   27  C22 UNL     1     -10.025  47.885 -17.031  1.00  0.00     0.309 C 
ENDBRANCH  24  25
ENDBRANCH  23  24
ENDBRANCH  22  23
ENDBRANCH  20  22
ENDBRANCH  16  20
BRANCH   1  28
HETATM   28  C2  UNL     1      -1.123  52.921 -26.259  1.00  0.00     0.267 C 
HETATM   29  O2  UNL     1      -2.274  52.784 -26.655  1.00  0.00    -0.264 OA
BRANCH  28  30
HETATM   30  O1  UNL     1      -0.414  54.075 -26.390  1.00  0.00    -0.326 OA
HETATM   31  C1  UNL     1      -0.194  54.484 -27.742  1.00  0.00     0.213 C 
ENDBRANCH  28  30
ENDBRANCH   1  28
TORSDOF 7
ENDMDL
MODEL 8
REMARK minimizedAffinity -7.25769138
REMARK  7 active torsions:
REMARK  status: ('A' for Active; 'I' for Inactive)
REMARK    1  A    between atoms: O1_2  and  C2_3 
REMARK    2  A    between atoms: C2_3  and  C3_5 
REMARK    3  A    between atoms: C17_20  and  C18_21 
REMARK    4  A    between atoms: C18_21  and  O5_23 
REMARK    5  A    between atoms: O5_23  and  C19_24 
REMARK    6  A    between atoms: C19_24  and  C20_25 
REMARK    7  A    between atoms: C20_25  and  N1_26 
ROOT
HETATM    1  C3  UNL     1      -3.569  51.294 -24.503  1.00  0.00     0.049 C 
HETATM    2  C4  UNL     1      -3.049  52.250 -25.602  1.00  0.00     0.026 C 
HETATM    3  C5  UNL     1      -5.007  51.751 -24.146  1.00  0.00     0.020 C 
HETATM    4  C6  UNL     1      -5.601  50.987 -22.971  1.00  0.00     0.002 C 
HETATM    5  C7  UNL     1      -4.737  51.130 -21.724  1.00  0.00     0.010 C 
HETATM    6  C8  UNL     1      -3.258  50.692 -21.922  1.00  0.00    -0.034 C 
HETATM    7  C9  UNL     1      -3.217  49.150 -22.028  1.00  0.00     0.016 C 
HETATM    8  C10 UNL     1      -2.683  51.405 -23.205  1.00  0.00     0.019 C 
HETATM    9  C11 UNL     1      -1.196  51.073 -23.412  1.00  0.00     0.085 C 
HETATM   10  C12 UNL     1      -0.384  51.465 -22.201  1.00  0.00     0.132 C 
HETATM   11  O3  UNL     1       0.698  52.038 -22.341  1.00  0.00    -0.298 OA
HETATM   12  C13 UNL     1      -0.886  50.982 -20.847  1.00  0.00     0.068 C 
HETATM   13  C14 UNL     1      -0.082  51.596 -19.672  1.00  0.00     0.022 C 
HETATM   14  C15 UNL     1      -0.134  53.131 -19.583  1.00  0.00     0.015 C 
HETATM   15  C16 UNL     1      -0.568  50.997 -18.353  1.00  0.00    -0.070 C 
HETATM   16  C17 UNL     1       0.312  50.405 -17.521  1.00  0.00     0.085 C 
HETATM   17  C23 UNL     1      -2.058  51.107 -18.130  1.00  0.00     0.035 C 
HETATM   18  C24 UNL     1      -2.853  50.577 -19.329  1.00  0.00     0.010 C 
HETATM   19  C25 UNL     1      -2.411  51.191 -20.679  1.00  0.00     0.006 C 
ENDROOT
BRANCH  16  20
HETATM   20  C18 UNL     1       0.068  49.790 -16.199  1.00  0.00     0.283 C 
HETATM   21  O4  UNL     1       0.085  48.580 -16.031  1.00  0.00    -0.260 OA
BRANCH  20  22
HETATM   22  O5  UNL     1      -0.073  50.729 -15.237  1.00  0.00    -0.316 OA
BRANCH  22  23
HETATM   23  C19 UNL     1       1.003  50.802 -14.283  1.00  0.00     0.209 C 
BRANCH  23  24
HETATM   24  C20 UNL     1       1.975  51.934 -14.651  1.00  0.00     0.298 C 
BRANCH  24  25
HETATM   25  N1  UNL     1       3.233  51.461 -15.261  1.00  0.00     0.082 N 
HETATM   26  C21 UNL     1       4.029  52.578 -15.777  1.00  0.00     0.309 C 
HETATM   27  C22 UNL     1       4.019  50.718 -14.271  1.00  0.00     0.309 C 
ENDBRANCH  24  25
ENDBRANCH  23  24
ENDBRANCH  22  23
ENDBRANCH  20  22
ENDBRANCH  16  20
BRANCH   1  28
HETATM   28  C2  UNL     1      -3.537  49.899 -25.156  1.00  0.00     0.267 C 
HETATM   29  O2  UNL     1      -3.911  48.871 -24.606  1.00  0.00    -0.264 OA
BRANCH  28  30
HETATM   30  O1  UNL     1      -2.982  49.929 -26.398  1.00  0.00    -0.326 OA
HETATM   31  C1  UNL     1      -3.434  48.893 -27.273  1.00  0.00     0.213 C 
ENDBRANCH  28  30
ENDBRANCH   1  28
TORSDOF 7
ENDMDL
MODEL 9
REMARK minimizedAffinity -7.21697712
REMARK  7 active torsions:
REMARK  status: ('A' for Active; 'I' for Inactive)
REMARK    1  A    between atoms: O1_2  and  C2_3 
REMARK    2  A    between atoms: C2_3  and  C3_5 
REMARK    3  A    between atoms: C17_20  and  C18_21 
REMARK    4  A    between atoms: C18_21  and  O5_23 
REMARK    5  A    between atoms: O5_23  and  C19_24 
REMARK    6  A    between atoms: C19_24  and  C20_25 
REMARK    7  A    between atoms: C20_25  and  N1_26 
ROOT
HETATM    1  C3  UNL     1       0.947  50.817 -15.587  1.00  0.00     0.049 C 
HETATM    2  C4  UNL     1       2.335  51.373 -15.191  1.00  0.00     0.026 C 
HETATM    3  C5  UNL     1       1.008  49.278 -15.415  1.00  0.00     0.020 C 
HETATM    4  C6  UNL     1      -0.249  48.572 -15.904  1.00  0.00     0.002 C 
HETATM    5  C7  UNL     1      -0.516  48.872 -17.374  1.00  0.00     0.010 C 
HETATM    6  C8  UNL     1      -0.619  50.389 -17.704  1.00  0.00    -0.034 C 
HETATM    7  C9  UNL     1      -1.957  50.920 -17.138  1.00  0.00     0.016 C 
HETATM    8  C10 UNL     1       0.634  51.130 -17.099  1.00  0.00     0.019 C 
HETATM    9  C11 UNL     1       0.629  52.624 -17.459  1.00  0.00     0.085 C 
HETATM   10  C12 UNL     1       0.594  52.817 -18.957  1.00  0.00     0.132 C 
HETATM   11  O3  UNL     1       1.319  53.658 -19.489  1.00  0.00    -0.298 OA
HETATM   12  C13 UNL     1      -0.471  52.048 -19.727  1.00  0.00     0.068 C 
HETATM   13  C14 UNL     1      -0.293  52.180 -21.262  1.00  0.00     0.022 C 
HETATM   14  C15 UNL     1       1.044  51.648 -21.806  1.00  0.00     0.015 C 
HETATM   15  C16 UNL     1      -1.445  51.473 -21.972  1.00  0.00    -0.070 C 
HETATM   16  C17 UNL     1      -2.199  52.148 -22.863  1.00  0.00     0.085 C 
HETATM   17  C23 UNL     1      -1.647  50.035 -21.552  1.00  0.00     0.035 C 
HETATM   18  C24 UNL     1      -1.740  49.895 -20.029  1.00  0.00     0.010 C 
HETATM   19  C25 UNL     1      -0.566  50.570 -19.278  1.00  0.00     0.006 C 
ENDROOT
BRANCH  16  20
HETATM   20  C18 UNL     1      -3.334  51.659 -23.675  1.00  0.00     0.283 C 
HETATM   21  O4  UNL     1      -4.476  51.626 -23.243  1.00  0.00    -0.260 OA
BRANCH  20  22
HETATM   22  O5  UNL     1      -2.947  51.363 -24.936  1.00  0.00    -0.316 OA
BRANCH  22  23
HETATM   23  C19 UNL     1      -2.434  50.031 -25.127  1.00  0.00     0.209 C 
BRANCH  23  24
HETATM   24  C20 UNL     1      -3.518  49.115 -25.716  1.00  0.00     0.298 C 
BRANCH  24  25
HETATM   25  N1  UNL     1      -3.985  49.532 -27.053  1.00  0.00     0.082 N 
HETATM   26  C21 UNL     1      -2.952  50.288 -27.768  1.00  0.00     0.309 C 
HETATM   27  C22 UNL     1      -4.361  48.354 -27.840  1.00  0.00     0.309 C 
ENDBRANCH  24  25
ENDBRANCH  23  24
ENDBRANCH  22  23
ENDBRANCH  20  22
ENDBRANCH  16  20
BRANCH   1  28
HETATM   28  C2  UNL     1      -0.033  51.483 -14.603  1.00  0.00     0.267 C 
HETATM   29  O2  UNL     1      -1.162  51.071 -14.368  1.00  0.00    -0.264 OA
BRANCH  28  30
HETATM   30  O1  UNL     1       0.478  52.626 -14.068  1.00  0.00    -0.326 OA
HETATM   31  C1  UNL     1       0.156  52.830 -12.691  1.00  0.00     0.213 C 
ENDBRANCH  28  30
ENDBRANCH   1  28
TORSDOF 7
ENDMDL
