MODEL 1
REMARK minimizedAffinity -8.14720917
REMARK CNNscore 0.336231917
REMARK CNNaffinity 7.11208487
REMARK  10 active torsions:
REMARK  status: ('A' for Active; 'I' for Inactive)
REMARK       I    between atoms: N1_1  and  C1_2 
REMARK       I    between atoms: C1_2  and  N2_3 
REMARK    1  A    between atoms: N3_4  and  C2_6 
REMARK    2  A    between atoms: C2_6  and  C3_7 
REMARK    3  A    between atoms: C3_7  and  C4_8 
REMARK    4  A    between atoms: C4_8  and  C5_9 
REMARK    5  A    between atoms: C5_9  and  O1_10 
REMARK    6  A    between atoms: C18_24  and  S1_25 
REMARK    7  A    between atoms: C27_37  and  C28_38 
REMARK    8  A    between atoms: C28_38  and  O6_39 
REMARK    9  A    between atoms: C34_45  and  O7_46 
REMARK   10  A    between atoms: C45_58  and  NA1_59 
ROOT
HETATM    1  C2  UNL     1       2.992  51.901  -9.553  1.00  0.00     0.170 C 
HETATM    2  O2  UNL     1       2.911  52.766 -10.757  1.00  0.00    -0.316 OA
HETATM    3  C10 UNL     1       2.826  54.116 -10.508  1.00  0.00     0.072 C 
HETATM    4  C11 UNL     1       1.929  54.675  -9.604  1.00  0.00     0.037 C 
HETATM    5  C12 UNL     1       2.205  55.929  -9.067  1.00  0.00     0.010 C 
HETATM    6  C13 UNL     1       3.362  56.617  -9.458  1.00  0.00    -0.058 C 
HETATM    7  C14 UNL     1       4.096  56.159 -10.563  1.00  0.00     0.010 C 
HETATM    8  C15 UNL     1       3.819  54.903 -11.093  1.00  0.00     0.037 C 
HETATM    9  C16 UNL     1       4.028  57.530  -8.429  1.00  0.00     0.040 C 
HETATM   10  C17 UNL     1       4.838  56.558  -7.541  1.00  0.00     0.028 C 
HETATM   11  C18 UNL     1       5.618  57.070  -6.322  1.00  0.00     0.139 C 
HETATM   12  C19 UNL     1       6.872  56.162  -6.051  1.00  0.00     0.038 C 
HETATM   13  C20 UNL     1       7.869  56.715  -5.044  1.00  0.00    -0.014 C 
HETATM   14  C21 UNL     1       8.019  56.110  -3.849  1.00  0.00    -0.050 C 
HETATM   15  C22 UNL     1       7.018  55.091  -3.413  1.00  0.00     0.042 C 
HETATM   16  C23 UNL     1       7.067  54.002  -4.453  1.00  0.00     0.001 C 
HETATM   17  C24 UNL     1       8.419  53.245  -4.267  1.00  0.00     0.037 C 
HETATM   18  C25 UNL     1       9.765  54.059  -4.329  1.00  0.00     0.123 C 
HETATM   19  C26 UNL     1      10.890  52.987  -4.418  1.00  0.00     0.039 C 
HETATM   20  C27 UNL     1      12.369  53.451  -4.381  1.00  0.00     0.023 C 
HETATM   21  C29 UNL     1      12.720  54.468  -5.486  1.00  0.00     0.101 C 
HETATM   22  C30 UNL     1      12.320  55.801  -5.058  1.00  0.00    -0.101 C 
HETATM   23  C31 UNL     1      11.853  56.763  -4.519  1.00  0.00    -0.066 C 
HETATM   24  C32 UNL     1      11.195  57.755  -3.744  1.00  0.00     0.029 A 
HETATM   25  C33 UNL     1      11.754  59.043  -3.713  1.00  0.00     0.057 A 
HETATM   26  C34 UNL     1      11.133  60.064  -3.002  1.00  0.00     0.067 A 
HETATM   27  C35 UNL     1       9.956  59.822  -2.312  1.00  0.00     0.037 A 
HETATM   28  C36 UNL     1       9.408  58.537  -2.328  1.00  0.00     0.014 A 
HETATM   29  C37 UNL     1      10.013  57.471  -3.042  1.00  0.00    -0.006 A 
HETATM   30  C38 UNL     1       9.264  56.129  -3.013  1.00  0.00     0.185 C 
HETATM   31  O8  UNL     1      10.028  54.901  -3.181  1.00  0.00    -0.371 OA
HETATM   32  C39 UNL     1       6.865  54.562  -5.916  1.00  0.00     0.030 C 
HETATM   33  C40 UNL     1       5.900  53.754  -6.782  1.00  0.00    -0.054 A 
HETATM   34  C41 UNL     1       6.255  53.423  -8.100  1.00  0.00     0.141 A 
HETATM   35  C42 UNL     1       5.347  52.792  -8.959  1.00  0.00     0.014 A 
HETATM   36  C43 UNL     1       4.042  52.465  -8.543  1.00  0.00    -0.005 A 
HETATM   37  C44 UNL     1       3.711  52.753  -7.206  1.00  0.00     0.007 A 
HETATM   38  C45 UNL     1       4.626  53.374  -6.338  1.00  0.00     0.086 A 
ENDROOT
BRANCH   1  39
HETATM   39  N3  UNL     1       1.684  51.718  -8.912  1.00  0.00    -0.336 N 
HETATM   40  C1  UNL     1       0.534  51.432  -9.340  1.00  0.00     0.124 C 
HETATM   41  N1  UNL     1      -0.459  51.259  -8.430  1.00  0.00    -0.279 NA
HETATM   42  N2  UNL     1      -0.005  51.311 -10.571  1.00  0.00    -0.279 NA
HETATM   43  H1  UNL     1      -0.112  51.515  -7.510  1.00  0.00     0.126 HD
HETATM   44  H2  UNL     1      -1.274  51.813  -8.658  1.00  0.00     0.126 HD
HETATM   45  H3  UNL     1       0.621  51.309 -11.359  1.00  0.00     0.126 HD
HETATM   46  H4  UNL     1      -0.712  50.591 -10.636  1.00  0.00     0.126 HD
ATOM     47  H3  UNL     1       1.713  51.850  -7.901  1.00  0.00     0.165 HD
ENDBRANCH   1  39
BRANCH   1  48
HETATM   48  C3  UNL     1       3.564  50.565 -10.131  1.00  0.00     0.070 C 
BRANCH  48  49
HETATM   49  C4  UNL     1       4.377  50.586 -11.444  1.00  0.00     0.043 C 
BRANCH  49  50
HETATM   50  C5  UNL     1       3.780  49.907 -12.691  1.00  0.00     0.058 C 
HETATM   51  C6  UNL     1       2.898  48.676 -12.402  1.00  0.00     0.038 C 
HETATM   52  C7  UNL     1       1.641  48.814 -13.278  1.00  0.00     0.003 C 
HETATM   53  C8  UNL     1       1.942  49.947 -14.244  1.00  0.00     0.003 C 
HETATM   54  C9  UNL     1       2.819  50.870 -13.415  1.00  0.00     0.038 C 
BRANCH  50  55
HETATM   55  O1  UNL     1       4.810  49.590 -13.624  1.00  0.00    -0.390 OA
HETATM   56  H9  UNL     1       5.022  48.642 -13.524  1.00  0.00     0.210 HD
ENDBRANCH  50  55
ENDBRANCH  49  50
ENDBRANCH  48  49
ENDBRANCH   1  48
BRANCH  38  57
HETATM   57 NA1  UNL     1       6.519  53.760  -6.504  1.00  0.00    -0.383 Na
ATOM     58 2HA1 UNL     1       6.744  54.650  -6.061  1.00  0.00     0.091 HD
ATOM     59 1HA1 UNL     1       7.066  53.132  -5.915  1.00  0.00     0.091 HD
ENDBRANCH  38  57
BRANCH  11  60
HETATM   60  S1  UNL     1       4.518  57.349  -4.924  1.00  0.00     0.106 S 
HETATM   61  O3  UNL     1       4.131  56.012  -4.486  1.00  0.00    -0.595 OA
HETATM   62  O4  UNL     1       5.316  58.105  -3.962  1.00  0.00    -0.595 OA
HETATM   63  O5  UNL     1       3.414  58.125  -5.491  1.00  0.00    -0.595 OA
ENDBRANCH  11  60
BRANCH  20  64
HETATM   64  C28 UNL     1      13.299  52.227  -4.481  1.00  0.00     0.169 C 
BRANCH  64  65
HETATM   65  O6  UNL     1      14.637  52.581  -4.801  1.00  0.00    -0.400 OA
HETATM   66  H40 UNL     1      14.988  53.135  -4.089  1.00  0.00     0.209 HD
ENDBRANCH  64  65
ENDBRANCH  20  64
BRANCH  26  67
HETATM   67  O7  UNL     1      11.703  61.302  -3.026  1.00  0.00    -0.361 OA
HETATM   68  H44 UNL     1      11.093  61.915  -2.575  1.00  0.00     0.217 HD
ENDBRANCH  26  67
TORSDOF 10
ENDMDL
MODEL 2
REMARK minimizedAffinity -7.81581831
REMARK CNNscore 0.195525289
REMARK CNNaffinity 6.14993715
REMARK  10 active torsions:
REMARK  status: ('A' for Active; 'I' for Inactive)
REMARK       I    between atoms: N1_1  and  C1_2 
REMARK       I    between atoms: C1_2  and  N2_3 
REMARK    1  A    between atoms: N3_4  and  C2_6 
REMARK    2  A    between atoms: C2_6  and  C3_7 
REMARK    3  A    between atoms: C3_7  and  C4_8 
REMARK    4  A    between atoms: C4_8  and  C5_9 
REMARK    5  A    between atoms: C5_9  and  O1_10 
REMARK    6  A    between atoms: C18_24  and  S1_25 
REMARK    7  A    between atoms: C27_37  and  C28_38 
REMARK    8  A    between atoms: C28_38  and  O6_39 
REMARK    9  A    between atoms: C34_45  and  O7_46 
REMARK   10  A    between atoms: C45_58  and  NA1_59 
ROOT
HETATM    1  C2  UNL     1      -9.020  46.241 -19.252  1.00  0.00     0.170 C 
HETATM    2  O2  UNL     1      -9.334  45.158 -18.286  1.00  0.00    -0.316 OA
HETATM    3  C10 UNL     1     -10.673  44.935 -18.066  1.00  0.00     0.072 C 
HETATM    4  C11 UNL     1     -11.583  45.947 -17.779  1.00  0.00     0.037 C 
HETATM    5  C12 UNL     1     -12.934  45.731 -18.031  1.00  0.00     0.010 C 
HETATM    6  C13 UNL     1     -13.361  44.498 -18.545  1.00  0.00    -0.058 C 
HETATM    7  C14 UNL     1     -12.471  43.414 -18.565  1.00  0.00     0.010 C 
HETATM    8  C15 UNL     1     -11.119  43.637 -18.317  1.00  0.00     0.037 C 
HETATM    9  C16 UNL     1     -14.581  44.496 -19.466  1.00  0.00     0.040 C 
HETATM   10  C17 UNL     1     -14.012  44.934 -20.835  1.00  0.00     0.028 C 
HETATM   11  C18 UNL     1     -14.936  45.128 -22.045  1.00  0.00     0.139 C 
HETATM   12  C19 UNL     1     -14.162  44.832 -23.381  1.00  0.00     0.038 C 
HETATM   13  C20 UNL     1     -15.029  44.727 -24.625  1.00  0.00    -0.014 C 
HETATM   14  C21 UNL     1     -14.946  45.673 -25.582  1.00  0.00    -0.050 C 
HETATM   15  C22 UNL     1     -14.229  46.949 -25.289  1.00  0.00     0.042 C 
HETATM   16  C23 UNL     1     -12.814  46.553 -24.956  1.00  0.00     0.001 C 
HETATM   17  C24 UNL     1     -12.139  46.085 -26.283  1.00  0.00     0.037 C 
HETATM   18  C25 UNL     1     -12.805  44.923 -27.110  1.00  0.00     0.123 C 
HETATM   19  C26 UNL     1     -11.741  44.510 -28.169  1.00  0.00     0.039 C 
HETATM   20  C27 UNL     1     -12.120  43.450 -29.236  1.00  0.00     0.023 C 
HETATM   21  C29 UNL     1     -12.596  42.115 -28.630  1.00  0.00     0.101 C 
HETATM   22  C30 UNL     1     -14.004  42.221 -28.275  1.00  0.00    -0.101 C 
HETATM   23  C31 UNL     1     -15.120  42.571 -28.016  1.00  0.00    -0.066 C 
HETATM   24  C32 UNL     1     -16.365  43.198 -27.742  1.00  0.00     0.029 A 
HETATM   25  C33 UNL     1     -17.534  42.437 -27.907  1.00  0.00     0.057 A 
HETATM   26  C34 UNL     1     -18.778  42.985 -27.618  1.00  0.00     0.067 A 
HETATM   27  C35 UNL     1     -18.881  44.291 -27.165  1.00  0.00     0.037 A 
HETATM   28  C36 UNL     1     -17.720  45.055 -27.017  1.00  0.00     0.014 A 
HETATM   29  C37 UNL     1     -16.434  44.530 -27.302  1.00  0.00    -0.006 A 
HETATM   30  C38 UNL     1     -15.247  45.469 -27.037  1.00  0.00     0.185 C 
HETATM   31  O8  UNL     1     -14.023  45.281 -27.804  1.00  0.00    -0.371 OA
HETATM   32  C39 UNL     1     -12.750  45.466 -23.811  1.00  0.00     0.030 C 
HETATM   33  C40 UNL     1     -11.703  45.736 -22.731  1.00  0.00    -0.054 A 
HETATM   34  C41 UNL     1     -10.860  44.698 -22.302  1.00  0.00     0.141 A 
HETATM   35  C42 UNL     1      -9.976  44.878 -21.231  1.00  0.00     0.014 A 
HETATM   36  C43 UNL     1      -9.896  46.100 -20.537  1.00  0.00    -0.005 A 
HETATM   37  C44 UNL     1     -10.708  47.150 -21.004  1.00  0.00     0.007 A 
HETATM   38  C45 UNL     1     -11.585  46.976 -22.089  1.00  0.00     0.086 A 
ENDROOT
BRANCH   1  39
HETATM   39  N3  UNL     1      -9.161  47.575 -18.656  1.00  0.00    -0.336 N 
HETATM   40  C1  UNL     1      -8.421  48.291 -17.928  1.00  0.00     0.124 C 
HETATM   41  N1  UNL     1      -8.849  49.541 -17.621  1.00  0.00    -0.279 NA
HETATM   42  N2  UNL     1      -7.255  48.079 -17.284  1.00  0.00    -0.279 NA
HETATM   43  H1  UNL     1      -9.802  49.656 -17.955  1.00  0.00     0.126 HD
HETATM   44  H2  UNL     1      -8.809  49.714 -16.624  1.00  0.00     0.126 HD
HETATM   45  H3  UNL     1      -6.751  47.233 -17.490  1.00  0.00     0.126 HD
HETATM   46  H4  UNL     1      -6.654  48.892 -17.255  1.00  0.00     0.126 HD
ATOM     47  H3  UNL     1     -10.052  48.019 -18.878  1.00  0.00     0.165 HD
ENDBRANCH   1  39
BRANCH   1  48
HETATM   48  C3  UNL     1      -7.542  45.922 -19.652  1.00  0.00     0.070 C 
BRANCH  48  49
HETATM   49  C4  UNL     1      -6.916  46.613 -20.884  1.00  0.00     0.043 C 
BRANCH  49  50
HETATM   50  C5  UNL     1      -5.534  47.276 -20.735  1.00  0.00     0.058 C 
HETATM   51  C6  UNL     1      -4.431  46.360 -20.166  1.00  0.00     0.038 C 
HETATM   52  C7  UNL     1      -3.179  46.582 -21.030  1.00  0.00     0.003 C 
HETATM   53  C8  UNL     1      -3.486  47.801 -21.884  1.00  0.00     0.003 C 
HETATM   54  C9  UNL     1      -4.982  47.678 -22.116  1.00  0.00     0.038 C 
BRANCH  50  55
HETATM   55  O1  UNL     1      -5.641  48.479 -19.978  1.00  0.00    -0.390 OA
HETATM   56  H9  UNL     1      -5.362  48.282 -19.063  1.00  0.00     0.210 HD
ENDBRANCH  50  55
ENDBRANCH  49  50
ENDBRANCH  48  49
ENDBRANCH   1  48
BRANCH  38  57
HETATM   57 NA1  UNL     1     -11.795  45.539 -23.374  1.00  0.00    -0.383 Na
ATOM     58 2HA1 UNL     1     -12.778  45.411 -23.612  1.00  0.00     0.091 HD
ATOM     59 1HA1 UNL     1     -11.433  45.818 -24.286  1.00  0.00     0.091 HD
ENDBRANCH  38  57
BRANCH  11  60
HETATM   60  S1  UNL     1     -15.795  46.708 -21.955  1.00  0.00     0.106 S 
HETATM   61  O3  UNL     1     -16.289  46.782 -20.584  1.00  0.00    -0.595 OA
HETATM   62  O4  UNL     1     -14.786  47.705 -22.301  1.00  0.00    -0.595 OA
HETATM   63  O5  UNL     1     -16.855  46.591 -22.958  1.00  0.00    -0.595 OA
ENDBRANCH  11  60
BRANCH  20  64
HETATM   64  C28 UNL     1     -10.922  43.204 -30.171  1.00  0.00     0.169 C 
BRANCH  64  65
HETATM   65  O6  UNL     1     -11.170  43.632 -31.503  1.00  0.00    -0.400 OA
HETATM   66  H40 UNL     1     -11.321  44.588 -31.496  1.00  0.00     0.209 HD
ENDBRANCH  64  65
ENDBRANCH  20  64
BRANCH  26  67
HETATM   67  O7  UNL     1     -19.879  42.197 -27.770  1.00  0.00    -0.361 OA
HETATM   68  H44 UNL     1     -20.646  42.691 -27.427  1.00  0.00     0.217 HD
ENDBRANCH  26  67
TORSDOF 10
ENDMDL
MODEL 3
REMARK minimizedAffinity -7.87892199
REMARK CNNscore 0.186520696
REMARK CNNaffinity 6.2134614
REMARK  10 active torsions:
REMARK  status: ('A' for Active; 'I' for Inactive)
REMARK       I    between atoms: N1_1  and  C1_2 
REMARK       I    between atoms: C1_2  and  N2_3 
REMARK    1  A    between atoms: N3_4  and  C2_6 
REMARK    2  A    between atoms: C2_6  and  C3_7 
REMARK    3  A    between atoms: C3_7  and  C4_8 
REMARK    4  A    between atoms: C4_8  and  C5_9 
REMARK    5  A    between atoms: C5_9  and  O1_10 
REMARK    6  A    between atoms: C18_24  and  S1_25 
REMARK    7  A    between atoms: C27_37  and  C28_38 
REMARK    8  A    between atoms: C28_38  and  O6_39 
REMARK    9  A    between atoms: C34_45  and  O7_46 
REMARK   10  A    between atoms: C45_58  and  NA1_59 
ROOT
HETATM    1  C2  UNL     1      -4.134  49.123 -22.465  1.00  0.00     0.170 C 
HETATM    2  O2  UNL     1      -3.155  48.563 -21.499  1.00  0.00    -0.316 OA
HETATM    3  C10 UNL     1      -3.634  48.360 -20.227  1.00  0.00     0.072 C 
HETATM    4  C11 UNL     1      -4.338  49.320 -19.508  1.00  0.00     0.037 C 
HETATM    5  C12 UNL     1      -5.170  48.912 -18.471  1.00  0.00     0.010 C 
HETATM    6  C13 UNL     1      -5.271  47.551 -18.150  1.00  0.00    -0.058 C 
HETATM    7  C14 UNL     1      -4.353  46.643 -18.700  1.00  0.00     0.010 C 
HETATM    8  C15 UNL     1      -3.526  47.056 -19.740  1.00  0.00     0.037 C 
HETATM    9  C16 UNL     1      -6.608  47.045 -17.609  1.00  0.00     0.040 C 
HETATM   10  C17 UNL     1      -7.477  46.868 -18.875  1.00  0.00     0.028 C 
HETATM   11  C18 UNL     1      -8.944  46.431 -18.768  1.00  0.00     0.139 C 
HETATM   12  C19 UNL     1      -9.374  45.631 -20.051  1.00  0.00     0.038 C 
HETATM   13  C20 UNL     1     -10.713  44.915 -19.953  1.00  0.00    -0.014 C 
HETATM   14  C21 UNL     1     -11.755  45.339 -20.695  1.00  0.00    -0.050 C 
HETATM   15  C22 UNL     1     -11.675  46.663 -21.381  1.00  0.00     0.042 C 
HETATM   16  C23 UNL     1     -10.496  46.567 -22.315  1.00  0.00     0.001 C 
HETATM   17  C24 UNL     1     -10.904  45.609 -23.479  1.00  0.00     0.037 C 
HETATM   18  C25 UNL     1     -11.392  44.153 -23.133  1.00  0.00     0.123 C 
HETATM   19  C26 UNL     1     -11.414  43.394 -24.493  1.00  0.00     0.039 C 
HETATM   20  C27 UNL     1     -11.963  41.944 -24.530  1.00  0.00     0.023 C 
HETATM   21  C29 UNL     1     -11.231  40.987 -23.569  1.00  0.00     0.101 C 
HETATM   22  C30 UNL     1     -11.784  41.132 -22.230  1.00  0.00    -0.101 C 
HETATM   23  C31 UNL     1     -12.349  41.474 -21.231  1.00  0.00    -0.066 C 
HETATM   24  C32 UNL     1     -13.087  42.060 -20.167  1.00  0.00     0.029 A 
HETATM   25  C33 UNL     1     -13.532  41.218 -19.135  1.00  0.00     0.057 A 
HETATM   26  C34 UNL     1     -14.226  41.741 -18.050  1.00  0.00     0.067 A 
HETATM   27  C35 UNL     1     -14.489  43.100 -17.974  1.00  0.00     0.037 A 
HETATM   28  C36 UNL     1     -14.062  43.936 -19.009  1.00  0.00     0.014 A 
HETATM   29  C37 UNL     1     -13.351  43.439 -20.132  1.00  0.00    -0.006 A 
HETATM   30  C38 UNL     1     -12.897  44.485 -21.160  1.00  0.00     0.185 C 
HETATM   31  O8  UNL     1     -12.711  44.070 -22.544  1.00  0.00    -0.371 OA
HETATM   32  C39 UNL     1      -9.179  46.112 -21.571  1.00  0.00     0.030 C 
HETATM   33  C40 UNL     1      -7.930  46.915 -21.935  1.00  0.00    -0.054 A 
HETATM   34  C41 UNL     1      -6.730  46.245 -22.222  1.00  0.00     0.141 A 
HETATM   35  C42 UNL     1      -5.539  46.951 -22.438  1.00  0.00     0.014 A 
HETATM   36  C43 UNL     1      -5.493  48.356 -22.374  1.00  0.00    -0.005 A 
HETATM   37  C44 UNL     1      -6.709  49.022 -22.136  1.00  0.00     0.007 A 
HETATM   38  C45 UNL     1      -7.908  48.317 -21.933  1.00  0.00     0.086 A 
ENDROOT
BRANCH   1  39
HETATM   39  N3  UNL     1      -4.326  50.567 -22.289  1.00  0.00    -0.336 N 
HETATM   40  C1  UNL     1      -4.925  51.457 -22.950  1.00  0.00     0.124 C 
HETATM   41  N1  UNL     1      -4.968  52.712 -22.436  1.00  0.00    -0.279 NA
HETATM   42  N2  UNL     1      -5.523  51.482 -24.159  1.00  0.00    -0.279 NA
HETATM   43  H1  UNL     1      -4.377  52.750 -21.610  1.00  0.00     0.126 HD
HETATM   44  H2  UNL     1      -4.663  53.401 -23.111  1.00  0.00     0.126 HD
HETATM   45  H3  UNL     1      -5.668  50.604 -24.630  1.00  0.00     0.126 HD
HETATM   46  H4  UNL     1      -6.336  52.082 -24.198  1.00  0.00     0.126 HD
ATOM     47  H3  UNL     1      -3.876  50.930 -21.448  1.00  0.00     0.165 HD
ENDBRANCH   1  39
BRANCH   1  48
HETATM   48  C3  UNL     1      -3.488  48.772 -23.846  1.00  0.00     0.070 C 
BRANCH  48  49
HETATM   49  C4  UNL     1      -2.439  49.723 -24.464  1.00  0.00     0.043 C 
BRANCH  49  50
HETATM   50  C5  UNL     1      -2.316  49.788 -25.998  1.00  0.00     0.058 C 
HETATM   51  C6  UNL     1      -2.941  48.596 -26.752  1.00  0.00     0.038 C 
HETATM   52  C7  UNL     1      -3.734  49.184 -27.931  1.00  0.00     0.003 C 
HETATM   53  C8  UNL     1      -3.331  50.647 -28.004  1.00  0.00     0.003 C 
HETATM   54  C9  UNL     1      -3.092  51.001 -26.546  1.00  0.00     0.038 C 
BRANCH  50  55
HETATM   55  O1  UNL     1      -0.955  49.976 -26.378  1.00  0.00    -0.390 OA
HETATM   56  H9  UNL     1      -0.595  49.107 -26.641  1.00  0.00     0.210 HD
ENDBRANCH  50  55
ENDBRANCH  49  50
ENDBRANCH  48  49
ENDBRANCH   1  48
BRANCH  38  57
HETATM   57 NA1  UNL     1      -8.368  46.446 -22.155  1.00  0.00    -0.383 Na
ATOM     58 2HA1 UNL     1      -9.026  46.150 -21.434  1.00  0.00     0.091 HD
ATOM     59 1HA1 UNL     1      -8.951  46.315 -22.982  1.00  0.00     0.091 HD
ENDBRANCH  38  57
BRANCH  11  60
HETATM   60  S1  UNL     1      -9.998  47.814 -18.301  1.00  0.00     0.106 S 
HETATM   61  O3  UNL     1      -9.263  48.497 -17.242  1.00  0.00    -0.595 OA
HETATM   62  O4  UNL     1     -10.170  48.587 -19.528  1.00  0.00    -0.595 OA
HETATM   63  O5  UNL     1     -11.234  47.178 -17.844  1.00  0.00    -0.595 OA
ENDBRANCH  11  60
BRANCH  20  64
HETATM   64  C28 UNL     1     -11.890  41.399 -25.969  1.00  0.00     0.169 C 
BRANCH  64  65
HETATM   65  O6  UNL     1     -10.601  41.551 -26.547  1.00  0.00    -0.400 OA
HETATM   66  H40 UNL     1      -9.968  41.037 -26.027  1.00  0.00     0.209 HD
ENDBRANCH  64  65
ENDBRANCH  20  64
BRANCH  26  67
HETATM   67  O7  UNL     1     -14.613  40.886 -17.062  1.00  0.00    -0.361 OA
HETATM   68  H44 UNL     1     -14.985  41.421 -16.337  1.00  0.00     0.217 HD
ENDBRANCH  26  67
TORSDOF 10
ENDMDL
MODEL 4
REMARK minimizedAffinity -8.92054653
REMARK CNNscore 0.176367179
REMARK CNNaffinity 6.03326416
REMARK  10 active torsions:
REMARK  status: ('A' for Active; 'I' for Inactive)
REMARK       I    between atoms: N1_1  and  C1_2 
REMARK       I    between atoms: C1_2  and  N2_3 
REMARK    1  A    between atoms: N3_4  and  C2_6 
REMARK    2  A    between atoms: C2_6  and  C3_7 
REMARK    3  A    between atoms: C3_7  and  C4_8 
REMARK    4  A    between atoms: C4_8  and  C5_9 
REMARK    5  A    between atoms: C5_9  and  O1_10 
REMARK    6  A    between atoms: C18_24  and  S1_25 
REMARK    7  A    between atoms: C27_37  and  C28_38 
REMARK    8  A    between atoms: C28_38  and  O6_39 
REMARK    9  A    between atoms: C34_45  and  O7_46 
REMARK   10  A    between atoms: C45_58  and  NA1_59 
ROOT
HETATM    1  C2  UNL     1      -8.570  44.768 -26.872  1.00  0.00     0.170 C 
HETATM    2  O2  UNL     1      -7.949  43.636 -26.138  1.00  0.00    -0.316 OA
HETATM    3  C10 UNL     1      -8.177  43.617 -24.782  1.00  0.00     0.072 C 
HETATM    4  C11 UNL     1      -7.996  44.722 -23.957  1.00  0.00     0.037 C 
HETATM    5  C12 UNL     1      -8.670  44.774 -22.741  1.00  0.00     0.010 C 
HETATM    6  C13 UNL     1      -9.498  43.711 -22.355  1.00  0.00    -0.058 C 
HETATM    7  C14 UNL     1      -9.447  42.503 -23.067  1.00  0.00     0.010 C 
HETATM    8  C15 UNL     1      -8.775  42.458 -24.285  1.00  0.00     0.037 C 
HETATM    9  C16 UNL     1     -10.723  44.037 -21.500  1.00  0.00     0.040 C 
HETATM   10  C17 UNL     1     -11.762  44.548 -22.524  1.00  0.00     0.028 C 
HETATM   11  C18 UNL     1     -13.136  45.054 -22.064  1.00  0.00     0.139 C 
HETATM   12  C19 UNL     1     -14.214  44.810 -23.182  1.00  0.00     0.038 C 
HETATM   13  C20 UNL     1     -15.658  45.018 -22.749  1.00  0.00    -0.014 C 
HETATM   14  C21 UNL     1     -16.363  46.054 -23.246  1.00  0.00    -0.050 C 
HETATM   15  C22 UNL     1     -15.649  47.140 -23.982  1.00  0.00     0.042 C 
HETATM   16  C23 UNL     1     -14.989  46.468 -25.159  1.00  0.00     0.001 C 
HETATM   17  C24 UNL     1     -16.119  46.071 -26.159  1.00  0.00     0.037 C 
HETATM   18  C25 UNL     1     -17.299  45.158 -25.656  1.00  0.00     0.123 C 
HETATM   19  C26 UNL     1     -18.053  44.714 -26.943  1.00  0.00     0.039 C 
HETATM   20  C27 UNL     1     -19.354  43.884 -26.798  1.00  0.00     0.023 C 
HETATM   21  C29 UNL     1     -19.164  42.580 -25.997  1.00  0.00     0.101 C 
HETATM   22  C30 UNL     1     -19.227  42.877 -24.573  1.00  0.00    -0.101 C 
HETATM   23  C31 UNL     1     -19.251  43.375 -23.484  1.00  0.00    -0.066 C 
HETATM   24  C32 UNL     1     -19.250  44.162 -22.301  1.00  0.00     0.029 A 
HETATM   25  C33 UNL     1     -19.885  43.640 -21.163  1.00  0.00     0.057 A 
HETATM   26  C34 UNL     1     -19.883  44.349 -19.967  1.00  0.00     0.067 A 
HETATM   27  C35 UNL     1     -19.256  45.582 -19.884  1.00  0.00     0.037 A 
HETATM   28  C36 UNL     1     -18.638  46.111 -21.020  1.00  0.00     0.014 A 
HETATM   29  C37 UNL     1     -18.620  45.417 -22.257  1.00  0.00    -0.006 A 
HETATM   30  C38 UNL     1     -17.853  46.097 -23.402  1.00  0.00     0.185 C 
HETATM   31  O8  UNL     1     -18.246  45.807 -24.775  1.00  0.00    -0.371 OA
HETATM   32  C39 UNL     1     -14.089  45.245 -24.722  1.00  0.00     0.030 C 
HETATM   33  C40 UNL     1     -12.718  45.188 -25.395  1.00  0.00    -0.054 A 
HETATM   34  C41 UNL     1     -12.252  43.975 -25.926  1.00  0.00     0.141 A 
HETATM   35  C42 UNL     1     -10.953  43.859 -26.438  1.00  0.00     0.014 A 
HETATM   36  C43 UNL     1     -10.061  44.948 -26.440  1.00  0.00    -0.005 A 
HETATM   37  C44 UNL     1     -10.552  46.173 -25.953  1.00  0.00     0.007 A 
HETATM   38  C45 UNL     1     -11.860  46.295 -25.452  1.00  0.00     0.086 A 
ENDROOT
BRANCH   1  39
HETATM   39  N3  UNL     1      -7.815  46.016 -26.710  1.00  0.00    -0.336 N 
HETATM   40  C1  UNL     1      -7.790  47.109 -27.336  1.00  0.00     0.124 C 
HETATM   41  N1  UNL     1      -7.007  48.104 -26.847  1.00  0.00    -0.279 NA
HETATM   42  N2  UNL     1      -8.340  47.541 -28.489  1.00  0.00    -0.279 NA
HETATM   43  H1  UNL     1      -6.454  47.741 -26.076  1.00  0.00     0.126 HD
HETATM   44  H2  UNL     1      -6.399  48.484 -27.561  1.00  0.00     0.126 HD
HETATM   45  H3  UNL     1      -9.033  46.958 -28.927  1.00  0.00     0.126 HD
HETATM   46  H4  UNL     1      -8.610  48.516 -28.471  1.00  0.00     0.126 HD
ATOM     47  H3  UNL     1      -7.171  45.993 -25.920  1.00  0.00     0.165 HD
ENDBRANCH   1  39
BRANCH   1  48
HETATM   48  C3  UNL     1      -8.567  44.257 -28.350  1.00  0.00     0.070 C 
BRANCH  48  49
HETATM   49  C4  UNL     1      -7.226  44.081 -29.097  1.00  0.00     0.043 C 
BRANCH  49  50
HETATM   50  C5  UNL     1      -7.063  44.730 -30.484  1.00  0.00     0.058 C 
HETATM   51  C6  UNL     1      -6.367  43.847 -31.538  1.00  0.00     0.038 C 
HETATM   52  C7  UNL     1      -7.183  43.974 -32.835  1.00  0.00     0.003 C 
HETATM   53  C8  UNL     1      -8.150  45.122 -32.595  1.00  0.00     0.003 C 
HETATM   54  C9  UNL     1      -8.444  45.006 -31.109  1.00  0.00     0.038 C 
BRANCH  50  55
HETATM   55  O1  UNL     1      -6.415  45.994 -30.366  1.00  0.00    -0.390 OA
HETATM   56  H9  UNL     1      -5.474  45.870 -30.597  1.00  0.00     0.210 HD
ENDBRANCH  50  55
ENDBRANCH  49  50
ENDBRANCH  48  49
ENDBRANCH   1  48
BRANCH  38  57
HETATM   57 NA1  UNL     1     -13.384  45.097 -25.490  1.00  0.00    -0.383 Na
ATOM     58 2HA1 UNL     1     -13.920  45.170 -24.626  1.00  0.00     0.091 HD
ATOM     59 1HA1 UNL     1     -14.084  45.427 -26.155  1.00  0.00     0.091 HD
ENDBRANCH  38  57
BRANCH  11  60
HETATM   60  S1  UNL     1     -13.024  46.731 -21.418  1.00  0.00     0.106 S 
HETATM   61  O3  UNL     1     -11.748  46.771 -20.712  1.00  0.00    -0.595 OA
HETATM   62  O4  UNL     1     -13.104  47.593 -22.594  1.00  0.00    -0.595 OA
HETATM   63  O5  UNL     1     -14.188  46.850 -20.539  1.00  0.00    -0.595 OA
ENDBRANCH  11  60
BRANCH  20  64
HETATM   64  C28 UNL     1     -19.923  43.563 -28.194  1.00  0.00     0.169 C 
BRANCH  64  65
HETATM   65  O6  UNL     1     -19.058  43.970 -29.244  1.00  0.00    -0.400 OA
HETATM   66  H40 UNL     1     -18.227  43.480 -29.167  1.00  0.00     0.209 HD
ENDBRANCH  64  65
ENDBRANCH  20  64
BRANCH  26  67
HETATM   67  O7  UNL     1     -20.491  43.786 -18.885  1.00  0.00    -0.361 OA
HETATM   68  H44 UNL     1     -20.307  44.354 -18.115  1.00  0.00     0.217 HD
ENDBRANCH  26  67
TORSDOF 10
ENDMDL
MODEL 5
REMARK minimizedAffinity -8.68756008
REMARK CNNscore 0.168415517
REMARK CNNaffinity 6.3152976
REMARK  10 active torsions:
REMARK  status: ('A' for Active; 'I' for Inactive)
REMARK       I    between atoms: N1_1  and  C1_2 
REMARK       I    between atoms: C1_2  and  N2_3 
REMARK    1  A    between atoms: N3_4  and  C2_6 
REMARK    2  A    between atoms: C2_6  and  C3_7 
REMARK    3  A    between atoms: C3_7  and  C4_8 
REMARK    4  A    between atoms: C4_8  and  C5_9 
REMARK    5  A    between atoms: C5_9  and  O1_10 
REMARK    6  A    between atoms: C18_24  and  S1_25 
REMARK    7  A    between atoms: C27_37  and  C28_38 
REMARK    8  A    between atoms: C28_38  and  O6_39 
REMARK    9  A    between atoms: C34_45  and  O7_46 
REMARK   10  A    between atoms: C45_58  and  NA1_59 
ROOT
HETATM    1  C2  UNL     1      -6.894  46.235 -20.381  1.00  0.00     0.170 C 
HETATM    2  O2  UNL     1      -6.533  44.993 -19.652  1.00  0.00    -0.316 OA
HETATM    3  C10 UNL     1      -7.308  44.708 -18.553  1.00  0.00     0.072 C 
HETATM    4  C11 UNL     1      -7.600  45.635 -17.558  1.00  0.00     0.037 C 
HETATM    5  C12 UNL     1      -8.725  45.440 -16.763  1.00  0.00     0.010 C 
HETATM    6  C13 UNL     1      -9.530  44.309 -16.956  1.00  0.00    -0.058 C 
HETATM    7  C14 UNL     1      -9.066  43.263 -17.768  1.00  0.00     0.010 C 
HETATM    8  C15 UNL     1      -7.943  43.465 -18.565  1.00  0.00     0.037 C 
HETATM    9  C16 UNL     1     -11.026  44.444 -16.674  1.00  0.00     0.040 C 
HETATM   10  C17 UNL     1     -11.582  45.127 -17.944  1.00  0.00     0.028 C 
HETATM   11  C18 UNL     1     -13.064  45.512 -18.045  1.00  0.00     0.139 C 
HETATM   12  C19 UNL     1     -13.542  45.472 -19.542  1.00  0.00     0.038 C 
HETATM   13  C20 UNL     1     -15.046  45.569 -19.747  1.00  0.00    -0.014 C 
HETATM   14  C21 UNL     1     -15.574  46.670 -20.318  1.00  0.00    -0.050 C 
HETATM   15  C22 UNL     1     -14.726  47.890 -20.480  1.00  0.00     0.042 C 
HETATM   16  C23 UNL     1     -13.570  47.469 -21.350  1.00  0.00     0.001 C 
HETATM   17  C24 UNL     1     -14.130  47.255 -22.792  1.00  0.00     0.037 C 
HETATM   18  C25 UNL     1     -15.316  46.243 -23.008  1.00  0.00     0.123 C 
HETATM   19  C26 UNL     1     -15.410  46.045 -24.549  1.00  0.00     0.039 C 
HETATM   20  C27 UNL     1     -16.564  45.181 -25.122  1.00  0.00     0.023 C 
HETATM   21  C29 UNL     1     -16.602  43.751 -24.549  1.00  0.00     0.101 C 
HETATM   22  C30 UNL     1     -17.287  43.765 -23.264  1.00  0.00    -0.101 C 
HETATM   23  C31 UNL     1     -17.816  44.042 -22.226  1.00  0.00    -0.066 C 
HETATM   24  C32 UNL     1     -18.390  44.586 -21.046  1.00  0.00     0.029 A 
HETATM   25  C33 UNL     1     -19.391  43.843 -20.399  1.00  0.00     0.057 A 
HETATM   26  C34 UNL     1     -19.962  44.307 -19.219  1.00  0.00     0.067 A 
HETATM   27  C35 UNL     1     -19.552  45.511 -18.668  1.00  0.00     0.037 A 
HETATM   28  C36 UNL     1     -18.568  46.259 -19.319  1.00  0.00     0.014 A 
HETATM   29  C37 UNL     1     -17.963  45.818 -20.524  1.00  0.00    -0.006 A 
HETATM   30  C38 UNL     1     -16.857  46.719 -21.093  1.00  0.00     0.185 C 
HETATM   31  O8  UNL     1     -16.604  46.694 -22.528  1.00  0.00    -0.371 OA
HETATM   32  C39 UNL     1     -12.823  46.199 -20.780  1.00  0.00     0.030 C 
HETATM   33  C40 UNL     1     -11.298  46.296 -20.794  1.00  0.00    -0.054 A 
HETATM   34  C41 UNL     1     -10.535  45.215 -21.267  1.00  0.00     0.141 A 
HETATM   35  C42 UNL     1      -9.137  45.222 -21.179  1.00  0.00     0.014 A 
HETATM   36  C43 UNL     1      -8.438  46.305 -20.612  1.00  0.00    -0.005 A 
HETATM   37  C44 UNL     1      -9.206  47.404 -20.187  1.00  0.00     0.007 A 
HETATM   38  C45 UNL     1     -10.608  47.406 -20.287  1.00  0.00     0.086 A 
ENDROOT
BRANCH   1  39
HETATM   39  N3  UNL     1      -6.404  47.440 -19.702  1.00  0.00    -0.336 N 
HETATM   40  C1  UNL     1      -5.290  47.779 -19.219  1.00  0.00     0.124 C 
HETATM   41  N1  UNL     1      -5.168  49.036 -18.723  1.00  0.00    -0.279 NA
HETATM   42  N2  UNL     1      -4.128  47.130 -19.000  1.00  0.00    -0.279 NA
HETATM   43  H1  UNL     1      -6.081  49.482 -18.723  1.00  0.00     0.126 HD
HETATM   44  H2  UNL     1      -4.785  49.031 -17.786  1.00  0.00     0.126 HD
HETATM   45  H3  UNL     1      -4.017  46.214 -19.403  1.00  0.00     0.126 HD
HETATM   46  H4  UNL     1      -3.309  47.710 -19.126  1.00  0.00     0.126 HD
ATOM     47  H3  UNL     1      -7.119  48.160 -19.599  1.00  0.00     0.165 HD
ENDBRANCH   1  39
BRANCH   1  48
HETATM   48  C3  UNL     1      -6.219  46.020 -21.776  1.00  0.00     0.070 C 
BRANCH  48  49
HETATM   49  C4  UNL     1      -6.322  47.122 -22.854  1.00  0.00     0.043 C 
BRANCH  49  50
HETATM   50  C5  UNL     1      -5.176  48.143 -22.976  1.00  0.00     0.058 C 
HETATM   51  C6  UNL     1      -4.697  48.414 -24.416  1.00  0.00     0.038 C 
HETATM   52  C7  UNL     1      -4.544  49.938 -24.554  1.00  0.00     0.003 C 
HETATM   53  C8  UNL     1      -4.660  50.488 -23.142  1.00  0.00     0.003 C 
HETATM   54  C9  UNL     1      -5.641  49.529 -22.490  1.00  0.00     0.038 C 
BRANCH  50  55
HETATM   55  O1  UNL     1      -4.086  47.767 -22.137  1.00  0.00    -0.390 OA
HETATM   56  H9  UNL     1      -3.415  47.331 -22.697  1.00  0.00     0.210 HD
ENDBRANCH  50  55
ENDBRANCH  49  50
ENDBRANCH  48  49
ENDBRANCH   1  48
BRANCH  38  57
HETATM   57 NA1  UNL     1     -11.849  46.213 -21.181  1.00  0.00    -0.383 Na
ATOM     58 2HA1 UNL     1     -12.704  46.109 -20.634  1.00  0.00     0.091 HD
ATOM     59 1HA1 UNL     1     -12.233  46.655 -22.017  1.00  0.00     0.091 HD
ENDBRANCH  38  57
BRANCH  11  60
HETATM   60  S1  UNL     1     -13.399  47.034 -17.143  1.00  0.00     0.106 S 
HETATM   61  O3  UNL     1     -14.261  46.627 -16.038  1.00  0.00    -0.595 OA
HETATM   62  O4  UNL     1     -12.085  47.534 -16.747  1.00  0.00    -0.595 OA
HETATM   63  O5  UNL     1     -14.066  47.889 -18.127  1.00  0.00    -0.595 OA
ENDBRANCH  11  60
BRANCH  20  64
HETATM   64  C28 UNL     1     -16.458  45.127 -26.658  1.00  0.00     0.169 C 
BRANCH  64  65
HETATM   65  O6  UNL     1     -17.727  45.138 -27.296  1.00  0.00    -0.400 OA
HETATM   66  H40 UNL     1     -18.172  45.970 -27.081  1.00  0.00     0.209 HD
ENDBRANCH  64  65
ENDBRANCH  20  64
BRANCH  26  67
HETATM   67  O7  UNL     1     -20.911  43.536 -18.618  1.00  0.00    -0.361 OA
HETATM   68  H44 UNL     1     -21.125  43.947 -17.760  1.00  0.00     0.217 HD
ENDBRANCH  26  67
TORSDOF 10
ENDMDL
MODEL 6
REMARK minimizedAffinity -7.57914305
REMARK CNNscore 0.158040464
REMARK CNNaffinity 6.77656698
REMARK  10 active torsions:
REMARK  status: ('A' for Active; 'I' for Inactive)
REMARK       I    between atoms: N1_1  and  C1_2 
REMARK       I    between atoms: C1_2  and  N2_3 
REMARK    1  A    between atoms: N3_4  and  C2_6 
REMARK    2  A    between atoms: C2_6  and  C3_7 
REMARK    3  A    between atoms: C3_7  and  C4_8 
REMARK    4  A    between atoms: C4_8  and  C5_9 
REMARK    5  A    between atoms: C5_9  and  O1_10 
REMARK    6  A    between atoms: C18_24  and  S1_25 
REMARK    7  A    between atoms: C27_37  and  C28_38 
REMARK    8  A    between atoms: C28_38  and  O6_39 
REMARK    9  A    between atoms: C34_45  and  O7_46 
REMARK   10  A    between atoms: C45_58  and  NA1_59 
ROOT
HETATM    1  C2  UNL     1       2.276  43.712 -12.262  1.00  0.00     0.170 C 
HETATM    2  O2  UNL     1       2.463  43.090 -10.926  1.00  0.00    -0.316 OA
HETATM    3  C10 UNL     1       3.345  43.737 -10.093  1.00  0.00     0.072 C 
HETATM    4  C11 UNL     1       4.619  44.136 -10.484  1.00  0.00     0.037 C 
HETATM    5  C12 UNL     1       5.250  45.159  -9.785  1.00  0.00     0.010 C 
HETATM    6  C13 UNL     1       4.610  45.756  -8.690  1.00  0.00    -0.058 C 
HETATM    7  C14 UNL     1       3.461  45.157  -8.153  1.00  0.00     0.010 C 
HETATM    8  C15 UNL     1       2.830  44.136  -8.859  1.00  0.00     0.037 C 
HETATM    9  C16 UNL     1       4.894  47.234  -8.419  1.00  0.00     0.040 C 
HETATM   10  C17 UNL     1       3.986  47.975  -9.425  1.00  0.00     0.028 C 
HETATM   11  C18 UNL     1       4.015  49.506  -9.532  1.00  0.00     0.139 C 
HETATM   12  C19 UNL     1       2.615  50.053  -9.991  1.00  0.00     0.038 C 
HETATM   13  C20 UNL     1       2.435  51.559  -9.875  1.00  0.00    -0.014 C 
HETATM   14  C21 UNL     1       2.334  52.309 -10.990  1.00  0.00    -0.050 C 
HETATM   15  C22 UNL     1       2.684  51.707 -12.312  1.00  0.00     0.042 C 
HETATM   16  C23 UNL     1       1.741  50.545 -12.491  1.00  0.00     0.001 C 
HETATM   17  C24 UNL     1       0.322  51.137 -12.757  1.00  0.00     0.037 C 
HETATM   18  C25 UNL     1      -0.300  52.131 -11.706  1.00  0.00     0.123 C 
HETATM   19  C26 UNL     1      -1.796  52.275 -12.112  1.00  0.00     0.039 C 
HETATM   20  C27 UNL     1      -2.686  53.284 -11.341  1.00  0.00     0.023 C 
HETATM   21  C29 UNL     1      -2.725  53.029  -9.821  1.00  0.00     0.101 C 
HETATM   22  C30 UNL     1      -1.553  53.632  -9.202  1.00  0.00    -0.101 C 
HETATM   23  C31 UNL     1      -0.500  54.143  -8.945  1.00  0.00    -0.066 C 
HETATM   24  C32 UNL     1       0.788  54.737  -8.865  1.00  0.00     0.029 A 
HETATM   25  C33 UNL     1       1.069  55.549  -7.754  1.00  0.00     0.057 A 
HETATM   26  C34 UNL     1       2.324  56.126  -7.603  1.00  0.00     0.067 A 
HETATM   27  C35 UNL     1       3.314  55.911  -8.549  1.00  0.00     0.037 A 
HETATM   28  C36 UNL     1       3.030  55.118  -9.663  1.00  0.00     0.014 A 
HETATM   29  C37 UNL     1       1.762  54.512  -9.851  1.00  0.00    -0.006 A 
HETATM   30  C38 UNL     1       1.616  53.621 -11.095  1.00  0.00     0.185 C 
HETATM   31  O8  UNL     1       0.294  53.450 -11.681  1.00  0.00    -0.371 OA
HETATM   32  C39 UNL     1       1.778  49.549 -11.266  1.00  0.00     0.030 C 
HETATM   33  C40 UNL     1       1.834  48.070 -11.646  1.00  0.00    -0.054 A 
HETATM   34  C41 UNL     1       0.989  47.152 -11.002  1.00  0.00     0.141 A 
HETATM   35  C42 UNL     1       1.100  45.776 -11.238  1.00  0.00     0.014 A 
HETATM   36  C43 UNL     1       2.061  45.254 -12.124  1.00  0.00    -0.005 A 
HETATM   37  C44 UNL     1       2.871  46.182 -12.803  1.00  0.00     0.007 A 
HETATM   38  C45 UNL     1       2.752  47.565 -12.579  1.00  0.00     0.086 A 
ENDROOT
BRANCH   1  39
HETATM   39  N3  UNL     1       3.385  43.410 -13.175  1.00  0.00    -0.336 N 
HETATM   40  C1  UNL     1       4.136  42.411 -13.338  1.00  0.00     0.124 C 
HETATM   41  N1  UNL     1       5.029  42.446 -14.359  1.00  0.00    -0.279 NA
HETATM   42  N2  UNL     1       4.325  41.261 -12.659  1.00  0.00    -0.279 NA
HETATM   43  H1  UNL     1       5.019  43.373 -14.776  1.00  0.00     0.126 HD
HETATM   44  H2  UNL     1       5.963  42.218 -14.045  1.00  0.00     0.126 HD
HETATM   45  H3  UNL     1       3.669  41.032 -11.930  1.00  0.00     0.126 HD
HETATM   46  H4  UNL     1       4.537  40.469 -13.252  1.00  0.00     0.126 HD
ATOM     47  H3  UNL     1       3.594  44.175 -13.816  1.00  0.00     0.165 HD
ENDBRANCH   1  39
BRANCH   1  48
HETATM   48  C3  UNL     1       0.924  43.089 -12.742  1.00  0.00     0.070 C 
BRANCH  48  49
HETATM   49  C4  UNL     1       0.911  41.678 -13.370  1.00  0.00     0.043 C 
BRANCH  49  50
HETATM   50  C5  UNL     1       0.686  41.549 -14.888  1.00  0.00     0.058 C 
HETATM   51  C6  UNL     1       0.857  42.858 -15.685  1.00  0.00     0.038 C 
HETATM   52  C7  UNL     1       1.690  42.513 -16.931  1.00  0.00     0.003 C 
HETATM   53  C8  UNL     1       1.743  40.996 -16.978  1.00  0.00     0.003 C 
HETATM   54  C9  UNL     1       1.744  40.615 -15.507  1.00  0.00     0.038 C 
BRANCH  50  55
HETATM   55  O1  UNL     1      -0.581  40.951 -15.151  1.00  0.00    -0.390 OA
HETATM   56  H9  UNL     1      -1.207  41.667 -15.378  1.00  0.00     0.210 HD
ENDBRANCH  50  55
ENDBRANCH  49  50
ENDBRANCH  48  49
ENDBRANCH   1  48
BRANCH  38  57
HETATM   57 NA1  UNL     1       1.436  48.618 -11.619  1.00  0.00    -0.383 Na
ATOM     58 2HA1 UNL     1       1.879  49.407 -11.150  1.00  0.00     0.091 HD
ATOM     59 1HA1 UNL     1       0.834  49.122 -12.272  1.00  0.00     0.091 HD
ENDBRANCH  38  57
BRANCH  11  60
HETATM   60  S1  UNL     1       5.438  50.059 -10.487  1.00  0.00     0.106 S 
HETATM   61  O3  UNL     1       5.600  51.464 -10.128  1.00  0.00    -0.595 OA
HETATM   62  O4  UNL     1       6.533  49.187 -10.072  1.00  0.00    -0.595 OA
HETATM   63  O5  UNL     1       5.033  49.850 -11.878  1.00  0.00    -0.595 OA
ENDBRANCH  11  60
BRANCH  20  64
HETATM   64  C28 UNL     1      -4.116  53.257 -11.913  1.00  0.00     0.169 C 
BRANCH  64  65
HETATM   65  O6  UNL     1      -4.190  53.794 -13.226  1.00  0.00    -0.400 OA
HETATM   66  H40 UNL     1      -3.650  53.247 -13.813  1.00  0.00     0.209 HD
ENDBRANCH  64  65
ENDBRANCH  20  64
BRANCH  26  67
HETATM   67  O7  UNL     1       2.554  56.884  -6.493  1.00  0.00    -0.361 OA
HETATM   68  H44 UNL     1       3.500  57.120  -6.488  1.00  0.00     0.217 HD
ENDBRANCH  26  67
TORSDOF 10
ENDMDL
MODEL 7
REMARK minimizedAffinity -7.94567204
REMARK CNNscore 0.152979121
REMARK CNNaffinity 6.84803772
REMARK  10 active torsions:
REMARK  status: ('A' for Active; 'I' for Inactive)
REMARK       I    between atoms: N1_1  and  C1_2 
REMARK       I    between atoms: C1_2  and  N2_3 
REMARK    1  A    between atoms: N3_4  and  C2_6 
REMARK    2  A    between atoms: C2_6  and  C3_7 
REMARK    3  A    between atoms: C3_7  and  C4_8 
REMARK    4  A    between atoms: C4_8  and  C5_9 
REMARK    5  A    between atoms: C5_9  and  O1_10 
REMARK    6  A    between atoms: C18_24  and  S1_25 
REMARK    7  A    between atoms: C27_37  and  C28_38 
REMARK    8  A    between atoms: C28_38  and  O6_39 
REMARK    9  A    between atoms: C34_45  and  O7_46 
REMARK   10  A    between atoms: C45_58  and  NA1_59 
ROOT
HETATM    1  C2  UNL     1       2.216  56.132  -3.434  1.00  0.00     0.170 C 
HETATM    2  O2  UNL     1       2.557  57.492  -3.922  1.00  0.00    -0.316 OA
HETATM    3  C10 UNL     1       3.390  57.534  -5.015  1.00  0.00     0.072 C 
HETATM    4  C11 UNL     1       4.576  56.812  -5.105  1.00  0.00     0.037 C 
HETATM    5  C12 UNL     1       5.104  56.534  -6.361  1.00  0.00     0.010 C 
HETATM    6  C13 UNL     1       4.452  56.999  -7.512  1.00  0.00    -0.058 C 
HETATM    7  C14 UNL     1       3.424  57.946  -7.386  1.00  0.00     0.010 C 
HETATM    8  C15 UNL     1       2.897  58.217  -6.127  1.00  0.00     0.037 C 
HETATM    9  C16 UNL     1       4.551  56.149  -8.778  1.00  0.00     0.040 C 
HETATM   10  C17 UNL     1       3.498  55.039  -8.562  1.00  0.00     0.028 C 
HETATM   11  C18 UNL     1       3.318  53.914  -9.591  1.00  0.00     0.139 C 
HETATM   12  C19 UNL     1       1.834  53.396  -9.586  1.00  0.00     0.038 C 
HETATM   13  C20 UNL     1       1.462  52.477 -10.738  1.00  0.00    -0.014 C 
HETATM   14  C21 UNL     1       1.201  51.176 -10.500  1.00  0.00    -0.050 C 
HETATM   15  C22 UNL     1       1.554  50.590  -9.172  1.00  0.00     0.042 C 
HETATM   16  C23 UNL     1       0.765  51.377  -8.158  1.00  0.00     0.001 C 
HETATM   17  C24 UNL     1      -0.733  50.970  -8.318  1.00  0.00     0.037 C 
HETATM   18  C25 UNL     1      -1.422  51.130  -9.724  1.00  0.00     0.123 C 
HETATM   19  C26 UNL     1      -2.944  50.938  -9.460  1.00  0.00     0.039 C 
HETATM   20  C27 UNL     1      -3.916  50.922 -10.669  1.00  0.00     0.023 C 
HETATM   21  C29 UNL     1      -3.836  52.194 -11.536  1.00  0.00     0.101 C 
HETATM   22  C30 UNL     1      -2.722  52.073 -12.465  1.00  0.00    -0.101 C 
HETATM   23  C31 UNL     1      -1.734  51.770 -13.071  1.00  0.00    -0.066 C 
HETATM   24  C32 UNL     1      -0.534  51.252 -13.629  1.00  0.00     0.029 A 
HETATM   25  C33 UNL     1      -0.302  51.461 -14.998  1.00  0.00     0.057 A 
HETATM   26  C34 UNL     1       0.872  51.010 -15.590  1.00  0.00     0.067 A 
HETATM   27  C35 UNL     1       1.828  50.345 -14.837  1.00  0.00     0.037 A 
HETATM   28  C36 UNL     1       1.590  50.122 -13.478  1.00  0.00     0.014 A 
HETATM   29  C37 UNL     1       0.405  50.568 -12.840  1.00  0.00    -0.006 A 
HETATM   30  C38 UNL     1       0.310  50.300 -11.329  1.00  0.00     0.185 C 
HETATM   31  O8  UNL     1      -1.009  50.170 -10.725  1.00  0.00    -0.371 OA
HETATM   32  C39 UNL     1       1.002  52.933  -8.292  1.00  0.00     0.030 C 
HETATM   33  C40 UNL     1       1.233  53.662  -6.968  1.00  0.00    -0.054 A 
HETATM   34  C41 UNL     1       0.554  54.862  -6.705  1.00  0.00     0.141 A 
HETATM   35  C42 UNL     1       0.834  55.617  -5.559  1.00  0.00     0.014 A 
HETATM   36  C43 UNL     1       1.805  55.209  -4.626  1.00  0.00    -0.005 A 
HETATM   37  C44 UNL     1       2.445  53.980  -4.870  1.00  0.00     0.007 A 
HETATM   38  C45 UNL     1       2.156  53.214  -6.013  1.00  0.00     0.086 A 
ENDROOT
BRANCH   1  39
HETATM   39  N3  UNL     1       3.302  55.535  -2.649  1.00  0.00    -0.336 N 
HETATM   40  C1  UNL     1       4.040  55.955  -1.717  1.00  0.00     0.124 C 
HETATM   41  N1  UNL     1       4.912  55.081  -1.153  1.00  0.00    -0.279 NA
HETATM   42  N2  UNL     1       4.234  57.162  -1.147  1.00  0.00    -0.279 NA
HETATM   43  H1  UNL     1       4.901  54.214  -1.684  1.00  0.00     0.126 HD
HETATM   44  H2  UNL     1       5.850  55.457  -1.124  1.00  0.00     0.126 HD
HETATM   45  H3  UNL     1       3.592  57.901  -1.382  1.00  0.00     0.126 HD
HETATM   46  H4  UNL     1       4.427  57.117  -0.156  1.00  0.00     0.126 HD
ATOM     47  H3  UNL     1       3.504  54.572  -2.914  1.00  0.00     0.165 HD
ENDBRANCH   1  39
BRANCH   1  48
HETATM   48  C3  UNL     1       0.933  56.391  -2.576  1.00  0.00     0.070 C 
BRANCH  48  49
HETATM   49  C4  UNL     1       0.277  57.790  -2.582  1.00  0.00     0.043 C 
BRANCH  49  50
HETATM   50  C5  UNL     1      -1.166  57.924  -3.103  1.00  0.00     0.058 C 
HETATM   51  C6  UNL     1      -2.177  56.942  -2.478  1.00  0.00     0.038 C 
HETATM   52  C7  UNL     1      -3.436  57.756  -2.137  1.00  0.00     0.003 C 
HETATM   53  C8  UNL     1      -3.244  59.103  -2.813  1.00  0.00     0.003 C 
HETATM   54  C9  UNL     1      -1.740  59.306  -2.734  1.00  0.00     0.038 C 
BRANCH  50  55
HETATM   55  O1  UNL     1      -1.188  57.845  -4.526  1.00  0.00    -0.390 OA
HETATM   56  H9  UNL     1      -1.456  56.938  -4.770  1.00  0.00     0.210 HD
ENDBRANCH  50  55
ENDBRANCH  49  50
ENDBRANCH  48  49
ENDBRANCH   1  48
BRANCH  38  57
HETATM   57 NA1  UNL     1       0.767  53.360  -7.358  1.00  0.00    -0.383 Na
ATOM     58 2HA1 UNL     1       1.128  53.100  -8.276  1.00  0.00     0.091 HD
ATOM     59 1HA1 UNL     1       0.069  52.626  -7.234  1.00  0.00     0.091 HD
ENDBRANCH  38  57
BRANCH  11  60
HETATM   60  S1  UNL     1       4.599  52.662  -9.410  1.00  0.00     0.106 S 
HETATM   61  O3  UNL     1       5.853  53.407  -9.451  1.00  0.00    -0.595 OA
HETATM   62  O4  UNL     1       4.312  52.011  -8.134  1.00  0.00    -0.595 OA
HETATM   63  O5  UNL     1       4.399  51.782 -10.562  1.00  0.00    -0.595 OA
ENDBRANCH  11  60
BRANCH  20  64
HETATM   64  C28 UNL     1      -5.359  50.718 -10.170  1.00  0.00     0.169 C 
BRANCH  64  65
HETATM   65  O6  UNL     1      -5.498  49.565  -9.352  1.00  0.00    -0.400 OA
HETATM   66  H40 UNL     1      -4.950  49.680  -8.563  1.00  0.00     0.209 HD
ENDBRANCH  64  65
ENDBRANCH  20  64
BRANCH  26  67
HETATM   67  O7  UNL     1       1.060  51.260 -16.917  1.00  0.00    -0.361 OA
HETATM   68  H44 UNL     1       1.965  50.979 -17.144  1.00  0.00     0.217 HD
ENDBRANCH  26  67
TORSDOF 10
ENDMDL
MODEL 8
REMARK minimizedAffinity -8.14848804
REMARK CNNscore 0.144456655
REMARK CNNaffinity 6.72509909
REMARK  10 active torsions:
REMARK  status: ('A' for Active; 'I' for Inactive)
REMARK       I    between atoms: N1_1  and  C1_2 
REMARK       I    between atoms: C1_2  and  N2_3 
REMARK    1  A    between atoms: N3_4  and  C2_6 
REMARK    2  A    between atoms: C2_6  and  C3_7 
REMARK    3  A    between atoms: C3_7  and  C4_8 
REMARK    4  A    between atoms: C4_8  and  C5_9 
REMARK    5  A    between atoms: C5_9  and  O1_10 
REMARK    6  A    between atoms: C18_24  and  S1_25 
REMARK    7  A    between atoms: C27_37  and  C28_38 
REMARK    8  A    between atoms: C28_38  and  O6_39 
REMARK    9  A    between atoms: C34_45  and  O7_46 
REMARK   10  A    between atoms: C45_58  and  NA1_59 
ROOT
HETATM    1  C2  UNL     1       1.766  51.472 -10.677  1.00  0.00     0.170 C 
HETATM    2  O2  UNL     1       2.548  50.297 -10.217  1.00  0.00    -0.316 OA
HETATM    3  C10 UNL     1       3.769  50.585  -9.654  1.00  0.00     0.072 C 
HETATM    4  C11 UNL     1       4.704  51.431 -10.241  1.00  0.00     0.037 C 
HETATM    5  C12 UNL     1       5.668  52.033  -9.437  1.00  0.00     0.010 C 
HETATM    6  C13 UNL     1       5.698  51.764  -8.062  1.00  0.00    -0.058 C 
HETATM    7  C14 UNL     1       4.929  50.708  -7.549  1.00  0.00     0.010 C 
HETATM    8  C15 UNL     1       3.964  50.113  -8.356  1.00  0.00     0.037 C 
HETATM    9  C16 UNL     1       6.178  52.876  -7.130  1.00  0.00     0.040 C 
HETATM   10  C17 UNL     1       4.943  53.793  -6.980  1.00  0.00     0.028 C 
HETATM   11  C18 UNL     1       5.020  55.089  -6.163  1.00  0.00     0.139 C 
HETATM   12  C19 UNL     1       3.617  55.432  -5.541  1.00  0.00     0.038 C 
HETATM   13  C20 UNL     1       3.621  56.536  -4.496  1.00  0.00    -0.014 C 
HETATM   14  C21 UNL     1       3.032  57.717  -4.768  1.00  0.00    -0.050 C 
HETATM   15  C22 UNL     1       2.638  58.033  -6.173  1.00  0.00     0.042 C 
HETATM   16  C23 UNL     1       1.653  56.963  -6.570  1.00  0.00     0.001 C 
HETATM   17  C24 UNL     1       0.333  57.233  -5.782  1.00  0.00     0.037 C 
HETATM   18  C25 UNL     1       0.384  57.311  -4.210  1.00  0.00     0.123 C 
HETATM   19  C26 UNL     1      -1.102  57.278  -3.749  1.00  0.00     0.039 C 
HETATM   20  C27 UNL     1      -1.420  57.454  -2.241  1.00  0.00     0.023 C 
HETATM   21  C29 UNL     1      -0.716  56.418  -1.342  1.00  0.00     0.101 C 
HETATM   22  C30 UNL     1       0.646  56.858  -1.077  1.00  0.00    -0.101 C 
HETATM   23  C31 UNL     1       1.719  57.390  -1.060  1.00  0.00    -0.066 C 
HETATM   24  C32 UNL     1       2.914  58.143  -1.217  1.00  0.00     0.029 A 
HETATM   25  C33 UNL     1       3.764  58.265  -0.106  1.00  0.00     0.057 A 
HETATM   26  C34 UNL     1       4.964  58.958  -0.210  1.00  0.00     0.067 A 
HETATM   27  C35 UNL     1       5.337  59.540  -1.412  1.00  0.00     0.037 A 
HETATM   28  C36 UNL     1       4.484  59.433  -2.513  1.00  0.00     0.014 A 
HETATM   29  C37 UNL     1       3.251  58.735  -2.445  1.00  0.00    -0.006 A 
HETATM   30  C38 UNL     1       2.448  58.653  -3.752  1.00  0.00     0.185 C 
HETATM   31  O8  UNL     1       1.001  58.506  -3.674  1.00  0.00    -0.371 OA
HETATM   32  C39 UNL     1       2.226  55.509  -6.340  1.00  0.00     0.030 C 
HETATM   33  C40 UNL     1       1.985  54.537  -7.496  1.00  0.00    -0.054 A 
HETATM   34  C41 UNL     1       1.511  53.242  -7.230  1.00  0.00     0.141 A 
HETATM   35  C42 UNL     1       1.396  52.290  -8.251  1.00  0.00     0.014 A 
HETATM   36  C43 UNL     1       1.753  52.585  -9.580  1.00  0.00    -0.005 A 
HETATM   37  C44 UNL     1       2.180  53.899  -9.847  1.00  0.00     0.007 A 
HETATM   38  C45 UNL     1       2.282  54.861  -8.827  1.00  0.00     0.086 A 
ENDROOT
BRANCH   1  39
HETATM   39  N3  UNL     1       2.252  51.996 -11.959  1.00  0.00    -0.336 N 
HETATM   40  C1  UNL     1       2.557  51.465 -13.061  1.00  0.00     0.124 C 
HETATM   41  N1  UNL     1       2.902  52.283 -14.087  1.00  0.00    -0.279 NA
HETATM   42  N2  UNL     1       2.695  50.190 -13.480  1.00  0.00    -0.279 NA
HETATM   43  H1  UNL     1       2.969  53.236 -13.742  1.00  0.00     0.126 HD
HETATM   44  H2  UNL     1       3.780  52.004 -14.506  1.00  0.00     0.126 HD
HETATM   45  H3  UNL     1       2.377  49.457 -12.868  1.00  0.00     0.126 HD
HETATM   46  H4  UNL     1       2.410  50.045 -14.439  1.00  0.00     0.126 HD
ATOM     47  H3  UNL     1       2.368  53.009 -11.958  1.00  0.00     0.165 HD
ENDBRANCH   1  39
BRANCH   1  48
HETATM   48  C3  UNL     1       0.315  50.897 -10.780  1.00  0.00     0.070 C 
BRANCH  48  49
HETATM   49  C4  UNL     1      -0.851  51.630 -10.081  1.00  0.00     0.043 C 
BRANCH  49  50
HETATM   50  C5  UNL     1      -1.742  52.565 -10.920  1.00  0.00     0.058 C 
HETATM   51  C6  UNL     1      -2.958  51.885 -11.582  1.00  0.00     0.038 C 
HETATM   52  C7  UNL     1      -4.164  52.811 -11.354  1.00  0.00     0.003 C 
HETATM   53  C8  UNL     1      -3.584  54.112 -10.825  1.00  0.00     0.003 C 
HETATM   54  C9  UNL     1      -2.383  53.641 -10.022  1.00  0.00     0.038 C 
BRANCH  50  55
HETATM   55  O1  UNL     1      -0.958  53.262 -11.885  1.00  0.00    -0.390 OA
HETATM   56  H9  UNL     1      -1.067  52.808 -12.743  1.00  0.00     0.210 HD
ENDBRANCH  50  55
ENDBRANCH  49  50
ENDBRANCH  48  49
ENDBRANCH   1  48
BRANCH  38  57
HETATM   57 NA1  UNL     1       1.691  54.866  -6.980  1.00  0.00    -0.383 Na
ATOM     58 2HA1 UNL     1       2.361  55.357  -6.390  1.00  0.00     0.091 HD
ATOM     59 1HA1 UNL     1       0.881  55.476  -6.864  1.00  0.00     0.091 HD
ENDBRANCH  38  57
BRANCH  11  60
HETATM   60  S1  UNL     1       5.815  56.401  -7.106  1.00  0.00     0.106 S 
HETATM   61  O3  UNL     1       6.112  57.436  -6.122  1.00  0.00    -0.595 OA
HETATM   62  O4  UNL     1       6.985  55.773  -7.713  1.00  0.00    -0.595 OA
HETATM   63  O5  UNL     1       4.801  56.795  -8.087  1.00  0.00    -0.595 OA
ENDBRANCH  11  60
BRANCH  20  64
HETATM   64  C28 UNL     1      -2.944  57.388  -2.022  1.00  0.00     0.169 C 
BRANCH  64  65
HETATM   65  O6  UNL     1      -3.607  58.575  -2.433  1.00  0.00    -0.400 OA
HETATM   66  H40 UNL     1      -3.472  58.690  -3.384  1.00  0.00     0.209 HD
ENDBRANCH  64  65
ENDBRANCH  20  64
BRANCH  26  67
HETATM   67  O7  UNL     1       5.766  59.025   0.891  1.00  0.00    -0.361 OA
HETATM   68  H44 UNL     1       6.603  59.445   0.621  1.00  0.00     0.217 HD
ENDBRANCH  26  67
TORSDOF 10
ENDMDL
MODEL 9
REMARK minimizedAffinity -8.5644083
REMARK CNNscore 0.116965152
REMARK CNNaffinity 6.51609373
REMARK  10 active torsions:
REMARK  status: ('A' for Active; 'I' for Inactive)
REMARK       I    between atoms: N1_1  and  C1_2 
REMARK       I    between atoms: C1_2  and  N2_3 
REMARK    1  A    between atoms: N3_4  and  C2_6 
REMARK    2  A    between atoms: C2_6  and  C3_7 
REMARK    3  A    between atoms: C3_7  and  C4_8 
REMARK    4  A    between atoms: C4_8  and  C5_9 
REMARK    5  A    between atoms: C5_9  and  O1_10 
REMARK    6  A    between atoms: C18_24  and  S1_25 
REMARK    7  A    between atoms: C27_37  and  C28_38 
REMARK    8  A    between atoms: C28_38  and  O6_39 
REMARK    9  A    between atoms: C34_45  and  O7_46 
REMARK   10  A    between atoms: C45_58  and  NA1_59 
ROOT
HETATM    1  C2  UNL     1       0.302  53.331  -9.360  1.00  0.00     0.170 C 
HETATM    2  O2  UNL     1       0.609  54.444 -10.294  1.00  0.00    -0.316 OA
HETATM    3  C10 UNL     1       1.673  55.237  -9.935  1.00  0.00     0.072 C 
HETATM    4  C11 UNL     1       1.831  55.781  -8.664  1.00  0.00     0.037 C 
HETATM    5  C12 UNL     1       3.103  56.156  -8.244  1.00  0.00     0.010 C 
HETATM    6  C13 UNL     1       4.197  56.003  -9.107  1.00  0.00    -0.058 C 
HETATM    7  C14 UNL     1       3.972  55.716 -10.462  1.00  0.00     0.010 C 
HETATM    8  C15 UNL     1       2.698  55.337 -10.876  1.00  0.00     0.037 C 
HETATM    9  C16 UNL     1       5.559  55.699  -8.482  1.00  0.00     0.040 C 
HETATM   10  C17 UNL     1       5.504  54.182  -8.194  1.00  0.00     0.028 C 
HETATM   11  C18 UNL     1       6.669  53.471  -7.493  1.00  0.00     0.139 C 
HETATM   12  C19 UNL     1       6.755  51.970  -7.953  1.00  0.00     0.038 C 
HETATM   13  C20 UNL     1       8.021  51.235  -7.540  1.00  0.00    -0.014 C 
HETATM   14  C21 UNL     1       7.953  50.244  -6.630  1.00  0.00    -0.050 C 
HETATM   15  C22 UNL     1       6.703  50.069  -5.830  1.00  0.00     0.042 C 
HETATM   16  C23 UNL     1       5.612  49.802  -6.835  1.00  0.00     0.001 C 
HETATM   17  C24 UNL     1       5.849  48.370  -7.407  1.00  0.00     0.037 C 
HETATM   18  C25 UNL     1       7.236  48.032  -8.071  1.00  0.00     0.123 C 
HETATM   19  C26 UNL     1       7.025  46.668  -8.791  1.00  0.00     0.039 C 
HETATM   20  C27 UNL     1       8.243  45.982  -9.462  1.00  0.00     0.023 C 
HETATM   21  C29 UNL     1       8.941  46.866 -10.514  1.00  0.00     0.101 C 
HETATM   22  C30 UNL     1       9.859  47.777  -9.845  1.00  0.00    -0.101 C 
HETATM   23  C31 UNL     1      10.480  48.451  -9.073  1.00  0.00    -0.066 C 
HETATM   24  C32 UNL     1      11.077  49.166  -8.001  1.00  0.00     0.029 A 
HETATM   25  C33 UNL     1      12.405  49.596  -8.156  1.00  0.00     0.057 A 
HETATM   26  C34 UNL     1      13.029  50.333  -7.155  1.00  0.00     0.067 A 
HETATM   27  C35 UNL     1      12.348  50.649  -5.990  1.00  0.00     0.037 A 
HETATM   28  C36 UNL     1      11.033  50.207  -5.827  1.00  0.00     0.014 A 
HETATM   29  C37 UNL     1      10.364  49.454  -6.826  1.00  0.00    -0.006 A 
HETATM   30  C38 UNL     1       8.902  49.087  -6.529  1.00  0.00     0.185 C 
HETATM   31  O8  UNL     1       8.342  47.894  -7.148  1.00  0.00    -0.371 OA
HETATM   32  C39 UNL     1       5.545  50.914  -7.955  1.00  0.00     0.030 C 
HETATM   33  C40 UNL     1       4.136  51.409  -8.281  1.00  0.00    -0.054 A 
HETATM   34  C41 UNL     1       3.736  51.538  -9.621  1.00  0.00     0.141 A 
HETATM   35  C42 UNL     1       2.499  52.103  -9.956  1.00  0.00     0.014 A 
HETATM   36  C43 UNL     1       1.607  52.566  -8.970  1.00  0.00    -0.005 A 
HETATM   37  C44 UNL     1       1.993  52.387  -7.630  1.00  0.00     0.007 A 
HETATM   38  C45 UNL     1       3.228  51.807  -7.290  1.00  0.00     0.086 A 
ENDROOT
BRANCH   1  39
HETATM   39  N3  UNL     1      -0.421  53.790  -8.168  1.00  0.00    -0.336 N 
HETATM   40  C1  UNL     1      -1.106  53.209  -7.284  1.00  0.00     0.124 C 
HETATM   41  N1  UNL     1      -1.574  53.953  -6.250  1.00  0.00    -0.279 NA
HETATM   42  N2  UNL     1      -1.574  51.952  -7.136  1.00  0.00    -0.279 NA
HETATM   43  H1  UNL     1      -1.377  54.933  -6.433  1.00  0.00     0.126 HD
HETATM   44  H2  UNL     1      -2.568  53.820  -6.115  1.00  0.00     0.126 HD
HETATM   45  H3  UNL     1      -1.231  51.246  -7.767  1.00  0.00     0.126 HD
HETATM   46  H4  UNL     1      -1.595  51.636  -6.176  1.00  0.00     0.126 HD
ATOM     47  H3  UNL     1      -0.355  54.797  -8.024  1.00  0.00     0.165 HD
ENDBRANCH   1  39
BRANCH   1  48
HETATM   48  C3  UNL     1      -0.559  52.371 -10.246  1.00  0.00     0.070 C 
BRANCH  48  49
HETATM   49  C4  UNL     1      -1.421  52.951 -11.389  1.00  0.00     0.043 C 
BRANCH  49  50
HETATM   50  C5  UNL     1      -2.859  52.430 -11.565  1.00  0.00     0.058 C 
HETATM   51  C6  UNL     1      -2.982  51.114 -12.360  1.00  0.00     0.038 C 
HETATM   52  C7  UNL     1      -3.968  50.221 -11.589  1.00  0.00     0.003 C 
HETATM   53  C8  UNL     1      -4.600  51.122 -10.542  1.00  0.00     0.003 C 
HETATM   54  C9  UNL     1      -3.471  52.076 -10.196  1.00  0.00     0.038 C 
BRANCH  50  55
HETATM   55  O1  UNL     1      -3.689  53.446 -12.126  1.00  0.00    -0.390 OA
HETATM   56  H9  UNL     1      -3.779  53.264 -13.081  1.00  0.00     0.210 HD
ENDBRANCH  50  55
ENDBRANCH  49  50
ENDBRANCH  48  49
ENDBRANCH   1  48
BRANCH  38  57
HETATM   57 NA1  UNL     1       4.569  50.891  -8.350  1.00  0.00    -0.383 Na
ATOM     58 2HA1 UNL     1       5.506  51.111  -8.013  1.00  0.00     0.091 HD
ATOM     59 1HA1 UNL     1       4.551  49.888  -8.162  1.00  0.00     0.091 HD
ENDBRANCH  38  57
BRANCH  11  60
HETATM   60  S1  UNL     1       6.624  53.758  -5.716  1.00  0.00     0.106 S 
HETATM   61  O3  UNL     1       7.917  53.287  -5.233  1.00  0.00    -0.595 OA
HETATM   62  O4  UNL     1       6.397  55.193  -5.571  1.00  0.00    -0.595 OA
HETATM   63  O5  UNL     1       5.494  52.949  -5.256  1.00  0.00    -0.595 OA
ENDBRANCH  11  60
BRANCH  20  64
HETATM   64  C28 UNL     1       7.800  44.653 -10.105  1.00  0.00     0.169 C 
BRANCH  64  65
HETATM   65  O6  UNL     1       8.852  44.009 -10.810  1.00  0.00    -0.400 OA
HETATM   66  H40 UNL     1       9.554  43.789 -10.181  1.00  0.00     0.209 HD
ENDBRANCH  64  65
ENDBRANCH  20  64
BRANCH  26  67
HETATM   67  O7  UNL     1      14.309  50.749  -7.367  1.00  0.00    -0.361 OA
HETATM   68  H44 UNL     1      14.555  51.334  -6.627  1.00  0.00     0.217 HD
ENDBRANCH  26  67
TORSDOF 10
ENDMDL
