MODEL 1
REMARK minimizedAffinity -7.07784748
REMARK CNNscore 0.649880886
REMARK CNNaffinity 6.59254837
REMARK  4 active torsions:
REMARK  status: ('A' for Active; 'I' for Inactive)
REMARK    1  A    between atoms: C4_4  and  C5_5 
REMARK    2  A    between atoms: C5_5  and  C6_6 
REMARK    3  A    between atoms: C6_6  and  C7_7 
REMARK    4  A    between atoms: C7_7  and  C9_9 
ROOT
HETATM    1  C9  UNL     1      -0.453   8.476  13.890  1.00  0.00    -0.002 C 
HETATM    2  C10 UNL     1      -0.754   7.243  14.803  1.00  0.00     0.007 C 
HETATM    3  C11 UNL     1      -1.224   7.778  16.170  1.00  0.00     0.015 C 
HETATM    4  C12 UNL     1      -0.828   9.267  16.152  1.00  0.00    -0.013 C 
HETATM    5  C13 UNL     1       0.686   9.303  16.531  1.00  0.00     0.021 C 
HETATM    6  C14 UNL     1      -1.550  10.264  17.057  1.00  0.00    -0.070 C 
HETATM    7  C15 UNL     1      -2.529   9.925  17.913  1.00  0.00    -0.022 C 
HETATM    8  C16 UNL     1      -3.369  10.913  18.669  1.00  0.00     0.034 C 
HETATM    9  C17 UNL     1      -3.265  12.346  18.102  1.00  0.00     0.013 C 
HETATM   10  C18 UNL     1      -4.134  13.437  18.840  1.00  0.00     0.018 C 
HETATM   11  C19 UNL     1      -4.909  12.884  20.055  1.00  0.00     0.023 C 
HETATM   12  C20 UNL     1      -5.182  14.007  17.858  1.00  0.00     0.023 C 
HETATM   13  C21 UNL     1      -3.304  14.642  19.313  1.00  0.00     0.135 C 
HETATM   14  O1  UNL     1      -3.547  15.225  20.375  1.00  0.00    -0.297 OA
HETATM   15  C22 UNL     1      -2.219  15.189  18.413  1.00  0.00     0.080 C 
HETATM   16  C23 UNL     1      -1.705  14.184  17.396  1.00  0.00     0.017 C 
HETATM   17  C24 UNL     1      -1.764  12.723  17.888  1.00  0.00    -0.031 C 
HETATM   18  C25 UNL     1      -0.944  12.595  19.209  1.00  0.00     0.016 C 
HETATM   19  C26 UNL     1      -1.115  11.724  16.845  1.00  0.00     0.024 C 
HETATM   20  C27 UNL     1      -1.279  12.104  15.354  1.00  0.00     0.010 C 
HETATM   21  C28 UNL     1      -0.668  11.073  14.374  1.00  0.00     0.011 C 
HETATM   22  C29 UNL     1      -1.165   9.637  14.652  1.00  0.00    -0.029 C 
HETATM   23  C30 UNL     1      -2.695   9.592  14.340  1.00  0.00     0.016 C 
ENDROOT
BRANCH   1  24
HETATM   24  C7  UNL     1      -0.794   8.178  12.396  1.00  0.00    -0.014 C 
HETATM   25  C8  UNL     1      -2.094   8.852  11.951  1.00  0.00     0.010 C 
BRANCH  24  26
HETATM   26  C6  UNL     1       0.385   8.633  11.488  1.00  0.00     0.008 C 
BRANCH  26  27
HETATM   27  C5  UNL     1       0.285   8.275   9.999  1.00  0.00     0.028 C 
BRANCH  27  28
HETATM   28  C4  UNL     1       1.167   7.124   9.599  1.00  0.00    -0.025 C 
HETATM   29  C2  UNL     1       2.143   7.125   8.671  1.00  0.00    -0.091 C 
HETATM   30  C1  UNL     1       2.907   5.865   8.358  1.00  0.00     0.042 C 
HETATM   31  C3  UNL     1       2.579   8.328   7.880  1.00  0.00     0.042 C 
ENDBRANCH  27  28
ENDBRANCH  26  27
ENDBRANCH  24  26
ENDBRANCH   1  24
TORSDOF 4
ENDMDL
MODEL 2
REMARK minimizedAffinity -6.91601181
REMARK CNNscore 0.567067564
REMARK CNNaffinity 7.34740257
REMARK  4 active torsions:
REMARK  status: ('A' for Active; 'I' for Inactive)
REMARK    1  A    between atoms: C4_4  and  C5_5 
REMARK    2  A    between atoms: C5_5  and  C6_6 
REMARK    3  A    between atoms: C6_6  and  C7_7 
REMARK    4  A    between atoms: C7_7  and  C9_9 
ROOT
HETATM    1  C9  UNL     1      -2.792   7.639  13.792  1.00  0.00    -0.002 C 
HETATM    2  C10 UNL     1      -2.772   6.231  13.113  1.00  0.00     0.007 C 
HETATM    3  C11 UNL     1      -4.196   5.649  13.205  1.00  0.00     0.015 C 
HETATM    4  C12 UNL     1      -4.903   6.536  14.247  1.00  0.00    -0.013 C 
HETATM    5  C13 UNL     1      -4.464   5.981  15.639  1.00  0.00     0.021 C 
HETATM    6  C14 UNL     1      -6.427   6.642  14.257  1.00  0.00    -0.070 C 
HETATM    7  C15 UNL     1      -7.230   5.979  13.405  1.00  0.00    -0.022 C 
HETATM    8  C16 UNL     1      -8.707   6.213  13.281  1.00  0.00     0.034 C 
HETATM    9  C17 UNL     1      -9.163   7.530  13.947  1.00  0.00     0.013 C 
HETATM   10  C18 UNL     1     -10.705   7.849  13.845  1.00  0.00     0.018 C 
HETATM   11  C19 UNL     1     -11.512   6.743  13.131  1.00  0.00     0.023 C 
HETATM   12  C20 UNL     1     -10.907   9.149  13.033  1.00  0.00     0.023 C 
HETATM   13  C21 UNL     1     -11.355   8.105  15.214  1.00  0.00     0.135 C 
HETATM   14  O1  UNL     1     -12.505   7.735  15.470  1.00  0.00    -0.297 OA
HETATM   15  C22 UNL     1     -10.603   8.912  16.248  1.00  0.00     0.080 C 
HETATM   16  C23 UNL     1      -9.098   8.925  16.035  1.00  0.00     0.017 C 
HETATM   17  C24 UNL     1      -8.555   7.637  15.383  1.00  0.00    -0.031 C 
HETATM   18  C25 UNL     1      -8.947   6.413  16.266  1.00  0.00     0.016 C 
HETATM   19  C26 UNL     1      -6.975   7.647  15.284  1.00  0.00     0.024 C 
HETATM   20  C27 UNL     1      -6.322   9.032  15.055  1.00  0.00     0.010 C 
HETATM   21  C28 UNL     1      -4.780   8.982  14.920  1.00  0.00     0.011 C 
HETATM   22  C29 UNL     1      -4.319   7.955  13.863  1.00  0.00    -0.029 C 
HETATM   23  C30 UNL     1      -4.803   8.457  12.465  1.00  0.00     0.016 C 
ENDROOT
BRANCH   1  24
HETATM   24  C7  UNL     1      -1.808   8.627  13.090  1.00  0.00    -0.014 C 
HETATM   25  C8  UNL     1      -0.954   9.410  14.091  1.00  0.00     0.010 C 
BRANCH  24  26
HETATM   26  C6  UNL     1      -0.894   7.844  12.103  1.00  0.00     0.008 C 
BRANCH  26  27
HETATM   27  C5  UNL     1       0.497   8.435  11.836  1.00  0.00     0.028 C 
BRANCH  27  28
HETATM   28  C4  UNL     1       1.253   7.722  10.749  1.00  0.00    -0.025 C 
HETATM   29  C2  UNL     1       1.010   7.757   9.424  1.00  0.00    -0.091 C 
HETATM   30  C1  UNL     1       1.842   6.942   8.468  1.00  0.00     0.042 C 
HETATM   31  C3  UNL     1      -0.060   8.583   8.766  1.00  0.00     0.042 C 
ENDBRANCH  27  28
ENDBRANCH  26  27
ENDBRANCH  24  26
ENDBRANCH   1  24
TORSDOF 4
ENDMDL
MODEL 3
REMARK minimizedAffinity -7.07480574
REMARK CNNscore 0.461244643
REMARK CNNaffinity 6.29294729
REMARK  4 active torsions:
REMARK  status: ('A' for Active; 'I' for Inactive)
REMARK    1  A    between atoms: C4_4  and  C5_5 
REMARK    2  A    between atoms: C5_5  and  C6_6 
REMARK    3  A    between atoms: C6_6  and  C7_7 
REMARK    4  A    between atoms: C7_7  and  C9_9 
ROOT
HETATM    1  C9  UNL     1      -3.248  13.632  19.262  1.00  0.00    -0.002 C 
HETATM    2  C10 UNL     1      -2.298  14.677  18.591  1.00  0.00     0.007 C 
HETATM    3  C11 UNL     1      -1.550  13.962  17.449  1.00  0.00     0.015 C 
HETATM    4  C12 UNL     1      -1.786  12.464  17.719  1.00  0.00    -0.013 C 
HETATM    5  C13 UNL     1      -0.740  12.064  18.807  1.00  0.00     0.021 C 
HETATM    6  C14 UNL     1      -1.671  11.452  16.580  1.00  0.00    -0.070 C 
HETATM    7  C15 UNL     1      -1.349  11.780  15.316  1.00  0.00    -0.022 C 
HETATM    8  C16 UNL     1      -1.413  10.830  14.155  1.00  0.00     0.034 C 
HETATM    9  C17 UNL     1      -2.230   9.557  14.468  1.00  0.00     0.013 C 
HETATM   10  C18 UNL     1      -2.351   8.518  13.286  1.00  0.00     0.018 C 
HETATM   11  C19 UNL     1      -1.574   8.937  12.020  1.00  0.00     0.023 C 
HETATM   12  C20 UNL     1      -3.835   8.377  12.878  1.00  0.00     0.023 C 
HETATM   13  C21 UNL     1      -1.890   7.105  13.682  1.00  0.00     0.135 C 
HETATM   14  O1  UNL     1      -1.294   6.367  12.891  1.00  0.00    -0.297 OA
HETATM   15  C22 UNL     1      -2.253   6.567  15.048  1.00  0.00     0.080 C 
HETATM   16  C23 UNL     1      -2.560   7.650  16.069  1.00  0.00     0.017 C 
HETATM   17  C24 UNL     1      -1.775   8.958  15.837  1.00  0.00    -0.031 C 
HETATM   18  C25 UNL     1      -0.247   8.646  15.850  1.00  0.00     0.016 C 
HETATM   19  C26 UNL     1      -2.039  10.015  16.986  1.00  0.00     0.024 C 
HETATM   20  C27 UNL     1      -3.457   9.997  17.607  1.00  0.00     0.010 C 
HETATM   21  C28 UNL     1      -3.679  11.079  18.692  1.00  0.00     0.011 C 
HETATM   22  C29 UNL     1      -3.293  12.491  18.198  1.00  0.00    -0.029 C 
HETATM   23  C30 UNL     1      -4.289  12.888  17.061  1.00  0.00     0.016 C 
ENDROOT
BRANCH   1  24
HETATM   24  C7  UNL     1      -4.566  14.298  19.767  1.00  0.00    -0.014 C 
HETATM   25  C8  UNL     1      -5.419  14.847  18.620  1.00  0.00     0.010 C 
BRANCH  24  26
HETATM   26  C6  UNL     1      -5.386  13.272  20.602  1.00  0.00     0.008 C 
BRANCH  26  27
HETATM   27  C5  UNL     1      -6.547  13.832  21.435  1.00  0.00     0.028 C 
BRANCH  27  28
HETATM   28  C4  UNL     1      -7.897  13.342  20.990  1.00  0.00    -0.025 C 
HETATM   29  C2  UNL     1      -8.865  12.803  21.756  1.00  0.00    -0.091 C 
HETATM   30  C1  UNL     1     -10.152  12.318  21.141  1.00  0.00     0.042 C 
HETATM   31  C3  UNL     1      -8.791  12.638  23.249  1.00  0.00     0.042 C 
ENDBRANCH  27  28
ENDBRANCH  26  27
ENDBRANCH  24  26
ENDBRANCH   1  24
TORSDOF 4
ENDMDL
MODEL 4
REMARK minimizedAffinity -9.2941246
REMARK CNNscore 0.442505032
REMARK CNNaffinity 6.69571877
REMARK  4 active torsions:
REMARK  status: ('A' for Active; 'I' for Inactive)
REMARK    1  A    between atoms: C4_4  and  C5_5 
REMARK    2  A    between atoms: C5_5  and  C6_6 
REMARK    3  A    between atoms: C6_6  and  C7_7 
REMARK    4  A    between atoms: C7_7  and  C9_9 
ROOT
HETATM    1  C9  UNL     1      -3.489   7.067  14.393  1.00  0.00    -0.002 C 
HETATM    2  C10 UNL     1      -4.229   8.084  13.464  1.00  0.00     0.007 C 
HETATM    3  C11 UNL     1      -3.178   8.707  12.525  1.00  0.00     0.015 C 
HETATM    4  C12 UNL     1      -1.827   8.337  13.167  1.00  0.00    -0.013 C 
HETATM    5  C13 UNL     1      -1.600   9.386  14.301  1.00  0.00     0.021 C 
HETATM    6  C14 UNL     1      -0.558   8.302  12.317  1.00  0.00    -0.070 C 
HETATM    7  C15 UNL     1      -0.526   8.597  11.005  1.00  0.00    -0.022 C 
HETATM    8  C16 UNL     1       0.670   8.389  10.121  1.00  0.00     0.034 C 
HETATM    9  C17 UNL     1       1.731   7.465  10.758  1.00  0.00     0.013 C 
HETATM   10  C18 UNL     1       3.012   7.190   9.878  1.00  0.00     0.018 C 
HETATM   11  C19 UNL     1       3.005   7.948   8.533  1.00  0.00     0.023 C 
HETATM   12  C20 UNL     1       3.091   5.683   9.546  1.00  0.00     0.023 C 
HETATM   13  C21 UNL     1       4.323   7.527  10.608  1.00  0.00     0.135 C 
HETATM   14  O1  UNL     1       5.293   8.011  10.017  1.00  0.00    -0.297 OA
HETATM   15  C22 UNL     1       4.464   7.174  12.071  1.00  0.00     0.080 C 
HETATM   16  C23 UNL     1       3.135   7.021  12.793  1.00  0.00     0.017 C 
HETATM   17  C24 UNL     1       2.017   7.919  12.226  1.00  0.00    -0.031 C 
HETATM   18  C25 UNL     1       2.477   9.408  12.289  1.00  0.00     0.016 C 
HETATM   19  C26 UNL     1       0.687   7.811  13.077  1.00  0.00     0.024 C 
HETATM   20  C27 UNL     1       0.398   6.428  13.708  1.00  0.00     0.010 C 
HETATM   21  C28 UNL     1      -0.936   6.362  14.491  1.00  0.00     0.011 C 
HETATM   22  C29 UNL     1      -2.132   6.863  13.651  1.00  0.00    -0.029 C 
HETATM   23  C30 UNL     1      -2.339   5.862  12.469  1.00  0.00     0.016 C 
ENDROOT
BRANCH   1  24
HETATM   24  C7  UNL     1      -4.397   5.845  14.739  1.00  0.00    -0.014 C 
HETATM   25  C8  UNL     1      -5.701   6.263  15.424  1.00  0.00     0.010 C 
BRANCH  24  26
HETATM   26  C6  UNL     1      -4.705   5.037  13.445  1.00  0.00     0.008 C 
BRANCH  26  27
HETATM   27  C5  UNL     1      -6.177   4.689  13.185  1.00  0.00     0.028 C 
BRANCH  27  28
HETATM   28  C4  UNL     1      -6.383   3.286  12.685  1.00  0.00    -0.025 C 
HETATM   29  C2  UNL     1      -5.774   2.692  11.640  1.00  0.00    -0.091 C 
HETATM   30  C1  UNL     1      -6.129   1.284  11.241  1.00  0.00     0.042 C 
HETATM   31  C3  UNL     1      -4.706   3.326  10.791  1.00  0.00     0.042 C 
ENDBRANCH  27  28
ENDBRANCH  26  27
ENDBRANCH  24  26
ENDBRANCH   1  24
TORSDOF 4
ENDMDL
MODEL 5
REMARK minimizedAffinity -6.99460316
REMARK CNNscore 0.375704288
REMARK CNNaffinity 6.29667711
REMARK  4 active torsions:
REMARK  status: ('A' for Active; 'I' for Inactive)
REMARK    1  A    between atoms: C4_4  and  C5_5 
REMARK    2  A    between atoms: C5_5  and  C6_6 
REMARK    3  A    between atoms: C6_6  and  C7_7 
REMARK    4  A    between atoms: C7_7  and  C9_9 
ROOT
HETATM    1  C9  UNL     1     -14.043   6.949  23.711  1.00  0.00    -0.002 C 
HETATM    2  C10 UNL     1     -13.928   6.473  22.226  1.00  0.00     0.007 C 
HETATM    3  C11 UNL     1     -13.304   7.624  21.414  1.00  0.00     0.015 C 
HETATM    4  C12 UNL     1     -13.423   8.850  22.339  1.00  0.00    -0.013 C 
HETATM    5  C13 UNL     1     -14.886   9.368  22.164  1.00  0.00     0.021 C 
HETATM    6  C14 UNL     1     -12.490  10.046  22.153  1.00  0.00    -0.070 C 
HETATM    7  C15 UNL     1     -11.549  10.119  21.196  1.00  0.00    -0.022 C 
HETATM    8  C16 UNL     1     -10.508  11.198  21.115  1.00  0.00     0.034 C 
HETATM    9  C17 UNL     1     -10.377  12.002  22.428  1.00  0.00     0.013 C 
HETATM   10  C18 UNL     1      -9.290  13.147  22.421  1.00  0.00     0.018 C 
HETATM   11  C19 UNL     1      -8.572  13.300  21.063  1.00  0.00     0.023 C 
HETATM   12  C20 UNL     1      -8.203  12.826  23.472  1.00  0.00     0.023 C 
HETATM   13  C21 UNL     1      -9.863  14.518  22.815  1.00  0.00     0.135 C 
HETATM   14  O1  UNL     1      -9.469  15.564  22.291  1.00  0.00    -0.297 OA
HETATM   15  C22 UNL     1     -10.872  14.600  23.938  1.00  0.00     0.080 C 
HETATM   16  C23 UNL     1     -11.608  13.296  24.194  1.00  0.00     0.017 C 
HETATM   17  C24 UNL     1     -11.793  12.432  22.929  1.00  0.00    -0.031 C 
HETATM   18  C25 UNL     1     -12.558  13.261  21.852  1.00  0.00     0.016 C 
HETATM   19  C26 UNL     1     -12.661  11.141  23.220  1.00  0.00     0.024 C 
HETATM   20  C27 UNL     1     -12.502  10.523  24.630  1.00  0.00     0.010 C 
HETATM   21  C28 UNL     1     -13.336   9.237  24.848  1.00  0.00     0.011 C 
HETATM   22  C29 UNL     1     -13.096   8.189  23.738  1.00  0.00    -0.029 C 
HETATM   23  C30 UNL     1     -11.616   7.702  23.853  1.00  0.00     0.016 C 
ENDROOT
BRANCH   1  24
HETATM   24  C7  UNL     1     -13.833   5.767  24.709  1.00  0.00    -0.014 C 
HETATM   25  C8  UNL     1     -15.099   5.448  25.509  1.00  0.00     0.010 C 
BRANCH  24  26
HETATM   26  C6  UNL     1     -13.356   4.504  23.933  1.00  0.00     0.008 C 
BRANCH  26  27
HETATM   27  C5  UNL     1     -13.900   3.153  24.417  1.00  0.00     0.028 C 
BRANCH  27  28
HETATM   28  C4  UNL     1     -13.349   2.728  25.750  1.00  0.00    -0.025 C 
HETATM   29  C2  UNL     1     -12.317   1.893  25.982  1.00  0.00    -0.091 C 
HETATM   30  C1  UNL     1     -11.919   1.534  27.390  1.00  0.00     0.042 C 
HETATM   31  C3  UNL     1     -11.469   1.257  24.916  1.00  0.00     0.042 C 
ENDBRANCH  27  28
ENDBRANCH  26  27
ENDBRANCH  24  26
ENDBRANCH   1  24
TORSDOF 4
ENDMDL
MODEL 6
REMARK minimizedAffinity -8.06280422
REMARK CNNscore 0.335574001
REMARK CNNaffinity 6.54401636
REMARK  4 active torsions:
REMARK  status: ('A' for Active; 'I' for Inactive)
REMARK    1  A    between atoms: C4_4  and  C5_5 
REMARK    2  A    between atoms: C5_5  and  C6_6 
REMARK    3  A    between atoms: C6_6  and  C7_7 
REMARK    4  A    between atoms: C7_7  and  C9_9 
ROOT
HETATM    1  C9  UNL     1       0.072  10.523  16.705  1.00  0.00    -0.002 C 
HETATM    2  C10 UNL     1      -0.637  11.913  16.807  1.00  0.00     0.007 C 
HETATM    3  C11 UNL     1      -2.057  11.756  16.229  1.00  0.00     0.015 C 
HETATM    4  C12 UNL     1      -2.013  10.415  15.471  1.00  0.00    -0.013 C 
HETATM    5  C13 UNL     1      -1.363  10.737  14.088  1.00  0.00     0.021 C 
HETATM    6  C14 UNL     1      -3.303   9.643  15.202  1.00  0.00    -0.070 C 
HETATM    7  C15 UNL     1      -4.523  10.070  15.575  1.00  0.00    -0.022 C 
HETATM    8  C16 UNL     1      -5.772   9.242  15.483  1.00  0.00     0.034 C 
HETATM    9  C17 UNL     1      -5.480   7.739  15.274  1.00  0.00     0.013 C 
HETATM   10  C18 UNL     1      -6.749   6.805  15.182  1.00  0.00     0.018 C 
HETATM   11  C19 UNL     1      -8.084   7.575  15.264  1.00  0.00     0.023 C 
HETATM   12  C20 UNL     1      -6.733   5.803  16.359  1.00  0.00     0.023 C 
HETATM   13  C21 UNL     1      -6.769   5.949  13.905  1.00  0.00     0.135 C 
HETATM   14  O1  UNL     1      -7.820   5.690  13.310  1.00  0.00    -0.297 OA
HETATM   15  C22 UNL     1      -5.481   5.331  13.411  1.00  0.00     0.080 C 
HETATM   16  C23 UNL     1      -4.233   6.043  13.904  1.00  0.00     0.017 C 
HETATM   17  C24 UNL     1      -4.434   7.556  14.128  1.00  0.00    -0.031 C 
HETATM   18  C25 UNL     1      -4.917   8.210  12.798  1.00  0.00     0.016 C 
HETATM   19  C26 UNL     1      -3.083   8.276  14.532  1.00  0.00     0.024 C 
HETATM   20  C27 UNL     1      -2.096   7.436  15.379  1.00  0.00     0.010 C 
HETATM   21  C28 UNL     1      -0.813   8.200  15.786  1.00  0.00     0.011 C 
HETATM   22  C29 UNL     1      -1.126   9.555  16.458  1.00  0.00    -0.029 C 
HETATM   23  C30 UNL     1      -1.836   9.260  17.819  1.00  0.00     0.016 C 
ENDROOT
BRANCH   1  24
HETATM   24  C7  UNL     1       1.048  10.290  17.901  1.00  0.00    -0.014 C 
HETATM   25  C8  UNL     1       2.515  10.469  17.499  1.00  0.00     0.010 C 
BRANCH  24  26
HETATM   26  C6  UNL     1       0.690  11.258  19.067  1.00  0.00     0.008 C 
BRANCH  26  27
HETATM   27  C5  UNL     1       0.778  10.685  20.488  1.00  0.00     0.028 C 
BRANCH  27  28
HETATM   28  C4  UNL     1       2.179  10.645  21.033  1.00  0.00    -0.025 C 
HETATM   29  C2  UNL     1       2.712   9.719  21.854  1.00  0.00    -0.091 C 
HETATM   30  C1  UNL     1       4.129   9.852  22.345  1.00  0.00     0.042 C 
HETATM   31  C3  UNL     1       1.996   8.491  22.347  1.00  0.00     0.042 C 
ENDBRANCH  27  28
ENDBRANCH  26  27
ENDBRANCH  24  26
ENDBRANCH   1  24
TORSDOF 4
ENDMDL
MODEL 7
REMARK minimizedAffinity -6.70617628
REMARK CNNscore 0.301913083
REMARK CNNaffinity 6.11494875
REMARK  4 active torsions:
REMARK  status: ('A' for Active; 'I' for Inactive)
REMARK    1  A    between atoms: C4_4  and  C5_5 
REMARK    2  A    between atoms: C5_5  and  C6_6 
REMARK    3  A    between atoms: C6_6  and  C7_7 
REMARK    4  A    between atoms: C7_7  and  C9_9 
ROOT
HETATM    1  C9  UNL     1     -11.890  10.965  22.988  1.00  0.00    -0.002 C 
HETATM    2  C10 UNL     1     -12.153  11.577  24.403  1.00  0.00     0.007 C 
HETATM    3  C11 UNL     1     -13.009  10.570  25.195  1.00  0.00     0.015 C 
HETATM    4  C12 UNL     1     -13.536   9.594  24.125  1.00  0.00    -0.013 C 
HETATM    5  C13 UNL     1     -14.767  10.304  23.480  1.00  0.00     0.021 C 
HETATM    6  C14 UNL     1     -13.976   8.186  24.522  1.00  0.00    -0.070 C 
HETATM    7  C15 UNL     1     -13.955   7.721  25.784  1.00  0.00    -0.022 C 
HETATM    8  C16 UNL     1     -14.207   6.291  26.162  1.00  0.00     0.034 C 
HETATM    9  C17 UNL     1     -14.125   5.329  24.955  1.00  0.00     0.013 C 
HETATM   10  C18 UNL     1     -14.367   3.804  25.281  1.00  0.00     0.018 C 
HETATM   11  C19 UNL     1     -14.701   3.540  26.765  1.00  0.00     0.023 C 
HETATM   12  C20 UNL     1     -13.084   3.003  24.959  1.00  0.00     0.023 C 
HETATM   13  C21 UNL     1     -15.478   3.178  24.423  1.00  0.00     0.135 C 
HETATM   14  O1  UNL     1     -16.252   2.329  24.876  1.00  0.00    -0.297 OA
HETATM   15  C22 UNL     1     -15.573   3.543  22.959  1.00  0.00     0.080 C 
HETATM   16  C23 UNL     1     -14.918   4.870  22.617  1.00  0.00     0.017 C 
HETATM   17  C24 UNL     1     -14.965   5.897  23.767  1.00  0.00    -0.031 C 
HETATM   18  C25 UNL     1     -16.451   6.138  24.175  1.00  0.00     0.016 C 
HETATM   19  C26 UNL     1     -14.374   7.299  23.329  1.00  0.00     0.024 C 
HETATM   20  C27 UNL     1     -13.214   7.254  22.306  1.00  0.00     0.010 C 
HETATM   21  C28 UNL     1     -12.641   8.646  21.946  1.00  0.00     0.011 C 
HETATM   22  C29 UNL     1     -12.260   9.464  23.200  1.00  0.00    -0.029 C 
HETATM   23  C30 UNL     1     -11.068   8.736  23.900  1.00  0.00     0.016 C 
ENDROOT
BRANCH   1  24
HETATM   24  C7  UNL     1     -10.484  11.368  22.444  1.00  0.00    -0.014 C 
HETATM   25  C8  UNL     1     -10.507  11.677  20.944  1.00  0.00     0.010 C 
BRANCH  24  26
HETATM   26  C6  UNL     1      -9.945  12.594  23.237  1.00  0.00     0.008 C 
BRANCH  26  27
HETATM   27  C5  UNL     1      -8.422  12.784  23.260  1.00  0.00     0.028 C 
BRANCH  27  28
HETATM   28  C4  UNL     1      -7.841  13.136  21.919  1.00  0.00    -0.025 C 
HETATM   29  C2  UNL     1      -6.622  13.650  21.665  1.00  0.00    -0.091 C 
HETATM   30  C1  UNL     1      -6.209  13.990  20.256  1.00  0.00     0.042 C 
HETATM   31  C3  UNL     1      -5.569  13.923  22.703  1.00  0.00     0.042 C 
ENDBRANCH  27  28
ENDBRANCH  26  27
ENDBRANCH  24  26
ENDBRANCH   1  24
TORSDOF 4
ENDMDL
MODEL 8
REMARK minimizedAffinity -8.40056038
REMARK CNNscore 0.291515738
REMARK CNNaffinity 6.6043911
REMARK  4 active torsions:
REMARK  status: ('A' for Active; 'I' for Inactive)
REMARK    1  A    between atoms: C4_4  and  C5_5 
REMARK    2  A    between atoms: C5_5  and  C6_6 
REMARK    3  A    between atoms: C6_6  and  C7_7 
REMARK    4  A    between atoms: C7_7  and  C9_9 
ROOT
HETATM    1  C9  UNL     1      -4.445   7.454  14.741  1.00  0.00    -0.002 C 
HETATM    2  C10 UNL     1      -4.064   6.263  15.680  1.00  0.00     0.007 C 
HETATM    3  C11 UNL     1      -2.694   5.727  15.219  1.00  0.00     0.015 C 
HETATM    4  C12 UNL     1      -2.492   6.347  13.824  1.00  0.00    -0.013 C 
HETATM    5  C13 UNL     1      -3.303   5.443  12.842  1.00  0.00     0.021 C 
HETATM    6  C14 UNL     1      -1.085   6.500  13.248  1.00  0.00    -0.070 C 
HETATM    7  C15 UNL     1       0.031   6.104  13.884  1.00  0.00    -0.022 C 
HETATM    8  C16 UNL     1       1.424   6.413  13.417  1.00  0.00     0.034 C 
HETATM    9  C17 UNL     1       1.465   7.535  12.356  1.00  0.00     0.013 C 
HETATM   10  C18 UNL     1       2.901   7.923  11.828  1.00  0.00     0.018 C 
HETATM   11  C19 UNL     1       4.029   7.062  12.435  1.00  0.00     0.023 C 
HETATM   12  C20 UNL     1       3.203   9.392  12.202  1.00  0.00     0.023 C 
HETATM   13  C21 UNL     1       3.015   7.848  10.297  1.00  0.00     0.135 C 
HETATM   14  O1  UNL     1       4.048   7.466   9.738  1.00  0.00    -0.297 OA
HETATM   15  C22 UNL     1       1.866   8.340   9.446  1.00  0.00     0.080 C 
HETATM   16  C23 UNL     1       0.531   8.353  10.173  1.00  0.00     0.017 C 
HETATM   17  C24 UNL     1       0.401   7.253  11.246  1.00  0.00    -0.031 C 
HETATM   18  C25 UNL     1       0.619   5.861  10.580  1.00  0.00     0.016 C 
HETATM   19  C26 UNL     1      -1.042   7.233  11.896  1.00  0.00     0.024 C 
HETATM   20  C27 UNL     1      -1.744   8.606  12.026  1.00  0.00     0.010 C 
HETATM   21  C28 UNL     1      -3.132   8.537  12.709  1.00  0.00     0.011 C 
HETATM   22  C29 UNL     1      -3.082   7.795  14.063  1.00  0.00    -0.029 C 
HETATM   23  C30 UNL     1      -2.220   8.651  15.046  1.00  0.00     0.016 C 
ENDROOT
BRANCH   1  24
HETATM   24  C7  UNL     1      -5.248   8.552  15.507  1.00  0.00    -0.014 C 
HETATM   25  C8  UNL     1      -4.635   9.945  15.341  1.00  0.00     0.010 C 
BRANCH  24  26
HETATM   26  C6  UNL     1      -6.727   8.555  15.022  1.00  0.00     0.008 C 
BRANCH  26  27
HETATM   27  C5  UNL     1      -7.574   7.328  15.388  1.00  0.00     0.028 C 
BRANCH  27  28
HETATM   28  C4  UNL     1      -7.569   6.259  14.330  1.00  0.00    -0.025 C 
HETATM   29  C2  UNL     1      -8.578   5.919  13.505  1.00  0.00    -0.091 C 
HETATM   30  C1  UNL     1      -8.422   4.785  12.525  1.00  0.00     0.042 C 
HETATM   31  C3  UNL     1      -9.917   6.603  13.454  1.00  0.00     0.042 C 
ENDBRANCH  27  28
ENDBRANCH  26  27
ENDBRANCH  24  26
ENDBRANCH   1  24
TORSDOF 4
ENDMDL
MODEL 9
REMARK minimizedAffinity -7.99537945
REMARK CNNscore 0.287866324
REMARK CNNaffinity 6.64433336
REMARK  4 active torsions:
REMARK  status: ('A' for Active; 'I' for Inactive)
REMARK    1  A    between atoms: C4_4  and  C5_5 
REMARK    2  A    between atoms: C5_5  and  C6_6 
REMARK    3  A    between atoms: C6_6  and  C7_7 
REMARK    4  A    between atoms: C7_7  and  C9_9 
ROOT
HETATM    1  C9  UNL     1      -8.030   6.844  14.831  1.00  0.00    -0.002 C 
HETATM    2  C10 UNL     1      -7.808   5.813  15.985  1.00  0.00     0.007 C 
HETATM    3  C11 UNL     1      -6.293   5.554  16.094  1.00  0.00     0.015 C 
HETATM    4  C12 UNL     1      -5.714   6.126  14.786  1.00  0.00    -0.013 C 
HETATM    5  C13 UNL     1      -5.941   5.020  13.708  1.00  0.00     0.021 C 
HETATM    6  C14 UNL     1      -4.246   6.541  14.713  1.00  0.00    -0.070 C 
HETATM    7  C15 UNL     1      -3.382   6.424  15.738  1.00  0.00    -0.022 C 
HETATM    8  C16 UNL     1      -1.994   6.994  15.742  1.00  0.00     0.034 C 
HETATM    9  C17 UNL     1      -1.773   8.040  14.627  1.00  0.00     0.013 C 
HETATM   10  C18 UNL     1      -0.337   8.694  14.579  1.00  0.00     0.018 C 
HETATM   11  C19 UNL     1       0.630   8.125  15.640  1.00  0.00     0.023 C 
HETATM   12  C20 UNL     1      -0.456  10.212  14.846  1.00  0.00     0.023 C 
HETATM   13  C21 UNL     1       0.334   8.562  13.202  1.00  0.00     0.135 C 
HETATM   14  O1  UNL     1       1.549   8.377  13.084  1.00  0.00    -0.297 OA
HETATM   15  C22 UNL     1      -0.498   8.754  11.955  1.00  0.00     0.080 C 
HETATM   16  C23 UNL     1      -1.984   8.525  12.171  1.00  0.00     0.017 C 
HETATM   17  C24 UNL     1      -2.296   7.482  13.265  1.00  0.00    -0.031 C 
HETATM   18  C25 UNL     1      -1.608   6.132  12.894  1.00  0.00     0.016 C 
HETATM   19  C26 UNL     1      -3.848   7.192  13.377  1.00  0.00     0.024 C 
HETATM   20  C27 UNL     1      -4.782   8.391  13.085  1.00  0.00     0.010 C 
HETATM   21  C28 UNL     1      -6.287   8.068  13.254  1.00  0.00     0.011 C 
HETATM   22  C29 UNL     1      -6.598   7.428  14.624  1.00  0.00    -0.029 C 
HETATM   23  C30 UNL     1      -6.317   8.498  15.727  1.00  0.00     0.016 C 
ENDROOT
BRANCH   1  24
HETATM   24  C7  UNL     1      -9.237   7.787  15.131  1.00  0.00    -0.014 C 
HETATM   25  C8  UNL     1      -8.800   9.237  15.361  1.00  0.00     0.010 C 
BRANCH  24  26
HETATM   26  C6  UNL     1     -10.263   7.715  13.963  1.00  0.00     0.008 C 
BRANCH  26  27
HETATM   27  C5  UNL     1     -11.413   6.711  14.117  1.00  0.00     0.028 C 
BRANCH  27  28
HETATM   28  C4  UNL     1     -12.604   7.025  13.254  1.00  0.00    -0.025 C 
HETATM   29  C2  UNL     1     -13.899   6.764  13.518  1.00  0.00    -0.091 C 
HETATM   30  C1  UNL     1     -14.972   7.106  12.518  1.00  0.00     0.042 C 
HETATM   31  C3  UNL     1     -14.409   6.139  14.787  1.00  0.00     0.042 C 
ENDBRANCH  27  28
ENDBRANCH  26  27
ENDBRANCH  24  26
ENDBRANCH   1  24
TORSDOF 4
ENDMDL
