MODEL 1
REMARK minimizedAffinity -8.73907185
REMARK  5 active torsions:
REMARK  status: ('A' for Active; 'I' for Inactive)
REMARK    1  A    between atoms: C2_5  and  C3_6 
REMARK    2  A    between atoms: C5_11  and  C6_12 
REMARK       I    between atoms: C6_12  and  N3_14 
REMARK    3  A    between atoms: N3_14  and  C7_15 
REMARK    4  A    between atoms: C10_18  and  S1_19 
REMARK    5  A    between atoms: S1_19  and  N4_22 
ROOT
HETATM    1  C7  UNL     1      -0.453  52.002 -21.585  1.00  0.00     0.035 A 
HETATM    2  C8  UNL     1      -1.823  51.789 -21.758  1.00  0.00     0.031 A 
HETATM    3  C9  UNL     1      -2.400  51.873 -23.030  1.00  0.00     0.027 A 
HETATM    4  C10 UNL     1      -1.601  52.168 -24.135  1.00  0.00     0.074 A 
HETATM    5  C16 UNL     1      -0.233  52.393 -23.981  1.00  0.00     0.027 A 
HETATM    6  C17 UNL     1       0.334  52.309 -22.707  1.00  0.00     0.031 A 
ENDROOT
BRANCH   1   7
HETATM    7  N3  UNL     1       0.210  51.942 -20.339  1.00  0.00    -0.322 N 
HETATM    8  C6  UNL     1      -0.314  52.199 -19.083  1.00  0.00     0.274 C 
HETATM    9  O1  UNL     1      -1.485  52.490 -18.869  1.00  0.00    -0.266 OA
HETATM   10  H5  UNL     1       1.175  51.652 -20.378  1.00  0.00     0.169 HD
BRANCH   8  11
HETATM   11  C5  UNL     1       0.651  52.079 -17.998  1.00  0.00     0.120 A 
HETATM   12  N1  UNL     1       0.475  51.276 -16.894  1.00  0.00    -0.291 N 
HETATM   13  C1  UNL     1      -0.650  50.412 -16.600  1.00  0.00     0.178 C 
HETATM   14  N2  UNL     1       1.497  51.318 -16.017  1.00  0.00    -0.294 N 
HETATM   15  C2  UNL     1       2.371  52.188 -16.549  1.00  0.00     0.134 A 
ATOM     16  H2  UNL     1       1.588  50.803 -15.142  1.00  0.00     0.187 HD
HETATM   17  C4  UNL     1       1.880  52.686 -17.786  1.00  0.00     0.072 A 
BRANCH  15  18
HETATM   18  C3  UNL     1       3.673  52.554 -15.885  1.00  0.00     0.434 C 
HETATM   19  F1  UNL     1       4.706  51.768 -16.287  1.00  0.00    -0.165 F 
HETATM   20  F2  UNL     1       4.035  53.836 -16.174  1.00  0.00    -0.165 F 
HETATM   21  F3  UNL     1       3.609  52.473 -14.531  1.00  0.00    -0.165 F 
ENDBRANCH  15  18
ENDBRANCH   8  11
ENDBRANCH   1   7
BRANCH   4  22
HETATM   22  S1  UNL     1      -2.352  52.274 -25.740  1.00  0.00     0.243 S 
HETATM   23  O2  UNL     1      -3.690  52.794 -25.549  1.00  0.00    -0.206 OA
HETATM   24  O3  UNL     1      -1.417  52.920 -26.640  1.00  0.00    -0.206 OA
BRANCH  22  25
HETATM   25  N4  UNL     1      -2.469  50.636 -26.216  1.00  0.00    -0.206 NA
HETATM   26  C11 UNL     1      -3.254  50.384 -27.458  1.00  0.00     0.107 C 
HETATM   27  C12 UNL     1      -3.478  48.889 -27.651  1.00  0.00     0.015 C 
HETATM   28  C13 UNL     1      -4.309  48.299 -26.514  1.00  0.00     0.002 C 
HETATM   29  C14 UNL     1      -4.148  49.083 -25.213  1.00  0.00     0.015 C 
HETATM   30  C15 UNL     1      -2.758  49.693 -25.094  1.00  0.00     0.107 C 
ENDBRANCH  22  25
ENDBRANCH   4  22
TORSDOF 5
ENDMDL
MODEL 2
REMARK minimizedAffinity -8.5215807
REMARK  5 active torsions:
REMARK  status: ('A' for Active; 'I' for Inactive)
REMARK    1  A    between atoms: C2_5  and  C3_6 
REMARK    2  A    between atoms: C5_11  and  C6_12 
REMARK       I    between atoms: C6_12  and  N3_14 
REMARK    3  A    between atoms: N3_14  and  C7_15 
REMARK    4  A    between atoms: C10_18  and  S1_19 
REMARK    5  A    between atoms: S1_19  and  N4_22 
ROOT
HETATM    1  C7  UNL     1       1.012  52.888 -21.463  1.00  0.00     0.035 A 
HETATM    2  C8  UNL     1       1.252  54.149 -22.016  1.00  0.00     0.031 A 
HETATM    3  C9  UNL     1       0.999  54.392 -23.370  1.00  0.00     0.027 A 
HETATM    4  C10 UNL     1       0.499  53.368 -24.176  1.00  0.00     0.074 A 
HETATM    5  C16 UNL     1       0.262  52.100 -23.645  1.00  0.00     0.027 A 
HETATM    6  C17 UNL     1       0.519  51.866 -22.291  1.00  0.00     0.031 A 
ENDROOT
BRANCH   1   7
HETATM    7  N3  UNL     1       1.244  52.556 -20.110  1.00  0.00    -0.322 N 
HETATM    8  C6  UNL     1       0.343  52.593 -19.060  1.00  0.00     0.274 C 
HETATM    9  O1  UNL     1      -0.839  52.896 -19.171  1.00  0.00    -0.266 OA
HETATM   10  H5  UNL     1       2.175  52.230 -19.900  1.00  0.00     0.169 HD
BRANCH   8  11
HETATM   11  C5  UNL     1       0.913  52.217 -17.772  1.00  0.00     0.120 A 
HETATM   12  N1  UNL     1       0.300  51.373 -16.873  1.00  0.00    -0.291 N 
HETATM   13  C1  UNL     1      -0.976  50.705 -17.018  1.00  0.00     0.178 C 
HETATM   14  N2  UNL     1       1.010  51.164 -15.747  1.00  0.00    -0.294 N 
HETATM   15  C2  UNL     1       2.121  51.903 -15.898  1.00  0.00     0.134 A 
ATOM     16  H2  UNL     1       0.759  50.573 -14.954  1.00  0.00     0.187 HD
HETATM   17  C4  UNL     1       2.099  52.576 -17.149  1.00  0.00     0.072 A 
BRANCH  15  18
HETATM   18  C3  UNL     1       3.206  51.976 -14.854  1.00  0.00     0.434 C 
HETATM   19  F1  UNL     1       3.964  50.850 -14.806  1.00  0.00    -0.165 F 
HETATM   20  F2  UNL     1       4.066  53.004 -15.106  1.00  0.00    -0.165 F 
HETATM   21  F3  UNL     1       2.716  52.187 -13.606  1.00  0.00    -0.165 F 
ENDBRANCH  15  18
ENDBRANCH   8  11
ENDBRANCH   1   7
BRANCH   4  22
HETATM   22  S1  UNL     1       0.187  53.693 -25.893  1.00  0.00     0.243 S 
HETATM   23  O2  UNL     1       0.156  55.131 -26.053  1.00  0.00    -0.206 OA
HETATM   24  O3  UNL     1       1.080  52.869 -26.683  1.00  0.00    -0.206 OA
BRANCH  22  25
HETATM   25  N4  UNL     1      -1.396  53.087 -26.115  1.00  0.00    -0.206 NA
HETATM   26  C11 UNL     1      -2.167  52.835 -24.864  1.00  0.00     0.107 C 
HETATM   27  C12 UNL     1      -3.459  52.091 -25.177  1.00  0.00     0.015 C 
HETATM   28  C13 UNL     1      -3.179  50.713 -25.771  1.00  0.00     0.002 C 
HETATM   29  C14 UNL     1      -1.843  50.662 -26.508  1.00  0.00     0.015 C 
HETATM   30  C15 UNL     1      -1.498  52.004 -27.138  1.00  0.00     0.107 C 
ENDBRANCH  22  25
ENDBRANCH   4  22
TORSDOF 5
ENDMDL
MODEL 3
REMARK minimizedAffinity -8.36871719
REMARK  5 active torsions:
REMARK  status: ('A' for Active; 'I' for Inactive)
REMARK    1  A    between atoms: C2_5  and  C3_6 
REMARK    2  A    between atoms: C5_11  and  C6_12 
REMARK       I    between atoms: C6_12  and  N3_14 
REMARK    3  A    between atoms: N3_14  and  C7_15 
REMARK    4  A    between atoms: C10_18  and  S1_19 
REMARK    5  A    between atoms: S1_19  and  N4_22 
ROOT
HETATM    1  C7  UNL     1      -0.095  51.438 -20.701  1.00  0.00     0.035 A 
HETATM    2  C8  UNL     1      -0.840  50.458 -21.363  1.00  0.00     0.031 A 
HETATM    3  C9  UNL     1      -1.212  50.630 -22.700  1.00  0.00     0.027 A 
HETATM    4  C10 UNL     1      -0.834  51.787 -23.382  1.00  0.00     0.074 A 
HETATM    5  C16 UNL     1      -0.098  52.781 -22.735  1.00  0.00     0.027 A 
HETATM    6  C17 UNL     1       0.268  52.601 -21.399  1.00  0.00     0.031 A 
ENDROOT
BRANCH   1   7
HETATM    7  N3  UNL     1       0.318  51.348 -19.354  1.00  0.00    -0.322 N 
HETATM    8  C6  UNL     1      -0.454  51.505 -18.215  1.00  0.00     0.274 C 
HETATM    9  O1  UNL     1      -1.661  51.715 -18.221  1.00  0.00    -0.266 OA
HETATM   10  H5  UNL     1       1.290  51.117 -19.216  1.00  0.00     0.169 HD
BRANCH   8  11
HETATM   11  C5  UNL     1       0.290  51.382 -16.969  1.00  0.00     0.120 A 
HETATM   12  N1  UNL     1      -0.203  50.784 -15.831  1.00  0.00    -0.291 N 
HETATM   13  C1  UNL     1      -1.502  50.170 -15.648  1.00  0.00     0.178 C 
HETATM   14  N2  UNL     1       0.660  50.780 -14.796  1.00  0.00    -0.294 N 
HETATM   15  C2  UNL     1       1.753  51.409 -15.257  1.00  0.00     0.134 A 
ATOM     16  H2  UNL     1       0.514  50.387 -13.866  1.00  0.00     0.187 HD
HETATM   17  C4  UNL     1       1.563  51.801 -16.610  1.00  0.00     0.072 A 
BRANCH  15  18
HETATM   18  C3  UNL     1       2.981  51.644 -14.415  1.00  0.00     0.434 C 
HETATM   19  F1  UNL     1       3.790  52.608 -14.925  1.00  0.00    -0.165 F 
HETATM   20  F2  UNL     1       2.648  52.053 -13.157  1.00  0.00    -0.165 F 
HETATM   21  F3  UNL     1       3.733  50.524 -14.264  1.00  0.00    -0.165 F 
ENDBRANCH  15  18
ENDBRANCH   8  11
ENDBRANCH   1   7
BRANCH   4  22
HETATM   22  S1  UNL     1      -1.319  51.990 -25.077  1.00  0.00     0.243 S 
HETATM   23  O2  UNL     1      -2.480  51.151 -25.289  1.00  0.00    -0.206 OA
HETATM   24  O3  UNL     1      -1.352  53.407 -25.377  1.00  0.00    -0.206 OA
BRANCH  22  25
HETATM   25  N4  UNL     1      -0.000  51.318 -25.934  1.00  0.00    -0.206 NA
HETATM   26  C11 UNL     1       1.337  51.886 -25.601  1.00  0.00     0.107 C 
HETATM   27  C12 UNL     1       2.389  51.377 -26.578  1.00  0.00     0.015 C 
HETATM   28  C13 UNL     1       2.093  51.836 -28.004  1.00  0.00     0.002 C 
HETATM   29  C14 UNL     1       0.602  52.069 -28.238  1.00  0.00     0.015 C 
HETATM   30  C15 UNL     1      -0.252  51.133 -27.395  1.00  0.00     0.107 C 
ENDBRANCH  22  25
ENDBRANCH   4  22
TORSDOF 5
ENDMDL
MODEL 4
REMARK minimizedAffinity -8.16025925
REMARK  5 active torsions:
REMARK  status: ('A' for Active; 'I' for Inactive)
REMARK    1  A    between atoms: C2_5  and  C3_6 
REMARK    2  A    between atoms: C5_11  and  C6_12 
REMARK       I    between atoms: C6_12  and  N3_14 
REMARK    3  A    between atoms: N3_14  and  C7_15 
REMARK    4  A    between atoms: C10_18  and  S1_19 
REMARK    5  A    between atoms: S1_19  and  N4_22 
ROOT
HETATM    1  C7  UNL     1      -0.393  51.228 -20.869  1.00  0.00     0.035 A 
HETATM    2  C8  UNL     1      -0.362  49.948 -20.309  1.00  0.00     0.031 A 
HETATM    3  C9  UNL     1      -0.345  49.779 -18.920  1.00  0.00     0.027 A 
HETATM    4  C10 UNL     1      -0.363  50.898 -18.086  1.00  0.00     0.074 A 
HETATM    5  C16 UNL     1      -0.385  52.184 -18.627  1.00  0.00     0.027 A 
HETATM    6  C17 UNL     1      -0.400  52.343 -20.015  1.00  0.00     0.031 A 
ENDROOT
BRANCH   1   7
HETATM    7  N3  UNL     1      -0.406  51.489 -22.257  1.00  0.00    -0.322 N 
HETATM    8  C6  UNL     1       0.207  52.530 -22.932  1.00  0.00     0.274 C 
HETATM    9  O1  UNL     1       0.906  53.384 -22.400  1.00  0.00    -0.266 OA
HETATM   10  H5  UNL     1      -0.906  50.815 -22.817  1.00  0.00     0.169 HD
BRANCH   8  11
HETATM   11  C5  UNL     1      -0.032  52.531 -24.370  1.00  0.00     0.120 A 
HETATM   12  N1  UNL     1      -1.278  52.644 -24.945  1.00  0.00    -0.291 N 
HETATM   13  C1  UNL     1      -2.551  52.791 -24.272  1.00  0.00     0.178 C 
HETATM   14  N2  UNL     1      -1.262  52.624 -26.293  1.00  0.00    -0.294 N 
HETATM   15  C2  UNL     1       0.032  52.478 -26.620  1.00  0.00     0.134 A 
ATOM     16  H2  UNL     1      -2.059  52.703 -26.925  1.00  0.00     0.187 HD
HETATM   17  C4  UNL     1       0.833  52.415 -25.448  1.00  0.00     0.072 A 
BRANCH  15  18
HETATM   18  C3  UNL     1       0.513  52.393 -28.046  1.00  0.00     0.434 C 
HETATM   19  F1  UNL     1       1.848  52.158 -28.136  1.00  0.00    -0.165 F 
HETATM   20  F2  UNL     1      -0.099  51.374 -28.715  1.00  0.00    -0.165 F 
HETATM   21  F3  UNL     1       0.254  53.523 -28.753  1.00  0.00    -0.165 F 
ENDBRANCH  15  18
ENDBRANCH   8  11
ENDBRANCH   1   7
BRANCH   4  22
HETATM   22  S1  UNL     1      -0.338  50.665 -16.327  1.00  0.00     0.243 S 
HETATM   23  O2  UNL     1      -1.595  51.168 -15.814  1.00  0.00    -0.206 OA
HETATM   24  O3  UNL     1       0.097  49.310 -16.052  1.00  0.00    -0.206 OA
BRANCH  22  25
HETATM   25  N4  UNL     1       0.914  51.714 -15.821  1.00  0.00    -0.206 NA
HETATM   26  C11 UNL     1       2.007  51.932 -16.811  1.00  0.00     0.107 C 
HETATM   27  C12 UNL     1       3.162  52.691 -16.169  1.00  0.00     0.015 C 
HETATM   28  C13 UNL     1       3.792  51.890 -15.032  1.00  0.00     0.002 C 
HETATM   29  C14 UNL     1       2.798  50.931 -14.381  1.00  0.00     0.015 C 
HETATM   30  C15 UNL     1       1.378  51.480 -14.421  1.00  0.00     0.107 C 
ENDBRANCH  22  25
ENDBRANCH   4  22
TORSDOF 5
ENDMDL
MODEL 5
REMARK minimizedAffinity -8.10907936
REMARK  5 active torsions:
REMARK  status: ('A' for Active; 'I' for Inactive)
REMARK    1  A    between atoms: C2_5  and  C3_6 
REMARK    2  A    between atoms: C5_11  and  C6_12 
REMARK       I    between atoms: C6_12  and  N3_14 
REMARK    3  A    between atoms: N3_14  and  C7_15 
REMARK    4  A    between atoms: C10_18  and  S1_19 
REMARK    5  A    between atoms: S1_19  and  N4_22 
ROOT
HETATM    1  C7  UNL     1      -0.239  51.300 -20.922  1.00  0.00     0.035 A 
HETATM    2  C8  UNL     1      -0.804  50.197 -21.569  1.00  0.00     0.031 A 
HETATM    3  C9  UNL     1      -1.362  50.329 -22.844  1.00  0.00     0.027 A 
HETATM    4  C10 UNL     1      -1.351  51.571 -23.480  1.00  0.00     0.074 A 
HETATM    5  C16 UNL     1      -0.800  52.686 -22.848  1.00  0.00     0.027 A 
HETATM    6  C17 UNL     1      -0.246  52.545 -21.573  1.00  0.00     0.031 A 
ENDROOT
BRANCH   1   7
HETATM    7  N3  UNL     1       0.340  51.257 -19.635  1.00  0.00    -0.322 N 
HETATM    8  C6  UNL     1      -0.273  51.504 -18.418  1.00  0.00     0.274 C 
HETATM    9  O1  UNL     1      -1.461  51.767 -18.283  1.00  0.00    -0.266 OA
HETATM   10  H5  UNL     1       1.312  50.990 -19.609  1.00  0.00     0.169 HD
BRANCH   8  11
HETATM   11  C5  UNL     1       0.620  51.408 -17.271  1.00  0.00     0.120 A 
HETATM   12  N1  UNL     1       0.443  50.529 -16.226  1.00  0.00    -0.291 N 
HETATM   13  C1  UNL     1      -0.613  49.552 -16.064  1.00  0.00     0.178 C 
HETATM   14  N2  UNL     1       1.393  50.612 -15.273  1.00  0.00    -0.294 N 
HETATM   15  C2  UNL     1       2.216  51.587 -15.692  1.00  0.00     0.134 A 
ATOM     16  H2  UNL     1       1.469  50.057 -14.421  1.00  0.00     0.187 HD
HETATM   17  C4  UNL     1       1.768  52.110 -16.935  1.00  0.00     0.072 A 
BRANCH  15  18
HETATM   18  C3  UNL     1       3.427  52.029 -14.912  1.00  0.00     0.434 C 
HETATM   19  F1  UNL     1       4.470  51.166 -15.029  1.00  0.00    -0.165 F 
HETATM   20  F2  UNL     1       3.883  53.238 -15.348  1.00  0.00    -0.165 F 
HETATM   21  F3  UNL     1       3.171  52.175 -13.587  1.00  0.00    -0.165 F 
ENDBRANCH  15  18
ENDBRANCH   8  11
ENDBRANCH   1   7
BRANCH   4  22
HETATM   22  S1  UNL     1      -2.067  51.721 -25.098  1.00  0.00     0.243 S 
HETATM   23  O2  UNL     1      -2.325  50.378 -25.572  1.00  0.00    -0.206 OA
HETATM   24  O3  UNL     1      -3.122  52.712 -25.040  1.00  0.00    -0.206 OA
BRANCH  22  25
HETATM   25  N4  UNL     1      -0.791  52.386 -26.020  1.00  0.00    -0.206 NA
HETATM   26  C11 UNL     1      -0.983  52.354 -27.498  1.00  0.00     0.107 C 
HETATM   27  C12 UNL     1       0.301  52.758 -28.211  1.00  0.00     0.015 C 
HETATM   28  C13 UNL     1       1.432  51.773 -27.924  1.00  0.00     0.002 C 
HETATM   29  C14 UNL     1       1.264  51.078 -26.574  1.00  0.00     0.015 C 
HETATM   30  C15 UNL     1       0.571  51.979 -25.561  1.00  0.00     0.107 C 
ENDBRANCH  22  25
ENDBRANCH   4  22
TORSDOF 5
ENDMDL
MODEL 6
REMARK minimizedAffinity -8.03239727
REMARK  5 active torsions:
REMARK  status: ('A' for Active; 'I' for Inactive)
REMARK    1  A    between atoms: C2_5  and  C3_6 
REMARK    2  A    between atoms: C5_11  and  C6_12 
REMARK       I    between atoms: C6_12  and  N3_14 
REMARK    3  A    between atoms: N3_14  and  C7_15 
REMARK    4  A    between atoms: C10_18  and  S1_19 
REMARK    5  A    between atoms: S1_19  and  N4_22 
ROOT
HETATM    1  C7  UNL     1      -3.105  50.423 -26.199  1.00  0.00     0.035 A 
HETATM    2  C8  UNL     1      -1.787  49.996 -26.383  1.00  0.00     0.031 A 
HETATM    3  C9  UNL     1      -0.717  50.856 -26.116  1.00  0.00     0.027 A 
HETATM    4  C10 UNL     1      -0.966  52.150 -25.658  1.00  0.00     0.074 A 
HETATM    5  C16 UNL     1      -2.275  52.598 -25.477  1.00  0.00     0.027 A 
HETATM    6  C17 UNL     1      -3.338  51.733 -25.748  1.00  0.00     0.031 A 
ENDROOT
BRANCH   1   7
HETATM    7  N3  UNL     1      -4.243  49.624 -26.449  1.00  0.00    -0.322 N 
HETATM    8  C6  UNL     1      -4.369  48.583 -27.352  1.00  0.00     0.274 C 
HETATM    9  O1  UNL     1      -3.460  48.169 -28.063  1.00  0.00    -0.266 OA
HETATM   10  H5  UNL     1      -5.048  49.830 -25.877  1.00  0.00     0.169 HD
BRANCH   8  11
HETATM   11  C5  UNL     1      -5.695  47.982 -27.389  1.00  0.00     0.120 A 
HETATM   12  N1  UNL     1      -6.400  47.736 -28.546  1.00  0.00    -0.291 N 
HETATM   13  C1  UNL     1      -5.984  48.002 -29.907  1.00  0.00     0.178 C 
HETATM   14  N2  UNL     1      -7.607  47.172 -28.342  1.00  0.00    -0.294 N 
HETATM   15  C2  UNL     1      -7.712  47.053 -27.009  1.00  0.00     0.134 A 
ATOM     16  H2  UNL     1      -8.291  46.895 -29.047  1.00  0.00     0.187 HD
HETATM   17  C4  UNL     1      -6.539  47.548 -26.377  1.00  0.00     0.072 A 
BRANCH  15  18
HETATM   18  C3  UNL     1      -8.926  46.474 -26.329  1.00  0.00     0.434 C 
HETATM   19  F1  UNL     1      -9.895  46.109 -27.209  1.00  0.00    -0.165 F 
HETATM   20  F2  UNL     1      -8.610  45.351 -25.624  1.00  0.00    -0.165 F 
HETATM   21  F3  UNL     1      -9.489  47.334 -25.443  1.00  0.00    -0.165 F 
ENDBRANCH  15  18
ENDBRANCH   8  11
ENDBRANCH   1   7
BRANCH   4  22
HETATM   22  S1  UNL     1       0.405  53.229 -25.328  1.00  0.00     0.243 S 
HETATM   23  O2  UNL     1       1.611  52.465 -25.563  1.00  0.00    -0.206 OA
HETATM   24  O3  UNL     1       0.169  54.488 -26.005  1.00  0.00    -0.206 OA
BRANCH  22  25
HETATM   25  N4  UNL     1       0.266  53.519 -23.648  1.00  0.00    -0.206 NA
HETATM   26  C11 UNL     1       1.342  54.361 -23.052  1.00  0.00     0.107 C 
HETATM   27  C12 UNL     1       1.239  54.359 -21.532  1.00  0.00     0.015 C 
HETATM   28  C13 UNL     1       1.450  52.958 -20.961  1.00  0.00     0.002 C 
HETATM   29  C14 UNL     1       1.051  51.865 -21.949  1.00  0.00     0.015 C 
HETATM   30  C15 UNL     1      -0.095  52.311 -22.847  1.00  0.00     0.107 C 
ENDBRANCH  22  25
ENDBRANCH   4  22
TORSDOF 5
ENDMDL
MODEL 7
REMARK minimizedAffinity -7.97986174
REMARK  5 active torsions:
REMARK  status: ('A' for Active; 'I' for Inactive)
REMARK    1  A    between atoms: C2_5  and  C3_6 
REMARK    2  A    between atoms: C5_11  and  C6_12 
REMARK       I    between atoms: C6_12  and  N3_14 
REMARK    3  A    between atoms: N3_14  and  C7_15 
REMARK    4  A    between atoms: C10_18  and  S1_19 
REMARK    5  A    between atoms: S1_19  and  N4_22 
ROOT
HETATM    1  C7  UNL     1      -4.043  48.773 -27.725  1.00  0.00     0.035 A 
HETATM    2  C8  UNL     1      -3.597  48.401 -26.453  1.00  0.00     0.031 A 
HETATM    3  C9  UNL     1      -2.829  49.280 -25.683  1.00  0.00     0.027 A 
HETATM    4  C10 UNL     1      -2.508  50.542 -26.186  1.00  0.00     0.074 A 
HETATM    5  C16 UNL     1      -2.935  50.928 -27.457  1.00  0.00     0.027 A 
HETATM    6  C17 UNL     1      -3.700  50.042 -28.220  1.00  0.00     0.031 A 
ENDROOT
BRANCH   1   7
HETATM    7  N3  UNL     1      -4.816  47.947 -28.570  1.00  0.00    -0.322 N 
HETATM    8  C6  UNL     1      -5.147  48.161 -29.897  1.00  0.00     0.274 C 
HETATM    9  O1  UNL     1      -4.766  49.118 -30.560  1.00  0.00    -0.266 OA
HETATM   10  H5  UNL     1      -5.142  47.089 -28.153  1.00  0.00     0.169 HD
BRANCH   8  11
HETATM   11  C5  UNL     1      -5.993  47.126 -30.475  1.00  0.00     0.120 A 
HETATM   12  N1  UNL     1      -5.572  46.228 -31.431  1.00  0.00    -0.291 N 
HETATM   13  C1  UNL     1      -4.256  46.124 -32.025  1.00  0.00     0.178 C 
HETATM   14  N2  UNL     1      -6.523  45.356 -31.821  1.00  0.00    -0.294 N 
HETATM   15  C2  UNL     1      -7.612  45.695 -31.112  1.00  0.00     0.134 A 
ATOM     16  H2  UNL     1      -6.435  44.603 -32.503  1.00  0.00     0.187 HD
HETATM   17  C4  UNL     1      -7.323  46.796 -30.261  1.00  0.00     0.072 A 
BRANCH  15  18
HETATM   18  C3  UNL     1      -8.932  44.980 -31.244  1.00  0.00     0.434 C 
HETATM   19  F1  UNL     1      -9.456  44.620 -30.043  1.00  0.00    -0.165 F 
HETATM   20  F2  UNL     1      -9.866  45.770 -31.845  1.00  0.00    -0.165 F 
HETATM   21  F3  UNL     1      -8.843  43.854 -31.998  1.00  0.00    -0.165 F 
ENDBRANCH  15  18
ENDBRANCH   8  11
ENDBRANCH   1   7
BRANCH   4  22
HETATM   22  S1  UNL     1      -1.530  51.643 -25.196  1.00  0.00     0.243 S 
HETATM   23  O2  UNL     1      -2.371  52.773 -24.861  1.00  0.00    -0.206 OA
HETATM   24  O3  UNL     1      -0.870  50.867 -24.165  1.00  0.00    -0.206 OA
BRANCH  22  25
HETATM   25  N4  UNL     1      -0.324  52.170 -26.288  1.00  0.00    -0.206 NA
HETATM   26  C11 UNL     1      -0.062  51.260 -27.440  1.00  0.00     0.107 C 
HETATM   27  C12 UNL     1       1.173  51.716 -28.207  1.00  0.00     0.015 C 
HETATM   28  C13 UNL     1       2.426  51.647 -27.337  1.00  0.00     0.002 C 
HETATM   29  C14 UNL     1       2.108  51.807 -25.852  1.00  0.00     0.015 C 
HETATM   30  C15 UNL     1       0.902  52.710 -25.630  1.00  0.00     0.107 C 
ENDBRANCH  22  25
ENDBRANCH   4  22
TORSDOF 5
ENDMDL
MODEL 8
REMARK minimizedAffinity -7.97726011
REMARK  5 active torsions:
REMARK  status: ('A' for Active; 'I' for Inactive)
REMARK    1  A    between atoms: C2_5  and  C3_6 
REMARK    2  A    between atoms: C5_11  and  C6_12 
REMARK       I    between atoms: C6_12  and  N3_14 
REMARK    3  A    between atoms: N3_14  and  C7_15 
REMARK    4  A    between atoms: C10_18  and  S1_19 
REMARK    5  A    between atoms: S1_19  and  N4_22 
ROOT
HETATM    1  C7  UNL     1      -0.214  50.905 -20.672  1.00  0.00     0.035 A 
HETATM    2  C8  UNL     1      -1.082  50.195 -21.505  1.00  0.00     0.031 A 
HETATM    3  C9  UNL     1      -1.348  50.643 -22.803  1.00  0.00     0.027 A 
HETATM    4  C10 UNL     1      -0.739  51.807 -23.273  1.00  0.00     0.074 A 
HETATM    5  C16 UNL     1       0.124  52.535 -22.453  1.00  0.00     0.027 A 
HETATM    6  C17 UNL     1       0.383  52.081 -21.157  1.00  0.00     0.031 A 
ENDROOT
BRANCH   1   7
HETATM    7  N3  UNL     1       0.106  50.528 -19.349  1.00  0.00    -0.322 N 
HETATM    8  C6  UNL     1      -0.620  50.772 -18.196  1.00  0.00     0.274 C 
HETATM    9  O1  UNL     1      -1.704  51.341 -18.169  1.00  0.00    -0.266 OA
HETATM   10  H5  UNL     1       0.957  49.995 -19.248  1.00  0.00     0.169 HD
BRANCH   8  11
HETATM   11  C5  UNL     1       0.009  50.274 -16.979  1.00  0.00     0.120 A 
HETATM   12  N1  UNL     1       0.877  51.009 -16.203  1.00  0.00    -0.291 N 
HETATM   13  C1  UNL     1       1.317  52.372 -16.418  1.00  0.00     0.178 C 
HETATM   14  N2  UNL     1       1.336  50.349 -15.121  1.00  0.00    -0.294 N 
HETATM   15  C2  UNL     1       0.766  49.135 -15.190  1.00  0.00     0.134 A 
ATOM     16  H2  UNL     1       1.975  50.696 -14.406  1.00  0.00     0.187 HD
HETATM   17  C4  UNL     1      -0.069  49.048 -16.337  1.00  0.00     0.072 A 
BRANCH  15  18
HETATM   18  C3  UNL     1       1.016  48.053 -14.173  1.00  0.00     0.434 C 
HETATM   19  F1  UNL     1       1.769  47.034 -14.664  1.00  0.00    -0.165 F 
HETATM   20  F2  UNL     1       1.689  48.536 -13.090  1.00  0.00    -0.165 F 
HETATM   21  F3  UNL     1      -0.133  47.510 -13.694  1.00  0.00    -0.165 F 
ENDBRANCH  15  18
ENDBRANCH   8  11
ENDBRANCH   1   7
BRANCH   4  22
HETATM   22  S1  UNL     1      -1.091  52.363 -24.921  1.00  0.00     0.243 S 
HETATM   23  O2  UNL     1      -2.400  51.852 -25.270  1.00  0.00    -0.206 OA
HETATM   24  O3  UNL     1      -0.793  53.778 -25.000  1.00  0.00    -0.206 OA
BRANCH  22  25
HETATM   25  N4  UNL     1       0.079  51.541 -25.859  1.00  0.00    -0.206 NA
HETATM   26  C11 UNL     1       1.478  52.035 -25.714  1.00  0.00     0.107 C 
HETATM   27  C12 UNL     1       2.381  51.387 -26.756  1.00  0.00     0.015 C 
HETATM   28  C13 UNL     1       1.958  51.766 -28.174  1.00  0.00     0.002 C 
HETATM   29  C14 UNL     1       0.468  52.087 -28.265  1.00  0.00     0.015 C 
HETATM   30  C15 UNL     1      -0.344  51.274 -27.267  1.00  0.00     0.107 C 
ENDBRANCH  22  25
ENDBRANCH   4  22
TORSDOF 5
ENDMDL
MODEL 9
REMARK minimizedAffinity -7.87735081
REMARK  5 active torsions:
REMARK  status: ('A' for Active; 'I' for Inactive)
REMARK    1  A    between atoms: C2_5  and  C3_6 
REMARK    2  A    between atoms: C5_11  and  C6_12 
REMARK       I    between atoms: C6_12  and  N3_14 
REMARK    3  A    between atoms: N3_14  and  C7_15 
REMARK    4  A    between atoms: C10_18  and  S1_19 
REMARK    5  A    between atoms: S1_19  and  N4_22 
ROOT
HETATM    1  C7  UNL     1      -3.807  49.750 -23.190  1.00  0.00     0.035 A 
HETATM    2  C8  UNL     1      -3.879  51.065 -22.723  1.00  0.00     0.031 A 
HETATM    3  C9  UNL     1      -3.310  51.416 -21.495  1.00  0.00     0.027 A 
HETATM    4  C10 UNL     1      -2.662  50.446 -20.729  1.00  0.00     0.074 A 
HETATM    5  C16 UNL     1      -2.588  49.126 -21.174  1.00  0.00     0.027 A 
HETATM    6  C17 UNL     1      -3.160  48.784 -22.402  1.00  0.00     0.031 A 
ENDROOT
BRANCH   1   7
HETATM    7  N3  UNL     1      -4.357  49.309 -24.414  1.00  0.00    -0.322 N 
HETATM    8  C6  UNL     1      -3.702  48.700 -25.471  1.00  0.00     0.274 C 
HETATM    9  O1  UNL     1      -2.511  48.415 -25.474  1.00  0.00    -0.266 OA
HETATM   10  H5  UNL     1      -5.353  49.435 -24.509  1.00  0.00     0.169 HD
BRANCH   8  11
HETATM   11  C5  UNL     1      -4.559  48.398 -26.610  1.00  0.00     0.120 A 
HETATM   12  N1  UNL     1      -5.873  48.001 -26.503  1.00  0.00    -0.291 N 
HETATM   13  C1  UNL     1      -6.646  47.821 -25.292  1.00  0.00     0.178 C 
HETATM   14  N2  UNL     1      -6.475  47.778 -27.688  1.00  0.00    -0.294 N 
HETATM   15  C2  UNL     1      -5.527  48.019 -28.607  1.00  0.00     0.134 A 
ATOM     16  H2  UNL     1      -7.440  47.488 -27.850  1.00  0.00     0.187 HD
HETATM   17  C4  UNL     1      -4.315  48.409 -27.975  1.00  0.00     0.072 A 
BRANCH  15  18
HETATM   18  C3  UNL     1      -5.765  47.877 -30.088  1.00  0.00     0.434 C 
HETATM   19  F1  UNL     1      -5.658  49.058 -30.753  1.00  0.00    -0.165 F 
HETATM   20  F2  UNL     1      -4.856  47.036 -30.658  1.00  0.00    -0.165 F 
HETATM   21  F3  UNL     1      -6.989  47.364 -30.374  1.00  0.00    -0.165 F 
ENDBRANCH  15  18
ENDBRANCH   8  11
ENDBRANCH   1   7
BRANCH   4  22
HETATM   22  S1  UNL     1      -1.949  50.908 -19.171  1.00  0.00     0.243 S 
HETATM   23  O2  UNL     1      -2.736  52.009 -18.655  1.00  0.00    -0.206 OA
HETATM   24  O3  UNL     1      -1.737  49.706 -18.391  1.00  0.00    -0.206 OA
BRANCH  22  25
HETATM   25  N4  UNL     1      -0.410  51.505 -19.617  1.00  0.00    -0.206 NA
HETATM   26  C11 UNL     1      -0.180  52.953 -19.345  1.00  0.00     0.107 C 
HETATM   27  C12 UNL     1       1.122  53.414 -19.986  1.00  0.00     0.015 C 
HETATM   28  C13 UNL     1       1.071  53.286 -21.507  1.00  0.00     0.002 C 
HETATM   29  C14 UNL     1       0.118  52.183 -21.962  1.00  0.00     0.015 C 
HETATM   30  C15 UNL     1       0.060  51.041 -20.957  1.00  0.00     0.107 C 
ENDBRANCH  22  25
ENDBRANCH   4  22
TORSDOF 5
ENDMDL
