MODEL 1
REMARK minimizedAffinity -10.1151924
REMARK  8 active torsions:
REMARK  status: ('A' for Active; 'I' for Inactive)
REMARK    1  A    between atoms: C2_2  and  C3_3 
REMARK    2  A    between atoms: C2_2  and  C27_30 
REMARK    3  A    between atoms: C3_3  and  C4_4 
REMARK    4  A    between atoms: C4_4  and  C5_5 
REMARK    5  A    between atoms: C5_5  and  C7_7 
REMARK    6  A    between atoms: C26_28  and  O3_29 
REMARK    7  A    between atoms: C27_30  and  C29_32 
REMARK    8  A    between atoms: C29_32  and  O5_34 
ROOT
HETATM    1  C7  UNL     1       1.262   6.901  13.468  1.00  0.00    -0.002 C 
HETATM    2  C8  UNL     1       0.434   7.999  14.186  1.00  0.00     0.006 C 
HETATM    3  C9  UNL     1      -1.042   7.648  13.960  1.00  0.00     0.010 C 
HETATM    4  C10 UNL     1      -1.013   6.202  13.460  1.00  0.00     0.027 C 
HETATM    5  C11 UNL     1      -2.226   5.518  12.858  1.00  0.00    -0.036 C 
HETATM    6  C12 UNL     1      -2.072   4.417  12.076  1.00  0.00     0.002 C 
HETATM    7  C13 UNL     1      -0.668   3.996  11.675  1.00  0.00     0.157 C 
HETATM    8  O1  UNL     1      -0.488   3.044  10.915  1.00  0.00    -0.293 OA
HETATM    9  C14 UNL     1       0.538   4.727  12.239  1.00  0.00     0.093 C 
HETATM   10  C15 UNL     1       0.231   6.193  12.536  1.00  0.00    -0.026 C 
HETATM   11  C16 UNL     1      -0.003   6.951  11.210  1.00  0.00     0.016 C 
HETATM   12  C17 UNL     1      -3.256   3.564  11.567  1.00  0.00    -0.008 C 
HETATM   13  C18 UNL     1      -3.467   3.940  10.077  1.00  0.00     0.021 C 
HETATM   14  C19 UNL     1      -2.971   2.027  11.674  1.00  0.00     0.022 C 
HETATM   15  C20 UNL     1      -4.177   1.135  11.964  1.00  0.00     0.080 C 
HETATM   16  C21 UNL     1      -5.455   1.721  11.429  1.00  0.00     0.131 C 
HETATM   17  O2  UNL     1      -6.222   1.062  10.728  1.00  0.00    -0.298 OA
HETATM   18  C22 UNL     1      -5.796   3.136  11.868  1.00  0.00     0.056 C 
HETATM   19  C23 UNL     1      -6.933   3.062  12.886  1.00  0.00     0.018 C 
HETATM   20  C24 UNL     1      -4.538   3.847  12.428  1.00  0.00     0.012 C 
HETATM   21  C25 UNL     1      -4.770   5.348  12.586  1.00  0.00     0.042 C 
HETATM   22  C26 UNL     1      -3.586   6.033  13.266  1.00  0.00     0.148 C 
ENDROOT
BRANCH   1  23
HETATM   23  C5  UNL     1       2.652   7.391  12.966  1.00  0.00    -0.014 C 
HETATM   24  C6  UNL     1       3.503   8.145  13.991  1.00  0.00     0.010 C 
BRANCH  23  25
HETATM   25  C4  UNL     1       2.526   8.173  11.635  1.00  0.00     0.009 C 
BRANCH  25  26
HETATM   26  C3  UNL     1       3.568   7.799  10.561  1.00  0.00     0.034 C 
BRANCH  26  27
HETATM   27  C2  UNL     1       3.159   7.780   9.097  1.00  0.00    -0.075 C 
HETATM   28  C1  UNL     1       3.304   8.838   8.278  1.00  0.00     0.015 C 
BRANCH  27  29
HETATM   29  C27 UNL     1       2.503   6.504   8.569  1.00  0.00     0.107 C 
HETATM   30  C28 UNL     1       2.009   6.626   7.128  1.00  0.00     0.026 C 
BRANCH  29  31
HETATM   31  C29 UNL     1       3.448   5.315   8.695  1.00  0.00     0.147 C 
HETATM   32  O4  UNL     1       3.441   4.295   8.024  1.00  0.00    -0.650 OA
BRANCH  31  33
HETATM   33  O5  UNL     1       4.365   5.477   9.671  1.00  0.00    -0.776 OA
HETATM   34  H42 UNL     1       4.908   4.663   9.620  1.00  0.00     0.167 HD
ENDBRANCH  31  33
ENDBRANCH  29  31
ENDBRANCH  27  29
ENDBRANCH  26  27
ENDBRANCH  25  26
ENDBRANCH  23  25
ENDBRANCH   1  23
BRANCH  22  35
HETATM   35  O3  UNL     1      -3.683   7.416  12.946  1.00  0.00    -0.391 OA
HETATM   36  H37 UNL     1      -4.516   7.747  13.321  1.00  0.00     0.210 HD
ENDBRANCH  22  35
TORSDOF 8
ENDMDL
MODEL 2
REMARK minimizedAffinity -9.81092167
REMARK  8 active torsions:
REMARK  status: ('A' for Active; 'I' for Inactive)
REMARK    1  A    between atoms: C2_2  and  C3_3 
REMARK    2  A    between atoms: C2_2  and  C27_30 
REMARK    3  A    between atoms: C3_3  and  C4_4 
REMARK    4  A    between atoms: C4_4  and  C5_5 
REMARK    5  A    between atoms: C5_5  and  C7_7 
REMARK    6  A    between atoms: C26_28  and  O3_29 
REMARK    7  A    between atoms: C27_30  and  C29_32 
REMARK    8  A    between atoms: C29_32  and  O5_34 
ROOT
HETATM    1  C7  UNL     1      -1.994   5.355  12.179  1.00  0.00    -0.002 C 
HETATM    2  C8  UNL     1      -2.612   4.170  11.391  1.00  0.00     0.006 C 
HETATM    3  C9  UNL     1      -4.081   4.081  11.821  1.00  0.00     0.010 C 
HETATM    4  C10 UNL     1      -4.347   5.411  12.532  1.00  0.00     0.027 C 
HETATM    5  C11 UNL     1      -5.595   5.665  13.355  1.00  0.00    -0.036 C 
HETATM    6  C12 UNL     1      -5.614   6.664  14.276  1.00  0.00     0.002 C 
HETATM    7  C13 UNL     1      -4.319   7.395  14.588  1.00  0.00     0.157 C 
HETATM    8  O1  UNL     1      -4.279   8.261  15.463  1.00  0.00    -0.293 OA
HETATM    9  C14 UNL     1      -3.060   7.089  13.796  1.00  0.00     0.093 C 
HETATM   10  C15 UNL     1      -3.027   5.641  13.311  1.00  0.00    -0.026 C 
HETATM   11  C16 UNL     1      -2.874   4.694  14.522  1.00  0.00     0.016 C 
HETATM   12  C17 UNL     1      -6.890   7.100  15.032  1.00  0.00    -0.008 C 
HETATM   13  C18 UNL     1      -6.787   6.503  16.460  1.00  0.00     0.021 C 
HETATM   14  C19 UNL     1      -7.018   8.658  15.133  1.00  0.00     0.022 C 
HETATM   15  C20 UNL     1      -8.439   9.221  15.111  1.00  0.00     0.080 C 
HETATM   16  C21 UNL     1      -9.440   8.254  15.680  1.00  0.00     0.131 C 
HETATM   17  O2  UNL     1     -10.241   8.592  16.549  1.00  0.00    -0.298 OA
HETATM   18  C22 UNL     1      -9.472   6.862  15.067  1.00  0.00     0.056 C 
HETATM   19  C23 UNL     1     -10.724   6.750  14.196  1.00  0.00     0.018 C 
HETATM   20  C24 UNL     1      -8.169   6.589  14.276  1.00  0.00     0.012 C 
HETATM   21  C25 UNL     1      -8.035   5.111  13.915  1.00  0.00     0.042 C 
HETATM   22  C26 UNL     1      -6.825   4.857  13.017  1.00  0.00     0.148 C 
ENDROOT
BRANCH   1  23
HETATM   23  C5  UNL     1      -0.469   5.199  12.451  1.00  0.00    -0.014 C 
HETATM   24  C6  UNL     1       0.077   5.976  13.652  1.00  0.00     0.010 C 
BRANCH  23  25
HETATM   25  C4  UNL     1       0.362   5.460  11.171  1.00  0.00     0.009 C 
BRANCH  25  26
HETATM   26  C3  UNL     1       0.922   6.892  11.041  1.00  0.00     0.034 C 
BRANCH  26  27
HETATM   27  C2  UNL     1       1.119   7.495   9.659  1.00  0.00    -0.075 C 
HETATM   28  C1  UNL     1       0.151   8.161   9.002  1.00  0.00     0.015 C 
BRANCH  27  29
HETATM   29  C27 UNL     1       2.471   7.270   8.982  1.00  0.00     0.107 C 
HETATM   30  C28 UNL     1       2.885   5.800   8.923  1.00  0.00     0.026 C 
BRANCH  29  31
HETATM   31  C29 UNL     1       2.485   7.870   7.582  1.00  0.00     0.147 C 
HETATM   32  O4  UNL     1       2.025   7.375   6.565  1.00  0.00    -0.650 OA
BRANCH  31  33
HETATM   33  O5  UNL     1       3.084   9.079   7.536  1.00  0.00    -0.776 OA
HETATM   34  H42 UNL     1       2.997   9.348   6.598  1.00  0.00     0.167 HD
ENDBRANCH  31  33
ENDBRANCH  29  31
ENDBRANCH  27  29
ENDBRANCH  26  27
ENDBRANCH  25  26
ENDBRANCH  23  25
ENDBRANCH   1  23
BRANCH  22  35
HETATM   35  O3  UNL     1      -6.525   3.471  13.129  1.00  0.00    -0.391 OA
HETATM   36  H37 UNL     1      -7.292   2.976  12.797  1.00  0.00     0.210 HD
ENDBRANCH  22  35
TORSDOF 8
ENDMDL
MODEL 3
REMARK minimizedAffinity -9.79129887
REMARK  8 active torsions:
REMARK  status: ('A' for Active; 'I' for Inactive)
REMARK    1  A    between atoms: C2_2  and  C3_3 
REMARK    2  A    between atoms: C2_2  and  C27_30 
REMARK    3  A    between atoms: C3_3  and  C4_4 
REMARK    4  A    between atoms: C4_4  and  C5_5 
REMARK    5  A    between atoms: C5_5  and  C7_7 
REMARK    6  A    between atoms: C26_28  and  O3_29 
REMARK    7  A    between atoms: C27_30  and  C29_32 
REMARK    8  A    between atoms: C29_32  and  O5_34 
ROOT
HETATM    1  C7  UNL     1      -1.809   5.550  12.392  1.00  0.00    -0.002 C 
HETATM    2  C8  UNL     1      -2.364   4.345  11.587  1.00  0.00     0.006 C 
HETATM    3  C9  UNL     1      -3.845   4.215  11.966  1.00  0.00     0.010 C 
HETATM    4  C10 UNL     1      -4.173   5.539  12.662  1.00  0.00     0.027 C 
HETATM    5  C11 UNL     1      -5.457   5.759  13.440  1.00  0.00    -0.036 C 
HETATM    6  C12 UNL     1      -5.537   6.760  14.355  1.00  0.00     0.002 C 
HETATM    7  C13 UNL     1      -4.275   7.529  14.710  1.00  0.00     0.157 C 
HETATM    8  O1  UNL     1      -4.290   8.398  15.582  1.00  0.00    -0.293 OA
HETATM    9  C14 UNL     1      -2.981   7.257  13.964  1.00  0.00     0.093 C 
HETATM   10  C15 UNL     1      -2.889   5.809  13.486  1.00  0.00    -0.026 C 
HETATM   11  C16 UNL     1      -2.752   4.871  14.705  1.00  0.00     0.016 C 
HETATM   12  C17 UNL     1      -6.851   7.162  15.064  1.00  0.00    -0.008 C 
HETATM   13  C18 UNL     1      -6.781   6.572  16.497  1.00  0.00     0.021 C 
HETATM   14  C19 UNL     1      -7.027   8.715  15.155  1.00  0.00     0.022 C 
HETATM   15  C20 UNL     1      -8.461   9.238  15.080  1.00  0.00     0.080 C 
HETATM   16  C21 UNL     1      -9.453   8.243  15.618  1.00  0.00     0.131 C 
HETATM   17  O2  UNL     1     -10.294   8.561  16.457  1.00  0.00    -0.298 OA
HETATM   18  C22 UNL     1      -9.425   6.850  15.009  1.00  0.00     0.056 C 
HETATM   19  C23 UNL     1     -10.641   6.700  14.095  1.00  0.00     0.018 C 
HETATM   20  C24 UNL     1      -8.087   6.612  14.266  1.00  0.00     0.012 C 
HETATM   21  C25 UNL     1      -7.898   5.138  13.915  1.00  0.00     0.042 C 
HETATM   22  C26 UNL     1      -6.650   4.915  13.061  1.00  0.00     0.148 C 
ENDROOT
BRANCH   1  23
HETATM   23  C5  UNL     1      -0.290   5.439  12.719  1.00  0.00    -0.014 C 
HETATM   24  C6  UNL     1       0.265   6.497  13.676  1.00  0.00     0.010 C 
BRANCH  23  25
HETATM   25  C4  UNL     1       0.557   5.329  11.427  1.00  0.00     0.009 C 
BRANCH  25  26
HETATM   26  C3  UNL     1       1.410   6.573  11.102  1.00  0.00     0.034 C 
BRANCH  26  27
HETATM   27  C2  UNL     1       1.161   7.333   9.809  1.00  0.00    -0.075 C 
HETATM   28  C1  UNL     1       0.179   8.243   9.667  1.00  0.00     0.015 C 
BRANCH  27  29
HETATM   29  C27 UNL     1       2.046   6.987   8.612  1.00  0.00     0.107 C 
HETATM   30  C28 UNL     1       2.606   8.215   7.895  1.00  0.00     0.026 C 
BRANCH  29  31
HETATM   31  C29 UNL     1       3.185   6.065   9.027  1.00  0.00     0.147 C 
HETATM   32  O4  UNL     1       4.207   6.376   9.618  1.00  0.00    -0.650 OA
BRANCH  31  33
HETATM   33  O5  UNL     1       2.975   4.780   8.671  1.00  0.00    -0.776 OA
HETATM   34  H42 UNL     1       3.760   4.309   9.018  1.00  0.00     0.167 HD
ENDBRANCH  31  33
ENDBRANCH  29  31
ENDBRANCH  27  29
ENDBRANCH  26  27
ENDBRANCH  25  26
ENDBRANCH  23  25
ENDBRANCH   1  23
BRANCH  22  35
HETATM   35  O3  UNL     1      -6.315   3.539  13.189  1.00  0.00    -0.391 OA
HETATM   36  H37 UNL     1      -7.056   3.022  12.832  1.00  0.00     0.210 HD
ENDBRANCH  22  35
TORSDOF 8
ENDMDL
MODEL 4
REMARK minimizedAffinity -9.76985741
REMARK  8 active torsions:
REMARK  status: ('A' for Active; 'I' for Inactive)
REMARK    1  A    between atoms: C2_2  and  C3_3 
REMARK    2  A    between atoms: C2_2  and  C27_30 
REMARK    3  A    between atoms: C3_3  and  C4_4 
REMARK    4  A    between atoms: C4_4  and  C5_5 
REMARK    5  A    between atoms: C5_5  and  C7_7 
REMARK    6  A    between atoms: C26_28  and  O3_29 
REMARK    7  A    between atoms: C27_30  and  C29_32 
REMARK    8  A    between atoms: C29_32  and  O5_34 
ROOT
HETATM    1  C7  UNL     1       1.438   6.638  11.694  1.00  0.00    -0.002 C 
HETATM    2  C8  UNL     1       1.400   5.240  11.023  1.00  0.00     0.006 C 
HETATM    3  C9  UNL     1       0.031   4.634  11.357  1.00  0.00     0.010 C 
HETATM    4  C10 UNL     1      -0.790   5.820  11.871  1.00  0.00     0.027 C 
HETATM    5  C11 UNL     1      -2.128   5.651  12.566  1.00  0.00    -0.036 C 
HETATM    6  C12 UNL     1      -2.622   6.647  13.347  1.00  0.00     0.002 C 
HETATM    7  C13 UNL     1      -1.738   7.844  13.653  1.00  0.00     0.157 C 
HETATM    8  O1  UNL     1      -2.123   8.736  14.410  1.00  0.00    -0.293 OA
HETATM    9  C14 UNL     1      -0.374   7.972  12.997  1.00  0.00     0.093 C 
HETATM   10  C15 UNL     1       0.251   6.609  12.705  1.00  0.00    -0.026 C 
HETATM   11  C16 UNL     1       0.607   5.909  14.035  1.00  0.00     0.016 C 
HETATM   12  C17 UNL     1      -4.046   6.628  13.949  1.00  0.00    -0.008 C 
HETATM   13  C18 UNL     1      -3.891   6.250  15.445  1.00  0.00     0.021 C 
HETATM   14  C19 UNL     1      -4.756   8.020  13.840  1.00  0.00     0.022 C 
HETATM   15  C20 UNL     1      -6.272   7.991  13.647  1.00  0.00     0.080 C 
HETATM   16  C21 UNL     1      -6.898   6.771  14.264  1.00  0.00     0.131 C 
HETATM   17  O2  UNL     1      -7.860   6.854  15.024  1.00  0.00    -0.298 OA
HETATM   18  C22 UNL     1      -6.340   5.423  13.833  1.00  0.00     0.056 C 
HETATM   19  C23 UNL     1      -7.351   4.760  12.899  1.00  0.00     0.018 C 
HETATM   20  C24 UNL     1      -4.947   5.599  13.178  1.00  0.00     0.012 C 
HETATM   21  C25 UNL     1      -4.233   4.259  13.019  1.00  0.00     0.042 C 
HETATM   22  C26 UNL     1      -2.921   4.406  12.248  1.00  0.00     0.148 C 
ENDROOT
BRANCH   1  23
HETATM   23  C5  UNL     1       2.870   7.105  12.091  1.00  0.00    -0.014 C 
HETATM   24  C6  UNL     1       2.991   8.556  12.562  1.00  0.00     0.010 C 
BRANCH  23  25
HETATM   25  C4  UNL     1       3.898   6.771  10.982  1.00  0.00     0.009 C 
BRANCH  25  26
HETATM   26  C3  UNL     1       3.737   7.582   9.680  1.00  0.00     0.034 C 
BRANCH  26  27
HETATM   27  C2  UNL     1       2.916   7.006   8.537  1.00  0.00    -0.075 C 
HETATM   28  C1  UNL     1       2.942   5.705   8.195  1.00  0.00     0.015 C 
BRANCH  27  29
HETATM   29  C27 UNL     1       2.070   7.983   7.720  1.00  0.00     0.107 C 
HETATM   30  C28 UNL     1       1.724   7.466   6.324  1.00  0.00     0.026 C 
BRANCH  29  31
HETATM   31  C29 UNL     1       0.797   8.356   8.466  1.00  0.00     0.147 C 
HETATM   32  O4  UNL     1       0.710   8.785   9.606  1.00  0.00    -0.650 OA
BRANCH  31  33
HETATM   33  O5  UNL     1      -0.318   8.168   7.728  1.00  0.00    -0.776 OA
HETATM   34  H42 UNL     1      -1.042   8.467   8.316  1.00  0.00     0.167 HD
ENDBRANCH  31  33
ENDBRANCH  29  31
ENDBRANCH  27  29
ENDBRANCH  26  27
ENDBRANCH  25  26
ENDBRANCH  23  25
ENDBRANCH   1  23
BRANCH  22  35
HETATM   35  O3  UNL     1      -2.141   3.257  12.558  1.00  0.00    -0.391 OA
HETATM   36  H37 UNL     1      -2.626   2.478  12.239  1.00  0.00     0.210 HD
ENDBRANCH  22  35
TORSDOF 8
ENDMDL
MODEL 5
REMARK minimizedAffinity -9.61778927
REMARK  8 active torsions:
REMARK  status: ('A' for Active; 'I' for Inactive)
REMARK    1  A    between atoms: C2_2  and  C3_3 
REMARK    2  A    between atoms: C2_2  and  C27_30 
REMARK    3  A    between atoms: C3_3  and  C4_4 
REMARK    4  A    between atoms: C4_4  and  C5_5 
REMARK    5  A    between atoms: C5_5  and  C7_7 
REMARK    6  A    between atoms: C26_28  and  O3_29 
REMARK    7  A    between atoms: C27_30  and  C29_32 
REMARK    8  A    between atoms: C29_32  and  O5_34 
ROOT
HETATM    1  C7  UNL     1      -1.625   6.329  12.969  1.00  0.00    -0.002 C 
HETATM    2  C8  UNL     1      -1.701   5.305  11.806  1.00  0.00     0.006 C 
HETATM    3  C9  UNL     1      -0.316   5.289  11.149  1.00  0.00     0.010 C 
HETATM    4  C10 UNL     1       0.589   5.998  12.160  1.00  0.00     0.027 C 
HETATM    5  C11 UNL     1       1.998   6.448  11.824  1.00  0.00    -0.036 C 
HETATM    6  C12 UNL     1       2.608   7.402  12.575  1.00  0.00     0.002 C 
HETATM    7  C13 UNL     1       1.795   8.129  13.634  1.00  0.00     0.157 C 
HETATM    8  O1  UNL     1       2.291   9.045  14.290  1.00  0.00    -0.293 OA
HETATM    9  C14 UNL     1       0.364   7.708  13.920  1.00  0.00     0.093 C 
HETATM   10  C15 UNL     1      -0.323   7.138  12.680  1.00  0.00    -0.026 C 
HETATM   11  C16 UNL     1      -0.529   8.262  11.641  1.00  0.00     0.016 C 
HETATM   12  C17 UNL     1       4.094   7.794  12.410  1.00  0.00    -0.008 C 
HETATM   13  C18 UNL     1       4.116   9.139  11.638  1.00  0.00     0.021 C 
HETATM   14  C19 UNL     1       4.817   7.979  13.787  1.00  0.00     0.022 C 
HETATM   15  C20 UNL     1       6.296   7.597  13.830  1.00  0.00     0.080 C 
HETATM   16  C21 UNL     1       6.965   7.777  12.495  1.00  0.00     0.131 C 
HETATM   17  O2  UNL     1       8.016   8.406  12.380  1.00  0.00    -0.298 OA
HETATM   18  C22 UNL     1       6.328   7.071  11.309  1.00  0.00     0.056 C 
HETATM   19  C23 UNL     1       7.201   5.873  10.937  1.00  0.00     0.018 C 
HETATM   20  C24 UNL     1       4.869   6.667  11.640  1.00  0.00     0.012 C 
HETATM   21  C25 UNL     1       4.110   6.241  10.385  1.00  0.00     0.042 C 
HETATM   22  C26 UNL     1       2.717   5.709  10.721  1.00  0.00     0.148 C 
ENDROOT
BRANCH   1  23
HETATM   23  C5  UNL     1      -2.985   7.013  13.293  1.00  0.00    -0.014 C 
HETATM   24  C6  UNL     1      -2.899   8.366  14.004  1.00  0.00     0.010 C 
BRANCH  23  25
HETATM   25  C4  UNL     1      -3.945   6.040  14.023  1.00  0.00     0.009 C 
BRANCH  25  26
HETATM   26  C3  UNL     1      -5.200   5.642  13.220  1.00  0.00     0.034 C 
BRANCH  26  27
HETATM   27  C2  UNL     1      -5.434   4.180  12.873  1.00  0.00    -0.075 C 
HETATM   28  C1  UNL     1      -4.524   3.420  12.237  1.00  0.00     0.015 C 
BRANCH  27  29
HETATM   29  C27 UNL     1      -6.798   3.586  13.226  1.00  0.00     0.107 C 
HETATM   30  C28 UNL     1      -7.944   4.591  13.120  1.00  0.00     0.026 C 
BRANCH  29  31
HETATM   31  C29 UNL     1      -7.097   2.365  12.366  1.00  0.00     0.147 C 
HETATM   32  O4  UNL     1      -6.362   1.850  11.538  1.00  0.00    -0.650 OA
BRANCH  31  33
HETATM   33  O5  UNL     1      -8.322   1.849  12.598  1.00  0.00    -0.776 OA
HETATM   34  H42 UNL     1      -8.364   1.070  12.005  1.00  0.00     0.167 HD
ENDBRANCH  31  33
ENDBRANCH  29  31
ENDBRANCH  27  29
ENDBRANCH  26  27
ENDBRANCH  25  26
ENDBRANCH  23  25
ENDBRANCH   1  23
BRANCH  22  35
HETATM   35  O3  UNL     1       1.956   5.791   9.523  1.00  0.00    -0.391 OA
HETATM   36  H37 UNL     1       2.379   5.214   8.865  1.00  0.00     0.210 HD
ENDBRANCH  22  35
TORSDOF 8
ENDMDL
MODEL 6
REMARK minimizedAffinity -9.55900764
REMARK  8 active torsions:
REMARK  status: ('A' for Active; 'I' for Inactive)
REMARK    1  A    between atoms: C2_2  and  C3_3 
REMARK    2  A    between atoms: C2_2  and  C27_30 
REMARK    3  A    between atoms: C3_3  and  C4_4 
REMARK    4  A    between atoms: C4_4  and  C5_5 
REMARK    5  A    between atoms: C5_5  and  C7_7 
REMARK    6  A    between atoms: C26_28  and  O3_29 
REMARK    7  A    between atoms: C27_30  and  C29_32 
REMARK    8  A    between atoms: C29_32  and  O5_34 
ROOT
HETATM    1  C7  UNL     1      -1.660   6.051  13.402  1.00  0.00    -0.002 C 
HETATM    2  C8  UNL     1      -1.774   5.121  12.166  1.00  0.00     0.006 C 
HETATM    3  C9  UNL     1      -0.432   5.209  11.429  1.00  0.00     0.010 C 
HETATM    4  C10 UNL     1       0.509   5.870  12.440  1.00  0.00     0.027 C 
HETATM    5  C11 UNL     1       1.880   6.398  12.060  1.00  0.00    -0.036 C 
HETATM    6  C12 UNL     1       2.503   7.311  12.850  1.00  0.00     0.002 C 
HETATM    7  C13 UNL     1       1.733   7.920  14.010  1.00  0.00     0.157 C 
HETATM    8  O1  UNL     1       2.238   8.799  14.710  1.00  0.00    -0.293 OA
HETATM    9  C14 UNL     1       0.337   7.424  14.344  1.00  0.00     0.093 C 
HETATM   10  C15 UNL     1      -0.406   6.929  13.105  1.00  0.00    -0.026 C 
HETATM   11  C16 UNL     1      -0.712   8.124  12.175  1.00  0.00     0.016 C 
HETATM   12  C17 UNL     1       3.962   7.771  12.631  1.00  0.00    -0.008 C 
HETATM   13  C18 UNL     1       3.893   9.173  11.972  1.00  0.00     0.021 C 
HETATM   14  C19 UNL     1       4.762   7.873  13.974  1.00  0.00     0.022 C 
HETATM   15  C20 UNL     1       6.253   7.545  13.898  1.00  0.00     0.080 C 
HETATM   16  C21 UNL     1       6.832   7.856  12.546  1.00  0.00     0.131 C 
HETATM   17  O2  UNL     1       7.853   8.531  12.421  1.00  0.00    -0.298 OA
HETATM   18  C22 UNL     1       6.147   7.223  11.345  1.00  0.00     0.056 C 
HETATM   19  C23 UNL     1       7.035   6.092  10.826  1.00  0.00     0.018 C 
HETATM   20  C24 UNL     1       4.726   6.738  11.727  1.00  0.00     0.012 C 
HETATM   21  C25 UNL     1       3.905   6.386  10.488  1.00  0.00     0.042 C 
HETATM   22  C26 UNL     1       2.554   5.777  10.860  1.00  0.00     0.148 C 
ENDROOT
BRANCH   1  23
HETATM   23  C5  UNL     1      -3.020   6.655  13.861  1.00  0.00    -0.014 C 
HETATM   24  C6  UNL     1      -3.371   6.461  15.338  1.00  0.00     0.010 C 
BRANCH  23  25
HETATM   25  C4  UNL     1      -4.176   6.210  12.931  1.00  0.00     0.009 C 
BRANCH  25  26
HETATM   26  C3  UNL     1      -5.189   5.240  13.572  1.00  0.00     0.034 C 
BRANCH  26  27
HETATM   27  C2  UNL     1      -6.395   4.780  12.769  1.00  0.00    -0.075 C 
HETATM   28  C1  UNL     1      -7.584   5.412  12.799  1.00  0.00     0.015 C 
BRANCH  27  29
HETATM   29  C27 UNL     1      -6.240   3.506  11.939  1.00  0.00     0.107 C 
HETATM   30  C28 UNL     1      -4.804   2.986  11.886  1.00  0.00     0.026 C 
BRANCH  29  31
HETATM   31  C29 UNL     1      -7.170   2.411  12.446  1.00  0.00     0.147 C 
HETATM   32  O4  UNL     1      -8.061   2.526  13.274  1.00  0.00    -0.650 OA
BRANCH  31  33
HETATM   33  O5  UNL     1      -6.928   1.212  11.875  1.00  0.00    -0.776 OA
HETATM   34  H42 UNL     1      -7.604   0.624  12.270  1.00  0.00     0.167 HD
ENDBRANCH  31  33
ENDBRANCH  29  31
ENDBRANCH  27  29
ENDBRANCH  26  27
ENDBRANCH  25  26
ENDBRANCH  23  25
ENDBRANCH   1  23
BRANCH  22  35
HETATM   35  O3  UNL     1       1.717   5.925   9.719  1.00  0.00    -0.391 OA
HETATM   36  H37 UNL     1       2.119   5.419   8.993  1.00  0.00     0.210 HD
ENDBRANCH  22  35
TORSDOF 8
ENDMDL
MODEL 7
REMARK minimizedAffinity -9.49812317
REMARK  8 active torsions:
REMARK  status: ('A' for Active; 'I' for Inactive)
REMARK    1  A    between atoms: C2_2  and  C3_3 
REMARK    2  A    between atoms: C2_2  and  C27_30 
REMARK    3  A    between atoms: C3_3  and  C4_4 
REMARK    4  A    between atoms: C4_4  and  C5_5 
REMARK    5  A    between atoms: C5_5  and  C7_7 
REMARK    6  A    between atoms: C26_28  and  O3_29 
REMARK    7  A    between atoms: C27_30  and  C29_32 
REMARK    8  A    between atoms: C29_32  and  O5_34 
ROOT
HETATM    1  C7  UNL     1       0.519   6.786  11.655  1.00  0.00    -0.002 C 
HETATM    2  C8  UNL     1       0.450   5.453  10.865  1.00  0.00     0.006 C 
HETATM    3  C9  UNL     1      -0.886   4.797  11.235  1.00  0.00     0.010 C 
HETATM    4  C10 UNL     1      -1.682   5.918  11.908  1.00  0.00     0.027 C 
HETATM    5  C11 UNL     1      -2.968   5.665  12.673  1.00  0.00    -0.036 C 
HETATM    6  C12 UNL     1      -3.418   6.579  13.572  1.00  0.00     0.002 C 
HETATM    7  C13 UNL     1      -2.528   7.758  13.924  1.00  0.00     0.157 C 
HETATM    8  O1  UNL     1      -2.869   8.573  14.783  1.00  0.00    -0.293 OA
HETATM    9  C14 UNL     1      -1.214   7.968  13.192  1.00  0.00     0.093 C 
HETATM   10  C15 UNL     1      -0.596   6.647  12.737  1.00  0.00    -0.026 C 
HETATM   11  C16 UNL     1      -0.141   5.838  13.972  1.00  0.00     0.016 C 
HETATM   12  C17 UNL     1      -4.797   6.482  14.264  1.00  0.00    -0.008 C 
HETATM   13  C18 UNL     1      -4.536   5.975  15.707  1.00  0.00     0.021 C 
HETATM   14  C19 UNL     1      -5.528   7.866  14.330  1.00  0.00     0.022 C 
HETATM   15  C20 UNL     1      -7.053   7.829  14.237  1.00  0.00     0.080 C 
HETATM   16  C21 UNL     1      -7.621   6.548  14.782  1.00  0.00     0.131 C 
HETATM   17  O2  UNL     1      -8.531   6.547  15.610  1.00  0.00    -0.298 OA
HETATM   18  C22 UNL     1      -7.080   5.254  14.195  1.00  0.00     0.056 C 
HETATM   19  C23 UNL     1      -8.146   4.660  13.275  1.00  0.00     0.018 C 
HETATM   20  C24 UNL     1      -5.738   5.511  13.466  1.00  0.00     0.012 C 
HETATM   21  C25 UNL     1      -5.021   4.202  13.139  1.00  0.00     0.042 C 
HETATM   22  C26 UNL     1      -3.767   4.440  12.298  1.00  0.00     0.148 C 
ENDROOT
BRANCH   1  23
HETATM   23  C5  UNL     1       1.969   7.240  11.995  1.00  0.00    -0.014 C 
HETATM   24  C6  UNL     1       2.247   8.740  11.864  1.00  0.00     0.010 C 
BRANCH  23  25
HETATM   25  C4  UNL     1       3.018   6.391  11.234  1.00  0.00     0.009 C 
BRANCH  25  26
HETATM   26  C3  UNL     1       3.855   7.169  10.198  1.00  0.00     0.034 C 
BRANCH  26  27
HETATM   27  C2  UNL     1       3.217   7.580   8.880  1.00  0.00    -0.075 C 
HETATM   28  C1  UNL     1       3.417   8.783   8.309  1.00  0.00     0.015 C 
BRANCH  27  29
HETATM   29  C27 UNL     1       2.265   6.582   8.220  1.00  0.00     0.107 C 
HETATM   30  C28 UNL     1       1.523   7.157   7.014  1.00  0.00     0.026 C 
BRANCH  29  31
HETATM   31  C29 UNL     1       3.003   5.312   7.819  1.00  0.00     0.147 C 
HETATM   32  O4  UNL     1       3.635   4.565   8.550  1.00  0.00    -0.650 OA
BRANCH  31  33
HETATM   33  O5  UNL     1       2.905   5.043   6.500  1.00  0.00    -0.776 OA
HETATM   34  H42 UNL     1       3.396   4.202   6.395  1.00  0.00     0.167 HD
ENDBRANCH  31  33
ENDBRANCH  29  31
ENDBRANCH  27  29
ENDBRANCH  26  27
ENDBRANCH  25  26
ENDBRANCH  23  25
ENDBRANCH   1  23
BRANCH  22  35
HETATM   35  O3  UNL     1      -2.955   3.282  12.450  1.00  0.00    -0.391 OA
HETATM   36  H37 UNL     1      -3.452   2.526  12.096  1.00  0.00     0.210 HD
ENDBRANCH  22  35
TORSDOF 8
ENDMDL
MODEL 8
REMARK minimizedAffinity -9.25297451
REMARK  8 active torsions:
REMARK  status: ('A' for Active; 'I' for Inactive)
REMARK    1  A    between atoms: C2_2  and  C3_3 
REMARK    2  A    between atoms: C2_2  and  C27_30 
REMARK    3  A    between atoms: C3_3  and  C4_4 
REMARK    4  A    between atoms: C4_4  and  C5_5 
REMARK    5  A    between atoms: C5_5  and  C7_7 
REMARK    6  A    between atoms: C26_28  and  O3_29 
REMARK    7  A    between atoms: C27_30  and  C29_32 
REMARK    8  A    between atoms: C29_32  and  O5_34 
ROOT
HETATM    1  C7  UNL     1      -1.853   5.531  12.473  1.00  0.00    -0.002 C 
HETATM    2  C8  UNL     1      -1.848   5.851  13.991  1.00  0.00     0.006 C 
HETATM    3  C9  UNL     1      -0.448   6.384  14.319  1.00  0.00     0.010 C 
HETATM    4  C10 UNL     1       0.164   6.700  12.951  1.00  0.00     0.027 C 
HETATM    5  C11 UNL     1       1.638   7.008  12.764  1.00  0.00    -0.036 C 
HETATM    6  C12 UNL     1       2.211   6.885  11.538  1.00  0.00     0.002 C 
HETATM    7  C13 UNL     1       1.400   6.269  10.411  1.00  0.00     0.157 C 
HETATM    8  O1  UNL     1       1.903   6.079   9.303  1.00  0.00    -0.293 OA
HETATM    9  C14 UNL     1      -0.060   5.910  10.628  1.00  0.00     0.093 C 
HETATM   10  C15 UNL     1      -0.344   5.525  12.079  1.00  0.00    -0.026 C 
HETATM   11  C16 UNL     1       0.360   4.189  12.406  1.00  0.00     0.016 C 
HETATM   12  C17 UNL     1       3.655   7.340  11.225  1.00  0.00    -0.008 C 
HETATM   13  C18 UNL     1       4.524   6.056  11.175  1.00  0.00     0.021 C 
HETATM   14  C19 UNL     1       3.759   8.086   9.852  1.00  0.00     0.022 C 
HETATM   15  C20 UNL     1       4.804   9.197   9.764  1.00  0.00     0.080 C 
HETATM   16  C21 UNL     1       5.971   8.949  10.680  1.00  0.00     0.131 C 
HETATM   17  O2  UNL     1       7.131   9.005  10.276  1.00  0.00    -0.298 OA
HETATM   18  C22 UNL     1       5.651   8.714  12.148  1.00  0.00     0.056 C 
HETATM   19  C23 UNL     1       6.044   9.966  12.932  1.00  0.00     0.018 C 
HETATM   20  C24 UNL     1       4.157   8.343  12.324  1.00  0.00     0.012 C 
HETATM   21  C25 UNL     1       3.878   7.804  13.725  1.00  0.00     0.042 C 
HETATM   22  C26 UNL     1       2.385   7.567  13.951  1.00  0.00     0.148 C 
ENDROOT
BRANCH   1  23
HETATM   23  C5  UNL     1      -2.831   4.386  12.076  1.00  0.00    -0.014 C 
HETATM   24  C6  UNL     1      -2.802   3.965  10.604  1.00  0.00     0.010 C 
BRANCH  23  25
HETATM   25  C4  UNL     1      -4.271   4.682  12.562  1.00  0.00     0.009 C 
BRANCH  25  26
HETATM   26  C3  UNL     1      -5.236   3.480  12.503  1.00  0.00     0.034 C 
BRANCH  26  27
HETATM   27  C2  UNL     1      -6.709   3.687  12.820  1.00  0.00    -0.075 C 
HETATM   28  C1  UNL     1      -7.588   2.674  12.929  1.00  0.00     0.015 C 
BRANCH  27  29
HETATM   29  C27 UNL     1      -7.198   5.129  12.961  1.00  0.00     0.107 C 
HETATM   30  C28 UNL     1      -8.441   5.433  12.125  1.00  0.00     0.026 C 
BRANCH  29  31
HETATM   31  C29 UNL     1      -7.458   5.473  14.422  1.00  0.00     0.147 C 
HETATM   32  O4  UNL     1      -6.642   5.493  15.330  1.00  0.00    -0.650 OA
BRANCH  31  33
HETATM   33  O5  UNL     1      -8.750   5.781  14.666  1.00  0.00    -0.776 OA
HETATM   34  H42 UNL     1      -8.762   6.001  15.621  1.00  0.00     0.167 HD
ENDBRANCH  31  33
ENDBRANCH  29  31
ENDBRANCH  27  29
ENDBRANCH  26  27
ENDBRANCH  25  26
ENDBRANCH  23  25
ENDBRANCH   1  23
BRANCH  22  35
HETATM   35  O3  UNL     1       2.282   6.662  15.043  1.00  0.00    -0.391 OA
HETATM   36  H37 UNL     1       2.669   7.095  15.822  1.00  0.00     0.210 HD
ENDBRANCH  22  35
TORSDOF 8
ENDMDL
MODEL 9
REMARK minimizedAffinity -9.0838871
REMARK  8 active torsions:
REMARK  status: ('A' for Active; 'I' for Inactive)
REMARK    1  A    between atoms: C2_2  and  C3_3 
REMARK    2  A    between atoms: C2_2  and  C27_30 
REMARK    3  A    between atoms: C3_3  and  C4_4 
REMARK    4  A    between atoms: C4_4  and  C5_5 
REMARK    5  A    between atoms: C5_5  and  C7_7 
REMARK    6  A    between atoms: C26_28  and  O3_29 
REMARK    7  A    between atoms: C27_30  and  C29_32 
REMARK    8  A    between atoms: C29_32  and  O5_34 
ROOT
HETATM    1  C7  UNL     1       1.779   7.582  11.569  1.00  0.00    -0.002 C 
HETATM    2  C8  UNL     1       2.054   6.299  10.742  1.00  0.00     0.006 C 
HETATM    3  C9  UNL     1       0.846   5.378  10.954  1.00  0.00     0.010 C 
HETATM    4  C10 UNL     1      -0.219   6.289  11.570  1.00  0.00     0.027 C 
HETATM    5  C11 UNL     1      -1.496   5.754  12.191  1.00  0.00    -0.036 C 
HETATM    6  C12 UNL     1      -2.204   6.520  13.062  1.00  0.00     0.002 C 
HETATM    7  C13 UNL     1      -1.605   7.834  13.535  1.00  0.00     0.157 C 
HETATM    8  O1  UNL     1      -2.184   8.525  14.374  1.00  0.00    -0.293 OA
HETATM    9  C14 UNL     1      -0.295   8.330  12.948  1.00  0.00     0.093 C 
HETATM   10  C15 UNL     1       0.615   7.178  12.526  1.00  0.00    -0.026 C 
HETATM   11  C16 UNL     1       1.101   6.418  13.780  1.00  0.00     0.016 C 
HETATM   12  C17 UNL     1      -3.596   6.123  13.605  1.00  0.00    -0.008 C 
HETATM   13  C18 UNL     1      -3.379   5.612  15.053  1.00  0.00     0.021 C 
HETATM   14  C19 UNL     1      -4.591   7.332  13.630  1.00  0.00     0.022 C 
HETATM   15  C20 UNL     1      -6.062   7.001  13.378  1.00  0.00     0.080 C 
HETATM   16  C21 UNL     1      -6.413   5.610  13.829  1.00  0.00     0.131 C 
HETATM   17  O2  UNL     1      -7.380   5.393  14.558  1.00  0.00    -0.298 OA
HETATM   18  C22 UNL     1      -5.570   4.476  13.268  1.00  0.00     0.056 C 
HETATM   19  C23 UNL     1      -6.403   3.727  12.227  1.00  0.00     0.018 C 
HETATM   20  C24 UNL     1      -4.242   5.024  12.689  1.00  0.00     0.012 C 
HETATM   21  C25 UNL     1      -3.251   3.898  12.404  1.00  0.00     0.042 C 
HETATM   22  C26 UNL     1      -1.994   4.415  11.704  1.00  0.00     0.148 C 
ENDROOT
BRANCH   1  23
HETATM   23  C5  UNL     1       3.070   8.295  12.069  1.00  0.00    -0.014 C 
HETATM   24  C6  UNL     1       2.861   9.645  12.761  1.00  0.00     0.010 C 
BRANCH  23  25
HETATM   25  C4  UNL     1       4.136   8.381  10.949  1.00  0.00     0.009 C 
BRANCH  25  26
HETATM   26  C3  UNL     1       4.830   7.046  10.609  1.00  0.00     0.034 C 
BRANCH  26  27
HETATM   27  C2  UNL     1       6.191   6.737  11.211  1.00  0.00    -0.075 C 
HETATM   28  C1  UNL     1       6.815   5.555  11.053  1.00  0.00     0.015 C 
BRANCH  27  29
HETATM   29  C27 UNL     1       6.835   7.818  12.080  1.00  0.00     0.107 C 
HETATM   30  C28 UNL     1       6.672   9.229  11.515  1.00  0.00     0.026 C 
BRANCH  29  31
HETATM   31  C29 UNL     1       6.295   7.764  13.503  1.00  0.00     0.147 C 
HETATM   32  O4  UNL     1       5.821   8.687  14.147  1.00  0.00    -0.650 OA
BRANCH  31  33
HETATM   33  O5  UNL     1       6.379   6.532  14.049  1.00  0.00    -0.776 OA
HETATM   34  H42 UNL     1       5.980   6.642  14.937  1.00  0.00     0.167 HD
ENDBRANCH  31  33
ENDBRANCH  29  31
ENDBRANCH  27  29
ENDBRANCH  26  27
ENDBRANCH  25  26
ENDBRANCH  23  25
ENDBRANCH   1  23
BRANCH  22  35
HETATM   35  O3  UNL     1      -0.986   3.432  11.909  1.00  0.00    -0.391 OA
HETATM   36  H37 UNL     1      -1.286   2.611  11.486  1.00  0.00     0.210 HD
ENDBRANCH  22  35
TORSDOF 8
ENDMDL
