MODEL 1
REMARK minimizedAffinity -7.4081955
REMARK CNNscore 0.68698895
REMARK CNNaffinity 6.90355682
REMARK  6 active torsions:
REMARK  status: ('A' for Active; 'I' for Inactive)
REMARK    1  A    between atoms: C4_4  and  C5_5 
REMARK    2  A    between atoms: C5_5  and  C6_6 
REMARK    3  A    between atoms: C6_6  and  C7_7 
REMARK    4  A    between atoms: C7_7  and  C9_9 
REMARK    5  A    between atoms: C17_17  and  O1_18 
REMARK    6  A    between atoms: C21_22  and  O2_23 
ROOT
HETATM    1  C9  UNL     1      -1.559   7.319  12.601  1.00  0.00    -0.002 C 
HETATM    2  C10 UNL     1      -2.651   6.480  13.319  1.00  0.00     0.006 C 
HETATM    3  C11 UNL     1      -2.795   7.065  14.746  1.00  0.00     0.011 C 
HETATM    4  C12 UNL     1      -2.040   8.412  14.705  1.00  0.00    -0.032 C 
HETATM    5  C13 UNL     1      -3.038   9.435  14.058  1.00  0.00     0.016 C 
HETATM    6  C14 UNL     1      -1.504   8.933  16.083  1.00  0.00     0.003 C 
HETATM    7  C15 UNL     1      -2.642   9.103  17.110  1.00  0.00     0.009 C 
HETATM    8  C16 UNL     1      -2.545  10.331  17.998  1.00  0.00     0.039 C 
HETATM    9  C17 UNL     1      -2.348  11.648  17.215  1.00  0.00     0.071 C 
HETATM   10  C18 UNL     1      -1.278  11.535  16.052  1.00  0.00     0.029 C 
HETATM   11  C19 UNL     1      -0.389  12.794  15.933  1.00  0.00     0.011 C 
HETATM   12  C20 UNL     1      -1.171  14.092  16.068  1.00  0.00     0.033 C 
HETATM   13  C21 UNL     1      -2.062  14.184  17.307  1.00  0.00     0.129 C 
HETATM   14  C22 UNL     1      -2.155  12.894  18.171  1.00  0.00     0.010 C 
HETATM   15  C23 UNL     1      -0.939  12.751  19.123  1.00  0.00     0.020 C 
HETATM   16  C24 UNL     1      -3.376  13.086  19.120  1.00  0.00     0.020 C 
HETATM   17  C25 UNL     1      -0.495  10.158  15.965  1.00  0.00    -0.033 C 
HETATM   18  C26 UNL     1       0.536  10.077  17.135  1.00  0.00     0.016 C 
HETATM   19  C27 UNL     1       0.419  10.061  14.666  1.00  0.00     0.011 C 
HETATM   20  C28 UNL     1      -0.104   9.337  13.414  1.00  0.00     0.011 C 
HETATM   21  C29 UNL     1      -0.830   8.038  13.776  1.00  0.00    -0.032 C 
HETATM   22  C30 UNL     1       0.204   7.071  14.424  1.00  0.00     0.016 C 
ENDROOT
BRANCH   1  23
HETATM   23  C7  UNL     1      -0.717   6.580  11.517  1.00  0.00    -0.014 C 
HETATM   24  C8  UNL     1      -0.364   5.180  12.059  1.00  0.00     0.010 C 
BRANCH  23  25
HETATM   25  C6  UNL     1       0.582   7.297  11.068  1.00  0.00     0.008 C 
BRANCH  25  26
HETATM   26  C5  UNL     1       0.390   8.321   9.936  1.00  0.00     0.028 C 
BRANCH  26  27
HETATM   27  C4  UNL     1       0.606   7.781   8.552  1.00  0.00    -0.025 C 
HETATM   28  C2  UNL     1       1.749   7.795   7.838  1.00  0.00    -0.091 C 
HETATM   29  C1  UNL     1       1.790   7.224   6.444  1.00  0.00     0.042 C 
HETATM   30  C3  UNL     1       3.064   8.336   8.327  1.00  0.00     0.042 C 
ENDBRANCH  26  27
ENDBRANCH  25  26
ENDBRANCH  23  25
ENDBRANCH   1  23
BRANCH   9  31
HETATM   31  O1  UNL     1      -3.594  11.875  16.500  1.00  0.00    -0.389 OA
HETATM   32  H29 UNL     1      -4.337  11.663  17.091  1.00  0.00     0.210 HD
ENDBRANCH   9  31
BRANCH  13  33
HETATM   33  O2  UNL     1      -1.635  15.292  18.106  1.00  0.00    -0.395 OA
HETATM   34  H36 UNL     1      -1.725  16.092  17.559  1.00  0.00     0.210 HD
ENDBRANCH  13  33
TORSDOF 6
ENDMDL
MODEL 2
REMARK minimizedAffinity -7.46091843
REMARK CNNscore 0.576833367
REMARK CNNaffinity 7.09064817
REMARK  6 active torsions:
REMARK  status: ('A' for Active; 'I' for Inactive)
REMARK    1  A    between atoms: C4_4  and  C5_5 
REMARK    2  A    between atoms: C5_5  and  C6_6 
REMARK    3  A    between atoms: C6_6  and  C7_7 
REMARK    4  A    between atoms: C7_7  and  C9_9 
REMARK    5  A    between atoms: C17_17  and  O1_18 
REMARK    6  A    between atoms: C21_22  and  O2_23 
ROOT
HETATM    1  C9  UNL     1       0.652   7.010  11.981  1.00  0.00    -0.002 C 
HETATM    2  C10 UNL     1       1.165   5.836  12.858  1.00  0.00     0.006 C 
HETATM    3  C11 UNL     1       0.104   5.610  13.964  1.00  0.00     0.011 C 
HETATM    4  C12 UNL     1      -1.130   6.418  13.506  1.00  0.00    -0.032 C 
HETATM    5  C13 UNL     1      -1.861   5.511  12.455  1.00  0.00     0.016 C 
HETATM    6  C14 UNL     1      -2.107   6.870  14.645  1.00  0.00     0.003 C 
HETATM    7  C15 UNL     1      -2.647   5.666  15.445  1.00  0.00     0.009 C 
HETATM    8  C16 UNL     1      -4.111   5.745  15.839  1.00  0.00     0.039 C 
HETATM    9  C17 UNL     1      -5.055   6.051  14.655  1.00  0.00     0.071 C 
HETATM   10  C18 UNL     1      -4.521   7.199  13.704  1.00  0.00     0.029 C 
HETATM   11  C19 UNL     1      -5.644   8.143  13.216  1.00  0.00     0.011 C 
HETATM   12  C20 UNL     1      -6.911   7.404  12.812  1.00  0.00     0.033 C 
HETATM   13  C21 UNL     1      -7.451   6.427  13.857  1.00  0.00     0.129 C 
HETATM   14  C22 UNL     1      -6.560   6.221  15.115  1.00  0.00     0.010 C 
HETATM   15  C23 UNL     1      -6.758   7.357  16.152  1.00  0.00     0.020 C 
HETATM   16  C24 UNL     1      -7.093   4.941  15.827  1.00  0.00     0.020 C 
HETATM   17  C25 UNL     1      -3.197   7.931  14.181  1.00  0.00    -0.033 C 
HETATM   18  C26 UNL     1      -3.533   8.869  15.384  1.00  0.00     0.016 C 
HETATM   19  C27 UNL     1      -2.630   8.935  13.084  1.00  0.00     0.011 C 
HETATM   20  C28 UNL     1      -1.509   8.478  12.135  1.00  0.00     0.011 C 
HETATM   21  C29 UNL     1      -0.435   7.677  12.877  1.00  0.00    -0.032 C 
HETATM   22  C30 UNL     1       0.244   8.622  13.912  1.00  0.00     0.016 C 
ENDROOT
BRANCH   1  23
HETATM   23  C7  UNL     1       1.740   7.901  11.307  1.00  0.00    -0.014 C 
HETATM   24  C8  UNL     1       1.141   8.489  10.014  1.00  0.00     0.010 C 
BRANCH  23  25
HETATM   25  C6  UNL     1       3.079   7.195  10.976  1.00  0.00     0.008 C 
BRANCH  25  26
HETATM   26  C5  UNL     1       3.027   6.260   9.756  1.00  0.00     0.028 C 
BRANCH  26  27
HETATM   27  C4  UNL     1       2.413   6.861   8.525  1.00  0.00    -0.025 C 
HETATM   28  C2  UNL     1       2.411   6.348   7.278  1.00  0.00    -0.091 C 
HETATM   29  C1  UNL     1       1.762   7.094   6.142  1.00  0.00     0.042 C 
HETATM   30  C3  UNL     1       3.008   5.023   6.891  1.00  0.00     0.042 C 
ENDBRANCH  26  27
ENDBRANCH  25  26
ENDBRANCH  23  25
ENDBRANCH   1  23
BRANCH   9  31
HETATM   31  O1  UNL     1      -5.022   4.871  13.806  1.00  0.00    -0.389 OA
HETATM   32  H29 UNL     1      -5.044   4.078  14.370  1.00  0.00     0.210 HD
ENDBRANCH   9  31
BRANCH  13  33
HETATM   33  O2  UNL     1      -8.768   6.837  14.238  1.00  0.00    -0.395 OA
HETATM   34  H36 UNL     1      -9.319   6.819  13.436  1.00  0.00     0.210 HD
ENDBRANCH  13  33
TORSDOF 6
ENDMDL
MODEL 3
REMARK minimizedAffinity -6.78575277
REMARK CNNscore 0.505594313
REMARK CNNaffinity 6.71067572
REMARK  6 active torsions:
REMARK  status: ('A' for Active; 'I' for Inactive)
REMARK    1  A    between atoms: C4_4  and  C5_5 
REMARK    2  A    between atoms: C5_5  and  C6_6 
REMARK    3  A    between atoms: C6_6  and  C7_7 
REMARK    4  A    between atoms: C7_7  and  C9_9 
REMARK    5  A    between atoms: C17_17  and  O1_18 
REMARK    6  A    between atoms: C21_22  and  O2_23 
ROOT
HETATM    1  C9  UNL     1      -9.527   7.787  14.431  1.00  0.00    -0.002 C 
HETATM    2  C10 UNL     1     -10.665   6.739  14.295  1.00  0.00     0.006 C 
HETATM    3  C11 UNL     1     -11.990   7.478  14.602  1.00  0.00     0.011 C 
HETATM    4  C12 UNL     1     -11.627   8.979  14.578  1.00  0.00    -0.032 C 
HETATM    5  C13 UNL     1     -11.615   9.385  13.062  1.00  0.00     0.016 C 
HETATM    6  C14 UNL     1     -12.564   9.919  15.411  1.00  0.00     0.003 C 
HETATM    7  C15 UNL     1     -14.032   9.819  14.947  1.00  0.00     0.009 C 
HETATM    8  C16 UNL     1     -14.797  11.130  14.907  1.00  0.00     0.039 C 
HETATM    9  C17 UNL     1     -14.075  12.244  14.117  1.00  0.00     0.071 C 
HETATM   10  C18 UNL     1     -12.527  12.344  14.441  1.00  0.00     0.029 C 
HETATM   11  C19 UNL     1     -12.026  13.804  14.521  1.00  0.00     0.011 C 
HETATM   12  C20 UNL     1     -12.589  14.689  13.420  1.00  0.00     0.033 C 
HETATM   13  C21 UNL     1     -14.111  14.656  13.279  1.00  0.00     0.129 C 
HETATM   14  C22 UNL     1     -14.851  13.622  14.175  1.00  0.00     0.010 C 
HETATM   15  C23 UNL     1     -15.051  14.152  15.618  1.00  0.00     0.020 C 
HETATM   16  C24 UNL     1     -16.294  13.494  13.600  1.00  0.00     0.020 C 
HETATM   17  C25 UNL     1     -12.001  11.395  15.599  1.00  0.00    -0.033 C 
HETATM   18  C26 UNL     1     -12.485  11.949  16.977  1.00  0.00     0.016 C 
HETATM   19  C27 UNL     1     -10.416  11.422  15.731  1.00  0.00     0.011 C 
HETATM   20  C28 UNL     1      -9.572  10.328  15.055  1.00  0.00     0.011 C 
HETATM   21  C29 UNL     1     -10.200   8.943  15.232  1.00  0.00    -0.032 C 
HETATM   22  C30 UNL     1     -10.197   8.602  16.751  1.00  0.00     0.016 C 
ENDROOT
BRANCH   1  23
HETATM   23  C7  UNL     1      -8.137   7.248  14.889  1.00  0.00    -0.014 C 
HETATM   24  C8  UNL     1      -7.167   8.443  14.974  1.00  0.00     0.010 C 
BRANCH  23  25
HETATM   25  C6  UNL     1      -7.514   6.146  13.995  1.00  0.00     0.008 C 
BRANCH  25  26
HETATM   26  C5  UNL     1      -7.400   4.766  14.665  1.00  0.00     0.028 C 
BRANCH  26  27
HETATM   27  C4  UNL     1      -7.448   3.599  13.722  1.00  0.00    -0.025 C 
HETATM   28  C2  UNL     1      -6.502   3.221  12.840  1.00  0.00    -0.091 C 
HETATM   29  C1  UNL     1      -6.717   2.027  11.947  1.00  0.00     0.042 C 
HETATM   30  C3  UNL     1      -5.171   3.898  12.661  1.00  0.00     0.042 C 
ENDBRANCH  26  27
ENDBRANCH  25  26
ENDBRANCH  23  25
ENDBRANCH   1  23
BRANCH   9  31
HETATM   31  O1  UNL     1     -14.098  11.823  12.725  1.00  0.00    -0.389 OA
HETATM   32  H29 UNL     1     -14.974  11.452  12.525  1.00  0.00     0.210 HD
ENDBRANCH   9  31
BRANCH  13  33
HETATM   33  O2  UNL     1     -14.628  15.972  13.501  1.00  0.00    -0.395 OA
HETATM   34  H36 UNL     1     -14.234  16.553  12.827  1.00  0.00     0.210 HD
ENDBRANCH  13  33
TORSDOF 6
ENDMDL
MODEL 4
REMARK minimizedAffinity -7.52956438
REMARK CNNscore 0.477672786
REMARK CNNaffinity 6.47741747
REMARK  6 active torsions:
REMARK  status: ('A' for Active; 'I' for Inactive)
REMARK    1  A    between atoms: C4_4  and  C5_5 
REMARK    2  A    between atoms: C5_5  and  C6_6 
REMARK    3  A    between atoms: C6_6  and  C7_7 
REMARK    4  A    between atoms: C7_7  and  C9_9 
REMARK    5  A    between atoms: C17_17  and  O1_18 
REMARK    6  A    between atoms: C21_22  and  O2_23 
ROOT
HETATM    1  C9  UNL     1       0.626   7.421  11.099  1.00  0.00    -0.002 C 
HETATM    2  C10 UNL     1      -0.461   6.325  11.261  1.00  0.00     0.006 C 
HETATM    3  C11 UNL     1      -1.027   6.467  12.696  1.00  0.00     0.011 C 
HETATM    4  C12 UNL     1      -0.501   7.829  13.201  1.00  0.00    -0.032 C 
HETATM    5  C13 UNL     1      -1.463   8.906  12.588  1.00  0.00     0.016 C 
HETATM    6  C14 UNL     1      -0.393   7.981  14.757  1.00  0.00     0.003 C 
HETATM    7  C15 UNL     1      -1.753   7.757  15.448  1.00  0.00     0.009 C 
HETATM    8  C16 UNL     1      -2.059   8.686  16.609  1.00  0.00     0.039 C 
HETATM    9  C17 UNL     1      -1.888  10.183  16.266  1.00  0.00     0.071 C 
HETATM   10  C18 UNL     1      -0.570  10.495  15.445  1.00  0.00     0.029 C 
HETATM   11  C19 UNL     1       0.117  11.805  15.892  1.00  0.00     0.011 C 
HETATM   12  C20 UNL     1      -0.866  12.941  16.134  1.00  0.00     0.033 C 
HETATM   13  C21 UNL     1      -2.028  12.603  17.068  1.00  0.00     0.129 C 
HETATM   14  C22 UNL     1      -2.122  11.118  17.521  1.00  0.00     0.010 C 
HETATM   15  C23 UNL     1      -1.158  10.815  18.697  1.00  0.00     0.020 C 
HETATM   16  C24 UNL     1      -3.547  10.930  18.123  1.00  0.00     0.020 C 
HETATM   17  C25 UNL     1       0.414   9.269  15.228  1.00  0.00    -0.033 C 
HETATM   18  C26 UNL     1       1.139   8.947  16.573  1.00  0.00     0.016 C 
HETATM   19  C27 UNL     1       1.613   9.621  14.242  1.00  0.00     0.011 C 
HETATM   20  C28 UNL     1       1.519   9.241  12.755  1.00  0.00     0.011 C 
HETATM   21  C29 UNL     1       0.937   7.836  12.569  1.00  0.00    -0.032 C 
HETATM   22  C30 UNL     1       1.925   6.815  13.207  1.00  0.00     0.016 C 
ENDROOT
BRANCH   1  23
HETATM   23  C7  UNL     1       1.805   7.093  10.132  1.00  0.00    -0.014 C 
HETATM   24  C8  UNL     1       2.958   8.070  10.437  1.00  0.00     0.010 C 
BRANCH  23  25
HETATM   25  C6  UNL     1       1.472   7.151   8.620  1.00  0.00     0.008 C 
BRANCH  25  26
HETATM   26  C5  UNL     1       2.399   6.308   7.727  1.00  0.00     0.028 C 
BRANCH  26  27
HETATM   27  C4  UNL     1       3.222   5.287   8.455  1.00  0.00    -0.025 C 
HETATM   28  C2  UNL     1       3.804   4.186   7.939  1.00  0.00    -0.091 C 
HETATM   29  C1  UNL     1       4.587   3.247   8.819  1.00  0.00     0.042 C 
HETATM   30  C3  UNL     1       3.764   3.790   6.489  1.00  0.00     0.042 C 
ENDBRANCH  26  27
ENDBRANCH  25  26
ENDBRANCH  23  25
ENDBRANCH   1  23
BRANCH   9  31
HETATM   31  O1  UNL     1      -2.950  10.498  15.323  1.00  0.00    -0.389 OA
HETATM   32  H29 UNL     1      -3.770  10.065  15.619  1.00  0.00     0.210 HD
ENDBRANCH   9  31
BRANCH  13  33
HETATM   33  O2  UNL     1      -1.978  13.471  18.204  1.00  0.00    -0.395 OA
HETATM   34  H36 UNL     1      -2.059  14.383  17.874  1.00  0.00     0.210 HD
ENDBRANCH  13  33
TORSDOF 6
ENDMDL
MODEL 5
REMARK minimizedAffinity -7.4239912
REMARK CNNscore 0.439714134
REMARK CNNaffinity 6.1978097
REMARK  6 active torsions:
REMARK  status: ('A' for Active; 'I' for Inactive)
REMARK    1  A    between atoms: C4_4  and  C5_5 
REMARK    2  A    between atoms: C5_5  and  C6_6 
REMARK    3  A    between atoms: C6_6  and  C7_7 
REMARK    4  A    between atoms: C7_7  and  C9_9 
REMARK    5  A    between atoms: C17_17  and  O1_18 
REMARK    6  A    between atoms: C21_22  and  O2_23 
ROOT
HETATM    1  C9  UNL     1      -6.932 -10.319  -0.468  1.00  0.00    -0.002 C 
HETATM    2  C10 UNL     1      -8.365 -10.682   0.007  1.00  0.00     0.006 C 
HETATM    3  C11 UNL     1      -8.238 -11.170   1.472  1.00  0.00     0.011 C 
HETATM    4  C12 UNL     1      -6.812 -10.766   1.906  1.00  0.00    -0.032 C 
HETATM    5  C13 UNL     1      -6.904  -9.250   2.297  1.00  0.00     0.016 C 
HETATM    6  C14 UNL     1      -6.189 -11.616   3.067  1.00  0.00     0.003 C 
HETATM    7  C15 UNL     1      -7.061 -11.570   4.339  1.00  0.00     0.009 C 
HETATM    8  C16 UNL     1      -6.302 -11.477   5.651  1.00  0.00     0.039 C 
HETATM    9  C17 UNL     1      -5.267 -10.330   5.686  1.00  0.00     0.071 C 
HETATM   10  C18 UNL     1      -4.401 -10.222   4.364  1.00  0.00     0.029 C 
HETATM   11  C19 UNL     1      -2.918  -9.890   4.647  1.00  0.00     0.011 C 
HETATM   12  C20 UNL     1      -2.739  -8.821   5.714  1.00  0.00     0.033 C 
HETATM   13  C21 UNL     1      -3.484  -9.083   7.023  1.00  0.00     0.129 C 
HETATM   14  C22 UNL     1      -4.428 -10.319   7.028  1.00  0.00     0.010 C 
HETATM   15  C23 UNL     1      -3.647 -11.637   7.272  1.00  0.00     0.020 C 
HETATM   16  C24 UNL     1      -5.345 -10.169   8.279  1.00  0.00     0.020 C 
HETATM   17  C25 UNL     1      -4.634 -11.367   3.291  1.00  0.00    -0.033 C 
HETATM   18  C26 UNL     1      -3.978 -12.690   3.799  1.00  0.00     0.016 C 
HETATM   19  C27 UNL     1      -3.868 -11.082   1.925  1.00  0.00     0.011 C 
HETATM   20  C28 UNL     1      -4.617 -10.435   0.748  1.00  0.00     0.011 C 
HETATM   21  C29 UNL     1      -6.018 -11.028   0.578  1.00  0.00    -0.032 C 
HETATM   22  C30 UNL     1      -5.864 -12.533   0.206  1.00  0.00     0.016 C 
ENDROOT
BRANCH   1  23
HETATM   23  C7  UNL     1      -6.637 -10.501  -1.988  1.00  0.00    -0.014 C 
HETATM   24  C8  UNL     1      -5.211  -9.985  -2.263  1.00  0.00     0.010 C 
BRANCH  23  25
HETATM   25  C6  UNL     1      -7.628  -9.803  -2.955  1.00  0.00     0.008 C 
BRANCH  25  26
HETATM   26  C5  UNL     1      -7.110  -8.489  -3.565  1.00  0.00     0.028 C 
BRANCH  26  27
HETATM   27  C4  UNL     1      -8.159  -7.641  -4.223  1.00  0.00    -0.025 C 
HETATM   28  C2  UNL     1      -9.079  -6.863  -3.620  1.00  0.00    -0.091 C 
HETATM   29  C1  UNL     1     -10.080  -6.084  -4.433  1.00  0.00     0.042 C 
HETATM   30  C3  UNL     1      -9.201  -6.668  -2.134  1.00  0.00     0.042 C 
ENDBRANCH  26  27
ENDBRANCH  25  26
ENDBRANCH  23  25
ENDBRANCH   1  23
BRANCH   9  31
HETATM   31  O1  UNL     1      -6.039  -9.098   5.681  1.00  0.00    -0.389 OA
HETATM   32  H29 UNL     1      -6.801  -9.203   6.276  1.00  0.00     0.210 HD
ENDBRANCH   9  31
BRANCH  13  33
HETATM   33  O2  UNL     1      -2.534  -9.174   8.089  1.00  0.00    -0.395 OA
HETATM   34  H36 UNL     1      -2.063  -8.323   8.128  1.00  0.00     0.210 HD
ENDBRANCH  13  33
TORSDOF 6
ENDMDL
MODEL 6
REMARK minimizedAffinity -8.95797729
REMARK CNNscore 0.439157635
REMARK CNNaffinity 6.80446482
REMARK  6 active torsions:
REMARK  status: ('A' for Active; 'I' for Inactive)
REMARK    1  A    between atoms: C4_4  and  C5_5 
REMARK    2  A    between atoms: C5_5  and  C6_6 
REMARK    3  A    between atoms: C6_6  and  C7_7 
REMARK    4  A    between atoms: C7_7  and  C9_9 
REMARK    5  A    between atoms: C17_17  and  O1_18 
REMARK    6  A    between atoms: C21_22  and  O2_23 
ROOT
HETATM    1  C9  UNL     1      -6.545   7.179  13.981  1.00  0.00    -0.002 C 
HETATM    2  C10 UNL     1      -6.534   8.474  14.837  1.00  0.00     0.006 C 
HETATM    3  C11 UNL     1      -5.050   8.789  15.148  1.00  0.00     0.011 C 
HETATM    4  C12 UNL     1      -4.240   7.877  14.201  1.00  0.00    -0.032 C 
HETATM    5  C13 UNL     1      -4.228   8.613  12.815  1.00  0.00     0.016 C 
HETATM    6  C14 UNL     1      -2.786   7.529  14.672  1.00  0.00     0.003 C 
HETATM    7  C15 UNL     1      -1.936   8.797  14.888  1.00  0.00     0.009 C 
HETATM    8  C16 UNL     1      -0.492   8.704  14.429  1.00  0.00     0.039 C 
HETATM    9  C17 UNL     1      -0.336   8.212  12.973  1.00  0.00     0.071 C 
HETATM   10  C18 UNL     1      -1.266   6.979  12.621  1.00  0.00     0.029 C 
HETATM   11  C19 UNL     1      -0.560   5.933  11.727  1.00  0.00     0.011 C 
HETATM   12  C20 UNL     1       0.258   6.560  10.608  1.00  0.00     0.033 C 
HETATM   13  C21 UNL     1       1.249   7.634  11.056  1.00  0.00     0.129 C 
HETATM   14  C22 UNL     1       1.181   8.035  12.557  1.00  0.00     0.010 C 
HETATM   15  C23 UNL     1       1.948   7.029  13.455  1.00  0.00     0.020 C 
HETATM   16  C24 UNL     1       1.976   9.369  12.694  1.00  0.00     0.020 C 
HETATM   17  C25 UNL     1      -2.092   6.370  13.831  1.00  0.00    -0.033 C 
HETATM   18  C26 UNL     1      -1.126   5.576  14.766  1.00  0.00     0.016 C 
HETATM   19  C27 UNL     1      -3.134   5.264  13.358  1.00  0.00     0.011 C 
HETATM   20  C28 UNL     1      -4.604   5.648  13.122  1.00  0.00     0.011 C 
HETATM   21  C29 UNL     1      -5.125   6.581  14.218  1.00  0.00    -0.032 C 
HETATM   22  C30 UNL     1      -5.101   5.803  15.567  1.00  0.00     0.016 C 
ENDROOT
BRANCH   1  23
HETATM   23  C7  UNL     1      -7.796   6.259  14.128  1.00  0.00    -0.014 C 
HETATM   24  C8  UNL     1      -7.942   5.441  12.830  1.00  0.00     0.010 C 
BRANCH  23  25
HETATM   25  C6  UNL     1      -9.133   6.983  14.430  1.00  0.00     0.008 C 
BRANCH  25  26
HETATM   26  C5  UNL     1     -10.280   6.639  13.465  1.00  0.00     0.028 C 
BRANCH  26  27
HETATM   27  C4  UNL     1     -11.210   7.777  13.158  1.00  0.00    -0.025 C 
HETATM   28  C2  UNL     1     -12.555   7.779  13.242  1.00  0.00    -0.091 C 
HETATM   29  C1  UNL     1     -13.346   9.008  12.876  1.00  0.00     0.042 C 
HETATM   30  C3  UNL     1     -13.391   6.620  13.709  1.00  0.00     0.042 C 
ENDBRANCH  26  27
ENDBRANCH  25  26
ENDBRANCH  23  25
ENDBRANCH   1  23
BRANCH   9  31
HETATM   31  O1  UNL     1      -0.863   9.277  12.135  1.00  0.00    -0.389 OA
HETATM   32  H29 UNL     1      -0.563  10.132  12.488  1.00  0.00     0.210 HD
ENDBRANCH   9  31
BRANCH  13  33
HETATM   33  O2  UNL     1       2.574   7.218  10.708  1.00  0.00    -0.395 OA
HETATM   34  H36 UNL     1       2.598   7.111   9.741  1.00  0.00     0.210 HD
ENDBRANCH  13  33
TORSDOF 6
ENDMDL
MODEL 7
REMARK minimizedAffinity -8.34695625
REMARK CNNscore 0.383472562
REMARK CNNaffinity 6.95438147
REMARK  6 active torsions:
REMARK  status: ('A' for Active; 'I' for Inactive)
REMARK    1  A    between atoms: C4_4  and  C5_5 
REMARK    2  A    between atoms: C5_5  and  C6_6 
REMARK    3  A    between atoms: C6_6  and  C7_7 
REMARK    4  A    between atoms: C7_7  and  C9_9 
REMARK    5  A    between atoms: C17_17  and  O1_18 
REMARK    6  A    between atoms: C21_22  and  O2_23 
ROOT
HETATM    1  C9  UNL     1      -4.637   6.484  14.949  1.00  0.00    -0.002 C 
HETATM    2  C10 UNL     1      -4.844   5.149  14.186  1.00  0.00     0.006 C 
HETATM    3  C11 UNL     1      -3.763   5.097  13.078  1.00  0.00     0.011 C 
HETATM    4  C12 UNL     1      -2.768   6.222  13.437  1.00  0.00    -0.032 C 
HETATM    5  C13 UNL     1      -1.831   5.620  14.542  1.00  0.00     0.016 C 
HETATM    6  C14 UNL     1      -1.937   6.801  12.241  1.00  0.00     0.003 C 
HETATM    7  C15 UNL     1      -1.116   5.705  11.532  1.00  0.00     0.009 C 
HETATM    8  C16 UNL     1       0.282   6.109  11.097  1.00  0.00     0.039 C 
HETATM    9  C17 UNL     1       1.123   6.742  12.229  1.00  0.00     0.071 C 
HETATM   10  C18 UNL     1       0.322   7.800  13.093  1.00  0.00     0.029 C 
HETATM   11  C19 UNL     1       1.175   9.031  13.473  1.00  0.00     0.011 C 
HETATM   12  C20 UNL     1       2.587   8.667  13.907  1.00  0.00     0.033 C 
HETATM   13  C21 UNL     1       3.351   7.768  12.936  1.00  0.00     0.129 C 
HETATM   14  C22 UNL     1       2.537   7.238  11.721  1.00  0.00     0.010 C 
HETATM   15  C23 UNL     1       2.443   8.293  10.588  1.00  0.00     0.020 C 
HETATM   16  C24 UNL     1       3.370   6.074  11.105  1.00  0.00     0.020 C 
HETATM   17  C25 UNL     1      -1.144   8.137  12.589  1.00  0.00    -0.033 C 
HETATM   18  C26 UNL     1      -1.055   9.020  11.303  1.00  0.00     0.016 C 
HETATM   19  C27 UNL     1      -1.941   9.060  13.611  1.00  0.00     0.011 C 
HETATM   20  C28 UNL     1      -2.910   8.424  14.621  1.00  0.00     0.011 C 
HETATM   21  C29 UNL     1      -3.753   7.320  13.975  1.00  0.00    -0.032 C 
HETATM   22  C30 UNL     1      -4.648   7.973  12.881  1.00  0.00     0.016 C 
ENDROOT
BRANCH   1  23
HETATM   23  C7  UNL     1      -5.911   7.133  15.571  1.00  0.00    -0.014 C 
HETATM   24  C8  UNL     1      -6.581   6.088  16.485  1.00  0.00     0.010 C 
BRANCH  23  25
HETATM   25  C6  UNL     1      -6.955   7.672  14.561  1.00  0.00     0.008 C 
BRANCH  25  26
HETATM   26  C5  UNL     1      -8.287   6.902  14.543  1.00  0.00     0.028 C 
BRANCH  26  27
HETATM   27  C4  UNL     1      -8.183   5.468  14.115  1.00  0.00    -0.025 C 
HETATM   28  C2  UNL     1      -8.374   4.967  12.878  1.00  0.00    -0.091 C 
HETATM   29  C1  UNL     1      -8.248   3.488  12.621  1.00  0.00     0.042 C 
HETATM   30  C3  UNL     1      -8.699   5.784  11.659  1.00  0.00     0.042 C 
ENDBRANCH  26  27
ENDBRANCH  25  26
ENDBRANCH  23  25
ENDBRANCH   1  23
BRANCH   9  31
HETATM   31  O1  UNL     1       1.386   5.668  13.174  1.00  0.00    -0.389 OA
HETATM   32  H29 UNL     1       1.604   4.861  12.679  1.00  0.00     0.210 HD
ENDBRANCH   9  31
BRANCH  13  33
HETATM   33  O2  UNL     1       4.524   8.457  12.490  1.00  0.00    -0.395 OA
HETATM   34  H36 UNL     1       5.064   8.646  13.277  1.00  0.00     0.210 HD
ENDBRANCH  13  33
TORSDOF 6
ENDMDL
MODEL 8
REMARK minimizedAffinity -7.10301733
REMARK CNNscore 0.374614418
REMARK CNNaffinity 6.70086861
REMARK  6 active torsions:
REMARK  status: ('A' for Active; 'I' for Inactive)
REMARK    1  A    between atoms: C4_4  and  C5_5 
REMARK    2  A    between atoms: C5_5  and  C6_6 
REMARK    3  A    between atoms: C6_6  and  C7_7 
REMARK    4  A    between atoms: C7_7  and  C9_9 
REMARK    5  A    between atoms: C17_17  and  O1_18 
REMARK    6  A    between atoms: C21_22  and  O2_23 
ROOT
HETATM    1  C9  UNL     1      -6.196   5.538  12.854  1.00  0.00    -0.002 C 
HETATM    2  C10 UNL     1      -7.142   4.373  12.455  1.00  0.00     0.006 C 
HETATM    3  C11 UNL     1      -8.522   4.684  13.088  1.00  0.00     0.011 C 
HETATM    4  C12 UNL     1      -8.431   6.157  13.544  1.00  0.00    -0.032 C 
HETATM    5  C13 UNL     1      -8.697   7.013  12.257  1.00  0.00     0.016 C 
HETATM    6  C14 UNL     1      -9.394   6.567  14.710  1.00  0.00     0.003 C 
HETATM    7  C15 UNL     1     -10.872   6.314  14.346  1.00  0.00     0.009 C 
HETATM    8  C16 UNL     1     -11.851   7.380  14.804  1.00  0.00     0.039 C 
HETATM    9  C17 UNL     1     -11.448   8.812  14.386  1.00  0.00     0.071 C 
HETATM   10  C18 UNL     1      -9.912   9.125  14.612  1.00  0.00     0.029 C 
HETATM   11  C19 UNL     1      -9.665  10.556  15.142  1.00  0.00     0.011 C 
HETATM   12  C20 UNL     1     -10.519  11.606  14.448  1.00  0.00     0.033 C 
HETATM   13  C21 UNL     1     -12.017  11.301  14.413  1.00  0.00     0.129 C 
HETATM   14  C22 UNL     1     -12.437   9.906  14.959  1.00  0.00     0.010 C 
HETATM   15  C23 UNL     1     -12.526   9.899  16.507  1.00  0.00     0.020 C 
HETATM   16  C24 UNL     1     -13.901   9.668  14.481  1.00  0.00     0.020 C 
HETATM   17  C25 UNL     1      -9.076   7.992  15.342  1.00  0.00    -0.033 C 
HETATM   18  C26 UNL     1      -9.456   7.968  16.857  1.00  0.00     0.016 C 
HETATM   19  C27 UNL     1      -7.516   8.306  15.362  1.00  0.00     0.011 C 
HETATM   20  C28 UNL     1      -6.596   7.684  14.298  1.00  0.00     0.011 C 
HETATM   21  C29 UNL     1      -6.944   6.215  14.043  1.00  0.00    -0.032 C 
HETATM   22  C30 UNL     1      -6.674   5.420  15.355  1.00  0.00     0.016 C 
ENDROOT
BRANCH   1  23
HETATM   23  C7  UNL     1      -4.685   5.186  13.003  1.00  0.00    -0.014 C 
HETATM   24  C8  UNL     1      -4.531   3.662  12.826  1.00  0.00     0.010 C 
BRANCH  23  25
HETATM   25  C6  UNL     1      -4.020   5.616  14.335  1.00  0.00     0.008 C 
BRANCH  25  26
HETATM   26  C5  UNL     1      -2.996   6.756  14.201  1.00  0.00     0.028 C 
BRANCH  26  27
HETATM   27  C4  UNL     1      -1.893   6.504  13.215  1.00  0.00    -0.025 C 
HETATM   28  C2  UNL     1      -1.355   7.383  12.347  1.00  0.00    -0.091 C 
HETATM   29  C1  UNL     1      -0.259   6.959  11.404  1.00  0.00     0.042 C 
HETATM   30  C3  UNL     1      -1.749   8.829  12.230  1.00  0.00     0.042 C 
ENDBRANCH  26  27
ENDBRANCH  25  26
ENDBRANCH  23  25
ENDBRANCH   1  23
BRANCH   9  31
HETATM   31  O1  UNL     1     -11.589   8.857  12.939  1.00  0.00    -0.389 OA
HETATM   32  H29 UNL     1     -12.406   8.394  12.689  1.00  0.00     0.210 HD
ENDBRANCH   9  31
BRANCH  13  33
HETATM   33  O2  UNL     1     -12.719  12.341  15.102  1.00  0.00    -0.395 OA
HETATM   34  H36 UNL     1     -12.529  13.174  14.637  1.00  0.00     0.210 HD
ENDBRANCH  13  33
TORSDOF 6
ENDMDL
MODEL 9
REMARK minimizedAffinity -9.52062988
REMARK CNNscore 0.362089187
REMARK CNNaffinity 6.74367189
REMARK  6 active torsions:
REMARK  status: ('A' for Active; 'I' for Inactive)
REMARK    1  A    between atoms: C4_4  and  C5_5 
REMARK    2  A    between atoms: C5_5  and  C6_6 
REMARK    3  A    between atoms: C6_6  and  C7_7 
REMARK    4  A    between atoms: C7_7  and  C9_9 
REMARK    5  A    between atoms: C17_17  and  O1_18 
REMARK    6  A    between atoms: C21_22  and  O2_23 
ROOT
HETATM    1  C9  UNL     1      -6.353   7.218  13.903  1.00  0.00    -0.002 C 
HETATM    2  C10 UNL     1      -6.413   8.439  14.860  1.00  0.00     0.006 C 
HETATM    3  C11 UNL     1      -4.951   8.777  15.244  1.00  0.00     0.011 C 
HETATM    4  C12 UNL     1      -4.081   7.973  14.252  1.00  0.00    -0.032 C 
HETATM    5  C13 UNL     1      -4.054   8.819  12.932  1.00  0.00     0.016 C 
HETATM    6  C14 UNL     1      -2.631   7.635  14.741  1.00  0.00     0.003 C 
HETATM    7  C15 UNL     1      -1.833   8.909  15.086  1.00  0.00     0.009 C 
HETATM    8  C16 UNL     1      -0.373   8.902  14.668  1.00  0.00     0.039 C 
HETATM    9  C17 UNL     1      -0.157   8.536  13.182  1.00  0.00     0.071 C 
HETATM   10  C18 UNL     1      -1.031   7.305  12.702  1.00  0.00     0.029 C 
HETATM   11  C19 UNL     1      -0.263   6.361  11.750  1.00  0.00     0.011 C 
HETATM   12  C20 UNL     1       0.565   7.103  10.713  1.00  0.00     0.033 C 
HETATM   13  C21 UNL     1       1.504   8.170  11.277  1.00  0.00     0.129 C 
HETATM   14  C22 UNL     1       1.377   8.444  12.803  1.00  0.00     0.010 C 
HETATM   15  C23 UNL     1       2.152   7.394  13.641  1.00  0.00     0.020 C 
HETATM   16  C24 UNL     1       2.119   9.787  13.073  1.00  0.00     0.020 C 
HETATM   17  C25 UNL     1      -1.871   6.573  13.832  1.00  0.00    -0.033 C 
HETATM   18  C26 UNL     1      -0.905   5.737  14.731  1.00  0.00     0.016 C 
HETATM   19  C27 UNL     1      -2.858   5.475  13.238  1.00  0.00     0.011 C 
HETATM   20  C28 UNL     1      -4.333   5.828  12.986  1.00  0.00     0.011 C 
HETATM   21  C29 UNL     1      -4.920   6.651  14.137  1.00  0.00    -0.032 C 
HETATM   22  C30 UNL     1      -4.907   5.766  15.419  1.00  0.00     0.016 C 
ENDROOT
BRANCH   1  23
HETATM   23  C7  UNL     1      -7.573   6.249  13.935  1.00  0.00    -0.014 C 
HETATM   24  C8  UNL     1      -7.753   5.757  15.385  1.00  0.00     0.010 C 
BRANCH  23  25
HETATM   25  C6  UNL     1      -7.488   5.026  12.987  1.00  0.00     0.008 C 
BRANCH  25  26
HETATM   26  C5  UNL     1      -7.419   3.665  13.701  1.00  0.00     0.028 C 
BRANCH  26  27
HETATM   27  C4  UNL     1      -7.287   2.479  12.790  1.00  0.00    -0.025 C 
HETATM   28  C2  UNL     1      -6.305   2.237  11.900  1.00  0.00    -0.091 C 
HETATM   29  C1  UNL     1      -6.333   0.998  11.043  1.00  0.00     0.042 C 
HETATM   30  C3  UNL     1      -5.107   3.118  11.678  1.00  0.00     0.042 C 
ENDBRANCH  26  27
ENDBRANCH  25  26
ENDBRANCH  23  25
ENDBRANCH   1  23
BRANCH   9  31
HETATM   31  O1  UNL     1      -0.697   9.648  12.417  1.00  0.00    -0.389 OA
HETATM   32  H29 UNL     1      -0.438  10.480  12.848  1.00  0.00     0.210 HD
ENDBRANCH   9  31
BRANCH  13  33
HETATM   33  O2  UNL     1       2.852   7.827  10.940  1.00  0.00    -0.395 OA
HETATM   34  H36 UNL     1       2.909   7.801   9.969  1.00  0.00     0.210 HD
ENDBRANCH  13  33
TORSDOF 6
ENDMDL
