MODEL 1
REMARK minimizedAffinity -8.81305313
REMARK CNNscore 0.541835845
REMARK CNNaffinity 6.18361807
REMARK  4 active torsions:
REMARK  status: ('A' for Active; 'I' for Inactive)
REMARK    1  A    between atoms: C4_4  and  C5_5 
REMARK    2  A    between atoms: C22_22  and  C23_23 
REMARK    3  A    between atoms: C23_23  and  O2_25 
REMARK    4  A    between atoms: C28_30  and  O3_31 
ROOT
HETATM    1  C5  UNL     1       1.967   7.585  11.322  1.00  0.00     0.032 C 
HETATM    2  C6  UNL     1       0.657   8.050  12.029  1.00  0.00     0.014 C 
HETATM    3  C7  UNL     1      -0.482   8.521  11.105  1.00  0.00     0.007 C 
HETATM    4  C8  UNL     1      -1.726   8.962  11.879  1.00  0.00     0.007 C 
HETATM    5  C9  UNL     1      -2.177   7.935  12.934  1.00  0.00     0.007 C 
HETATM    6  C10 UNL     1      -3.541   8.281  13.613  1.00  0.00    -0.018 C 
HETATM    7  C11 UNL     1      -3.553   9.646  14.341  1.00  0.00     0.020 C 
HETATM    8  C12 UNL     1      -4.781   8.274  12.737  1.00  0.00    -0.020 C 
HETATM    9  C13 UNL     1      -5.818   7.676  13.353  1.00  0.00    -0.021 C 
HETATM   10  C14 UNL     1      -5.431   7.058  14.684  1.00  0.00    -0.026 C 
HETATM   11  C15 UNL     1      -5.920   7.868  15.886  1.00  0.00     0.019 C 
HETATM   12  C16 UNL     1      -5.986   5.628  14.794  1.00  0.00     0.019 C 
HETATM   13  C17 UNL     1      -3.902   7.039  14.475  1.00  0.00     0.009 C 
HETATM   14  C18 UNL     1      -2.939   6.834  15.629  1.00  0.00     0.007 C 
HETATM   15  C19 UNL     1      -1.540   6.541  15.045  1.00  0.00     0.011 C 
HETATM   16  C20 UNL     1      -1.017   7.561  13.962  1.00  0.00    -0.021 C 
HETATM   17  C21 UNL     1      -0.532   8.803  14.768  1.00  0.00     0.017 C 
HETATM   18  C22 UNL     1       0.217   6.971  13.104  1.00  0.00     0.057 C 
HETATM   19  C24 UNL     1       1.474   6.586  13.972  1.00  0.00     0.023 C 
HETATM   20  C25 UNL     1       2.688   7.499  13.807  1.00  0.00     0.022 C 
HETATM   21  C26 UNL     1       3.156   7.651  12.338  1.00  0.00     0.060 C 
HETATM   22  C27 UNL     1       4.242   6.644  11.962  1.00  0.00     0.081 C 
HETATM   23  C28 UNL     1       5.507   7.324  12.421  1.00  0.00     0.267 C 
HETATM   24  O4  UNL     1       5.290   8.709  12.225  1.00  0.00    -0.289 OA
HETATM   25  C29 UNL     1       3.949   8.953  12.275  1.00  0.00     0.270 C 
HETATM   26  O5  UNL     1       3.472  10.077  12.308  1.00  0.00    -0.264 OA
ENDROOT
BRANCH   1  27
HETATM   27  C4  UNL     1       2.253   8.312  10.020  1.00  0.00    -0.018 C 
HETATM   28  C2  UNL     1       2.596   7.791   8.824  1.00  0.00    -0.091 C 
HETATM   29  C1  UNL     1       2.811   8.697   7.637  1.00  0.00     0.042 C 
HETATM   30  C3  UNL     1       2.787   6.332   8.515  1.00  0.00     0.042 C 
ENDBRANCH   1  27
BRANCH  23  31
HETATM   31  O3  UNL     1       6.633   6.884  11.692  1.00  0.00    -0.371 OA
HETATM   32  H42 UNL     1       6.448   7.069  10.756  1.00  0.00     0.212 HD
ENDBRANCH  23  31
BRANCH  18  33
HETATM   33  C23 UNL     1      -0.201   5.613  12.467  1.00  0.00     0.149 C 
HETATM   34  O1  UNL     1      -0.113   4.514  12.997  1.00  0.00    -0.649 OA
BRANCH  33  35
HETATM   35  O2  UNL     1      -0.695   5.670  11.224  1.00  0.00    -0.776 OA
HETATM   36  H34 UNL     1      -0.925   4.739  11.014  1.00  0.00     0.167 HD
ENDBRANCH  33  35
ENDBRANCH  18  33
TORSDOF 4
ENDMDL
MODEL 2
REMARK minimizedAffinity -6.83549881
REMARK CNNscore 0.344305784
REMARK CNNaffinity 6.05347872
REMARK  4 active torsions:
REMARK  status: ('A' for Active; 'I' for Inactive)
REMARK    1  A    between atoms: C4_4  and  C5_5 
REMARK    2  A    between atoms: C22_22  and  C23_23 
REMARK    3  A    between atoms: C23_23  and  O2_25 
REMARK    4  A    between atoms: C28_30  and  O3_31 
ROOT
HETATM    1  C5  UNL     1      12.747  -6.188   4.746  1.00  0.00     0.032 C 
HETATM    2  C6  UNL     1      13.824  -7.316   4.738  1.00  0.00     0.014 C 
HETATM    3  C7  UNL     1      13.552  -8.520   5.660  1.00  0.00     0.007 C 
HETATM    4  C8  UNL     1      14.657  -9.576   5.594  1.00  0.00     0.007 C 
HETATM    5  C9  UNL     1      15.024  -9.977   4.154  1.00  0.00     0.007 C 
HETATM    6  C10 UNL     1      16.023 -11.177   4.065  1.00  0.00    -0.018 C 
HETATM    7  C11 UNL     1      17.373 -10.924   4.775  1.00  0.00     0.020 C 
HETATM    8  C12 UNL     1      15.543 -12.526   4.567  1.00  0.00    -0.020 C 
HETATM    9  C13 UNL     1      15.903 -13.520   3.734  1.00  0.00    -0.021 C 
HETATM   10  C14 UNL     1      16.564 -13.011   2.466  1.00  0.00    -0.026 C 
HETATM   11  C15 UNL     1      18.079 -13.219   2.455  1.00  0.00     0.019 C 
HETATM   12  C16 UNL     1      15.962 -13.702   1.231  1.00  0.00     0.019 C 
HETATM   13  C17 UNL     1      16.097 -11.543   2.557  1.00  0.00     0.009 C 
HETATM   14  C18 UNL     1      16.737 -10.447   1.724  1.00  0.00     0.007 C 
HETATM   15  C19 UNL     1      15.838  -9.193   1.802  1.00  0.00     0.011 C 
HETATM   16  C20 UNL     1      15.430  -8.726   3.252  1.00  0.00    -0.021 C 
HETATM   17  C21 UNL     1      16.683  -7.989   3.813  1.00  0.00     0.017 C 
HETATM   18  C22 UNL     1      14.176  -7.710   3.244  1.00  0.00     0.057 C 
HETATM   19  C24 UNL     1      14.429  -6.389   2.422  1.00  0.00     0.023 C 
HETATM   20  C25 UNL     1      14.575  -5.118   3.258  1.00  0.00     0.022 C 
HETATM   21  C26 UNL     1      13.383  -4.861   4.213  1.00  0.00     0.060 C 
HETATM   22  C27 UNL     1      12.315  -3.965   3.588  1.00  0.00     0.081 C 
HETATM   23  C28 UNL     1      12.827  -2.576   3.876  1.00  0.00     0.267 C 
HETATM   24  O4  UNL     1      13.480  -2.662   5.130  1.00  0.00    -0.289 OA
HETATM   25  C29 UNL     1      13.908  -3.944   5.313  1.00  0.00     0.270 C 
HETATM   26  O5  UNL     1      14.649  -4.280   6.224  1.00  0.00    -0.264 OA
ENDROOT
BRANCH   1  27
HETATM   27  C4  UNL     1      12.044  -6.020   6.081  1.00  0.00    -0.018 C 
HETATM   28  C2  UNL     1      12.552  -6.159   7.322  1.00  0.00    -0.091 C 
HETATM   29  C1  UNL     1      11.679  -5.917   8.529  1.00  0.00     0.042 C 
HETATM   30  C3  UNL     1      13.967  -6.534   7.664  1.00  0.00     0.042 C 
ENDBRANCH   1  27
BRANCH  23  31
HETATM   31  O3  UNL     1      11.780  -1.630   3.918  1.00  0.00    -0.371 OA
HETATM   32  H42 UNL     1      11.161  -1.931   4.604  1.00  0.00     0.212 HD
ENDBRANCH  23  31
BRANCH  18  33
HETATM   33  C23 UNL     1      12.984  -8.370   2.490  1.00  0.00     0.149 C 
HETATM   34  O1  UNL     1      12.060  -8.983   3.006  1.00  0.00    -0.649 OA
BRANCH  33  35
HETATM   35  O2  UNL     1      12.989  -8.252   1.157  1.00  0.00    -0.776 OA
HETATM   36  H34 UNL     1      12.160  -8.694   0.873  1.00  0.00     0.167 HD
ENDBRANCH  33  35
ENDBRANCH  18  33
TORSDOF 4
ENDMDL
MODEL 3
REMARK minimizedAffinity -7.09529257
REMARK CNNscore 0.294100434
REMARK CNNaffinity 5.61089134
REMARK  4 active torsions:
REMARK  status: ('A' for Active; 'I' for Inactive)
REMARK    1  A    between atoms: C4_4  and  C5_5 
REMARK    2  A    between atoms: C22_22  and  C23_23 
REMARK    3  A    between atoms: C23_23  and  O2_25 
REMARK    4  A    between atoms: C28_30  and  O3_31 
ROOT
HETATM    1  C5  UNL     1      13.993  -6.114   5.305  1.00  0.00     0.032 C 
HETATM    2  C6  UNL     1      15.336  -5.751   6.009  1.00  0.00     0.014 C 
HETATM    3  C7  UNL     1      15.627  -4.248   6.182  1.00  0.00     0.007 C 
HETATM    4  C8  UNL     1      16.963  -3.981   6.876  1.00  0.00     0.007 C 
HETATM    5  C9  UNL     1      17.143  -4.793   8.172  1.00  0.00     0.007 C 
HETATM    6  C10 UNL     1      18.419  -4.410   8.989  1.00  0.00    -0.018 C 
HETATM    7  C11 UNL     1      19.742  -4.587   8.209  1.00  0.00     0.020 C 
HETATM    8  C12 UNL     1      18.477  -3.013   9.581  1.00  0.00    -0.020 C 
HETATM    9  C13 UNL     1      18.949  -3.029  10.842  1.00  0.00    -0.021 C 
HETATM   10  C14 UNL     1      19.163  -4.436  11.369  1.00  0.00    -0.026 C 
HETATM   11  C15 UNL     1      20.637  -4.842  11.416  1.00  0.00     0.019 C 
HETATM   12  C16 UNL     1      18.566  -4.578  12.779  1.00  0.00     0.019 C 
HETATM   13  C17 UNL     1      18.302  -5.186  10.330  1.00  0.00     0.009 C 
HETATM   14  C18 UNL     1      18.404  -6.689  10.142  1.00  0.00     0.007 C 
HETATM   15  C19 UNL     1      17.202  -7.151   9.288  1.00  0.00     0.011 C 
HETATM   16  C20 UNL     1      16.967  -6.362   7.943  1.00  0.00    -0.021 C 
HETATM   17  C21 UNL     1      18.024  -6.925   6.946  1.00  0.00     0.017 C 
HETATM   18  C22 UNL     1      15.489  -6.598   7.340  1.00  0.00     0.057 C 
HETATM   19  C24 UNL     1      15.164  -8.106   7.015  1.00  0.00     0.023 C 
HETATM   20  C25 UNL     1      15.081  -8.452   5.528  1.00  0.00     0.022 C 
HETATM   21  C26 UNL     1      14.080  -7.570   4.740  1.00  0.00     0.060 C 
HETATM   22  C27 UNL     1      12.690  -8.199   4.654  1.00  0.00     0.081 C 
HETATM   23  C28 UNL     1      12.805  -9.113   3.460  1.00  0.00     0.267 C 
HETATM   24  O4  UNL     1      13.687  -8.461   2.563  1.00  0.00    -0.289 OA
HETATM   25  C29 UNL     1      14.509  -7.641   3.278  1.00  0.00     0.270 C 
HETATM   26  O5  UNL     1      15.481  -7.080   2.796  1.00  0.00    -0.264 OA
ENDROOT
BRANCH   1  27
HETATM   27  C4  UNL     1      13.548  -5.097   4.268  1.00  0.00    -0.018 C 
HETATM   28  C2  UNL     1      14.310  -4.344   3.449  1.00  0.00    -0.091 C 
HETATM   29  C1  UNL     1      13.661  -3.405   2.463  1.00  0.00     0.042 C 
HETATM   30  C3  UNL     1      15.813  -4.338   3.393  1.00  0.00     0.042 C 
ENDBRANCH   1  27
BRANCH  23  31
HETATM   31  O3  UNL     1      11.552  -9.343   2.852  1.00  0.00    -0.371 OA
HETATM   32  H42 UNL     1      11.200  -8.473   2.603  1.00  0.00     0.212 HD
ENDBRANCH  23  31
BRANCH  18  33
HETATM   33  C23 UNL     1      14.427  -6.234   8.419  1.00  0.00     0.149 C 
HETATM   34  O1  UNL     1      13.246  -6.548   8.398  1.00  0.00    -0.649 OA
BRANCH  33  35
HETATM   35  O2  UNL     1      14.863  -5.506   9.455  1.00  0.00    -0.776 OA
HETATM   36  H34 UNL     1      14.074  -5.409  10.029  1.00  0.00     0.167 HD
ENDBRANCH  33  35
ENDBRANCH  18  33
TORSDOF 4
ENDMDL
MODEL 4
REMARK minimizedAffinity -6.12848377
REMARK CNNscore 0.285612494
REMARK CNNaffinity 5.35687113
REMARK  4 active torsions:
REMARK  status: ('A' for Active; 'I' for Inactive)
REMARK    1  A    between atoms: C4_4  and  C5_5 
REMARK    2  A    between atoms: C22_22  and  C23_23 
REMARK    3  A    between atoms: C23_23  and  O2_25 
REMARK    4  A    between atoms: C28_30  and  O3_31 
ROOT
HETATM    1  C5  UNL     1     -12.512  14.043   0.778  1.00  0.00     0.032 C 
HETATM    2  C6  UNL     1     -13.050  13.778  -0.661  1.00  0.00     0.014 C 
HETATM    3  C7  UNL     1     -12.016  13.285  -1.692  1.00  0.00     0.007 C 
HETATM    4  C8  UNL     1     -12.625  13.053  -3.076  1.00  0.00     0.007 C 
HETATM    5  C9  UNL     1     -13.906  12.201  -3.038  1.00  0.00     0.007 C 
HETATM    6  C10 UNL     1     -14.448  11.805  -4.449  1.00  0.00    -0.018 C 
HETATM    7  C11 UNL     1     -14.788  13.013  -5.353  1.00  0.00     0.020 C 
HETATM    8  C12 UNL     1     -13.585  10.889  -5.298  1.00  0.00    -0.020 C 
HETATM    9  C13 UNL     1     -14.320   9.936  -5.901  1.00  0.00    -0.021 C 
HETATM   10  C14 UNL     1     -15.773   9.954  -5.464  1.00  0.00    -0.026 C 
HETATM   11  C15 UNL     1     -16.710  10.545  -6.519  1.00  0.00     0.019 C 
HETATM   12  C16 UNL     1     -16.249   8.533  -5.122  1.00  0.00     0.019 C 
HETATM   13  C17 UNL     1     -15.601  10.799  -4.184  1.00  0.00     0.009 C 
HETATM   14  C18 UNL     1     -16.785  11.443  -3.485  1.00  0.00     0.007 C 
HETATM   15  C19 UNL     1     -16.321  11.920  -2.091  1.00  0.00     0.011 C 
HETATM   16  C20 UNL     1     -15.016  12.803  -2.062  1.00  0.00    -0.021 C 
HETATM   17  C21 UNL     1     -15.472  14.224  -2.510  1.00  0.00     0.017 C 
HETATM   18  C22 UNL     1     -14.364  12.895  -0.589  1.00  0.00     0.057 C 
HETATM   19  C24 UNL     1     -15.324  13.513   0.498  1.00  0.00     0.023 C 
HETATM   20  C25 UNL     1     -14.943  14.909   0.990  1.00  0.00     0.022 C 
HETATM   21  C26 UNL     1     -13.493  15.003   1.529  1.00  0.00     0.060 C 
HETATM   22  C27 UNL     1     -13.416  14.780   3.038  1.00  0.00     0.081 C 
HETATM   23  C28 UNL     1     -13.699  16.151   3.598  1.00  0.00     0.267 C 
HETATM   24  O4  UNL     1     -13.139  17.066   2.673  1.00  0.00    -0.289 OA
HETATM   25  C29 UNL     1     -13.102  16.475   1.444  1.00  0.00     0.270 C 
HETATM   26  O5  UNL     1     -12.827  17.079   0.418  1.00  0.00    -0.264 OA
ENDROOT
BRANCH   1  27
HETATM   27  C4  UNL     1     -11.069  14.513   0.818  1.00  0.00    -0.018 C 
HETATM   28  C2  UNL     1     -10.138  14.288   1.767  1.00  0.00    -0.091 C 
HETATM   29  C1  UNL     1      -8.739  14.828   1.598  1.00  0.00     0.042 C 
HETATM   30  C3  UNL     1     -10.337  13.509   3.037  1.00  0.00     0.042 C 
ENDBRANCH   1  27
BRANCH  23  31
HETATM   31  O3  UNL     1     -13.130  16.323   4.879  1.00  0.00    -0.371 OA
HETATM   32  H42 UNL     1     -12.176  16.167   4.783  1.00  0.00     0.212 HD
ENDBRANCH  23  31
BRANCH  18  33
HETATM   33  C23 UNL     1     -14.103  11.457  -0.050  1.00  0.00     0.149 C 
HETATM   34  O1  UNL     1     -14.908  10.758   0.549  1.00  0.00    -0.649 OA
BRANCH  33  35
HETATM   35  O2  UNL     1     -12.880  10.958  -0.266  1.00  0.00    -0.776 OA
HETATM   36  H34 UNL     1     -12.920  10.053   0.109  1.00  0.00     0.167 HD
ENDBRANCH  33  35
ENDBRANCH  18  33
TORSDOF 4
ENDMDL
MODEL 5
REMARK minimizedAffinity -6.05635357
REMARK CNNscore 0.281695157
REMARK CNNaffinity 5.55639887
REMARK  4 active torsions:
REMARK  status: ('A' for Active; 'I' for Inactive)
REMARK    1  A    between atoms: C4_4  and  C5_5 
REMARK    2  A    between atoms: C22_22  and  C23_23 
REMARK    3  A    between atoms: C23_23  and  O2_25 
REMARK    4  A    between atoms: C28_30  and  O3_31 
ROOT
HETATM    1  C5  UNL     1      15.168  -4.119   4.399  1.00  0.00     0.032 C 
HETATM    2  C6  UNL     1      16.380  -3.907   5.357  1.00  0.00     0.014 C 
HETATM    3  C7  UNL     1      16.467  -2.532   6.047  1.00  0.00     0.007 C 
HETATM    4  C8  UNL     1      17.684  -2.407   6.964  1.00  0.00     0.007 C 
HETATM    5  C9  UNL     1      17.833  -3.592   7.936  1.00  0.00     0.007 C 
HETATM    6  C10 UNL     1      18.964  -3.404   8.998  1.00  0.00    -0.018 C 
HETATM    7  C11 UNL     1      20.370  -3.198   8.388  1.00  0.00     0.020 C 
HETATM    8  C12 UNL     1      18.793  -2.289  10.014  1.00  0.00    -0.020 C 
HETATM    9  C13 UNL     1      19.135  -2.691  11.252  1.00  0.00    -0.021 C 
HETATM   10  C14 UNL     1      19.465  -4.171  11.316  1.00  0.00    -0.026 C 
HETATM   11  C15 UNL     1      20.965  -4.447  11.427  1.00  0.00     0.019 C 
HETATM   12  C16 UNL     1      18.753  -4.829  12.509  1.00  0.00     0.019 C 
HETATM   13  C17 UNL     1      18.810  -4.594   9.984  1.00  0.00     0.009 C 
HETATM   14  C18 UNL     1      19.113  -5.931   9.333  1.00  0.00     0.007 C 
HETATM   15  C19 UNL     1      18.068  -6.175   8.222  1.00  0.00     0.011 C 
HETATM   16  C20 UNL     1      17.873  -5.000   7.188  1.00  0.00    -0.021 C 
HETATM   17  C21 UNL     1      19.084  -5.105   6.214  1.00  0.00     0.017 C 
HETATM   18  C22 UNL     1      16.502  -5.139   6.347  1.00  0.00     0.057 C 
HETATM   19  C24 UNL     1      16.397  -6.469   5.509  1.00  0.00     0.023 C 
HETATM   20  C25 UNL     1      16.506  -6.298   3.994  1.00  0.00     0.022 C 
HETATM   21  C26 UNL     1      15.488  -5.287   3.408  1.00  0.00     0.060 C 
HETATM   22  C27 UNL     1      14.201  -5.962   2.936  1.00  0.00     0.081 C 
HETATM   23  C28 UNL     1      14.545  -6.406   1.536  1.00  0.00     0.267 C 
HETATM   24  O4  UNL     1      15.426  -5.420   1.028  1.00  0.00    -0.289 OA
HETATM   25  C29 UNL     1      16.066  -4.824   2.075  1.00  0.00     0.270 C 
HETATM   26  O5  UNL     1      17.006  -4.056   1.937  1.00  0.00    -0.264 OA
ENDROOT
BRANCH   1  27
HETATM   27  C4  UNL     1      14.708  -2.852   3.700  1.00  0.00    -0.018 C 
HETATM   28  C2  UNL     1      13.452  -2.393   3.533  1.00  0.00    -0.091 C 
HETATM   29  C1  UNL     1      13.213  -1.083   2.824  1.00  0.00     0.042 C 
HETATM   30  C3  UNL     1      12.192  -3.063   4.008  1.00  0.00     0.042 C 
ENDBRANCH   1  27
BRANCH  23  31
HETATM   31  O3  UNL     1      13.396  -6.519   0.724  1.00  0.00    -0.371 OA
HETATM   32  H42 UNL     1      12.967  -5.647   0.727  1.00  0.00     0.212 HD
ENDBRANCH  23  31
BRANCH  18  33
HETATM   33  C23 UNL     1      15.302  -5.249   7.333  1.00  0.00     0.149 C 
HETATM   34  O1  UNL     1      14.900  -4.364   8.076  1.00  0.00    -0.649 OA
BRANCH  33  35
HETATM   35  O2  UNL     1      14.667  -6.427   7.363  1.00  0.00    -0.776 OA
HETATM   36  H34 UNL     1      13.939  -6.291   8.006  1.00  0.00     0.167 HD
ENDBRANCH  33  35
ENDBRANCH  18  33
TORSDOF 4
ENDMDL
MODEL 6
REMARK minimizedAffinity -8.46699333
REMARK CNNscore 0.280510724
REMARK CNNaffinity 5.87326813
REMARK  4 active torsions:
REMARK  status: ('A' for Active; 'I' for Inactive)
REMARK    1  A    between atoms: C4_4  and  C5_5 
REMARK    2  A    between atoms: C22_22  and  C23_23 
REMARK    3  A    between atoms: C23_23  and  O2_25 
REMARK    4  A    between atoms: C28_30  and  O3_31 
ROOT
HETATM    1  C5  UNL     1       0.611   7.184  13.444  1.00  0.00     0.032 C 
HETATM    2  C6  UNL     1       0.483   8.391  14.423  1.00  0.00     0.014 C 
HETATM    3  C7  UNL     1      -0.574   8.252  15.536  1.00  0.00     0.007 C 
HETATM    4  C8  UNL     1      -0.636   9.479  16.448  1.00  0.00     0.007 C 
HETATM    5  C9  UNL     1       0.746   9.918  16.965  1.00  0.00     0.007 C 
HETATM    6  C10 UNL     1       0.691  11.058  18.034  1.00  0.00    -0.018 C 
HETATM    7  C11 UNL     1       0.011  12.354  17.535  1.00  0.00     0.020 C 
HETATM    8  C12 UNL     1       0.035  10.738  19.365  1.00  0.00    -0.020 C 
HETATM    9  C13 UNL     1       0.744  11.231  20.397  1.00  0.00    -0.021 C 
HETATM   10  C14 UNL     1       2.061  11.847  19.961  1.00  0.00    -0.026 C 
HETATM   11  C15 UNL     1       2.044  13.376  19.979  1.00  0.00     0.019 C 
HETATM   12  C16 UNL     1       3.208  11.356  20.859  1.00  0.00     0.019 C 
HETATM   13  C17 UNL     1       2.146  11.202  18.561  1.00  0.00     0.009 C 
HETATM   14  C18 UNL     1       3.100  11.717  17.499  1.00  0.00     0.007 C 
HETATM   15  C19 UNL     1       3.172  10.670  16.366  1.00  0.00     0.011 C 
HETATM   16  C20 UNL     1       1.788  10.183  15.787  1.00  0.00    -0.021 C 
HETATM   17  C21 UNL     1       1.314  11.326  14.840  1.00  0.00     0.017 C 
HETATM   18  C22 UNL     1       1.919   8.815  14.942  1.00  0.00     0.057 C 
HETATM   19  C24 UNL     1       2.889   8.917  13.704  1.00  0.00     0.023 C 
HETATM   20  C25 UNL     1       2.209   8.892  12.336  1.00  0.00     0.022 C 
HETATM   21  C26 UNL     1       1.294   7.661  12.120  1.00  0.00     0.060 C 
HETATM   22  C27 UNL     1       2.023   6.502  11.442  1.00  0.00     0.081 C 
HETATM   23  C28 UNL     1       1.899   6.835   9.976  1.00  0.00     0.267 C 
HETATM   24  O4  UNL     1       0.642   7.472   9.834  1.00  0.00    -0.289 OA
HETATM   25  C29 UNL     1       0.308   8.050  11.023  1.00  0.00     0.270 C 
HETATM   26  O5  UNL     1      -0.639   8.811  11.156  1.00  0.00    -0.264 OA
ENDROOT
BRANCH   1  27
HETATM   27  C4  UNL     1      -0.693   6.442  13.210  1.00  0.00    -0.018 C 
HETATM   28  C2  UNL     1      -1.945   6.940  13.152  1.00  0.00    -0.091 C 
HETATM   29  C1  UNL     1      -3.112   6.024  12.880  1.00  0.00     0.042 C 
HETATM   30  C3  UNL     1      -2.334   8.382  13.325  1.00  0.00     0.042 C 
ENDBRANCH   1  27
BRANCH  23  31
HETATM   31  O3  UNL     1       1.971   5.680   9.168  1.00  0.00    -0.371 OA
HETATM   32  H42 UNL     1       1.257   5.090   9.461  1.00  0.00     0.212 HD
ENDBRANCH  23  31
BRANCH  18  33
HETATM   33  C23 UNL     1       2.593   7.725  15.828  1.00  0.00     0.149 C 
HETATM   34  O1  UNL     1       3.780   7.429  15.822  1.00  0.00    -0.649 OA
BRANCH  33  35
HETATM   35  O2  UNL     1       1.785   7.058  16.660  1.00  0.00    -0.776 OA
HETATM   36  H34 UNL     1       2.386   6.452  17.144  1.00  0.00     0.167 HD
ENDBRANCH  33  35
ENDBRANCH  18  33
TORSDOF 4
ENDMDL
MODEL 7
REMARK minimizedAffinity -6.19511843
REMARK CNNscore 0.249405101
REMARK CNNaffinity 5.50103235
REMARK  4 active torsions:
REMARK  status: ('A' for Active; 'I' for Inactive)
REMARK    1  A    between atoms: C4_4  and  C5_5 
REMARK    2  A    between atoms: C22_22  and  C23_23 
REMARK    3  A    between atoms: C23_23  and  O2_25 
REMARK    4  A    between atoms: C28_30  and  O3_31 
ROOT
HETATM    1  C5  UNL     1     -17.462  -4.398  14.631  1.00  0.00     0.032 C 
HETATM    2  C6  UNL     1     -16.674  -4.905  13.385  1.00  0.00     0.014 C 
HETATM    3  C7  UNL     1     -17.377  -5.975  12.528  1.00  0.00     0.007 C 
HETATM    4  C8  UNL     1     -16.535  -6.419  11.330  1.00  0.00     0.007 C 
HETATM    5  C9  UNL     1     -15.984  -5.239  10.508  1.00  0.00     0.007 C 
HETATM    6  C10 UNL     1     -15.270  -5.666   9.185  1.00  0.00    -0.018 C 
HETATM    7  C11 UNL     1     -14.066  -6.612   9.398  1.00  0.00     0.020 C 
HETATM    8  C12 UNL     1     -16.120  -6.320   8.111  1.00  0.00    -0.020 C 
HETATM    9  C13 UNL     1     -15.824  -5.843   6.888  1.00  0.00    -0.021 C 
HETATM   10  C14 UNL     1     -14.831  -4.697   6.931  1.00  0.00    -0.026 C 
HETATM   11  C15 UNL     1     -13.425  -5.104   6.489  1.00  0.00     0.019 C 
HETATM   12  C16 UNL     1     -15.310  -3.536   6.043  1.00  0.00     0.019 C 
HETATM   13  C17 UNL     1     -14.979  -4.342   8.425  1.00  0.00     0.009 C 
HETATM   14  C18 UNL     1     -13.966  -3.470   9.145  1.00  0.00     0.007 C 
HETATM   15  C19 UNL     1     -14.571  -3.046  10.502  1.00  0.00     0.011 C 
HETATM   16  C20 UNL     1     -15.148  -4.210  11.395  1.00  0.00    -0.021 C 
HETATM   17  C21 UNL     1     -13.902  -4.884  12.045  1.00  0.00     0.017 C 
HETATM   18  C22 UNL     1     -16.126  -3.669  12.559  1.00  0.00     0.057 C 
HETATM   19  C24 UNL     1     -15.437  -2.663  13.558  1.00  0.00     0.023 C 
HETATM   20  C25 UNL     1     -15.189  -3.206  14.964  1.00  0.00     0.022 C 
HETATM   21  C26 UNL     1     -16.463  -3.758  15.651  1.00  0.00     0.060 C 
HETATM   22  C27 UNL     1     -17.167  -2.707  16.508  1.00  0.00     0.081 C 
HETATM   23  C28 UNL     1     -16.435  -2.797  17.824  1.00  0.00     0.267 C 
HETATM   24  O4  UNL     1     -16.079  -4.159  17.971  1.00  0.00    -0.289 OA
HETATM   25  C29 UNL     1     -15.982  -4.721  16.731  1.00  0.00     0.270 C 
HETATM   26  O5  UNL     1     -15.527  -5.838  16.535  1.00  0.00    -0.264 OA
ENDROOT
BRANCH   1  27
HETATM   27  C4  UNL     1     -18.364  -5.448  15.257  1.00  0.00    -0.018 C 
HETATM   28  C2  UNL     1     -18.169  -6.779  15.345  1.00  0.00    -0.091 C 
HETATM   29  C1  UNL     1     -19.187  -7.649  16.039  1.00  0.00     0.042 C 
HETATM   30  C3  UNL     1     -16.984  -7.538  14.814  1.00  0.00     0.042 C 
ENDBRANCH   1  27
BRANCH  23  31
HETATM   31  O3  UNL     1     -17.240  -2.369  18.902  1.00  0.00    -0.371 OA
HETATM   32  H42 UNL     1     -18.034  -2.931  18.896  1.00  0.00     0.212 HD
ENDBRANCH  23  31
BRANCH  18  33
HETATM   33  C23 UNL     1     -17.259  -2.811  11.921  1.00  0.00     0.149 C 
HETATM   34  O1  UNL     1     -17.296  -1.590  11.877  1.00  0.00    -0.649 OA
BRANCH  33  35
HETATM   35  O2  UNL     1     -18.281  -3.488  11.384  1.00  0.00    -0.776 OA
HETATM   36  H34 UNL     1     -18.863  -2.790  11.013  1.00  0.00     0.167 HD
ENDBRANCH  33  35
ENDBRANCH  18  33
TORSDOF 4
ENDMDL
MODEL 8
REMARK minimizedAffinity -7.4978652
REMARK CNNscore 0.233076677
REMARK CNNaffinity 5.62898445
REMARK  4 active torsions:
REMARK  status: ('A' for Active; 'I' for Inactive)
REMARK    1  A    between atoms: C4_4  and  C5_5 
REMARK    2  A    between atoms: C22_22  and  C23_23 
REMARK    3  A    between atoms: C23_23  and  O2_25 
REMARK    4  A    between atoms: C28_30  and  O3_31 
ROOT
HETATM    1  C5  UNL     1      -2.774   8.589  14.347  1.00  0.00     0.032 C 
HETATM    2  C6  UNL     1      -2.002   9.195  15.558  1.00  0.00     0.014 C 
HETATM    3  C7  UNL     1      -0.465   9.188  15.455  1.00  0.00     0.007 C 
HETATM    4  C8  UNL     1       0.213   9.796  16.684  1.00  0.00     0.007 C 
HETATM    5  C9  UNL     1      -0.368  11.166  17.079  1.00  0.00     0.007 C 
HETATM    6  C10 UNL     1       0.421  11.885  18.221  1.00  0.00    -0.018 C 
HETATM    7  C11 UNL     1       0.494  11.078  19.538  1.00  0.00     0.020 C 
HETATM    8  C12 UNL     1       1.846  12.314  17.924  1.00  0.00    -0.020 C 
HETATM    9  C13 UNL     1       2.099  13.549  18.395  1.00  0.00    -0.021 C 
HETATM   10  C14 UNL     1       0.865  14.221  18.968  1.00  0.00    -0.026 C 
HETATM   11  C15 UNL     1       0.855  14.256  20.497  1.00  0.00     0.019 C 
HETATM   12  C16 UNL     1       0.743  15.660  18.440  1.00  0.00     0.019 C 
HETATM   13  C17 UNL     1      -0.196  13.307  18.319  1.00  0.00     0.009 C 
HETATM   14  C18 UNL     1      -1.635  13.284  18.802  1.00  0.00     0.007 C 
HETATM   15  C19 UNL     1      -2.485  12.535  17.752  1.00  0.00     0.011 C 
HETATM   16  C20 UNL     1      -1.946  11.121  17.309  1.00  0.00    -0.021 C 
HETATM   17  C21 UNL     1      -2.336  10.152  18.466  1.00  0.00     0.017 C 
HETATM   18  C22 UNL     1      -2.620  10.605  15.936  1.00  0.00     0.057 C 
HETATM   19  C24 UNL     1      -4.188  10.464  16.006  1.00  0.00     0.023 C 
HETATM   20  C25 UNL     1      -4.716   9.030  16.002  1.00  0.00     0.022 C 
HETATM   21  C26 UNL     1      -4.217   8.188  14.800  1.00  0.00     0.060 C 
HETATM   22  C27 UNL     1      -5.184   8.227  13.618  1.00  0.00     0.081 C 
HETATM   23  C28 UNL     1      -6.173   7.138  13.953  1.00  0.00     0.267 C 
HETATM   24  O4  UNL     1      -5.429   6.141  14.630  1.00  0.00    -0.289 OA
HETATM   25  C29 UNL     1      -4.348   6.727  15.220  1.00  0.00     0.270 C 
HETATM   26  O5  UNL     1      -3.619   6.148  16.011  1.00  0.00    -0.264 OA
ENDROOT
BRANCH   1  27
HETATM   27  C4  UNL     1      -2.033   7.464  13.647  1.00  0.00    -0.018 C 
HETATM   28  C2  UNL     1      -1.329   7.508  12.498  1.00  0.00    -0.091 C 
HETATM   29  C1  UNL     1      -0.639   6.268  11.985  1.00  0.00     0.042 C 
HETATM   30  C3  UNL     1      -1.128   8.717  11.627  1.00  0.00     0.042 C 
ENDBRANCH   1  27
BRANCH  23  31
HETATM   31  O3  UNL     1      -6.784   6.610  12.795  1.00  0.00    -0.371 OA
HETATM   32  H42 UNL     1      -6.067   6.279  12.229  1.00  0.00     0.212 HD
ENDBRANCH  23  31
BRANCH  18  33
HETATM   33  C23 UNL     1      -2.412  11.678  14.826  1.00  0.00     0.149 C 
HETATM   34  O1  UNL     1      -3.021  12.734  14.727  1.00  0.00    -0.649 OA
BRANCH  33  35
HETATM   35  O2  UNL     1      -1.484  11.401  13.902  1.00  0.00    -0.776 OA
HETATM   36  H34 UNL     1      -1.479  12.193  13.322  1.00  0.00     0.167 HD
ENDBRANCH  33  35
ENDBRANCH  18  33
TORSDOF 4
ENDMDL
MODEL 9
REMARK minimizedAffinity -6.57473278
REMARK CNNscore 0.227645367
REMARK CNNaffinity 5.41198587
REMARK  4 active torsions:
REMARK  status: ('A' for Active; 'I' for Inactive)
REMARK    1  A    between atoms: C4_4  and  C5_5 
REMARK    2  A    between atoms: C22_22  and  C23_23 
REMARK    3  A    between atoms: C23_23  and  O2_25 
REMARK    4  A    between atoms: C28_30  and  O3_31 
ROOT
HETATM    1  C5  UNL     1      14.808  -7.099   4.516  1.00  0.00     0.032 C 
HETATM    2  C6  UNL     1      15.946  -6.889   5.561  1.00  0.00     0.014 C 
HETATM    3  C7  UNL     1      17.238  -6.236   5.034  1.00  0.00     0.007 C 
HETATM    4  C8  UNL     1      18.302  -6.071   6.121  1.00  0.00     0.007 C 
HETATM    5  C9  UNL     1      17.760  -5.411   7.403  1.00  0.00     0.007 C 
HETATM    6  C10 UNL     1      18.862  -5.073   8.458  1.00  0.00    -0.018 C 
HETATM    7  C11 UNL     1      19.667  -6.302   8.941  1.00  0.00     0.020 C 
HETATM    8  C12 UNL     1      19.897  -4.029   8.080  1.00  0.00    -0.020 C 
HETATM    9  C13 UNL     1      20.138  -3.181   9.096  1.00  0.00    -0.021 C 
HETATM   10  C14 UNL     1      19.221  -3.414  10.283  1.00  0.00    -0.026 C 
HETATM   11  C15 UNL     1      19.918  -4.115  11.451  1.00  0.00     0.019 C 
HETATM   12  C16 UNL     1      18.640  -2.081  10.782  1.00  0.00     0.019 C 
HETATM   13  C17 UNL     1      18.142  -4.247   9.559  1.00  0.00     0.009 C 
HETATM   14  C18 UNL     1      17.117  -5.065  10.323  1.00  0.00     0.007 C 
HETATM   15  C19 UNL     1      16.009  -5.494   9.336  1.00  0.00     0.011 C 
HETATM   16  C20 UNL     1      16.499  -6.182   8.004  1.00  0.00    -0.021 C 
HETATM   17  C21 UNL     1      16.852  -7.646   8.405  1.00  0.00     0.017 C 
HETATM   18  C22 UNL     1      15.358  -6.205   6.864  1.00  0.00     0.057 C 
HETATM   19  C24 UNL     1      14.047  -6.972   7.286  1.00  0.00     0.023 C 
HETATM   20  C25 UNL     1      13.815  -8.307   6.579  1.00  0.00     0.022 C 
HETATM   21  C26 UNL     1      13.826  -8.202   5.033  1.00  0.00     0.060 C 
HETATM   22  C27 UNL     1      12.428  -7.995   4.451  1.00  0.00     0.081 C 
HETATM   23  C28 UNL     1      11.897  -9.402   4.338  1.00  0.00     0.267 C 
HETATM   24  O4  UNL     1      13.019 -10.211   4.034  1.00  0.00    -0.289 OA
HETATM   25  C29 UNL     1      14.141  -9.601   4.513  1.00  0.00     0.270 C 
HETATM   26  O5  UNL     1      15.236 -10.142   4.548  1.00  0.00    -0.264 OA
ENDROOT
BRANCH   1  27
HETATM   27  C4  UNL     1      15.308  -7.358   3.106  1.00  0.00    -0.018 C 
HETATM   28  C2  UNL     1      14.915  -6.777   1.955  1.00  0.00    -0.091 C 
HETATM   29  C1  UNL     1      15.568  -7.164   0.650  1.00  0.00     0.042 C 
HETATM   30  C3  UNL     1      13.854  -5.721   1.811  1.00  0.00     0.042 C 
ENDBRANCH   1  27
BRANCH  23  31
HETATM   31  O3  UNL     1      10.912  -9.512   3.334  1.00  0.00    -0.371 OA
HETATM   32  H42 UNL     1      11.326  -9.220   2.505  1.00  0.00     0.212 HD
ENDBRANCH  23  31
BRANCH  18  33
HETATM   33  C23 UNL     1      14.851  -4.753   6.614  1.00  0.00     0.149 C 
HETATM   34  O1  UNL     1      15.543  -3.795   6.301  1.00  0.00    -0.649 OA
BRANCH  33  35
HETATM   35  O2  UNL     1      13.536  -4.552   6.767  1.00  0.00    -0.776 OA
HETATM   36  H34 UNL     1      13.410  -3.606   6.540  1.00  0.00     0.167 HD
ENDBRANCH  33  35
ENDBRANCH  18  33
TORSDOF 4
ENDMDL
