MODEL 1
REMARK minimizedAffinity -10.2107315
REMARK CNNscore 0.72233212
REMARK CNNaffinity 7.51488352
REMARK  9 active torsions:
REMARK  status: ('A' for Active; 'I' for Inactive)
REMARK    1  A    between atoms: C4_4  and  C5_5 
REMARK    2  A    between atoms: C5_5  and  C6_6 
REMARK    3  A    between atoms: C6_6  and  C7_7 
REMARK    4  A    between atoms: C13_14  and  O2_15 
REMARK    5  A    between atoms: C14_16  and  C15_17 
REMARK    6  A    between atoms: C15_17  and  C16_18 
REMARK    7  A    between atoms: C22_25  and  C23_26 
REMARK    8  A    between atoms: C25_28  and  O4_29 
REMARK    9  A    between atoms: C27_31  and  O5_32 
ROOT
HETATM    1  C7  UNL     1       1.675   7.631  11.957  1.00  0.00     0.082 A 
HETATM    2  C8  UNL     1       2.878   7.435  12.890  1.00  0.00     0.051 C 
HETATM    3  C9  UNL     1       1.116   6.258  11.617  1.00  0.00     0.012 A 
HETATM    4  C10 UNL     1      -0.143   5.888  11.866  1.00  0.00     0.016 A 
HETATM    5  C11 UNL     1      -0.996   6.869  12.497  1.00  0.00     0.035 A 
HETATM    6  C12 UNL     1      -0.522   8.123  12.862  1.00  0.00     0.117 A 
HETATM    7  O1  UNL     1       0.773   8.522  12.654  1.00  0.00    -0.333 OA
HETATM    8  C13 UNL     1      -1.369   9.048  13.483  1.00  0.00     0.107 A 
HETATM    9  C14 UNL     1      -2.724   8.774  13.771  1.00  0.00    -0.006 A 
HETATM   10  C20 UNL     1      -3.202   7.497  13.382  1.00  0.00     0.011 A 
HETATM   11  C21 UNL     1      -2.337   6.595  12.768  1.00  0.00     0.100 A 
HETATM   12  O3  UNL     1      -2.994   5.433  12.483  1.00  0.00    -0.308 OA
HETATM   13  C22 UNL     1      -4.288   5.572  12.900  1.00  0.00     0.087 A 
HETATM   14  C29 UNL     1      -4.456   6.825  13.456  1.00  0.00     0.053 A 
ENDROOT
BRANCH  13  15
HETATM   15  C23 UNL     1      -5.167   4.426  12.677  1.00  0.00     0.003 A 
HETATM   16  C24 UNL     1      -6.484   4.435  13.160  1.00  0.00     0.051 A 
HETATM   17  C25 UNL     1      -7.323   3.342  12.947  1.00  0.00     0.069 A 
HETATM   18  C26 UNL     1      -6.880   2.224  12.256  1.00  0.00     0.073 A 
HETATM   19  C27 UNL     1      -5.577   2.209  11.776  1.00  0.00     0.069 A 
HETATM   20  C28 UNL     1      -4.721   3.292  11.978  1.00  0.00     0.051 A 
BRANCH  17  21
HETATM   21  O4  UNL     1      -8.593   3.414  13.442  1.00  0.00    -0.361 OA
HETATM   22  H28 UNL     1      -9.059   2.592  13.215  1.00  0.00     0.217 HD
ENDBRANCH  17  21
BRANCH  19  23
HETATM   23  O5  UNL     1      -5.166   1.097  11.099  1.00  0.00    -0.361 OA
HETATM   24  H30 UNL     1      -4.242   1.225  10.824  1.00  0.00     0.217 HD
ENDBRANCH  19  23
ENDBRANCH  13  15
BRANCH   9  25
HETATM   25  C15 UNL     1      -3.606   9.812  14.427  1.00  0.00     0.070 C 
BRANCH  25  26
HETATM   26  C16 UNL     1      -3.547   9.733  15.929  1.00  0.00    -0.020 C 
HETATM   27  C17 UNL     1      -3.257  10.706  16.815  1.00  0.00    -0.091 C 
HETATM   28  C18 UNL     1      -2.922  12.130  16.474  1.00  0.00     0.042 C 
HETATM   29  C19 UNL     1      -3.247  10.410  18.293  1.00  0.00     0.042 C 
ENDBRANCH  25  26
ENDBRANCH   9  25
BRANCH   8  30
HETATM   30  O2  UNL     1      -0.855  10.277  13.823  1.00  0.00    -0.357 OA
HETATM   31  H17 UNL     1       0.080  10.254  13.542  1.00  0.00     0.217 HD
ENDBRANCH   8  30
BRANCH   1  32
HETATM   32  C6  UNL     1       2.087   8.323  10.634  1.00  0.00     0.046 C 
BRANCH  32  33
HETATM   33  C5  UNL     1       3.308   7.703   9.943  1.00  0.00     0.030 C 
BRANCH  33  34
HETATM   34  C4  UNL     1       3.016   7.417   8.495  1.00  0.00    -0.025 C 
HETATM   35  C2  UNL     1       1.860   7.619   7.833  1.00  0.00    -0.091 C 
HETATM   36  C1  UNL     1       0.618   8.228   8.425  1.00  0.00     0.042 C 
HETATM   37  C3  UNL     1       1.732   7.241   6.380  1.00  0.00     0.042 C 
ENDBRANCH  33  34
ENDBRANCH  32  33
ENDBRANCH   1  32
TORSDOF 9
ENDMDL
MODEL 2
REMARK minimizedAffinity -10.2728987
REMARK CNNscore 0.70036149
REMARK CNNaffinity 7.41483116
REMARK  9 active torsions:
REMARK  status: ('A' for Active; 'I' for Inactive)
REMARK    1  A    between atoms: C4_4  and  C5_5 
REMARK    2  A    between atoms: C5_5  and  C6_6 
REMARK    3  A    between atoms: C6_6  and  C7_7 
REMARK    4  A    between atoms: C13_14  and  O2_15 
REMARK    5  A    between atoms: C14_16  and  C15_17 
REMARK    6  A    between atoms: C15_17  and  C16_18 
REMARK    7  A    between atoms: C22_25  and  C23_26 
REMARK    8  A    between atoms: C25_28  and  O4_29 
REMARK    9  A    between atoms: C27_31  and  O5_32 
ROOT
HETATM    1  C7  UNL     1       1.730   7.620  11.991  1.00  0.00     0.082 A 
HETATM    2  C8  UNL     1       2.937   7.382  12.910  1.00  0.00     0.051 C 
HETATM    3  C9  UNL     1       1.138   6.266  11.633  1.00  0.00     0.012 A 
HETATM    4  C10 UNL     1      -0.127   5.919  11.888  1.00  0.00     0.016 A 
HETATM    5  C11 UNL     1      -0.952   6.907  12.544  1.00  0.00     0.035 A 
HETATM    6  C12 UNL     1      -0.447   8.144  12.926  1.00  0.00     0.117 A 
HETATM    7  O1  UNL     1       0.854   8.519  12.712  1.00  0.00    -0.333 OA
HETATM    8  C13 UNL     1      -1.268   9.077  13.570  1.00  0.00     0.107 A 
HETATM    9  C14 UNL     1      -2.626   8.828  13.867  1.00  0.00    -0.006 A 
HETATM   10  C20 UNL     1      -3.135   7.568  13.461  1.00  0.00     0.011 A 
HETATM   11  C21 UNL     1      -2.296   6.658  12.824  1.00  0.00     0.100 A 
HETATM   12  O3  UNL     1      -2.981   5.516  12.525  1.00  0.00    -0.308 OA
HETATM   13  C22 UNL     1      -4.268   5.676  12.956  1.00  0.00     0.087 A 
HETATM   14  C29 UNL     1      -4.403   6.922  13.536  1.00  0.00     0.053 A 
ENDROOT
BRANCH  13  15
HETATM   15  C23 UNL     1      -5.174   4.553  12.723  1.00  0.00     0.003 A 
HETATM   16  C24 UNL     1      -4.743   3.428  12.004  1.00  0.00     0.051 A 
HETATM   17  C25 UNL     1      -5.607   2.357  11.782  1.00  0.00     0.069 A 
HETATM   18  C26 UNL     1      -6.909   2.376  12.263  1.00  0.00     0.073 A 
HETATM   19  C27 UNL     1      -7.341   3.486  12.976  1.00  0.00     0.069 A 
HETATM   20  C28 UNL     1      -6.492   4.569  13.209  1.00  0.00     0.051 A 
BRANCH  17  21
HETATM   21  O4  UNL     1      -5.127   1.293  11.076  1.00  0.00    -0.361 OA
HETATM   22  H28 UNL     1      -5.831   0.626  11.005  1.00  0.00     0.217 HD
ENDBRANCH  17  21
BRANCH  19  23
HETATM   23  O5  UNL     1      -8.625   3.480  13.439  1.00  0.00    -0.361 OA
HETATM   24  H30 UNL     1      -8.788   4.312  13.915  1.00  0.00     0.217 HD
ENDBRANCH  19  23
ENDBRANCH  13  15
BRANCH   9  25
HETATM   25  C15 UNL     1      -3.479   9.873  14.549  1.00  0.00     0.070 C 
BRANCH  25  26
HETATM   26  C16 UNL     1      -3.336   9.825  16.047  1.00  0.00    -0.020 C 
HETATM   27  C17 UNL     1      -3.657  10.767  16.956  1.00  0.00    -0.091 C 
HETATM   28  C18 UNL     1      -4.251  12.114  16.650  1.00  0.00     0.042 C 
HETATM   29  C19 UNL     1      -3.426  10.517  18.425  1.00  0.00     0.042 C 
ENDBRANCH  25  26
ENDBRANCH   9  25
BRANCH   8  30
HETATM   30  O2  UNL     1      -0.724  10.288  13.927  1.00  0.00    -0.357 OA
HETATM   31  H17 UNL     1       0.208  10.250  13.637  1.00  0.00     0.217 HD
ENDBRANCH   8  30
BRANCH   1  32
HETATM   32  C6  UNL     1       2.144   8.326  10.677  1.00  0.00     0.046 C 
BRANCH  32  33
HETATM   33  C5  UNL     1       3.363   7.709   9.979  1.00  0.00     0.030 C 
BRANCH  33  34
HETATM   34  C4  UNL     1       3.044   7.364   8.549  1.00  0.00    -0.025 C 
HETATM   35  C2  UNL     1       1.897   7.598   7.883  1.00  0.00    -0.091 C 
HETATM   36  C1  UNL     1       0.697   8.309   8.447  1.00  0.00     0.042 C 
HETATM   37  C3  UNL     1       1.735   7.151   6.453  1.00  0.00     0.042 C 
ENDBRANCH  33  34
ENDBRANCH  32  33
ENDBRANCH   1  32
TORSDOF 9
ENDMDL
MODEL 3
REMARK minimizedAffinity -9.29116917
REMARK CNNscore 0.636360586
REMARK CNNaffinity 6.74231672
REMARK  9 active torsions:
REMARK  status: ('A' for Active; 'I' for Inactive)
REMARK    1  A    between atoms: C4_4  and  C5_5 
REMARK    2  A    between atoms: C5_5  and  C6_6 
REMARK    3  A    between atoms: C6_6  and  C7_7 
REMARK    4  A    between atoms: C13_14  and  O2_15 
REMARK    5  A    between atoms: C14_16  and  C15_17 
REMARK    6  A    between atoms: C15_17  and  C16_18 
REMARK    7  A    between atoms: C22_25  and  C23_26 
REMARK    8  A    between atoms: C25_28  and  O4_29 
REMARK    9  A    between atoms: C27_31  and  O5_32 
ROOT
HETATM    1  C7  UNL     1      -3.485  10.942  16.011  1.00  0.00     0.082 A 
HETATM    2  C8  UNL     1      -3.877  12.341  15.516  1.00  0.00     0.051 C 
HETATM    3  C9  UNL     1      -4.726  10.065  15.971  1.00  0.00     0.012 A 
HETATM    4  C10 UNL     1      -4.811   8.930  15.272  1.00  0.00     0.016 A 
HETATM    5  C11 UNL     1      -3.639   8.542  14.520  1.00  0.00     0.035 A 
HETATM    6  C12 UNL     1      -2.495   9.329  14.493  1.00  0.00     0.117 A 
HETATM    7  O1  UNL     1      -2.387  10.516  15.169  1.00  0.00    -0.333 OA
HETATM    8  C13 UNL     1      -1.379   8.933  13.744  1.00  0.00     0.107 A 
HETATM    9  C14 UNL     1      -1.347   7.741  12.989  1.00  0.00    -0.006 A 
HETATM   10  C20 UNL     1      -2.515   6.938  13.034  1.00  0.00     0.011 A 
HETATM   11  C21 UNL     1      -3.610   7.357  13.784  1.00  0.00     0.100 A 
HETATM   12  O3  UNL     1      -4.622   6.446  13.687  1.00  0.00    -0.308 OA
HETATM   13  C22 UNL     1      -4.193   5.428  12.883  1.00  0.00     0.087 A 
HETATM   14  C29 UNL     1      -2.904   5.692  12.462  1.00  0.00     0.053 A 
ENDROOT
BRANCH  13  15
HETATM   15  C23 UNL     1      -5.139   4.338  12.655  1.00  0.00     0.003 A 
HETATM   16  C24 UNL     1      -6.442   4.408  13.170  1.00  0.00     0.051 A 
HETATM   17  C25 UNL     1      -7.345   3.369  12.952  1.00  0.00     0.069 A 
HETATM   18  C26 UNL     1      -6.981   2.245  12.224  1.00  0.00     0.073 A 
HETATM   19  C27 UNL     1      -5.693   2.170  11.711  1.00  0.00     0.069 A 
HETATM   20  C28 UNL     1      -4.774   3.199  11.918  1.00  0.00     0.051 A 
BRANCH  17  21
HETATM   21  O4  UNL     1      -8.597   3.497  13.479  1.00  0.00    -0.361 OA
HETATM   22  H28 UNL     1      -9.114   2.708  13.244  1.00  0.00     0.217 HD
ENDBRANCH  17  21
BRANCH  19  23
HETATM   23  O5  UNL     1      -5.360   1.055  10.998  1.00  0.00    -0.361 OA
HETATM   24  H30 UNL     1      -4.437   1.139  10.703  1.00  0.00     0.217 HD
ENDBRANCH  19  23
ENDBRANCH  13  15
BRANCH   9  25
HETATM   25  C15 UNL     1      -0.113   7.346  12.210  1.00  0.00     0.070 C 
BRANCH  25  26
HETATM   26  C16 UNL     1      -0.204   7.757  10.765  1.00  0.00    -0.020 C 
HETATM   27  C17 UNL     1       0.788   7.900   9.863  1.00  0.00    -0.091 C 
HETATM   28  C18 UNL     1       2.250   7.665  10.125  1.00  0.00     0.042 C 
HETATM   29  C19 UNL     1       0.478   8.331   8.453  1.00  0.00     0.042 C 
ENDBRANCH  25  26
ENDBRANCH   9  25
BRANCH   8  30
HETATM   30  O2  UNL     1      -0.269   9.744  13.750  1.00  0.00    -0.357 OA
HETATM   31  H17 UNL     1      -0.503  10.500  14.322  1.00  0.00     0.217 HD
ENDBRANCH   8  30
BRANCH   1  32
HETATM   32  C6  UNL     1      -2.968  10.978  17.470  1.00  0.00     0.046 C 
BRANCH  32  33
HETATM   33  C5  UNL     1      -3.038  12.357  18.137  1.00  0.00     0.030 C 
BRANCH  33  34
HETATM   34  C4  UNL     1      -4.108  12.387  19.194  1.00  0.00    -0.025 C 
HETATM   35  C2  UNL     1      -4.692  13.471  19.742  1.00  0.00    -0.091 C 
HETATM   36  C1  UNL     1      -4.407  14.897  19.357  1.00  0.00     0.042 C 
HETATM   37  C3  UNL     1      -5.731  13.318  20.823  1.00  0.00     0.042 C 
ENDBRANCH  33  34
ENDBRANCH  32  33
ENDBRANCH   1  32
TORSDOF 9
ENDMDL
MODEL 4
REMARK minimizedAffinity -9.58964348
REMARK CNNscore 0.570607364
REMARK CNNaffinity 6.67671061
REMARK  9 active torsions:
REMARK  status: ('A' for Active; 'I' for Inactive)
REMARK    1  A    between atoms: C4_4  and  C5_5 
REMARK    2  A    between atoms: C5_5  and  C6_6 
REMARK    3  A    between atoms: C6_6  and  C7_7 
REMARK    4  A    between atoms: C13_14  and  O2_15 
REMARK    5  A    between atoms: C14_16  and  C15_17 
REMARK    6  A    between atoms: C15_17  and  C16_18 
REMARK    7  A    between atoms: C22_25  and  C23_26 
REMARK    8  A    between atoms: C25_28  and  O4_29 
REMARK    9  A    between atoms: C27_31  and  O5_32 
ROOT
HETATM    1  C7  UNL     1      -3.255  10.729  16.508  1.00  0.00     0.082 A 
HETATM    2  C8  UNL     1      -3.636  12.165  16.123  1.00  0.00     0.051 C 
HETATM    3  C9  UNL     1      -4.510   9.875  16.437  1.00  0.00     0.012 A 
HETATM    4  C10 UNL     1      -4.629   8.793  15.662  1.00  0.00     0.016 A 
HETATM    5  C11 UNL     1      -3.481   8.444  14.855  1.00  0.00     0.035 A 
HETATM    6  C12 UNL     1      -2.326   9.214  14.856  1.00  0.00     0.117 A 
HETATM    7  O1  UNL     1      -2.184  10.349  15.612  1.00  0.00    -0.333 OA
HETATM    8  C13 UNL     1      -1.234   8.857  14.055  1.00  0.00     0.107 A 
HETATM    9  C14 UNL     1      -1.238   7.721  13.217  1.00  0.00    -0.006 A 
HETATM   10  C20 UNL     1      -2.418   6.933  13.233  1.00  0.00     0.011 A 
HETATM   11  C21 UNL     1      -3.489   7.313  14.038  1.00  0.00     0.100 A 
HETATM   12  O3  UNL     1      -4.517   6.426  13.901  1.00  0.00    -0.308 OA
HETATM   13  C22 UNL     1      -4.122   5.462  13.017  1.00  0.00     0.087 A 
HETATM   14  C29 UNL     1      -2.840   5.737  12.585  1.00  0.00     0.053 A 
ENDROOT
BRANCH  13  15
HETATM   15  C23 UNL     1      -5.091   4.405  12.736  1.00  0.00     0.003 A 
HETATM   16  C24 UNL     1      -6.386   4.465  13.271  1.00  0.00     0.051 A 
HETATM   17  C25 UNL     1      -7.311   3.457  13.002  1.00  0.00     0.069 A 
HETATM   18  C26 UNL     1      -6.975   2.374  12.202  1.00  0.00     0.073 A 
HETATM   19  C27 UNL     1      -5.696   2.309  11.669  1.00  0.00     0.069 A 
HETATM   20  C28 UNL     1      -4.755   3.306  11.925  1.00  0.00     0.051 A 
BRANCH  17  21
HETATM   21  O4  UNL     1      -8.553   3.575  13.553  1.00  0.00    -0.361 OA
HETATM   22  H28 UNL     1      -9.087   2.810  13.277  1.00  0.00     0.217 HD
ENDBRANCH  17  21
BRANCH  19  23
HETATM   23  O5  UNL     1      -5.391   1.233  10.885  1.00  0.00    -0.361 OA
HETATM   24  H30 UNL     1      -4.471   1.319  10.583  1.00  0.00     0.217 HD
ENDBRANCH  19  23
ENDBRANCH  13  15
BRANCH   9  25
HETATM   25  C15 UNL     1      -0.029   7.364  12.382  1.00  0.00     0.070 C 
BRANCH  25  26
HETATM   26  C16 UNL     1      -0.106   7.955  10.999  1.00  0.00    -0.020 C 
HETATM   27  C17 UNL     1       0.549   7.578   9.883  1.00  0.00    -0.091 C 
HETATM   28  C18 UNL     1       1.528   6.443   9.783  1.00  0.00     0.042 C 
HETATM   29  C19 UNL     1       0.330   8.317   8.587  1.00  0.00     0.042 C 
ENDBRANCH  25  26
ENDBRANCH   9  25
BRANCH   8  30
HETATM   30  O2  UNL     1      -0.111   9.649  14.091  1.00  0.00    -0.357 OA
HETATM   31  H17 UNL     1      -0.320  10.367  14.721  1.00  0.00     0.217 HD
ENDBRANCH   8  30
BRANCH   1  32
HETATM   32  C6  UNL     1      -2.704  10.654  17.953  1.00  0.00     0.046 C 
BRANCH  32  33
HETATM   33  C5  UNL     1      -1.531  11.601  18.238  1.00  0.00     0.030 C 
BRANCH  33  34
HETATM   34  C4  UNL     1      -0.506  10.937  19.117  1.00  0.00    -0.025 C 
HETATM   35  C2  UNL     1       0.428  11.531  19.884  1.00  0.00    -0.091 C 
HETATM   36  C1  UNL     1       0.601  13.017  20.044  1.00  0.00     0.042 C 
HETATM   37  C3  UNL     1       1.404  10.705  20.681  1.00  0.00     0.042 C 
ENDBRANCH  33  34
ENDBRANCH  32  33
ENDBRANCH   1  32
TORSDOF 9
ENDMDL
MODEL 5
REMARK minimizedAffinity -7.41424322
REMARK CNNscore 0.447503626
REMARK CNNaffinity 5.988132
REMARK  9 active torsions:
REMARK  status: ('A' for Active; 'I' for Inactive)
REMARK    1  A    between atoms: C4_4  and  C5_5 
REMARK    2  A    between atoms: C5_5  and  C6_6 
REMARK    3  A    between atoms: C6_6  and  C7_7 
REMARK    4  A    between atoms: C13_14  and  O2_15 
REMARK    5  A    between atoms: C14_16  and  C15_17 
REMARK    6  A    between atoms: C15_17  and  C16_18 
REMARK    7  A    between atoms: C22_25  and  C23_26 
REMARK    8  A    between atoms: C25_28  and  O4_29 
REMARK    9  A    between atoms: C27_31  and  O5_32 
ROOT
HETATM    1  C7  UNL     1     -13.947   6.816  23.301  1.00  0.00     0.082 A 
HETATM    2  C8  UNL     1     -15.360   6.982  23.876  1.00  0.00     0.051 C 
HETATM    3  C9  UNL     1     -14.073   6.589  21.803  1.00  0.00     0.012 A 
HETATM    4  C10 UNL     1     -13.501   7.371  20.883  1.00  0.00     0.016 A 
HETATM    5  C11 UNL     1     -12.725   8.488  21.372  1.00  0.00     0.035 A 
HETATM    6  C12 UNL     1     -12.611   8.760  22.730  1.00  0.00     0.117 A 
HETATM    7  O1  UNL     1     -13.215   8.001  23.698  1.00  0.00    -0.333 OA
HETATM    8  C13 UNL     1     -11.863   9.857  23.173  1.00  0.00     0.107 A 
HETATM    9  C14 UNL     1     -11.194  10.735  22.293  1.00  0.00    -0.006 A 
HETATM   10  C20 UNL     1     -11.305  10.441  20.910  1.00  0.00     0.011 A 
HETATM   11  C21 UNL     1     -12.057   9.345  20.497  1.00  0.00     0.100 A 
HETATM   12  O3  UNL     1     -12.036   9.247  19.135  1.00  0.00    -0.308 OA
HETATM   13  C22 UNL     1     -11.267  10.268  18.654  1.00  0.00     0.087 A 
HETATM   14  C29 UNL     1     -10.799  11.023  19.712  1.00  0.00     0.053 A 
ENDROOT
BRANCH  13  15
HETATM   15  C23 UNL     1     -11.114  10.336  17.203  1.00  0.00     0.003 A 
HETATM   16  C24 UNL     1     -11.719   9.377  16.377  1.00  0.00     0.051 A 
HETATM   17  C25 UNL     1     -11.573   9.443  14.992  1.00  0.00     0.069 A 
HETATM   18  C26 UNL     1     -10.830  10.453  14.398  1.00  0.00     0.073 A 
HETATM   19  C27 UNL     1     -10.229  11.405  15.209  1.00  0.00     0.069 A 
HETATM   20  C28 UNL     1     -10.362  11.358  16.597  1.00  0.00     0.051 A 
BRANCH  17  21
HETATM   21  O4  UNL     1     -12.188   8.480  14.245  1.00  0.00    -0.361 OA
HETATM   22  H28 UNL     1     -12.006   8.655  13.307  1.00  0.00     0.217 HD
ENDBRANCH  17  21
BRANCH  19  23
HETATM   23  O5  UNL     1      -9.504  12.389  14.600  1.00  0.00    -0.361 OA
HETATM   24  H30 UNL     1      -9.145  12.979  15.284  1.00  0.00     0.217 HD
ENDBRANCH  19  23
ENDBRANCH  13  15
BRANCH   9  25
HETATM   25  C15 UNL     1     -10.382  11.897  22.819  1.00  0.00     0.070 C 
BRANCH  25  26
HETATM   26  C16 UNL     1      -9.500  12.495  21.755  1.00  0.00    -0.020 C 
HETATM   27  C17 UNL     1      -8.251  12.988  21.872  1.00  0.00    -0.091 C 
HETATM   28  C18 UNL     1      -7.447  13.042  23.141  1.00  0.00     0.042 C 
HETATM   29  C19 UNL     1      -7.540  13.552  20.669  1.00  0.00     0.042 C 
ENDBRANCH  25  26
ENDBRANCH   9  25
BRANCH   8  30
HETATM   30  O2  UNL     1     -11.777  10.085  24.526  1.00  0.00    -0.357 OA
HETATM   31  H17 UNL     1     -12.305   9.375  24.943  1.00  0.00     0.217 HD
ENDBRANCH   8  30
BRANCH   1  32
HETATM   32  C6  UNL     1     -13.222   5.593  23.913  1.00  0.00     0.046 C 
BRANCH  32  33
HETATM   33  C5  UNL     1     -13.821   4.236  23.521  1.00  0.00     0.030 C 
BRANCH  33  34
HETATM   34  C4  UNL     1     -12.802   3.138  23.666  1.00  0.00    -0.025 C 
HETATM   35  C2  UNL     1     -12.503   2.434  24.776  1.00  0.00    -0.091 C 
HETATM   36  C1  UNL     1     -13.184   2.589  26.108  1.00  0.00     0.042 C 
HETATM   37  C3  UNL     1     -11.422   1.385  24.750  1.00  0.00     0.042 C 
ENDBRANCH  33  34
ENDBRANCH  32  33
ENDBRANCH   1  32
TORSDOF 9
ENDMDL
MODEL 6
REMARK minimizedAffinity -7.78695965
REMARK CNNscore 0.352872014
REMARK CNNaffinity 6.11998701
REMARK  9 active torsions:
REMARK  status: ('A' for Active; 'I' for Inactive)
REMARK    1  A    between atoms: C4_4  and  C5_5 
REMARK    2  A    between atoms: C5_5  and  C6_6 
REMARK    3  A    between atoms: C6_6  and  C7_7 
REMARK    4  A    between atoms: C13_14  and  O2_15 
REMARK    5  A    between atoms: C14_16  and  C15_17 
REMARK    6  A    between atoms: C15_17  and  C16_18 
REMARK    7  A    between atoms: C22_25  and  C23_26 
REMARK    8  A    between atoms: C25_28  and  O4_29 
REMARK    9  A    between atoms: C27_31  and  O5_32 
ROOT
HETATM    1  C7  UNL     1     -11.076  11.962  15.973  1.00  0.00     0.082 A 
HETATM    2  C8  UNL     1     -11.487  12.249  17.424  1.00  0.00     0.051 C 
HETATM    3  C9  UNL     1      -9.683  11.354  15.991  1.00  0.00     0.012 A 
HETATM    4  C10 UNL     1      -9.389  10.157  15.478  1.00  0.00     0.016 A 
HETATM    5  C11 UNL     1     -10.480   9.420  14.881  1.00  0.00     0.035 A 
HETATM    6  C12 UNL     1     -11.778   9.915  14.874  1.00  0.00     0.117 A 
HETATM    7  O1  UNL     1     -12.121  11.123  15.424  1.00  0.00    -0.333 OA
HETATM    8  C13 UNL     1     -12.816   9.173  14.299  1.00  0.00     0.107 A 
HETATM    9  C14 UNL     1     -12.617   7.908  13.705  1.00  0.00    -0.006 A 
HETATM   10  C20 UNL     1     -11.287   7.418  13.705  1.00  0.00     0.011 A 
HETATM   11  C21 UNL     1     -10.273   8.175  14.286  1.00  0.00     0.100 A 
HETATM   12  O3  UNL     1      -9.080   7.522  14.182  1.00  0.00    -0.308 OA
HETATM   13  C22 UNL     1      -9.304   6.343  13.528  1.00  0.00     0.087 A 
HETATM   14  C29 UNL     1     -10.646   6.242  13.218  1.00  0.00     0.053 A 
ENDROOT
BRANCH  13  15
HETATM   15  C23 UNL     1      -8.137   5.491  13.310  1.00  0.00     0.003 A 
HETATM   16  C24 UNL     1      -8.297   4.140  12.967  1.00  0.00     0.051 A 
HETATM   17  C25 UNL     1      -7.184   3.327  12.758  1.00  0.00     0.069 A 
HETATM   18  C26 UNL     1      -5.897   3.829  12.884  1.00  0.00     0.073 A 
HETATM   19  C27 UNL     1      -5.732   5.165  13.223  1.00  0.00     0.069 A 
HETATM   20  C28 UNL     1      -6.832   5.997  13.436  1.00  0.00     0.051 A 
BRANCH  17  21
HETATM   21  O4  UNL     1      -7.407   2.022  12.426  1.00  0.00    -0.361 OA
HETATM   22  H28 UNL     1      -6.549   1.583  12.307  1.00  0.00     0.217 HD
ENDBRANCH  17  21
BRANCH  19  23
HETATM   23  O5  UNL     1      -4.455   5.635  13.340  1.00  0.00    -0.361 OA
HETATM   24  H30 UNL     1      -4.492   6.577  13.579  1.00  0.00     0.217 HD
ENDBRANCH  19  23
ENDBRANCH  13  15
BRANCH   9  25
HETATM   25  C15 UNL     1     -13.767   7.151  13.080  1.00  0.00     0.070 C 
BRANCH  25  26
HETATM   26  C16 UNL     1     -14.359   6.143  14.028  1.00  0.00    -0.020 C 
HETATM   27  C17 UNL     1     -15.615   5.657  14.068  1.00  0.00    -0.091 C 
HETATM   28  C18 UNL     1     -16.730   6.034  13.133  1.00  0.00     0.042 C 
HETATM   29  C19 UNL     1     -16.007   4.646  15.115  1.00  0.00     0.042 C 
ENDBRANCH  25  26
ENDBRANCH   9  25
BRANCH   8  30
HETATM   30  O2  UNL     1     -14.084   9.705  14.314  1.00  0.00    -0.357 OA
HETATM   31  H17 UNL     1     -13.999  10.568  14.766  1.00  0.00     0.217 HD
ENDBRANCH   8  30
BRANCH   1  32
HETATM   32  C6  UNL     1     -11.025  13.258  15.128  1.00  0.00     0.046 C 
BRANCH  32  33
HETATM   33  C5  UNL     1      -9.755  13.418  14.283  1.00  0.00     0.030 C 
BRANCH  33  34
HETATM   34  C4  UNL     1      -9.382  14.869  14.145  1.00  0.00    -0.025 C 
HETATM   35  C2  UNL     1      -9.902  15.774  13.294  1.00  0.00    -0.091 C 
HETATM   36  C1  UNL     1     -11.017  15.507  12.320  1.00  0.00     0.042 C 
HETATM   37  C3  UNL     1      -9.382  17.189  13.267  1.00  0.00     0.042 C 
ENDBRANCH  33  34
ENDBRANCH  32  33
ENDBRANCH   1  32
TORSDOF 9
ENDMDL
MODEL 7
REMARK minimizedAffinity -7.284935
REMARK CNNscore 0.315954685
REMARK CNNaffinity 5.90935707
REMARK  9 active torsions:
REMARK  status: ('A' for Active; 'I' for Inactive)
REMARK    1  A    between atoms: C4_4  and  C5_5 
REMARK    2  A    between atoms: C5_5  and  C6_6 
REMARK    3  A    between atoms: C6_6  and  C7_7 
REMARK    4  A    between atoms: C13_14  and  O2_15 
REMARK    5  A    between atoms: C14_16  and  C15_17 
REMARK    6  A    between atoms: C15_17  and  C16_18 
REMARK    7  A    between atoms: C22_25  and  C23_26 
REMARK    8  A    between atoms: C25_28  and  O4_29 
REMARK    9  A    between atoms: C27_31  and  O5_32 
ROOT
HETATM    1  C7  UNL     1      -3.493  10.911  16.768  1.00  0.00     0.082 A 
HETATM    2  C8  UNL     1      -4.310   9.746  16.193  1.00  0.00     0.051 C 
HETATM    3  C9  UNL     1      -3.218  10.615  18.233  1.00  0.00     0.012 A 
HETATM    4  C10 UNL     1      -1.991  10.534  18.756  1.00  0.00     0.016 A 
HETATM    5  C11 UNL     1      -0.885  10.745  17.851  1.00  0.00     0.035 A 
HETATM    6  C12 UNL     1      -1.083  10.981  16.497  1.00  0.00     0.117 A 
HETATM    7  O1  UNL     1      -2.326  11.033  15.921  1.00  0.00    -0.333 OA
HETATM    8  C13 UNL     1       0.010  11.169  15.642  1.00  0.00     0.107 A 
HETATM    9  C14 UNL     1       1.348  11.131  16.089  1.00  0.00    -0.006 A 
HETATM   10  C20 UNL     1       1.540  10.903  17.476  1.00  0.00     0.011 A 
HETATM   11  C21 UNL     1       0.435  10.717  18.302  1.00  0.00     0.100 A 
HETATM   12  O3  UNL     1       0.841  10.510  19.589  1.00  0.00    -0.308 OA
HETATM   13  C22 UNL     1       2.206  10.567  19.611  1.00  0.00     0.087 A 
HETATM   14  C29 UNL     1       2.673  10.808  18.334  1.00  0.00     0.053 A 
ENDROOT
BRANCH  13  15
HETATM   15  C23 UNL     1       2.842  10.373  20.912  1.00  0.00     0.003 A 
HETATM   16  C24 UNL     1       2.299   9.475  21.843  1.00  0.00     0.051 A 
HETATM   17  C25 UNL     1       2.906   9.289  23.084  1.00  0.00     0.069 A 
HETATM   18  C26 UNL     1       4.057   9.983  23.429  1.00  0.00     0.073 A 
HETATM   19  C27 UNL     1       4.600  10.873  22.512  1.00  0.00     0.069 A 
HETATM   20  C28 UNL     1       4.008  11.074  21.265  1.00  0.00     0.051 A 
BRANCH  17  21
HETATM   21  O4  UNL     1       2.328   8.401  23.944  1.00  0.00    -0.361 OA
HETATM   22  H28 UNL     1       2.858   8.371  24.759  1.00  0.00     0.217 HD
ENDBRANCH  17  21
BRANCH  19  23
HETATM   23  O5  UNL     1       5.732  11.543  22.876  1.00  0.00    -0.361 OA
HETATM   24  H30 UNL     1       5.997  12.125  22.143  1.00  0.00     0.217 HD
ENDBRANCH  19  23
ENDBRANCH  13  15
BRANCH   9  25
HETATM   25  C15 UNL     1       2.496  11.358  15.132  1.00  0.00     0.070 C 
BRANCH  25  26
HETATM   26  C16 UNL     1       3.130  10.063  14.697  1.00  0.00    -0.020 C 
HETATM   27  C17 UNL     1       4.374   9.607  14.945  1.00  0.00    -0.091 C 
HETATM   28  C18 UNL     1       5.427  10.324  15.743  1.00  0.00     0.042 C 
HETATM   29  C19 UNL     1       4.816   8.271  14.405  1.00  0.00     0.042 C 
ENDBRANCH  25  26
ENDBRANCH   9  25
BRANCH   8  30
HETATM   30  O2  UNL     1      -0.237  11.402  14.309  1.00  0.00    -0.357 OA
HETATM   31  H17 UNL     1      -1.209  11.384  14.218  1.00  0.00     0.217 HD
ENDBRANCH   8  30
BRANCH   1  32
HETATM   32  C6  UNL     1      -4.271  12.248  16.686  1.00  0.00     0.046 C 
BRANCH  32  33
HETATM   33  C5  UNL     1      -4.202  13.104  17.957  1.00  0.00     0.030 C 
BRANCH  33  34
HETATM   34  C4  UNL     1      -5.570  13.593  18.348  1.00  0.00    -0.025 C 
HETATM   35  C2  UNL     1      -6.099  13.655  19.586  1.00  0.00    -0.091 C 
HETATM   36  C1  UNL     1      -5.383  13.274  20.853  1.00  0.00     0.042 C 
HETATM   37  C3  UNL     1      -7.508  14.145  19.795  1.00  0.00     0.042 C 
ENDBRANCH  33  34
ENDBRANCH  32  33
ENDBRANCH   1  32
TORSDOF 9
ENDMDL
MODEL 8
REMARK minimizedAffinity -7.99490261
REMARK CNNscore 0.300123692
REMARK CNNaffinity 5.87505388
REMARK  9 active torsions:
REMARK  status: ('A' for Active; 'I' for Inactive)
REMARK    1  A    between atoms: C4_4  and  C5_5 
REMARK    2  A    between atoms: C5_5  and  C6_6 
REMARK    3  A    between atoms: C6_6  and  C7_7 
REMARK    4  A    between atoms: C13_14  and  O2_15 
REMARK    5  A    between atoms: C14_16  and  C15_17 
REMARK    6  A    between atoms: C15_17  and  C16_18 
REMARK    7  A    between atoms: C22_25  and  C23_26 
REMARK    8  A    between atoms: C25_28  and  O4_29 
REMARK    9  A    between atoms: C27_31  and  O5_32 
ROOT
HETATM    1  C7  UNL     1       2.334   8.148  13.496  1.00  0.00     0.082 A 
HETATM    2  C8  UNL     1       3.250   8.593  12.348  1.00  0.00     0.051 C 
HETATM    3  C9  UNL     1       3.214   7.723  14.661  1.00  0.00     0.012 A 
HETATM    4  C10 UNL     1       3.151   8.273  15.877  1.00  0.00     0.016 A 
HETATM    5  C11 UNL     1       2.182   9.330  16.062  1.00  0.00     0.035 A 
HETATM    6  C12 UNL     1       1.382   9.779  15.019  1.00  0.00     0.117 A 
HETATM    7  O1  UNL     1       1.447   9.263  13.751  1.00  0.00    -0.333 OA
HETATM    8  C13 UNL     1       0.462  10.813  15.227  1.00  0.00     0.107 A 
HETATM    9  C14 UNL     1       0.291  11.449  16.475  1.00  0.00    -0.006 A 
HETATM   10  C20 UNL     1       1.102  10.974  17.537  1.00  0.00     0.011 A 
HETATM   11  C21 UNL     1       2.011   9.946  17.302  1.00  0.00     0.100 A 
HETATM   12  O3  UNL     1       2.689   9.647  18.449  1.00  0.00    -0.308 OA
HETATM   13  C22 UNL     1       2.222  10.468  19.436  1.00  0.00     0.087 A 
HETATM   14  C29 UNL     1       1.247  11.297  18.917  1.00  0.00     0.053 A 
ENDROOT
BRANCH  13  15
HETATM   15  C23 UNL     1       2.824  10.301  20.757  1.00  0.00     0.003 A 
HETATM   16  C24 UNL     1       2.298   9.370  21.666  1.00  0.00     0.051 A 
HETATM   17  C25 UNL     1       2.872   9.210  22.926  1.00  0.00     0.069 A 
HETATM   18  C26 UNL     1       3.972   9.961  23.312  1.00  0.00     0.073 A 
HETATM   19  C27 UNL     1       4.498  10.883  22.417  1.00  0.00     0.069 A 
HETATM   20  C28 UNL     1       3.939  11.060  21.151  1.00  0.00     0.051 A 
BRANCH  17  21
HETATM   21  O4  UNL     1       2.313   8.288  23.763  1.00  0.00    -0.361 OA
HETATM   22  H28 UNL     1       2.816   8.281  24.595  1.00  0.00     0.217 HD
ENDBRANCH  17  21
BRANCH  19  23
HETATM   23  O5  UNL     1       5.581  11.610  22.821  1.00  0.00    -0.361 OA
HETATM   24  H30 UNL     1       5.839  12.209  22.100  1.00  0.00     0.217 HD
ENDBRANCH  19  23
ENDBRANCH  13  15
BRANCH   9  25
HETATM   25  C15 UNL     1      -0.729  12.550  16.656  1.00  0.00     0.070 C 
BRANCH  25  26
HETATM   26  C16 UNL     1      -1.992  12.047  17.303  1.00  0.00    -0.020 C 
HETATM   27  C17 UNL     1      -2.626  12.517  18.396  1.00  0.00    -0.091 C 
HETATM   28  C18 UNL     1      -2.187  13.690  19.226  1.00  0.00     0.042 C 
HETATM   29  C19 UNL     1      -3.888  11.855  18.887  1.00  0.00     0.042 C 
ENDBRANCH  25  26
ENDBRANCH   9  25
BRANCH   8  30
HETATM   30  O2  UNL     1      -0.310  11.223  14.164  1.00  0.00    -0.357 OA
HETATM   31  H17 UNL     1      -0.033  10.664  13.412  1.00  0.00     0.217 HD
ENDBRANCH   8  30
BRANCH   1  32
HETATM   32  C6  UNL     1       1.458   6.938  13.089  1.00  0.00     0.046 C 
BRANCH  32  33
HETATM   33  C5  UNL     1       1.625   6.492  11.631  1.00  0.00     0.030 C 
BRANCH  33  34
HETATM   34  C4  UNL     1       0.657   7.216  10.735  1.00  0.00    -0.025 C 
HETATM   35  C2  UNL     1       0.896   7.735   9.515  1.00  0.00    -0.091 C 
HETATM   36  C1  UNL     1       2.204   7.649   8.778  1.00  0.00     0.042 C 
HETATM   37  C3  UNL     1      -0.190   8.464   8.766  1.00  0.00     0.042 C 
ENDBRANCH  33  34
ENDBRANCH  32  33
ENDBRANCH   1  32
TORSDOF 9
ENDMDL
MODEL 9
REMARK minimizedAffinity -9.34601593
REMARK CNNscore 0.288843781
REMARK CNNaffinity 6.48701096
REMARK  9 active torsions:
REMARK  status: ('A' for Active; 'I' for Inactive)
REMARK    1  A    between atoms: C4_4  and  C5_5 
REMARK    2  A    between atoms: C5_5  and  C6_6 
REMARK    3  A    between atoms: C6_6  and  C7_7 
REMARK    4  A    between atoms: C13_14  and  O2_15 
REMARK    5  A    between atoms: C14_16  and  C15_17 
REMARK    6  A    between atoms: C15_17  and  C16_18 
REMARK    7  A    between atoms: C22_25  and  C23_26 
REMARK    8  A    between atoms: C25_28  and  O4_29 
REMARK    9  A    between atoms: C27_31  and  O5_32 
ROOT
HETATM    1  C7  UNL     1      -1.757  10.305  15.116  1.00  0.00     0.082 A 
HETATM    2  C8  UNL     1      -1.808  11.691  14.459  1.00  0.00     0.051 C 
HETATM    3  C9  UNL     1      -3.171   9.746  15.146  1.00  0.00     0.012 A 
HETATM    4  C10 UNL     1      -3.524   8.591  14.576  1.00  0.00     0.016 A 
HETATM    5  C11 UNL     1      -2.481   7.855  13.898  1.00  0.00     0.035 A 
HETATM    6  C12 UNL     1      -1.182   8.341  13.811  1.00  0.00     0.117 A 
HETATM    7  O1  UNL     1      -0.794   9.539  14.352  1.00  0.00    -0.333 OA
HETATM    8  C13 UNL     1      -0.196   7.611  13.137  1.00  0.00     0.107 A 
HETATM    9  C14 UNL     1      -0.449   6.367  12.520  1.00  0.00    -0.006 A 
HETATM   10  C20 UNL     1      -1.774   5.873  12.627  1.00  0.00     0.011 A 
HETATM   11  C21 UNL     1      -2.736   6.621  13.301  1.00  0.00     0.100 A 
HETATM   12  O3  UNL     1      -3.935   5.969  13.282  1.00  0.00    -0.308 OA
HETATM   13  C22 UNL     1      -3.763   4.794  12.607  1.00  0.00     0.087 A 
HETATM   14  C29 UNL     1      -2.449   4.698  12.189  1.00  0.00     0.053 A 
ENDROOT
BRANCH  13  15
HETATM   15  C23 UNL     1      -4.941   3.940  12.479  1.00  0.00     0.003 A 
HETATM   16  C24 UNL     1      -4.905   2.792  11.672  1.00  0.00     0.051 A 
HETATM   17  C25 UNL     1      -6.029   1.977  11.552  1.00  0.00     0.069 A 
HETATM   18  C26 UNL     1      -7.206   2.277  12.223  1.00  0.00     0.073 A 
HETATM   19  C27 UNL     1      -7.248   3.410  13.023  1.00  0.00     0.069 A 
HETATM   20  C28 UNL     1      -6.135   4.240  13.158  1.00  0.00     0.051 A 
BRANCH  17  21
HETATM   21  O4  UNL     1      -5.929   0.876  10.752  1.00  0.00    -0.361 OA
HETATM   22  H28 UNL     1      -6.778   0.404  10.768  1.00  0.00     0.217 HD
ENDBRANCH  17  21
BRANCH  19  23
HETATM   23  O5  UNL     1      -8.417   3.682  13.673  1.00  0.00    -0.361 OA
HETATM   24  H30 UNL     1      -8.302   4.497  14.191  1.00  0.00     0.217 HD
ENDBRANCH  19  23
ENDBRANCH  13  15
BRANCH   9  25
HETATM   25  C15 UNL     1       0.653   5.606  11.819  1.00  0.00     0.070 C 
BRANCH  25  26
HETATM   26  C16 UNL     1       0.906   6.133  10.432  1.00  0.00    -0.020 C 
HETATM   27  C17 UNL     1       2.075   6.235   9.767  1.00  0.00    -0.091 C 
HETATM   28  C18 UNL     1       3.421   5.824  10.295  1.00  0.00     0.042 C 
HETATM   29  C19 UNL     1       2.109   6.803   8.372  1.00  0.00     0.042 C 
ENDBRANCH  25  26
ENDBRANCH   9  25
BRANCH   8  30
HETATM   30  O2  UNL     1       1.076   8.133  13.079  1.00  0.00    -0.357 OA
HETATM   31  H17 UNL     1       1.030   8.983  13.557  1.00  0.00     0.217 HD
ENDBRANCH   8  30
BRANCH   1  32
HETATM   32  C6  UNL     1      -1.240  10.383  16.573  1.00  0.00     0.046 C 
BRANCH  32  33
HETATM   33  C5  UNL     1       0.192  10.913  16.714  1.00  0.00     0.030 C 
BRANCH  33  34
HETATM   34  C4  UNL     1       0.756  10.581  18.069  1.00  0.00    -0.025 C 
HETATM   35  C2  UNL     1       0.541  11.228  19.231  1.00  0.00    -0.091 C 
HETATM   36  C1  UNL     1      -0.365  12.416  19.406  1.00  0.00     0.042 C 
HETATM   37  C3  UNL     1       1.219  10.774  20.498  1.00  0.00     0.042 C 
ENDBRANCH  33  34
ENDBRANCH  32  33
ENDBRANCH   1  32
TORSDOF 9
ENDMDL
