MODEL 1
REMARK minimizedAffinity -9.10144615
REMARK CNNscore 0.789723039
REMARK CNNaffinity 7.31977844
REMARK  13 active torsions:
REMARK  status: ('A' for Active; 'I' for Inactive)
REMARK    1  A    between atoms: O1_2  and  C2_3 
REMARK    2  A    between atoms: C2_3  and  C3_4 
REMARK    3  A    between atoms: C3_4  and  C4_5 
REMARK    4  A    between atoms: C4_5  and  O2_6 
REMARK    5  A    between atoms: O2_6  and  C5_7 
REMARK    6  A    between atoms: C18_21  and  C19_22 
REMARK    7  A    between atoms: C25_28  and  C26_29 
REMARK    8  A    between atoms: C26_29  and  O4_31 
REMARK    9  A    between atoms: C26_29  and  C28_32 
REMARK   10  A    between atoms: C28_32  and  O5_33 
REMARK   11  A    between atoms: C28_32  and  C29_34 
REMARK   12  A    between atoms: C34_41  and  O7_42 
REMARK   13  A    between atoms: C39_47  and  O8_48 
ROOT
HETATM    1  C5  UNL     1      -4.695   7.653  14.615  1.00  0.00     0.122 C 
HETATM    2  C6  UNL     1      -3.439   7.850  15.475  1.00  0.00     0.033 C 
HETATM    3  C7  UNL     1      -2.450   6.691  15.370  1.00  0.00     0.013 C 
HETATM    4  C8  UNL     1      -2.051   6.265  13.910  1.00  0.00    -0.026 C 
HETATM    5  C9  UNL     1      -2.309   4.737  13.821  1.00  0.00     0.016 C 
HETATM    6  C10 UNL     1      -2.940   6.995  12.865  1.00  0.00     0.071 C 
HETATM    7  C11 UNL     1      -4.420   6.944  13.279  1.00  0.00     0.045 C 
HETATM    8  C12 UNL     1      -2.543   8.450  12.630  1.00  0.00     0.154 C 
HETATM    9  O3  UNL     1      -3.336   9.299  12.225  1.00  0.00    -0.293 OA
HETATM   10  C13 UNL     1      -1.144   8.864  12.850  1.00  0.00     0.057 C 
HETATM   11  C14 UNL     1      -0.219   7.995  13.274  1.00  0.00    -0.037 C 
HETATM   12  C15 UNL     1      -0.519   6.550  13.670  1.00  0.00     0.026 C 
HETATM   13  C16 UNL     1       0.231   5.607  12.691  1.00  0.00     0.011 C 
HETATM   14  C17 UNL     1       1.740   5.954  12.525  1.00  0.00     0.014 C 
HETATM   15  C18 UNL     1       1.977   7.443  12.109  1.00  0.00     0.005 C 
HETATM   16  C25 UNL     1       3.441   7.964  12.367  1.00  0.00     0.034 C 
HETATM   17  C37 UNL     1       3.261   9.494  12.602  1.00  0.00     0.012 C 
HETATM   18  C38 UNL     1       1.832   9.711  13.133  1.00  0.00     0.044 C 
HETATM   19  C39 UNL     1       1.259   8.298  13.260  1.00  0.00     0.090 C 
ENDROOT
BRANCH  16  20
HETATM   20  C26 UNL     1       4.781   7.571  11.645  1.00  0.00     0.087 C 
HETATM   21  C27 UNL     1       4.561   7.336  10.144  1.00  0.00     0.049 C 
BRANCH  20  22
HETATM   22  O4  UNL     1       5.098   6.262  12.202  1.00  0.00    -0.387 OA
HETATM   23  H42 UNL     1       4.413   5.637  11.903  1.00  0.00     0.210 HD
ENDBRANCH  20  22
BRANCH  20  24
HETATM   24  C28 UNL     1       6.033   8.464  11.943  1.00  0.00     0.181 C 
BRANCH  24  25
HETATM   25  O5  UNL     1       6.987   8.400  10.883  1.00  0.00    -0.390 OA
HETATM   26  H44 UNL     1       7.495   7.582  11.050  1.00  0.00     0.210 HD
ENDBRANCH  24  25
BRANCH  24  27
HETATM   27  C29 UNL     1       6.792   8.129  13.254  1.00  0.00     0.158 C 
HETATM   28  O6  UNL     1       8.215   7.929  12.931  1.00  0.00    -0.373 OA
HETATM   29  C30 UNL     1       8.941   8.463  14.045  1.00  0.00     0.185 C 
HETATM   30  C31 UNL     1       8.190   9.737  14.353  1.00  0.00     0.027 C 
HETATM   31  C34 UNL     1      10.417   8.784  13.786  1.00  0.00     0.383 C 
HETATM   32  C32 UNL     1       8.779  10.388  15.594  1.00  0.00     0.038 C 
HETATM   33  C35 UNL     1       6.767   9.212  14.381  1.00  0.00     0.020 C 
HETATM   34  C33 UNL     1      10.288  10.622  15.380  1.00  0.00     0.273 C 
HETATM   35  N1  UNL     1      10.994   9.403  14.973  1.00  0.00     0.114 N 
HETATM   36  H52 UNL     1      11.976   9.594  14.783  1.00  0.00     0.319 HD
HETATM   37  C36 UNL     1       5.714  10.306  14.289  1.00  0.00     0.013 C 
BRANCH  31  38
HETATM   38  O7  UNL     1      11.133   7.596  13.505  1.00  0.00    -0.366 OA
HETATM   39  H54 UNL     1      10.590   7.115  12.852  1.00  0.00     0.212 HD
ENDBRANCH  31  38
ENDBRANCH  24  27
ENDBRANCH  20  24
ENDBRANCH  16  20
BRANCH  15  40
HETATM   40  C19 UNL     1       1.331   7.673  10.646  1.00  0.00    -0.002 C 
HETATM   41  C20 UNL     1       2.357   7.636   9.473  1.00  0.00     0.005 C 
HETATM   42  C21 UNL     1       1.858   8.251   8.160  1.00  0.00     0.000 C 
HETATM   43  C22 UNL     1       0.366   8.035   7.977  1.00  0.00     0.000 C 
HETATM   44  C23 UNL     1      -0.432   8.679   9.105  1.00  0.00     0.000 C 
HETATM   45  C24 UNL     1       0.346   8.830  10.421  1.00  0.00     0.005 C 
ENDBRANCH  15  40
BRANCH  19  46
HETATM   46  O8  UNL     1       1.727   7.880  14.567  1.00  0.00    -0.384 OA
HETATM   47  H63 UNL     1       1.215   8.375  15.228  1.00  0.00     0.211 HD
ENDBRANCH  19  46
BRANCH   1  48
HETATM   48  O2  UNL     1      -5.647   6.852  15.327  1.00  0.00    -0.386 OA
BRANCH  48  49
HETATM   49  C4  UNL     1      -6.719   7.611  15.901  1.00  0.00     0.170 C 
BRANCH  49  50
HETATM   50  C3  UNL     1      -7.775   6.671  16.478  1.00  0.00     0.052 C 
BRANCH  50  51
HETATM   51  C2  UNL     1      -8.709   6.133  15.401  1.00  0.00     0.169 C 
BRANCH  51  52
HETATM   52  O1  UNL     1      -8.504   6.770  14.141  1.00  0.00    -0.396 OA
HETATM   53  C1  UNL     1      -8.306   5.848  13.074  1.00  0.00     0.201 C 
ENDBRANCH  51  52
ENDBRANCH  50  51
ENDBRANCH  49  50
ENDBRANCH  48  49
ENDBRANCH   1  48
TORSDOF 13
ENDMDL
MODEL 2
REMARK minimizedAffinity -9.01369762
REMARK CNNscore 0.638588786
REMARK CNNaffinity 7.13406515
REMARK  13 active torsions:
REMARK  status: ('A' for Active; 'I' for Inactive)
REMARK    1  A    between atoms: O1_2  and  C2_3 
REMARK    2  A    between atoms: C2_3  and  C3_4 
REMARK    3  A    between atoms: C3_4  and  C4_5 
REMARK    4  A    between atoms: C4_5  and  O2_6 
REMARK    5  A    between atoms: O2_6  and  C5_7 
REMARK    6  A    between atoms: C18_21  and  C19_22 
REMARK    7  A    between atoms: C25_28  and  C26_29 
REMARK    8  A    between atoms: C26_29  and  O4_31 
REMARK    9  A    between atoms: C26_29  and  C28_32 
REMARK   10  A    between atoms: C28_32  and  O5_33 
REMARK   11  A    between atoms: C28_32  and  C29_34 
REMARK   12  A    between atoms: C34_41  and  O7_42 
REMARK   13  A    between atoms: C39_47  and  O8_48 
ROOT
HETATM    1  C5  UNL     1      -5.352   6.683  14.682  1.00  0.00     0.122 C 
HETATM    2  C6  UNL     1      -4.084   6.709  15.545  1.00  0.00     0.033 C 
HETATM    3  C7  UNL     1      -3.106   5.583  15.212  1.00  0.00     0.013 C 
HETATM    4  C8  UNL     1      -2.731   5.433  13.693  1.00  0.00    -0.026 C 
HETATM    5  C9  UNL     1      -3.004   3.949  13.327  1.00  0.00     0.016 C 
HETATM    6  C10 UNL     1      -3.627   6.349  12.815  1.00  0.00     0.071 C 
HETATM    7  C11 UNL     1      -5.102   6.232  13.233  1.00  0.00     0.045 C 
HETATM    8  C12 UNL     1      -3.220   7.820  12.847  1.00  0.00     0.154 C 
HETATM    9  O3  UNL     1      -4.011   8.734  12.617  1.00  0.00    -0.293 OA
HETATM   10  C13 UNL     1      -1.815   8.177  13.119  1.00  0.00     0.057 C 
HETATM   11  C14 UNL     1      -0.892   7.238  13.361  1.00  0.00    -0.037 C 
HETATM   12  C15 UNL     1      -1.200   5.747  13.487  1.00  0.00     0.026 C 
HETATM   13  C16 UNL     1      -0.472   4.997  12.340  1.00  0.00     0.011 C 
HETATM   14  C17 UNL     1       1.038   5.359  12.218  1.00  0.00     0.014 C 
HETATM   15  C18 UNL     1       1.283   6.897  12.081  1.00  0.00     0.005 C 
HETATM   16  C25 UNL     1       2.755   7.352  12.409  1.00  0.00     0.034 C 
HETATM   17  C37 UNL     1       2.592   8.813  12.926  1.00  0.00     0.012 C 
HETATM   18  C38 UNL     1       1.172   8.937  13.509  1.00  0.00     0.044 C 
HETATM   19  C39 UNL     1       0.588   7.529  13.381  1.00  0.00     0.090 C 
ENDROOT
BRANCH  16  20
HETATM   20  C26 UNL     1       4.082   7.091  11.607  1.00  0.00     0.087 C 
HETATM   21  C27 UNL     1       4.106   7.884  10.292  1.00  0.00     0.049 C 
BRANCH  20  22
HETATM   22  O4  UNL     1       3.975   5.691  11.217  1.00  0.00    -0.387 OA
HETATM   23  H42 UNL     1       3.235   5.612  10.588  1.00  0.00     0.210 HD
ENDBRANCH  20  22
BRANCH  20  24
HETATM   24  C28 UNL     1       5.424   7.199  12.406  1.00  0.00     0.181 C 
BRANCH  24  25
HETATM   25  O5  UNL     1       5.192   7.341  13.807  1.00  0.00    -0.390 OA
HETATM   26  H44 UNL     1       5.004   8.291  13.937  1.00  0.00     0.210 HD
ENDBRANCH  24  25
BRANCH  24  27
HETATM   27  C29 UNL     1       6.358   8.365  11.984  1.00  0.00     0.158 C 
HETATM   28  O6  UNL     1       5.578   9.614  11.998  1.00  0.00    -0.373 OA
HETATM   29  C30 UNL     1       6.484  10.627  12.455  1.00  0.00     0.185 C 
HETATM   30  C31 UNL     1       7.220   9.936  13.578  1.00  0.00     0.027 C 
HETATM   31  C34 UNL     1       5.834  11.914  12.978  1.00  0.00     0.383 C 
HETATM   32  C32 UNL     1       8.305  10.853  14.116  1.00  0.00     0.038 C 
HETATM   33  C35 UNL     1       7.601   8.638  12.892  1.00  0.00     0.020 C 
HETATM   34  C33 UNL     1       7.674  12.191  14.551  1.00  0.00     0.273 C 
HETATM   35  N1  UNL     1       6.869  12.804  13.491  1.00  0.00     0.114 N 
HETATM   36  H52 UNL     1       6.417  13.656  13.819  1.00  0.00     0.319 HD
HETATM   37  C36 UNL     1       8.027   7.542  13.858  1.00  0.00     0.013 C 
BRANCH  31  38
HETATM   38  O7  UNL     1       5.149  12.576  11.931  1.00  0.00    -0.366 OA
HETATM   39  H54 UNL     1       4.627  11.882  11.485  1.00  0.00     0.212 HD
ENDBRANCH  31  38
ENDBRANCH  24  27
ENDBRANCH  20  24
ENDBRANCH  16  20
BRANCH  15  40
HETATM   40  C19 UNL     1       0.620   7.398  10.696  1.00  0.00    -0.002 C 
HETATM   41  C20 UNL     1       1.401   6.976   9.415  1.00  0.00     0.005 C 
HETATM   42  C21 UNL     1       1.043   7.767   8.151  1.00  0.00     0.000 C 
HETATM   43  C22 UNL     1      -0.420   8.174   8.145  1.00  0.00     0.000 C 
HETATM   44  C23 UNL     1      -0.755   9.061   9.339  1.00  0.00     0.000 C 
HETATM   45  C24 UNL     1       0.165   8.858  10.553  1.00  0.00     0.005 C 
ENDBRANCH  15  40
BRANCH  19  46
HETATM   46  O8  UNL     1       1.070   6.874  14.581  1.00  0.00    -0.384 OA
HETATM   47  H63 UNL     1       0.571   7.241  15.330  1.00  0.00     0.211 HD
ENDBRANCH  19  46
BRANCH   1  48
HETATM   48  O2  UNL     1      -6.302   5.770  15.247  1.00  0.00    -0.386 OA
BRANCH  48  49
HETATM   49  C4  UNL     1      -7.452   6.415  15.809  1.00  0.00     0.170 C 
BRANCH  49  50
HETATM   50  C3  UNL     1      -8.409   6.840  14.697  1.00  0.00     0.052 C 
BRANCH  50  51
HETATM   51  C2  UNL     1      -9.806   7.134  15.228  1.00  0.00     0.169 C 
BRANCH  51  52
HETATM   52  O1  UNL     1     -10.443   8.195  14.516  1.00  0.00    -0.396 OA
HETATM   53  C1  UNL     1     -11.776   7.883  14.123  1.00  0.00     0.201 C 
ENDBRANCH  51  52
ENDBRANCH  50  51
ENDBRANCH  49  50
ENDBRANCH  48  49
ENDBRANCH   1  48
TORSDOF 13
ENDMDL
MODEL 3
REMARK minimizedAffinity -8.66929531
REMARK CNNscore 0.605184853
REMARK CNNaffinity 7.44517756
REMARK  13 active torsions:
REMARK  status: ('A' for Active; 'I' for Inactive)
REMARK    1  A    between atoms: O1_2  and  C2_3 
REMARK    2  A    between atoms: C2_3  and  C3_4 
REMARK    3  A    between atoms: C3_4  and  C4_5 
REMARK    4  A    between atoms: C4_5  and  O2_6 
REMARK    5  A    between atoms: O2_6  and  C5_7 
REMARK    6  A    between atoms: C18_21  and  C19_22 
REMARK    7  A    between atoms: C25_28  and  C26_29 
REMARK    8  A    between atoms: C26_29  and  O4_31 
REMARK    9  A    between atoms: C26_29  and  C28_32 
REMARK   10  A    between atoms: C28_32  and  O5_33 
REMARK   11  A    between atoms: C28_32  and  C29_34 
REMARK   12  A    between atoms: C34_41  and  O7_42 
REMARK   13  A    between atoms: C39_47  and  O8_48 
ROOT
HETATM    1  C5  UNL     1      -6.701   6.162  13.952  1.00  0.00     0.122 C 
HETATM    2  C6  UNL     1      -5.663   5.788  15.018  1.00  0.00     0.033 C 
HETATM    3  C7  UNL     1      -4.222   5.936  14.533  1.00  0.00     0.013 C 
HETATM    4  C8  UNL     1      -3.861   7.320  13.881  1.00  0.00    -0.026 C 
HETATM    5  C9  UNL     1      -3.235   6.994  12.498  1.00  0.00     0.016 C 
HETATM    6  C10 UNL     1      -5.140   8.177  13.672  1.00  0.00     0.071 C 
HETATM    7  C11 UNL     1      -6.267   7.333  13.055  1.00  0.00     0.045 C 
HETATM    8  C12 UNL     1      -5.657   8.830  14.952  1.00  0.00     0.154 C 
HETATM    9  O3  UNL     1      -6.835   9.148  15.107  1.00  0.00    -0.293 OA
HETATM   10  C13 UNL     1      -4.711   9.140  16.041  1.00  0.00     0.057 C 
HETATM   11  C14 UNL     1      -3.410   8.840  15.940  1.00  0.00    -0.037 C 
HETATM   12  C15 UNL     1      -2.798   8.069  14.771  1.00  0.00     0.026 C 
HETATM   13  C16 UNL     1      -1.795   9.002  14.041  1.00  0.00     0.011 C 
HETATM   14  C17 UNL     1      -0.774   9.689  14.996  1.00  0.00     0.014 C 
HETATM   15  C18 UNL     1      -1.466  10.469  16.162  1.00  0.00     0.005 C 
HETATM   16  C25 UNL     1      -0.521  10.787  17.381  1.00  0.00     0.034 C 
HETATM   17  C37 UNL     1      -1.487  10.844  18.602  1.00  0.00     0.012 C 
HETATM   18  C38 UNL     1      -2.705   9.964  18.265  1.00  0.00     0.044 C 
HETATM   19  C39 UNL     1      -2.371   9.367  16.896  1.00  0.00     0.090 C 
ENDROOT
BRANCH  16  20
HETATM   20  C26 UNL     1       0.696  11.779  17.468  1.00  0.00     0.087 C 
HETATM   21  C27 UNL     1       0.228  13.216  17.742  1.00  0.00     0.049 C 
BRANCH  20  22
HETATM   22  O4  UNL     1       1.223  11.793  16.110  1.00  0.00    -0.387 OA
HETATM   23  H42 UNL     1       0.553  12.204  15.533  1.00  0.00     0.210 HD
ENDBRANCH  20  22
BRANCH  20  24
HETATM   24  C28 UNL     1       1.897  11.348  18.376  1.00  0.00     0.181 C 
BRANCH  24  25
HETATM   25  O5  UNL     1       2.327  10.019  18.082  1.00  0.00    -0.390 OA
HETATM   26  H44 UNL     1       1.711   9.440  18.572  1.00  0.00     0.210 HD
ENDBRANCH  24  25
BRANCH  24  27
HETATM   27  C29 UNL     1       1.630  11.407  19.904  1.00  0.00     0.158 C 
HETATM   28  O6  UNL     1       1.580  10.030  20.422  1.00  0.00    -0.373 OA
HETATM   29  C30 UNL     1       2.177  10.087  21.724  1.00  0.00     0.185 C 
HETATM   30  C31 UNL     1       3.365  10.994  21.507  1.00  0.00     0.027 C 
HETATM   31  C34 UNL     1       2.649   8.746  22.299  1.00  0.00     0.383 C 
HETATM   32  C32 UNL     1       4.062  11.244  22.834  1.00  0.00     0.038 C 
HETATM   33  C35 UNL     1       2.697  12.144  20.778  1.00  0.00     0.020 C 
HETATM   34  C33 UNL     1       4.451   9.894  23.469  1.00  0.00     0.273 C 
HETATM   35  N1  UNL     1       3.314   8.975  23.575  1.00  0.00     0.114 N 
HETATM   36  H52 UNL     1       3.607   8.072  23.945  1.00  0.00     0.319 HD
HETATM   37  C36 UNL     1       3.677  13.067  20.071  1.00  0.00     0.013 C 
BRANCH  31  38
HETATM   38  O7  UNL     1       1.543   7.890  22.514  1.00  0.00    -0.366 OA
HETATM   39  H54 UNL     1       1.014   7.939  21.696  1.00  0.00     0.212 HD
ENDBRANCH  31  38
ENDBRANCH  24  27
ENDBRANCH  20  24
ENDBRANCH  16  20
BRANCH  15  40
HETATM   40  C19 UNL     1      -2.326  11.680  15.526  1.00  0.00    -0.002 C 
HETATM   41  C20 UNL     1      -1.537  12.578  14.527  1.00  0.00     0.005 C 
HETATM   42  C21 UNL     1      -2.178  13.941  14.239  1.00  0.00     0.000 C 
HETATM   43  C22 UNL     1      -3.694  13.861  14.279  1.00  0.00     0.000 C 
HETATM   44  C23 UNL     1      -4.193  13.411  15.648  1.00  0.00     0.000 C 
HETATM   45  C24 UNL     1      -3.181  12.570  16.441  1.00  0.00     0.005 C 
ENDBRANCH  15  40
BRANCH  19  46
HETATM   46  O8  UNL     1      -1.573   8.206  17.241  1.00  0.00    -0.384 OA
HETATM   47  H63 UNL     1      -2.177   7.544  17.617  1.00  0.00     0.211 HD
ENDBRANCH  19  46
BRANCH   1  48
HETATM   48  O2  UNL     1      -6.937   5.040  13.092  1.00  0.00    -0.386 OA
BRANCH  48  49
HETATM   49  C4  UNL     1      -7.478   3.900  13.773  1.00  0.00     0.170 C 
BRANCH  49  50
HETATM   50  C3  UNL     1      -7.188   2.629  12.978  1.00  0.00     0.052 C 
BRANCH  50  51
HETATM   51  C2  UNL     1      -6.369   2.915  11.725  1.00  0.00     0.169 C 
BRANCH  51  52
HETATM   52  O1  UNL     1      -5.099   2.264  11.750  1.00  0.00    -0.396 OA
HETATM   53  C1  UNL     1      -4.032   3.136  12.110  1.00  0.00     0.201 C 
ENDBRANCH  51  52
ENDBRANCH  50  51
ENDBRANCH  49  50
ENDBRANCH  48  49
ENDBRANCH   1  48
TORSDOF 13
ENDMDL
MODEL 4
REMARK minimizedAffinity -8.51407909
REMARK CNNscore 0.478528857
REMARK CNNaffinity 7.29990244
REMARK  13 active torsions:
REMARK  status: ('A' for Active; 'I' for Inactive)
REMARK    1  A    between atoms: O1_2  and  C2_3 
REMARK    2  A    between atoms: C2_3  and  C3_4 
REMARK    3  A    between atoms: C3_4  and  C4_5 
REMARK    4  A    between atoms: C4_5  and  O2_6 
REMARK    5  A    between atoms: O2_6  and  C5_7 
REMARK    6  A    between atoms: C18_21  and  C19_22 
REMARK    7  A    between atoms: C25_28  and  C26_29 
REMARK    8  A    between atoms: C26_29  and  O4_31 
REMARK    9  A    between atoms: C26_29  and  C28_32 
REMARK   10  A    between atoms: C28_32  and  O5_33 
REMARK   11  A    between atoms: C28_32  and  C29_34 
REMARK   12  A    between atoms: C34_41  and  O7_42 
REMARK   13  A    between atoms: C39_47  and  O8_48 
ROOT
HETATM    1  C5  UNL     1      -6.609   7.092  13.891  1.00  0.00     0.122 C 
HETATM    2  C6  UNL     1      -6.188   7.850  15.157  1.00  0.00     0.033 C 
HETATM    3  C7  UNL     1      -5.084   7.144  15.943  1.00  0.00     0.013 C 
HETATM    4  C8  UNL     1      -3.819   6.722  15.112  1.00  0.00    -0.026 C 
HETATM    5  C9  UNL     1      -3.604   5.210  15.392  1.00  0.00     0.016 C 
HETATM    6  C10 UNL     1      -4.068   6.929  13.592  1.00  0.00     0.071 C 
HETATM    7  C11 UNL     1      -5.444   6.379  13.185  1.00  0.00     0.045 C 
HETATM    8  C12 UNL     1      -3.968   8.386  13.147  1.00  0.00     0.154 C 
HETATM    9  O3  UNL     1      -4.546   8.818  12.150  1.00  0.00    -0.293 OA
HETATM   10  C13 UNL     1      -3.112   9.319  13.904  1.00  0.00     0.057 C 
HETATM   11  C14 UNL     1      -2.437   8.919  14.990  1.00  0.00    -0.037 C 
HETATM   12  C15 UNL     1      -2.559   7.528  15.610  1.00  0.00     0.026 C 
HETATM   13  C16 UNL     1      -1.180   6.822  15.506  1.00  0.00     0.011 C 
HETATM   14  C17 UNL     1       0.003   7.687  16.032  1.00  0.00     0.014 C 
HETATM   15  C18 UNL     1       0.078   9.092  15.349  1.00  0.00     0.005 C 
HETATM   16  C25 UNL     1       0.937  10.152  16.137  1.00  0.00     0.034 C 
HETATM   17  C37 UNL     1       0.296  11.519  15.750  1.00  0.00     0.012 C 
HETATM   18  C38 UNL     1      -1.174  11.247  15.379  1.00  0.00     0.044 C 
HETATM   19  C39 UNL     1      -1.357   9.750  15.635  1.00  0.00     0.090 C 
ENDROOT
BRANCH  16  20
HETATM   20  C26 UNL     1       2.491  10.205  16.365  1.00  0.00     0.087 C 
HETATM   21  C27 UNL     1       3.243  10.456  15.050  1.00  0.00     0.049 C 
BRANCH  20  22
HETATM   22  O4  UNL     1       2.826   8.839  16.750  1.00  0.00    -0.387 OA
HETATM   23  H42 UNL     1       2.665   8.264  15.981  1.00  0.00     0.210 HD
ENDBRANCH  20  22
BRANCH  20  24
HETATM   24  C28 UNL     1       3.004  11.105  17.540  1.00  0.00     0.181 C 
BRANCH  24  25
HETATM   25  O5  UNL     1       4.310  10.720  17.966  1.00  0.00    -0.390 OA
HETATM   26  H44 UNL     1       4.166   9.964  18.569  1.00  0.00     0.210 HD
ENDBRANCH  24  25
BRANCH  24  27
HETATM   27  C29 UNL     1       2.104  11.124  18.804  1.00  0.00     0.158 C 
HETATM   28  O6  UNL     1       2.350   9.890  19.569  1.00  0.00    -0.373 OA
HETATM   29  C30 UNL     1       2.259  10.269  20.949  1.00  0.00     0.185 C 
HETATM   30  C31 UNL     1       2.993  11.589  20.982  1.00  0.00     0.027 C 
HETATM   31  C34 UNL     1       2.897   9.298  21.949  1.00  0.00     0.383 C 
HETATM   32  C32 UNL     1       2.902  12.186  22.376  1.00  0.00     0.038 C 
HETATM   33  C35 UNL     1       2.331  12.295  19.814  1.00  0.00     0.020 C 
HETATM   34  C33 UNL     1       3.450  11.174  23.403  1.00  0.00     0.273 C 
HETATM   35  N1  UNL     1       2.809   9.860  23.292  1.00  0.00     0.114 N 
HETATM   36  H52 UNL     1       3.226   9.193  23.940  1.00  0.00     0.319 HD
HETATM   37  C36 UNL     1       3.100  13.513  19.326  1.00  0.00     0.013 C 
BRANCH  31  38
HETATM   38  O7  UNL     1       2.212   8.060  21.934  1.00  0.00    -0.366 OA
HETATM   39  H54 UNL     1       2.111   7.832  20.990  1.00  0.00     0.212 HD
ENDBRANCH  31  38
ENDBRANCH  24  27
ENDBRANCH  20  24
ENDBRANCH  16  20
BRANCH  15  40
HETATM   40  C19 UNL     1       0.381   8.880  13.777  1.00  0.00    -0.002 C 
HETATM   41  C20 UNL     1      -0.891   8.768  12.883  1.00  0.00     0.005 C 
HETATM   42  C21 UNL     1      -0.653   8.164  11.494  1.00  0.00     0.000 C 
HETATM   43  C22 UNL     1       0.720   8.529  10.957  1.00  0.00     0.000 C 
HETATM   44  C23 UNL     1       1.829   8.012  11.867  1.00  0.00     0.000 C 
HETATM   45  C24 UNL     1       1.406   7.826  13.333  1.00  0.00     0.005 C 
ENDBRANCH  15  40
BRANCH  19  46
HETATM   46  O8  UNL     1      -1.661   9.704  17.052  1.00  0.00    -0.384 OA
HETATM   47  H63 UNL     1      -2.563  10.048  17.164  1.00  0.00     0.211 HD
ENDBRANCH  19  46
BRANCH   1  48
HETATM   48  O2  UNL     1      -7.574   6.087  14.229  1.00  0.00    -0.386 OA
BRANCH  48  49
HETATM   49  C4  UNL     1      -8.785   6.177  13.468  1.00  0.00     0.170 C 
BRANCH  49  50
HETATM   50  C3  UNL     1      -9.795   7.063  14.195  1.00  0.00     0.052 C 
BRANCH  50  51
HETATM   51  C2  UNL     1     -11.185   6.966  13.579  1.00  0.00     0.169 C 
BRANCH  51  52
HETATM   52  O1  UNL     1     -11.334   7.820  12.445  1.00  0.00    -0.396 OA
HETATM   53  C1  UNL     1     -12.225   8.906  12.678  1.00  0.00     0.201 C 
ENDBRANCH  51  52
ENDBRANCH  50  51
ENDBRANCH  49  50
ENDBRANCH  48  49
ENDBRANCH   1  48
TORSDOF 13
ENDMDL
MODEL 5
REMARK minimizedAffinity -9.12358284
REMARK CNNscore 0.469832629
REMARK CNNaffinity 7.33338499
REMARK  13 active torsions:
REMARK  status: ('A' for Active; 'I' for Inactive)
REMARK    1  A    between atoms: O1_2  and  C2_3 
REMARK    2  A    between atoms: C2_3  and  C3_4 
REMARK    3  A    between atoms: C3_4  and  C4_5 
REMARK    4  A    between atoms: C4_5  and  O2_6 
REMARK    5  A    between atoms: O2_6  and  C5_7 
REMARK    6  A    between atoms: C18_21  and  C19_22 
REMARK    7  A    between atoms: C25_28  and  C26_29 
REMARK    8  A    between atoms: C26_29  and  O4_31 
REMARK    9  A    between atoms: C26_29  and  C28_32 
REMARK   10  A    between atoms: C28_32  and  O5_33 
REMARK   11  A    between atoms: C28_32  and  C29_34 
REMARK   12  A    between atoms: C34_41  and  O7_42 
REMARK   13  A    between atoms: C39_47  and  O8_48 
ROOT
HETATM    1  C5  UNL     1      -5.676   6.722  14.394  1.00  0.00     0.122 C 
HETATM    2  C6  UNL     1      -4.621   6.938  15.487  1.00  0.00     0.033 C 
HETATM    3  C7  UNL     1      -3.477   5.929  15.427  1.00  0.00     0.013 C 
HETATM    4  C8  UNL     1      -2.785   5.764  14.026  1.00  0.00    -0.026 C 
HETATM    5  C9  UNL     1      -2.810   4.244  13.709  1.00  0.00     0.016 C 
HETATM    6  C10 UNL     1      -3.580   6.526  12.930  1.00  0.00     0.071 C 
HETATM    7  C11 UNL     1      -5.086   6.247  13.056  1.00  0.00     0.045 C 
HETATM    8  C12 UNL     1      -3.355   8.036  12.947  1.00  0.00     0.154 C 
HETATM    9  O3  UNL     1      -4.180   8.837  12.507  1.00  0.00    -0.293 OA
HETATM   10  C13 UNL     1      -2.084   8.574  13.468  1.00  0.00     0.057 C 
HETATM   11  C14 UNL     1      -1.131   7.766  13.948  1.00  0.00    -0.037 C 
HETATM   12  C15 UNL     1      -1.289   6.255  14.106  1.00  0.00     0.026 C 
HETATM   13  C16 UNL     1      -0.263   5.554  13.176  1.00  0.00     0.011 C 
HETATM   14  C17 UNL     1       1.190   6.093  13.333  1.00  0.00     0.014 C 
HETATM   15  C18 UNL     1       1.284   7.643  13.148  1.00  0.00     0.005 C 
HETATM   16  C25 UNL     1       2.598   8.288  13.731  1.00  0.00     0.034 C 
HETATM   17  C37 UNL     1       2.170   9.738  14.110  1.00  0.00     0.012 C 
HETATM   18  C38 UNL     1       0.656   9.710  14.392  1.00  0.00     0.044 C 
HETATM   19  C39 UNL     1       0.272   8.237  14.242  1.00  0.00     0.090 C 
ENDROOT
BRANCH  16  20
HETATM   20  C26 UNL     1       4.081   8.160  13.225  1.00  0.00     0.087 C 
HETATM   21  C27 UNL     1       4.404   9.220  12.163  1.00  0.00     0.049 C 
BRANCH  20  22
HETATM   22  O4  UNL     1       4.092   6.885  12.520  1.00  0.00    -0.387 OA
HETATM   23  H42 UNL     1       3.524   6.973  11.733  1.00  0.00     0.210 HD
ENDBRANCH  20  22
BRANCH  20  24
HETATM   24  C28 UNL     1       5.193   8.039  14.321  1.00  0.00     0.181 C 
BRANCH  24  25
HETATM   25  O5  UNL     1       4.638   7.749  15.603  1.00  0.00    -0.390 OA
HETATM   26  H44 UNL     1       4.347   8.614  15.954  1.00  0.00     0.210 HD
ENDBRANCH  24  25
BRANCH  24  27
HETATM   27  C29 UNL     1       6.096   9.289  14.493  1.00  0.00     0.158 C 
HETATM   28  O6  UNL     1       5.641  10.033  15.679  1.00  0.00    -0.373 OA
HETATM   29  C30 UNL     1       6.831  10.557  16.284  1.00  0.00     0.185 C 
HETATM   30  C31 UNL     1       7.796   9.400  16.181  1.00  0.00     0.027 C 
HETATM   31  C34 UNL     1       6.698  10.990  17.749  1.00  0.00     0.383 C 
HETATM   32  C32 UNL     1       9.160   9.828  16.694  1.00  0.00     0.038 C 
HETATM   33  C35 UNL     1       7.622   9.032  14.720  1.00  0.00     0.020 C 
HETATM   34  C33 UNL     1       9.020  10.361  18.135  1.00  0.00     0.273 C 
HETATM   35  N1  UNL     1       8.001  11.409  18.249  1.00  0.00     0.114 N 
HETATM   36  H52 UNL     1       7.887  11.704  19.217  1.00  0.00     0.319 HD
HETATM   37  C36 UNL     1       8.168   7.656  14.369  1.00  0.00     0.013 C 
BRANCH  31  38
HETATM   38  O7  UNL     1       5.802  12.080  17.857  1.00  0.00    -0.366 OA
HETATM   39  H54 UNL     1       5.024  11.830  17.323  1.00  0.00     0.212 HD
ENDBRANCH  31  38
ENDBRANCH  24  27
ENDBRANCH  20  24
ENDBRANCH  16  20
BRANCH  15  40
HETATM   40  C19 UNL     1       0.865   8.003  11.630  1.00  0.00    -0.002 C 
HETATM   41  C20 UNL     1      -0.442   8.841  11.501  1.00  0.00     0.005 C 
HETATM   42  C21 UNL     1      -1.076   8.839  10.105  1.00  0.00     0.000 C 
HETATM   43  C22 UNL     1      -0.020   8.758   9.016  1.00  0.00     0.000 C 
HETATM   44  C23 UNL     1       0.806   7.482   9.135  1.00  0.00     0.000 C 
HETATM   45  C24 UNL     1       0.869   6.903  10.557  1.00  0.00     0.005 C 
ENDBRANCH  15  40
BRANCH  19  46
HETATM   46  O8  UNL     1       0.569   7.695  15.553  1.00  0.00    -0.384 OA
HETATM   47  H63 UNL     1      -0.110   8.028  16.163  1.00  0.00     0.211 HD
ENDBRANCH  19  46
BRANCH   1  48
HETATM   48  O2  UNL     1      -6.613   5.723  14.818  1.00  0.00    -0.386 OA
BRANCH  48  49
HETATM   49  C4  UNL     1      -7.274   5.060  13.733  1.00  0.00     0.170 C 
BRANCH  49  50
HETATM   50  C3  UNL     1      -7.435   3.574  14.048  1.00  0.00     0.052 C 
BRANCH  50  51
HETATM   51  C2  UNL     1      -7.254   2.706  12.809  1.00  0.00     0.169 C 
BRANCH  51  52
HETATM   52  O1  UNL     1      -6.534   3.380  11.778  1.00  0.00    -0.396 OA
HETATM   53  C1  UNL     1      -5.534   2.567  11.172  1.00  0.00     0.201 C 
ENDBRANCH  51  52
ENDBRANCH  50  51
ENDBRANCH  49  50
ENDBRANCH  48  49
ENDBRANCH   1  48
TORSDOF 13
ENDMDL
MODEL 6
REMARK minimizedAffinity -9.97763538
REMARK CNNscore 0.460620612
REMARK CNNaffinity 6.98518372
REMARK  13 active torsions:
REMARK  status: ('A' for Active; 'I' for Inactive)
REMARK    1  A    between atoms: O1_2  and  C2_3 
REMARK    2  A    between atoms: C2_3  and  C3_4 
REMARK    3  A    between atoms: C3_4  and  C4_5 
REMARK    4  A    between atoms: C4_5  and  O2_6 
REMARK    5  A    between atoms: O2_6  and  C5_7 
REMARK    6  A    between atoms: C18_21  and  C19_22 
REMARK    7  A    between atoms: C25_28  and  C26_29 
REMARK    8  A    between atoms: C26_29  and  O4_31 
REMARK    9  A    between atoms: C26_29  and  C28_32 
REMARK   10  A    between atoms: C28_32  and  O5_33 
REMARK   11  A    between atoms: C28_32  and  C29_34 
REMARK   12  A    between atoms: C34_41  and  O7_42 
REMARK   13  A    between atoms: C39_47  and  O8_48 
ROOT
HETATM    1  C5  UNL     1      -4.644   6.767  14.821  1.00  0.00     0.122 C 
HETATM    2  C6  UNL     1      -3.348   6.588  15.624  1.00  0.00     0.033 C 
HETATM    3  C7  UNL     1      -2.460   5.466  15.090  1.00  0.00     0.013 C 
HETATM    4  C8  UNL     1      -2.147   5.518  13.550  1.00  0.00    -0.026 C 
HETATM    5  C9  UNL     1      -2.531   4.123  12.986  1.00  0.00     0.016 C 
HETATM    6  C10 UNL     1      -3.008   6.606  12.853  1.00  0.00     0.071 C 
HETATM    7  C11 UNL     1      -4.473   6.520  13.313  1.00  0.00     0.045 C 
HETATM    8  C12 UNL     1      -2.503   8.029  13.080  1.00  0.00     0.154 C 
HETATM    9  O3  UNL     1      -3.238   9.014  13.019  1.00  0.00    -0.293 OA
HETATM   10  C13 UNL     1      -1.069   8.256  13.340  1.00  0.00     0.057 C 
HETATM   11  C14 UNL     1      -0.203   7.236  13.405  1.00  0.00    -0.037 C 
HETATM   12  C15 UNL     1      -0.606   5.764  13.327  1.00  0.00     0.026 C 
HETATM   13  C16 UNL     1       0.032   5.148  12.053  1.00  0.00     0.011 C 
HETATM   14  C17 UNL     1       1.558   5.431  11.921  1.00  0.00     0.014 C 
HETATM   15  C18 UNL     1       1.901   6.954  11.997  1.00  0.00     0.005 C 
HETATM   16  C25 UNL     1       3.410   7.265  12.324  1.00  0.00     0.034 C 
HETATM   17  C37 UNL     1       3.362   8.642  13.053  1.00  0.00     0.012 C 
HETATM   18  C38 UNL     1       1.974   8.765  13.709  1.00  0.00     0.044 C 
HETATM   19  C39 UNL     1       1.293   7.429  13.403  1.00  0.00     0.090 C 
ENDROOT
BRANCH  16  20
HETATM   20  C26 UNL     1       4.689   7.044  11.437  1.00  0.00     0.087 C 
HETATM   21  C27 UNL     1       4.687   7.970  10.212  1.00  0.00     0.049 C 
BRANCH  20  22
HETATM   22  O4  UNL     1       4.509   5.698  10.908  1.00  0.00    -0.387 OA
HETATM   23  H42 UNL     1       3.740   5.712  10.311  1.00  0.00     0.210 HD
ENDBRANCH  20  22
BRANCH  20  24
HETATM   24  C28 UNL     1       6.068   7.019  12.178  1.00  0.00     0.181 C 
BRANCH  24  25
HETATM   25  O5  UNL     1       6.351   5.729  12.717  1.00  0.00    -0.390 OA
HETATM   26  H44 UNL     1       5.863   5.696  13.564  1.00  0.00     0.210 HD
ENDBRANCH  24  25
BRANCH  24  27
HETATM   27  C29 UNL     1       6.217   8.036  13.341  1.00  0.00     0.158 C 
HETATM   28  O6  UNL     1       7.039   7.421  14.396  1.00  0.00    -0.373 OA
HETATM   29  C30 UNL     1       7.828   8.487  14.939  1.00  0.00     0.185 C 
HETATM   30  C31 UNL     1       8.252   9.251  13.706  1.00  0.00     0.027 C 
HETATM   31  C34 UNL     1       9.069   8.060  15.733  1.00  0.00     0.383 C 
HETATM   32  C32 UNL     1       9.026  10.492  14.118  1.00  0.00     0.038 C 
HETATM   33  C35 UNL     1       6.914   9.395  13.005  1.00  0.00     0.020 C 
HETATM   34  C33 UNL     1      10.220  10.079  15.003  1.00  0.00     0.273 C 
HETATM   35  N1  UNL     1       9.816   9.244  16.138  1.00  0.00     0.114 N 
HETATM   36  H52 UNL     1      10.625   8.938  16.674  1.00  0.00     0.319 HD
HETATM   37  C36 UNL     1       7.035   9.787  11.541  1.00  0.00     0.013 C 
BRANCH  31  38
HETATM   38  O7  UNL     1       8.684   7.350  16.895  1.00  0.00    -0.366 OA
HETATM   39  H54 UNL     1       8.019   6.702  16.595  1.00  0.00     0.212 HD
ENDBRANCH  31  38
ENDBRANCH  24  27
ENDBRANCH  20  24
ENDBRANCH  16  20
BRANCH  15  40
HETATM   40  C19 UNL     1       1.227   7.693  10.729  1.00  0.00    -0.002 C 
HETATM   41  C20 UNL     1      -0.132   8.393  11.035  1.00  0.00     0.005 C 
HETATM   42  C21 UNL     1      -0.977   8.731   9.801  1.00  0.00     0.000 C 
HETATM   43  C22 UNL     1      -0.104   9.079   8.608  1.00  0.00     0.000 C 
HETATM   44  C23 UNL     1       0.805   7.916   8.225  1.00  0.00     0.000 C 
HETATM   45  C24 UNL     1       1.126   6.959   9.383  1.00  0.00     0.005 C 
ENDBRANCH  15  40
BRANCH  19  46
HETATM   46  O8  UNL     1       1.770   6.577  14.474  1.00  0.00    -0.384 OA
HETATM   47  H63 UNL     1       1.322   6.859  15.289  1.00  0.00     0.211 HD
ENDBRANCH  19  46
BRANCH   1  48
HETATM   48  O2  UNL     1      -5.633   5.842  15.288  1.00  0.00    -0.386 OA
BRANCH  48  49
HETATM   49  C4  UNL     1      -6.938   6.070  14.740  1.00  0.00     0.170 C 
BRANCH  49  50
HETATM   50  C3  UNL     1      -7.967   6.171  15.863  1.00  0.00     0.052 C 
BRANCH  50  51
HETATM   51  C2  UNL     1      -9.200   6.960  15.437  1.00  0.00     0.169 C 
BRANCH  51  52
HETATM   52  O1  UNL     1      -9.667   6.575  14.145  1.00  0.00    -0.396 OA
HETATM   53  C1  UNL     1     -10.711   7.412  13.656  1.00  0.00     0.201 C 
ENDBRANCH  51  52
ENDBRANCH  50  51
ENDBRANCH  49  50
ENDBRANCH  48  49
ENDBRANCH   1  48
TORSDOF 13
ENDMDL
MODEL 7
REMARK minimizedAffinity -7.89109278
REMARK CNNscore 0.439387381
REMARK CNNaffinity 6.75535059
REMARK  13 active torsions:
REMARK  status: ('A' for Active; 'I' for Inactive)
REMARK    1  A    between atoms: O1_2  and  C2_3 
REMARK    2  A    between atoms: C2_3  and  C3_4 
REMARK    3  A    between atoms: C3_4  and  C4_5 
REMARK    4  A    between atoms: C4_5  and  O2_6 
REMARK    5  A    between atoms: O2_6  and  C5_7 
REMARK    6  A    between atoms: C18_21  and  C19_22 
REMARK    7  A    between atoms: C25_28  and  C26_29 
REMARK    8  A    between atoms: C26_29  and  O4_31 
REMARK    9  A    between atoms: C26_29  and  C28_32 
REMARK   10  A    between atoms: C28_32  and  O5_33 
REMARK   11  A    between atoms: C28_32  and  C29_34 
REMARK   12  A    between atoms: C34_41  and  O7_42 
REMARK   13  A    between atoms: C39_47  and  O8_48 
ROOT
HETATM    1  C5  UNL     1       4.608  13.247  19.183  1.00  0.00     0.122 C 
HETATM    2  C6  UNL     1       4.527  11.763  18.800  1.00  0.00     0.033 C 
HETATM    3  C7  UNL     1       3.355  11.036  19.457  1.00  0.00     0.013 C 
HETATM    4  C8  UNL     1       1.949  11.720  19.294  1.00  0.00    -0.026 C 
HETATM    5  C9  UNL     1       1.367  11.856  20.727  1.00  0.00     0.016 C 
HETATM    6  C10 UNL     1       2.099  13.134  18.668  1.00  0.00     0.071 C 
HETATM    7  C11 UNL     1       3.234  13.915  19.350  1.00  0.00     0.045 C 
HETATM    8  C12 UNL     1       2.349  13.116  17.162  1.00  0.00     0.154 C 
HETATM    9  O3  UNL     1       2.923  14.030  16.572  1.00  0.00    -0.293 OA
HETATM   10  C13 UNL     1       1.848  11.985  16.357  1.00  0.00     0.057 C 
HETATM   11  C14 UNL     1       1.198  10.961  16.924  1.00  0.00    -0.037 C 
HETATM   12  C15 UNL     1       1.004  10.800  18.431  1.00  0.00     0.026 C 
HETATM   13  C16 UNL     1      -0.517  10.862  18.739  1.00  0.00     0.011 C 
HETATM   14  C17 UNL     1      -1.372   9.911  17.849  1.00  0.00     0.014 C 
HETATM   15  C18 UNL     1      -1.134  10.136  16.320  1.00  0.00     0.005 C 
HETATM   16  C25 UNL     1      -1.600   8.940  15.408  1.00  0.00     0.034 C 
HETATM   17  C37 UNL     1      -0.658   9.021  14.169  1.00  0.00     0.012 C 
HETATM   18  C38 UNL     1       0.644   9.704  14.627  1.00  0.00     0.044 C 
HETATM   19  C39 UNL     1       0.445   9.926  16.128  1.00  0.00     0.090 C 
ENDROOT
BRANCH  16  20
HETATM   20  C26 UNL     1      -3.055   8.439  15.086  1.00  0.00     0.087 C 
HETATM   21  C27 UNL     1      -3.715   9.298  13.997  1.00  0.00     0.049 C 
BRANCH  20  22
HETATM   22  O4  UNL     1      -3.794   8.726  16.309  1.00  0.00    -0.387 OA
HETATM   23  H42 UNL     1      -3.835   9.694  16.413  1.00  0.00     0.210 HD
ENDBRANCH  20  22
BRANCH  20  24
HETATM   24  C28 UNL     1      -3.237   6.903  14.841  1.00  0.00     0.181 C 
BRANCH  24  25
HETATM   25  O5  UNL     1      -2.081   6.168  15.240  1.00  0.00    -0.390 OA
HETATM   26  H44 UNL     1      -1.461   6.243  14.488  1.00  0.00     0.210 HD
ENDBRANCH  24  25
BRANCH  24  27
HETATM   27  C29 UNL     1      -3.548   6.495  13.376  1.00  0.00     0.158 C 
HETATM   28  O6  UNL     1      -2.452   5.640  12.889  1.00  0.00    -0.373 OA
HETATM   29  C30 UNL     1      -3.074   4.666  12.040  1.00  0.00     0.185 C 
HETATM   30  C31 UNL     1      -4.318   4.296  12.812  1.00  0.00     0.027 C 
HETATM   31  C34 UNL     1      -2.247   3.406  11.757  1.00  0.00     0.383 C 
HETATM   32  C32 UNL     1      -5.157   3.330  11.992  1.00  0.00     0.038 C 
HETATM   33  C35 UNL     1      -4.857   5.676  13.134  1.00  0.00     0.020 C 
HETATM   34  C33 UNL     1      -4.301   2.103  11.615  1.00  0.00     0.273 C 
HETATM   35  N1  UNL     1      -3.041   2.475  10.964  1.00  0.00     0.114 N 
HETATM   36  H52 UNL     1      -2.469   1.654  10.777  1.00  0.00     0.319 HD
HETATM   37  C36 UNL     1      -5.907   5.678  14.235  1.00  0.00     0.013 C 
BRANCH  31  38
HETATM   38  O7  UNL     1      -1.082   3.740  11.026  1.00  0.00    -0.366 OA
HETATM   39  H54 UNL     1      -0.700   4.511  11.486  1.00  0.00     0.212 HD
ENDBRANCH  31  38
ENDBRANCH  24  27
ENDBRANCH  20  24
ENDBRANCH  16  20
BRANCH  15  40
HETATM   40  C19 UNL     1      -1.630  11.625  15.939  1.00  0.00    -0.002 C 
HETATM   41  C20 UNL     1      -3.048  11.991  16.473  1.00  0.00     0.005 C 
HETATM   42  C21 UNL     1      -3.702  13.200  15.795  1.00  0.00     0.000 C 
HETATM   43  C22 UNL     1      -2.667  14.234  15.385  1.00  0.00     0.000 C 
HETATM   44  C23 UNL     1      -1.662  13.654  14.396  1.00  0.00     0.000 C 
HETATM   45  C24 UNL     1      -1.487  12.131  14.496  1.00  0.00     0.005 C 
ENDBRANCH  15  40
BRANCH  19  46
HETATM   46  O8  UNL     1       0.859   8.658  16.695  1.00  0.00    -0.384 OA
HETATM   47  H63 UNL     1       1.827   8.610  16.617  1.00  0.00     0.211 HD
ENDBRANCH  19  46
BRANCH   1  48
HETATM   48  O2  UNL     1       5.298  13.386  20.431  1.00  0.00    -0.386 OA
BRANCH  48  49
HETATM   49  C4  UNL     1       5.444  14.747  20.857  1.00  0.00     0.170 C 
BRANCH  49  50
HETATM   50  C3  UNL     1       5.357  14.832  22.379  1.00  0.00     0.052 C 
BRANCH  50  51
HETATM   51  C2  UNL     1       5.903  13.580  23.052  1.00  0.00     0.169 C 
BRANCH  51  52
HETATM   52  O1  UNL     1       7.330  13.559  23.078  1.00  0.00    -0.396 OA
HETATM   53  C1  UNL     1       7.868  12.242  23.146  1.00  0.00     0.201 C 
ENDBRANCH  51  52
ENDBRANCH  50  51
ENDBRANCH  49  50
ENDBRANCH  48  49
ENDBRANCH   1  48
TORSDOF 13
ENDMDL
MODEL 8
REMARK minimizedAffinity -9.67926884
REMARK CNNscore 0.376321554
REMARK CNNaffinity 7.67632627
REMARK  13 active torsions:
REMARK  status: ('A' for Active; 'I' for Inactive)
REMARK    1  A    between atoms: O1_2  and  C2_3 
REMARK    2  A    between atoms: C2_3  and  C3_4 
REMARK    3  A    between atoms: C3_4  and  C4_5 
REMARK    4  A    between atoms: C4_5  and  O2_6 
REMARK    5  A    between atoms: O2_6  and  C5_7 
REMARK    6  A    between atoms: C18_21  and  C19_22 
REMARK    7  A    between atoms: C25_28  and  C26_29 
REMARK    8  A    between atoms: C26_29  and  O4_31 
REMARK    9  A    between atoms: C26_29  and  C28_32 
REMARK   10  A    between atoms: C28_32  and  O5_33 
REMARK   11  A    between atoms: C28_32  and  C29_34 
REMARK   12  A    between atoms: C34_41  and  O7_42 
REMARK   13  A    between atoms: C39_47  and  O8_48 
ROOT
HETATM    1  C5  UNL     1       1.741   6.826  12.947  1.00  0.00     0.122 C 
HETATM    2  C6  UNL     1       1.052   7.503  14.139  1.00  0.00     0.033 C 
HETATM    3  C7  UNL     1      -0.023   8.506  13.724  1.00  0.00     0.013 C 
HETATM    4  C8  UNL     1      -1.094   7.974  12.703  1.00  0.00    -0.026 C 
HETATM    5  C9  UNL     1      -1.111   8.989  11.529  1.00  0.00     0.016 C 
HETATM    6  C10 UNL     1      -0.687   6.575  12.163  1.00  0.00     0.071 C 
HETATM    7  C11 UNL     1       0.797   6.555  11.764  1.00  0.00     0.045 C 
HETATM    8  C12 UNL     1      -0.949   5.437  13.146  1.00  0.00     0.154 C 
HETATM    9  O3  UNL     1      -0.321   4.379  13.122  1.00  0.00    -0.293 OA
HETATM   10  C13 UNL     1      -2.026   5.574  14.144  1.00  0.00     0.057 C 
HETATM   11  C14 UNL     1      -2.765   6.688  14.222  1.00  0.00    -0.037 C 
HETATM   12  C15 UNL     1      -2.514   7.942  13.386  1.00  0.00     0.026 C 
HETATM   13  C16 UNL     1      -3.746   8.175  12.470  1.00  0.00     0.011 C 
HETATM   14  C17 UNL     1      -5.104   8.141  13.231  1.00  0.00     0.014 C 
HETATM   15  C18 UNL     1      -5.303   6.827  14.056  1.00  0.00     0.005 C 
HETATM   16  C25 UNL     1      -6.405   6.925  15.177  1.00  0.00     0.034 C 
HETATM   17  C37 UNL     1      -5.935   5.907  16.259  1.00  0.00     0.012 C 
HETATM   18  C38 UNL     1      -4.406   5.776  16.131  1.00  0.00     0.044 C 
HETATM   19  C39 UNL     1      -4.032   6.776  15.035  1.00  0.00     0.090 C 
ENDROOT
BRANCH  16  20
HETATM   20  C26 UNL     1      -7.966   7.044  15.032  1.00  0.00     0.087 C 
HETATM   21  C27 UNL     1      -8.690   6.389  16.217  1.00  0.00     0.049 C 
BRANCH  20  22
HETATM   22  O4  UNL     1      -8.267   6.204  13.880  1.00  0.00    -0.387 OA
HETATM   23  H42 UNL     1      -8.068   5.282  14.121  1.00  0.00     0.210 HD
ENDBRANCH  20  22
BRANCH  20  24
HETATM   24  C28 UNL     1      -8.538   8.458  14.677  1.00  0.00     0.181 C 
BRANCH  24  25
HETATM   25  O5  UNL     1      -7.662   9.501  15.104  1.00  0.00    -0.390 OA
HETATM   26  H44 UNL     1      -7.862   9.626  16.053  1.00  0.00     0.210 HD
ENDBRANCH  24  25
BRANCH  24  27
HETATM   27  C29 UNL     1      -9.938   8.776  15.266  1.00  0.00     0.158 C 
HETATM   28  O6  UNL     1     -10.001  10.216  15.568  1.00  0.00    -0.373 OA
HETATM   29  C30 UNL     1     -11.345  10.613  15.269  1.00  0.00     0.185 C 
HETATM   30  C31 UNL     1     -11.630   9.884  13.978  1.00  0.00     0.027 C 
HETATM   31  C34 UNL     1     -11.567  12.118  15.072  1.00  0.00     0.383 C 
HETATM   32  C32 UNL     1     -13.074  10.120  13.568  1.00  0.00     0.038 C 
HETATM   33  C35 UNL     1     -11.171   8.487  14.350  1.00  0.00     0.020 C 
HETATM   34  C33 UNL     1     -13.334  11.637  13.466  1.00  0.00     0.273 C 
HETATM   35  N1  UNL     1     -12.952  12.356  14.685  1.00  0.00     0.114 N 
HETATM   36  H52 UNL     1     -13.079  13.360  14.573  1.00  0.00     0.319 HD
HETATM   37  C36 UNL     1     -10.964   7.575  13.150  1.00  0.00     0.013 C 
BRANCH  31  38
HETATM   38  O7  UNL     1     -11.311  12.811  16.279  1.00  0.00    -0.366 OA
HETATM   39  H54 UNL     1     -10.463  12.456  16.607  1.00  0.00     0.212 HD
ENDBRANCH  31  38
ENDBRANCH  24  27
ENDBRANCH  20  24
ENDBRANCH  16  20
BRANCH  15  40
HETATM   40  C19 UNL     1      -5.366   5.583  13.028  1.00  0.00    -0.002 C 
HETATM   41  C20 UNL     1      -6.783   4.956  12.859  1.00  0.00     0.005 C 
HETATM   42  C21 UNL     1      -6.799   3.555  12.237  1.00  0.00     0.000 C 
HETATM   43  C22 UNL     1      -5.679   3.383  11.226  1.00  0.00     0.000 C 
HETATM   44  C23 UNL     1      -4.311   3.571  11.872  1.00  0.00     0.000 C 
HETATM   45  C24 UNL     1      -4.324   4.459  13.126  1.00  0.00     0.005 C 
ENDBRANCH  15  40
BRANCH  19  46
HETATM   46  O8  UNL     1      -3.908   8.020  15.768  1.00  0.00    -0.384 OA
HETATM   47  H63 UNL     1      -3.090   7.967  16.290  1.00  0.00     0.211 HD
ENDBRANCH  19  46
BRANCH   1  48
HETATM   48  O2  UNL     1       2.795   7.666  12.459  1.00  0.00    -0.386 OA
BRANCH  48  49
HETATM   49  C4  UNL     1       3.771   6.965  11.676  1.00  0.00     0.170 C 
BRANCH  49  50
HETATM   50  C3  UNL     1       3.634   7.348  10.205  1.00  0.00     0.052 C 
BRANCH  50  51
HETATM   51  C2  UNL     1       3.414   6.130   9.316  1.00  0.00     0.169 C 
BRANCH  51  52
HETATM   52  O1  UNL     1       4.409   5.127   9.518  1.00  0.00    -0.396 OA
HETATM   53  C1  UNL     1       4.021   3.849   9.025  1.00  0.00     0.201 C 
ENDBRANCH  51  52
ENDBRANCH  50  51
ENDBRANCH  49  50
ENDBRANCH  48  49
ENDBRANCH   1  48
TORSDOF 13
ENDMDL
MODEL 9
REMARK minimizedAffinity -8.90305328
REMARK CNNscore 0.37390101
REMARK CNNaffinity 7.16335154
REMARK  13 active torsions:
REMARK  status: ('A' for Active; 'I' for Inactive)
REMARK    1  A    between atoms: O1_2  and  C2_3 
REMARK    2  A    between atoms: C2_3  and  C3_4 
REMARK    3  A    between atoms: C3_4  and  C4_5 
REMARK    4  A    between atoms: C4_5  and  O2_6 
REMARK    5  A    between atoms: O2_6  and  C5_7 
REMARK    6  A    between atoms: C18_21  and  C19_22 
REMARK    7  A    between atoms: C25_28  and  C26_29 
REMARK    8  A    between atoms: C26_29  and  O4_31 
REMARK    9  A    between atoms: C26_29  and  C28_32 
REMARK   10  A    between atoms: C28_32  and  O5_33 
REMARK   11  A    between atoms: C28_32  and  C29_34 
REMARK   12  A    between atoms: C34_41  and  O7_42 
REMARK   13  A    between atoms: C39_47  and  O8_48 
ROOT
HETATM    1  C5  UNL     1      -5.796   7.166  14.384  1.00  0.00     0.122 C 
HETATM    2  C6  UNL     1      -4.824   7.550  15.507  1.00  0.00     0.033 C 
HETATM    3  C7  UNL     1      -3.708   6.527  15.715  1.00  0.00     0.013 C 
HETATM    4  C8  UNL     1      -2.915   6.113  14.422  1.00  0.00    -0.026 C 
HETATM    5  C9  UNL     1      -2.960   4.561  14.368  1.00  0.00     0.016 C 
HETATM    6  C10 UNL     1      -3.599   6.688  13.152  1.00  0.00     0.071 C 
HETATM    7  C11 UNL     1      -5.119   6.458  13.200  1.00  0.00     0.045 C 
HETATM    8  C12 UNL     1      -3.332   8.174  12.930  1.00  0.00     0.154 C 
HETATM    9  O3  UNL     1      -4.096   8.900  12.294  1.00  0.00    -0.293 OA
HETATM   10  C13 UNL     1      -2.090   8.774  13.454  1.00  0.00     0.057 C 
HETATM   11  C14 UNL     1      -1.201   8.045  14.140  1.00  0.00    -0.037 C 
HETATM   12  C15 UNL     1      -1.416   6.586  14.541  1.00  0.00     0.026 C 
HETATM   13  C16 UNL     1      -0.342   5.720  13.831  1.00  0.00     0.011 C 
HETATM   14  C17 UNL     1       1.110   6.255  14.011  1.00  0.00     0.014 C 
HETATM   15  C18 UNL     1       1.264   7.748  13.573  1.00  0.00     0.005 C 
HETATM   16  C25 UNL     1       2.547   8.463  14.143  1.00  0.00     0.034 C 
HETATM   17  C37 UNL     1       2.134   9.963  14.233  1.00  0.00     0.012 C 
HETATM   18  C38 UNL     1       0.603  10.008  14.391  1.00  0.00     0.044 C 
HETATM   19  C39 UNL     1       0.188   8.537  14.463  1.00  0.00     0.090 C 
ENDROOT
BRANCH  16  20
HETATM   20  C26 UNL     1       4.060   8.226  13.790  1.00  0.00     0.087 C 
HETATM   21  C27 UNL     1       4.220   7.612  12.392  1.00  0.00     0.049 C 
BRANCH  20  22
HETATM   22  O4  UNL     1       4.469   7.183  14.722  1.00  0.00    -0.387 OA
HETATM   23  H42 UNL     1       3.986   6.369  14.491  1.00  0.00     0.210 HD
ENDBRANCH  20  22
BRANCH  20  24
HETATM   24  C28 UNL     1       5.041   9.419  14.045  1.00  0.00     0.181 C 
BRANCH  24  25
HETATM   25  O5  UNL     1       6.171   9.366  13.174  1.00  0.00    -0.390 OA
HETATM   26  H44 UNL     1       6.785   8.733  13.595  1.00  0.00     0.210 HD
ENDBRANCH  24  25
BRANCH  24  27
HETATM   27  C29 UNL     1       5.593   9.529  15.492  1.00  0.00     0.158 C 
HETATM   28  O6  UNL     1       6.714   8.584  15.636  1.00  0.00    -0.373 OA
HETATM   29  C30 UNL     1       7.658   9.238  16.494  1.00  0.00     0.185 C 
HETATM   30  C31 UNL     1       7.651  10.658  15.979  1.00  0.00     0.027 C 
HETATM   31  C34 UNL     1       9.087   8.682  16.457  1.00  0.00     0.383 C 
HETATM   32  C32 UNL     1       8.540  11.522  16.858  1.00  0.00     0.038 C 
HETATM   33  C35 UNL     1       6.158  10.919  15.928  1.00  0.00     0.020 C 
HETATM   34  C33 UNL     1       9.956  10.912  16.908  1.00  0.00     0.273 C 
HETATM   35  N1  UNL     1       9.947   9.501  17.303  1.00  0.00     0.114 N 
HETATM   36  H52 UNL     1      10.885   9.106  17.274  1.00  0.00     0.319 HD
HETATM   37  C36 UNL     1       5.782  12.132  15.090  1.00  0.00     0.013 C 
BRANCH  31  38
HETATM   38  O7  UNL     1       9.107   7.354  16.946  1.00  0.00    -0.366 OA
HETATM   39  H54 UNL     1       8.369   6.901  16.496  1.00  0.00     0.212 HD
ENDBRANCH  31  38
ENDBRANCH  24  27
ENDBRANCH  20  24
ENDBRANCH  16  20
BRANCH  15  40
HETATM   40  C19 UNL     1       0.975   7.847  11.987  1.00  0.00    -0.002 C 
HETATM   41  C20 UNL     1      -0.077   8.925  11.587  1.00  0.00     0.005 C 
HETATM   42  C21 UNL     1      -0.666   8.762  10.181  1.00  0.00     0.000 C 
HETATM   43  C22 UNL     1       0.354   8.187   9.215  1.00  0.00     0.000 C 
HETATM   44  C23 UNL     1       0.831   6.810   9.663  1.00  0.00     0.000 C 
HETATM   45  C24 UNL     1       0.722   6.567  11.177  1.00  0.00     0.005 C 
ENDBRANCH  15  40
BRANCH  19  46
HETATM   46  O8  UNL     1       0.366   8.224  15.868  1.00  0.00    -0.384 OA
HETATM   47  H63 UNL     1      -0.348   8.668  16.355  1.00  0.00     0.211 HD
ENDBRANCH  19  46
BRANCH   1  48
HETATM   48  O2  UNL     1      -6.792   6.270  14.894  1.00  0.00    -0.386 OA
BRANCH  48  49
HETATM   49  C4  UNL     1      -8.126   6.788  14.810  1.00  0.00     0.170 C 
BRANCH  49  50
HETATM   50  C3  UNL     1      -8.832   6.220  13.580  1.00  0.00     0.052 C 
BRANCH  50  51
HETATM   51  C2  UNL     1     -10.193   6.866  13.355  1.00  0.00     0.169 C 
BRANCH  51  52
HETATM   52  O1  UNL     1     -11.023   6.795  14.513  1.00  0.00    -0.396 OA
HETATM   53  C1  UNL     1     -11.567   8.057  14.888  1.00  0.00     0.201 C 
ENDBRANCH  51  52
ENDBRANCH  50  51
ENDBRANCH  49  50
ENDBRANCH  48  49
ENDBRANCH   1  48
TORSDOF 13
ENDMDL
