MODEL 1
REMARK minimizedAffinity -7.1302309
REMARK CNNscore 0.350157708
REMARK CNNaffinity 6.70472574
REMARK  7 active torsions:
REMARK  status: ('A' for Active; 'I' for Inactive)
REMARK    1  A    between atoms: C3_3  and  C4_4 
REMARK    2  A    between atoms: C4_4  and  O1_5 
REMARK    3  A    between atoms: C7_9  and  O3_10 
REMARK    4  A    between atoms: C25_30  and  C26_31 
REMARK    5  A    between atoms: C41_47  and  O7_49 
REMARK    6  A    between atoms: C43_50  and  O8_51 
REMARK    7  A    between atoms: C43_50  and  O9_52 
ROOT
HETATM    1  C1  UNL     1       0.864  15.800  -4.018  1.00  0.00     0.013 C 
HETATM    2  C2  UNL     1       2.150  16.039  -3.229  1.00  0.00     0.023 C 
HETATM    3  C3  UNL     1       2.682  14.724  -2.583  1.00  0.00     0.050 C 
HETATM    4  C5  UNL     1       2.178  14.755  -1.091  1.00  0.00     0.194 C 
HETATM    5  O2  UNL     1       1.312  15.905  -1.112  1.00  0.00    -0.371 OA
HETATM    6  C6  UNL     1       1.930  16.870  -1.984  1.00  0.00     0.167 C 
HETATM    7  C7  UNL     1       1.141  18.186  -1.979  1.00  0.00     0.226 C 
HETATM    8  C8  UNL     1       1.296  18.746  -0.614  1.00  0.00    -0.072 C 
HETATM    9  C9  UNL     1       1.473  18.903   0.566  1.00  0.00    -0.103 C 
HETATM   10  C10 UNL     1       1.602  18.853   2.041  1.00  0.00     0.099 C 
HETATM   11  C11 UNL     1       0.387  18.107   2.643  1.00  0.00     0.009 C 
HETATM   12  C12 UNL     1      -0.133  18.829   3.919  1.00  0.00     0.016 C 
HETATM   13  C13 UNL     1      -1.427  18.199   4.555  1.00  0.00     0.027 C 
HETATM   14  C14 UNL     1      -1.452  16.667   4.511  1.00  0.00    -0.036 C 
HETATM   15  C15 UNL     1      -1.928  15.904   5.505  1.00  0.00     0.057 C 
HETATM   16  C16 UNL     1      -2.550  16.467   6.709  1.00  0.00     0.154 C 
HETATM   17  O4  UNL     1      -2.985  15.689   7.554  1.00  0.00    -0.293 OA
HETATM   18  C17 UNL     1      -2.748  17.965   6.847  1.00  0.00     0.071 C 
HETATM   19  C18 UNL     1      -4.246  18.288   6.708  1.00  0.00     0.045 C 
HETATM   20  C19 UNL     1      -4.555  18.754   5.293  1.00  0.00     0.122 C 
HETATM   21  C20 UNL     1      -3.884  20.109   5.045  1.00  0.00     0.033 C 
HETATM   22  C21 UNL     1      -2.499  20.221   5.712  1.00  0.00     0.013 C 
HETATM   23  C22 UNL     1      -1.798  18.847   5.963  1.00  0.00    -0.026 C 
HETATM   24  C23 UNL     1      -0.529  19.108   6.819  1.00  0.00     0.016 C 
HETATM   25  O5  UNL     1      -5.955  18.859   5.049  1.00  0.00    -0.384 OA
HETATM   26  C24 UNL     1      -6.599  17.590   4.835  1.00  0.00     0.190 C 
HETATM   27  C25 UNL     1      -6.598  17.144   3.352  1.00  0.00     0.121 C 
HETATM   28  C32 UNL     1      -5.259  16.711   2.870  1.00  0.00    -0.093 C 
HETATM   29  C33 UNL     1      -4.197  16.359   2.424  1.00  0.00    -0.080 C 
HETATM   30  C34 UNL     1      -2.978  15.902   1.751  1.00  0.00     0.263 C 
HETATM   31  O6  UNL     1      -1.793  16.581   2.162  1.00  0.00    -0.363 OA
HETATM   32  C35 UNL     1      -0.945  16.054   3.213  1.00  0.00     0.094 C 
HETATM   33  C36 UNL     1      -0.733  14.545   3.032  1.00  0.00     0.044 C 
HETATM   34  C37 UNL     1       0.004  14.496   1.686  1.00  0.00     0.012 C 
HETATM   35  C38 UNL     1       1.054  15.638   1.743  1.00  0.00     0.037 C 
HETATM   36  C39 UNL     1       0.556  16.560   2.960  1.00  0.00     0.003 C 
HETATM   37  C40 UNL     1       1.446  16.363   4.225  1.00  0.00     0.019 C 
HETATM   38  C41 UNL     1       2.533  15.062   1.637  1.00  0.00     0.117 C 
HETATM   39  C42 UNL     1       2.695  13.713   2.402  1.00  0.00     0.052 C 
HETATM   40  C43 UNL     1       3.176  14.888   0.129  1.00  0.00     0.218 C 
ENDROOT
BRANCH  27  41
HETATM   41  C26 UNL     1      -7.624  16.031   3.165  1.00  0.00    -0.040 A 
HETATM   42  C27 UNL     1      -8.430  15.589   4.231  1.00  0.00     0.008 A 
HETATM   43  C28 UNL     1      -9.393  14.600   4.029  1.00  0.00     0.001 A 
HETATM   44  C29 UNL     1      -9.569  14.044   2.763  1.00  0.00     0.000 A 
HETATM   45  C30 UNL     1      -8.771  14.464   1.701  1.00  0.00     0.001 A 
HETATM   46  C31 UNL     1      -7.801  15.448   1.898  1.00  0.00     0.008 A 
ENDBRANCH  27  41
BRANCH  38  47
HETATM   47  O7  UNL     1       3.432  15.990   2.311  1.00  0.00    -0.384 OA
HETATM   48  H52 UNL     1       4.299  15.539   2.332  1.00  0.00     0.210 HD
ENDBRANCH  38  47
BRANCH  40  49
HETATM   49  O8  UNL     1       4.076  13.781   0.197  1.00  0.00    -0.361 OA
HETATM   50  H53 UNL     1       4.244  13.489  -0.724  1.00  0.00     0.213 HD
ENDBRANCH  40  49
BRANCH  40  51
HETATM   51  O9  UNL     1       4.041  16.015  -0.084  1.00  0.00    -0.361 OA
HETATM   52  H54 UNL     1       3.889  16.600   0.685  1.00  0.00     0.213 HD
ENDBRANCH  40  51
BRANCH   7  53
HETATM   53  O3  UNL     1       1.673  19.090  -2.939  1.00  0.00    -0.381 OA
HETATM   54  H12 UNL     1       1.331  19.970  -2.696  1.00  0.00     0.211 HD
ENDBRANCH   7  53
BRANCH   3  55
HETATM   55  C4  UNL     1       4.180  14.568  -2.825  1.00  0.00     0.172 C 
BRANCH  55  56
HETATM   56  O1  UNL     1       4.548  13.205  -2.658  1.00  0.00    -0.400 OA
HETATM   57  H8  UNL     1       5.498  13.140  -2.877  1.00  0.00     0.209 HD
ENDBRANCH  55  56
ENDBRANCH   3  55
TORSDOF 7
ENDMDL
MODEL 2
REMARK minimizedAffinity -8.85350323
REMARK CNNscore 0.342329144
REMARK CNNaffinity 6.29712057
REMARK  7 active torsions:
REMARK  status: ('A' for Active; 'I' for Inactive)
REMARK    1  A    between atoms: C3_3  and  C4_4 
REMARK    2  A    between atoms: C4_4  and  O1_5 
REMARK    3  A    between atoms: C7_9  and  O3_10 
REMARK    4  A    between atoms: C25_30  and  C26_31 
REMARK    5  A    between atoms: C41_47  and  O7_49 
REMARK    6  A    between atoms: C43_50  and  O8_51 
REMARK    7  A    between atoms: C43_50  and  O9_52 
ROOT
HETATM    1  C1  UNL     1     -13.479   6.840  14.150  1.00  0.00     0.013 C 
HETATM    2  C2  UNL     1     -13.587   8.363  14.117  1.00  0.00     0.023 C 
HETATM    3  C3  UNL     1     -12.200   9.045  14.322  1.00  0.00     0.050 C 
HETATM    4  C5  UNL     1     -12.144   9.434  15.847  1.00  0.00     0.194 C 
HETATM    5  O2  UNL     1     -13.336   8.798  16.342  1.00  0.00    -0.371 OA
HETATM    6  C6  UNL     1     -14.331   8.926  15.309  1.00  0.00     0.167 C 
HETATM    7  C7  UNL     1     -15.683   8.382  15.790  1.00  0.00     0.226 C 
HETATM    8  C8  UNL     1     -16.128   9.300  16.868  1.00  0.00    -0.072 C 
HETATM    9  C9  UNL     1     -16.184  10.099  17.766  1.00  0.00    -0.103 C 
HETATM   10  C10 UNL     1     -16.014  11.002  18.928  1.00  0.00     0.099 C 
HETATM   11  C11 UNL     1     -15.290  10.247  20.068  1.00  0.00     0.009 C 
HETATM   12  C12 UNL     1     -15.938  10.566  21.446  1.00  0.00     0.016 C 
HETATM   13  C13 UNL     1     -15.332   9.774  22.662  1.00  0.00     0.027 C 
HETATM   14  C14 UNL     1     -13.811   9.597  22.586  1.00  0.00    -0.036 C 
HETATM   15  C15 UNL     1     -13.000   9.671  23.650  1.00  0.00     0.057 C 
HETATM   16  C16 UNL     1     -13.502   9.851  25.018  1.00  0.00     0.154 C 
HETATM   17  O4  UNL     1     -12.685   9.878  25.936  1.00  0.00    -0.293 OA
HETATM   18  C17 UNL     1     -14.993   9.890  25.295  1.00  0.00     0.071 C 
HETATM   19  C18 UNL     1     -15.405   8.590  26.006  1.00  0.00     0.045 C 
HETATM   20  C19 UNL     1     -15.994   7.605  25.007  1.00  0.00     0.122 C 
HETATM   21  C20 UNL     1     -17.326   8.149  24.481  1.00  0.00     0.033 C 
HETATM   22  C21 UNL     1     -17.313   9.678  24.288  1.00  0.00     0.013 C 
HETATM   23  C22 UNL     1     -15.888  10.282  24.067  1.00  0.00    -0.026 C 
HETATM   24  C23 UNL     1     -16.015  11.829  24.100  1.00  0.00     0.016 C 
HETATM   25  O5  UNL     1     -16.192   6.312  25.570  1.00  0.00    -0.384 OA
HETATM   26  C24 UNL     1     -14.979   5.547  25.698  1.00  0.00     0.190 C 
HETATM   27  C25 UNL     1     -14.649   4.706  24.440  1.00  0.00     0.121 C 
HETATM   28  C32 UNL     1     -14.183   5.528  23.291  1.00  0.00    -0.093 C 
HETATM   29  C33 UNL     1     -13.811   6.144  22.325  1.00  0.00    -0.080 C 
HETATM   30  C34 UNL     1     -13.343   6.760  21.081  1.00  0.00     0.263 C 
HETATM   31  O6  UNL     1     -13.923   8.032  20.802  1.00  0.00    -0.363 OA
HETATM   32  C35 UNL     1     -13.273   9.265  21.201  1.00  0.00     0.094 C 
HETATM   33  C36 UNL     1     -11.773   9.214  20.880  1.00  0.00     0.044 C 
HETATM   34  C37 UNL     1     -11.789   9.097  19.349  1.00  0.00     0.012 C 
HETATM   35  C38 UNL     1     -12.865  10.105  18.863  1.00  0.00     0.037 C 
HETATM   36  C39 UNL     1     -13.717  10.427  20.187  1.00  0.00     0.003 C 
HETATM   37  C40 UNL     1     -13.375  11.839  20.754  1.00  0.00     0.019 C 
HETATM   38  C41 UNL     1     -12.221  11.235  17.948  1.00  0.00     0.117 C 
HETATM   39  C42 UNL     1     -10.811  11.667  18.452  1.00  0.00     0.052 C 
HETATM   40  C43 UNL     1     -12.130  10.940  16.328  1.00  0.00     0.218 C 
ENDROOT
BRANCH  27  41
HETATM   41  C26 UNL     1     -13.610   3.652  24.804  1.00  0.00    -0.040 A 
HETATM   42  C27 UNL     1     -13.559   3.083  26.091  1.00  0.00     0.008 A 
HETATM   43  C28 UNL     1     -12.629   2.088  26.392  1.00  0.00     0.001 A 
HETATM   44  C29 UNL     1     -11.742   1.641  25.413  1.00  0.00     0.000 A 
HETATM   45  C30 UNL     1     -11.774   2.202  24.138  1.00  0.00     0.001 A 
HETATM   46  C31 UNL     1     -12.697   3.203  23.833  1.00  0.00     0.008 A 
ENDBRANCH  27  41
BRANCH  38  47
HETATM   47  O7  UNL     1     -13.045  12.431  18.054  1.00  0.00    -0.384 OA
HETATM   48  H52 UNL     1     -12.549  13.129  17.583  1.00  0.00     0.210 HD
ENDBRANCH  38  47
BRANCH  40  49
HETATM   49  O8  UNL     1     -10.974  11.634  15.855  1.00  0.00    -0.361 OA
HETATM   50  H53 UNL     1     -10.745  11.251  14.982  1.00  0.00     0.213 HD
ENDBRANCH  40  49
BRANCH  40  51
HETATM   51  O9  UNL     1     -13.221  11.646  15.718  1.00  0.00    -0.361 OA
HETATM   52  H54 UNL     1     -13.753  11.986  16.465  1.00  0.00     0.213 HD
ENDBRANCH  40  51
BRANCH   7  53
HETATM   53  O3  UNL     1     -16.628   8.385  14.729  1.00  0.00    -0.381 OA
HETATM   54  H12 UNL     1     -17.504   8.307  15.149  1.00  0.00     0.211 HD
ENDBRANCH   7  53
BRANCH   3  55
HETATM   55  C4  UNL     1     -11.984  10.153  13.296  1.00  0.00     0.172 C 
BRANCH  55  56
HETATM   56  O1  UNL     1     -11.936   9.588  11.991  1.00  0.00    -0.400 OA
HETATM   57  H8  UNL     1     -11.854  10.334  11.364  1.00  0.00     0.209 HD
ENDBRANCH  55  56
ENDBRANCH   3  55
TORSDOF 7
ENDMDL
MODEL 3
REMARK minimizedAffinity -8.48725319
REMARK CNNscore 0.311833233
REMARK CNNaffinity 6.50152969
REMARK  7 active torsions:
REMARK  status: ('A' for Active; 'I' for Inactive)
REMARK    1  A    between atoms: C3_3  and  C4_4 
REMARK    2  A    between atoms: C4_4  and  O1_5 
REMARK    3  A    between atoms: C7_9  and  O3_10 
REMARK    4  A    between atoms: C25_30  and  C26_31 
REMARK    5  A    between atoms: C41_47  and  O7_49 
REMARK    6  A    between atoms: C43_50  and  O8_51 
REMARK    7  A    between atoms: C43_50  and  O9_52 
ROOT
HETATM    1  C1  UNL     1     -11.473  -5.932  16.638  1.00  0.00     0.013 C 
HETATM    2  C2  UNL     1     -12.131  -6.928  15.684  1.00  0.00     0.023 C 
HETATM    3  C3  UNL     1     -11.581  -6.787  14.233  1.00  0.00     0.050 C 
HETATM    4  C5  UNL     1     -12.634  -5.899  13.469  1.00  0.00     0.194 C 
HETATM    5  O2  UNL     1     -13.499  -5.499  14.548  1.00  0.00    -0.371 OA
HETATM    6  C6  UNL     1     -13.593  -6.627  15.439  1.00  0.00     0.167 C 
HETATM    7  C7  UNL     1     -14.595  -6.343  16.566  1.00  0.00     0.226 C 
HETATM    8  C8  UNL     1     -15.925  -6.255  15.913  1.00  0.00    -0.072 C 
HETATM    9  C9  UNL     1     -16.832  -6.111  15.136  1.00  0.00    -0.103 C 
HETATM   10  C10 UNL     1     -17.788  -5.770  14.056  1.00  0.00     0.099 C 
HETATM   11  C11 UNL     1     -17.695  -4.258  13.741  1.00  0.00     0.009 C 
HETATM   12  C12 UNL     1     -19.110  -3.643  13.540  1.00  0.00     0.016 C 
HETATM   13  C13 UNL     1     -19.129  -2.088  13.306  1.00  0.00     0.027 C 
HETATM   14  C14 UNL     1     -17.974  -1.582  12.434  1.00  0.00    -0.036 C 
HETATM   15  C15 UNL     1     -18.104  -0.611  11.519  1.00  0.00     0.057 C 
HETATM   16  C16 UNL     1     -19.358   0.126  11.318  1.00  0.00     0.154 C 
HETATM   17  O4  UNL     1     -19.375   1.021  10.477  1.00  0.00    -0.293 OA
HETATM   18  C17 UNL     1     -20.560  -0.139  12.204  1.00  0.00     0.071 C 
HETATM   19  C18 UNL     1     -20.762   1.058  13.148  1.00  0.00     0.045 C 
HETATM   20  C19 UNL     1     -20.159   0.762  14.513  1.00  0.00     0.122 C 
HETATM   21  C20 UNL     1     -20.961  -0.353  15.192  1.00  0.00     0.033 C 
HETATM   22  C21 UNL     1     -21.440  -1.433  14.203  1.00  0.00     0.013 C 
HETATM   23  C22 UNL     1     -20.572  -1.542  12.907  1.00  0.00    -0.026 C 
HETATM   24  C23 UNL     1     -21.293  -2.510  11.930  1.00  0.00     0.016 C 
HETATM   25  O5  UNL     1     -20.126   1.911  15.354  1.00  0.00    -0.384 OA
HETATM   26  C24 UNL     1     -19.074   2.837  15.025  1.00  0.00     0.190 C 
HETATM   27  C25 UNL     1     -17.742   2.536  15.757  1.00  0.00     0.121 C 
HETATM   28  C32 UNL     1     -17.045   1.330  15.235  1.00  0.00    -0.093 C 
HETATM   29  C33 UNL     1     -16.443   0.357  14.859  1.00  0.00    -0.080 C 
HETATM   30  C34 UNL     1     -15.604  -0.791  14.504  1.00  0.00     0.263 C 
HETATM   31  O6  UNL     1     -16.334  -1.951  14.112  1.00  0.00    -0.363 OA
HETATM   32  C35 UNL     1     -16.624  -2.227  12.718  1.00  0.00     0.094 C 
HETATM   33  C36 UNL     1     -15.384  -1.984  11.849  1.00  0.00     0.044 C 
HETATM   34  C37 UNL     1     -14.408  -3.032  12.401  1.00  0.00     0.012 C 
HETATM   35  C38 UNL     1     -15.244  -4.327  12.582  1.00  0.00     0.037 C 
HETATM   36  C39 UNL     1     -16.766  -3.814  12.532  1.00  0.00     0.003 C 
HETATM   37  C40 UNL     1     -17.442  -4.171  11.172  1.00  0.00     0.019 C 
HETATM   38  C41 UNL     1     -14.691  -5.500  11.661  1.00  0.00     0.117 C 
HETATM   39  C42 UNL     1     -14.211  -4.980  10.272  1.00  0.00     0.052 C 
HETATM   40  C43 UNL     1     -13.518  -6.472  12.290  1.00  0.00     0.218 C 
ENDROOT
BRANCH  27  41
HETATM   41  C26 UNL     1     -16.838   3.761  15.669  1.00  0.00    -0.040 A 
HETATM   42  C27 UNL     1     -15.790   3.836  14.732  1.00  0.00     0.008 A 
HETATM   43  C28 UNL     1     -15.002   4.982  14.638  1.00  0.00     0.001 A 
HETATM   44  C29 UNL     1     -15.251   6.072  15.472  1.00  0.00     0.000 A 
HETATM   45  C30 UNL     1     -16.278   6.008  16.412  1.00  0.00     0.001 A 
HETATM   46  C31 UNL     1     -17.065   4.860  16.516  1.00  0.00     0.008 A 
ENDBRANCH  27  41
BRANCH  38  47
HETATM   47  O7  UNL     1     -15.794  -6.406  11.366  1.00  0.00    -0.384 OA
HETATM   48  H52 UNL     1     -15.443  -7.031  10.703  1.00  0.00     0.210 HD
ENDBRANCH  38  47
BRANCH  40  49
HETATM   49  O8  UNL     1     -12.714  -6.901  11.190  1.00  0.00    -0.361 OA
HETATM   50  H53 UNL     1     -11.870  -7.233  11.561  1.00  0.00     0.213 HD
ENDBRANCH  40  49
BRANCH  40  51
HETATM   51  O9  UNL     1     -14.167  -7.677  12.725  1.00  0.00    -0.361 OA
HETATM   52  H54 UNL     1     -15.125  -7.499  12.623  1.00  0.00     0.213 HD
ENDBRANCH  40  51
BRANCH   7  53
HETATM   53  O3  UNL     1     -14.590  -7.400  17.516  1.00  0.00    -0.381 OA
HETATM   54  H12 UNL     1     -15.415  -7.306  18.027  1.00  0.00     0.211 HD
ENDBRANCH   7  53
BRANCH   3  55
HETATM   55  C4  UNL     1     -11.244  -8.153  13.646  1.00  0.00     0.172 C 
BRANCH  55  56
HETATM   56  O1  UNL     1     -10.008  -8.077  12.946  1.00  0.00    -0.400 OA
HETATM   57  H8  UNL     1      -9.802  -8.981  12.637  1.00  0.00     0.209 HD
ENDBRANCH  55  56
ENDBRANCH   3  55
TORSDOF 7
ENDMDL
MODEL 4
REMARK minimizedAffinity -8.28470135
REMARK CNNscore 0.30267176
REMARK CNNaffinity 6.94494677
REMARK  7 active torsions:
REMARK  status: ('A' for Active; 'I' for Inactive)
REMARK    1  A    between atoms: C3_3  and  C4_4 
REMARK    2  A    between atoms: C4_4  and  O1_5 
REMARK    3  A    between atoms: C7_9  and  O3_10 
REMARK    4  A    between atoms: C25_30  and  C26_31 
REMARK    5  A    between atoms: C41_47  and  O7_49 
REMARK    6  A    between atoms: C43_50  and  O8_51 
REMARK    7  A    between atoms: C43_50  and  O9_52 
ROOT
HETATM    1  C1  UNL     1      -0.339   8.767   9.196  1.00  0.00     0.013 C 
HETATM    2  C2  UNL     1       0.350   7.601   9.902  1.00  0.00     0.023 C 
HETATM    3  C3  UNL     1      -0.125   7.459  11.380  1.00  0.00     0.050 C 
HETATM    4  C5  UNL     1       0.978   8.176  12.246  1.00  0.00     0.194 C 
HETATM    5  O2  UNL     1       1.795   8.773  11.222  1.00  0.00    -0.371 OA
HETATM    6  C6  UNL     1       1.827   7.840  10.126  1.00  0.00     0.167 C 
HETATM    7  C7  UNL     1       2.776   8.332   9.025  1.00  0.00     0.226 C 
HETATM    8  C8  UNL     1       4.138   8.283   9.613  1.00  0.00    -0.072 C 
HETATM    9  C9  UNL     1       5.085   8.267  10.355  1.00  0.00    -0.103 C 
HETATM   10  C10 UNL     1       6.098   8.385  11.430  1.00  0.00     0.099 C 
HETATM   11  C11 UNL     1       6.045   9.807  12.038  1.00  0.00     0.009 C 
HETATM   12  C12 UNL     1       7.477  10.363  12.280  1.00  0.00     0.016 C 
HETATM   13  C13 UNL     1       7.533  11.843  12.812  1.00  0.00     0.027 C 
HETATM   14  C14 UNL     1       6.431  12.175  13.824  1.00  0.00    -0.036 C 
HETATM   15  C15 UNL     1       6.622  12.949  14.902  1.00  0.00     0.057 C 
HETATM   16  C16 UNL     1       7.895  13.624  15.178  1.00  0.00     0.154 C 
HETATM   17  O4  UNL     1       7.968  14.338  16.175  1.00  0.00    -0.293 OA
HETATM   18  C17 UNL     1       9.048  13.530  14.196  1.00  0.00     0.071 C 
HETATM   19  C18 UNL     1       9.222  14.887  13.494  1.00  0.00     0.045 C 
HETATM   20  C19 UNL     1       8.548  14.867  12.130  1.00  0.00     0.122 C 
HETATM   21  C20 UNL     1       9.297  13.901  11.207  1.00  0.00     0.033 C 
HETATM   22  C21 UNL     1       9.807  12.646  11.941  1.00  0.00     0.013 C 
HETATM   23  C22 UNL     1       9.003  12.291  13.234  1.00  0.00    -0.026 C 
HETATM   24  C23 UNL     1       9.756  11.147  13.966  1.00  0.00     0.016 C 
HETATM   25  O5  UNL     1       8.491  16.158  11.531  1.00  0.00    -0.384 OA
HETATM   26  C24 UNL     1       7.472  17.008  12.089  1.00  0.00     0.190 C 
HETATM   27  C25 UNL     1       6.100  16.864  11.382  1.00  0.00     0.121 C 
HETATM   28  C32 UNL     1       5.411  15.583  11.695  1.00  0.00    -0.093 C 
HETATM   29  C33 UNL     1       4.812  14.559  11.905  1.00  0.00    -0.080 C 
HETATM   30  C34 UNL     1       3.974  13.369  12.072  1.00  0.00     0.263 C 
HETATM   31  O6  UNL     1       4.704  12.151  12.193  1.00  0.00    -0.363 OA
HETATM   32  C35 UNL     1       5.059  11.606  13.490  1.00  0.00     0.094 C 
HETATM   33  C36 UNL     1       3.867  11.683  14.453  1.00  0.00     0.044 C 
HETATM   34  C37 UNL     1       2.849  10.768  13.758  1.00  0.00     0.012 C 
HETATM   35  C38 UNL     1       3.654   9.528  13.286  1.00  0.00     0.037 C 
HETATM   36  C39 UNL     1       5.184  10.012  13.356  1.00  0.00     0.003 C 
HETATM   37  C40 UNL     1       5.921   9.394  14.584  1.00  0.00     0.019 C 
HETATM   38  C41 UNL     1       3.129   8.201  13.989  1.00  0.00     0.117 C 
HETATM   39  C42 UNL     1       2.726   8.443  15.475  1.00  0.00     0.052 C 
HETATM   40  C43 UNL     1       1.910   7.378  13.244  1.00  0.00     0.218 C 
ENDROOT
BRANCH  27  41
HETATM   41  C26 UNL     1       5.222  18.053  11.753  1.00  0.00    -0.040 A 
HETATM   42  C27 UNL     1       3.828  18.029  11.550  1.00  0.00     0.008 A 
HETATM   43  C28 UNL     1       3.036  19.110  11.936  1.00  0.00     0.001 A 
HETATM   44  C29 UNL     1       3.620  20.226  12.534  1.00  0.00     0.000 A 
HETATM   45  C30 UNL     1       4.999  20.269  12.731  1.00  0.00     0.001 A 
HETATM   46  C31 UNL     1       5.797  19.194  12.340  1.00  0.00     0.008 A 
ENDBRANCH  27  41
BRANCH  38  47
HETATM   47  O7  UNL     1       4.230   7.249  14.044  1.00  0.00    -0.384 OA
HETATM   48  H52 UNL     1       3.902   6.508  14.590  1.00  0.00     0.210 HD
ENDBRANCH  38  47
BRANCH  40  49
HETATM   49  O8  UNL     1       1.155   6.747  14.280  1.00  0.00    -0.361 OA
HETATM   50  H53 UNL     1       0.288   6.499  13.895  1.00  0.00     0.213 HD
ENDBRANCH  40  49
BRANCH  40  51
HETATM   51  O9  UNL     1       2.518   6.277  12.550  1.00  0.00    -0.361 OA
HETATM   52  H54 UNL     1       3.482   6.426  12.635  1.00  0.00     0.213 HD
ENDBRANCH  40  51
BRANCH   7  53
HETATM   53  O3  UNL     1       2.707   7.481   7.889  1.00  0.00    -0.381 OA
HETATM   54  H12 UNL     1       3.507   7.668   7.364  1.00  0.00     0.211 HD
ENDBRANCH   7  53
BRANCH   3  55
HETATM   55  C4  UNL     1      -0.455   6.007  11.706  1.00  0.00     0.172 C 
BRANCH  55  56
HETATM   56  O1  UNL     1       0.244   5.149  10.812  1.00  0.00    -0.400 OA
HETATM   57  H8  UNL     1       0.050   4.232  11.091  1.00  0.00     0.209 HD
ENDBRANCH  55  56
ENDBRANCH   3  55
TORSDOF 7
ENDMDL
MODEL 5
REMARK minimizedAffinity -7.9622364
REMARK CNNscore 0.292183936
REMARK CNNaffinity 6.11099434
REMARK  7 active torsions:
REMARK  status: ('A' for Active; 'I' for Inactive)
REMARK    1  A    between atoms: C3_3  and  C4_4 
REMARK    2  A    between atoms: C4_4  and  O1_5 
REMARK    3  A    between atoms: C7_9  and  O3_10 
REMARK    4  A    between atoms: C25_30  and  C26_31 
REMARK    5  A    between atoms: C41_47  and  O7_49 
REMARK    6  A    between atoms: C43_50  and  O8_51 
REMARK    7  A    between atoms: C43_50  and  O9_52 
ROOT
HETATM    1  C1  UNL     1     -13.775  13.381  27.166  1.00  0.00     0.013 C 
HETATM    2  C2  UNL     1     -14.156  13.441  25.688  1.00  0.00     0.023 C 
HETATM    3  C3  UNL     1     -15.702  13.432  25.489  1.00  0.00     0.050 C 
HETATM    4  C5  UNL     1     -16.075  11.937  25.162  1.00  0.00     0.194 C 
HETATM    5  O2  UNL     1     -14.815  11.278  25.390  1.00  0.00    -0.371 OA
HETATM    6  C6  UNL     1     -13.790  12.181  24.935  1.00  0.00     0.167 C 
HETATM    7  C7  UNL     1     -12.408  11.519  25.024  1.00  0.00     0.226 C 
HETATM    8  C8  UNL     1     -12.422  10.419  24.027  1.00  0.00    -0.072 C 
HETATM    9  C9  UNL     1     -12.739   9.544  23.265  1.00  0.00    -0.103 C 
HETATM   10  C10 UNL     1     -13.337   8.437  22.482  1.00  0.00     0.099 C 
HETATM   11  C11 UNL     1     -13.921   7.377  23.445  1.00  0.00     0.009 C 
HETATM   12  C12 UNL     1     -13.590   5.938  22.956  1.00  0.00     0.016 C 
HETATM   13  C13 UNL     1     -14.062   4.786  23.918  1.00  0.00     0.027 C 
HETATM   14  C14 UNL     1     -15.424   5.049  24.573  1.00  0.00    -0.036 C 
HETATM   15  C15 UNL     1     -16.345   4.097  24.777  1.00  0.00     0.057 C 
HETATM   16  C16 UNL     1     -16.106   2.683  24.466  1.00  0.00     0.154 C 
HETATM   17  O4  UNL     1     -16.999   1.876  24.716  1.00  0.00    -0.293 OA
HETATM   18  C17 UNL     1     -14.754   2.222  23.956  1.00  0.00     0.071 C 
HETATM   19  C18 UNL     1     -14.043   1.429  25.066  1.00  0.00     0.045 C 
HETATM   20  C19 UNL     1     -13.047   2.319  25.795  1.00  0.00     0.122 C 
HETATM   21  C20 UNL     1     -11.903   2.687  24.845  1.00  0.00     0.033 C 
HETATM   22  C21 UNL     1     -12.379   2.922  23.398  1.00  0.00     0.013 C 
HETATM   23  C22 UNL     1     -13.882   3.337  23.280  1.00  0.00    -0.026 C 
HETATM   24  C23 UNL     1     -14.262   3.331  21.774  1.00  0.00     0.016 C 
HETATM   25  O5  UNL     1     -12.520   1.700  26.965  1.00  0.00    -0.384 OA
HETATM   26  C24 UNL     1     -13.431   1.705  28.079  1.00  0.00     0.190 C 
HETATM   27  C25 UNL     1     -13.312   2.972  28.963  1.00  0.00     0.121 C 
HETATM   28  C32 UNL     1     -13.864   4.192  28.317  1.00  0.00    -0.093 C 
HETATM   29  C33 UNL     1     -14.287   5.214  27.839  1.00  0.00    -0.080 C 
HETATM   30  C34 UNL     1     -14.764   6.523  27.387  1.00  0.00     0.263 C 
HETATM   31  O6  UNL     1     -14.590   6.761  25.993  1.00  0.00    -0.363 OA
HETATM   32  C35 UNL     1     -15.646   6.481  25.039  1.00  0.00     0.094 C 
HETATM   33  C36 UNL     1     -16.996   6.987  25.563  1.00  0.00     0.044 C 
HETATM   34  C37 UNL     1     -16.749   8.500  25.646  1.00  0.00     0.012 C 
HETATM   35  C38 UNL     1     -15.998   8.873  24.340  1.00  0.00     0.037 C 
HETATM   36  C39 UNL     1     -15.471   7.462  23.781  1.00  0.00     0.003 C 
HETATM   37  C40 UNL     1     -16.315   6.982  22.561  1.00  0.00     0.019 C 
HETATM   38  C41 UNL     1     -16.847   9.893  23.462  1.00  0.00     0.117 C 
HETATM   39  C42 UNL     1     -18.373   9.582  23.512  1.00  0.00     0.052 C 
HETATM   40  C43 UNL     1     -16.631  11.503  23.747  1.00  0.00     0.218 C 
ENDROOT
BRANCH  27  41
HETATM   41  C26 UNL     1     -13.997   2.713  30.301  1.00  0.00    -0.040 A 
HETATM   42  C27 UNL     1     -13.345   2.968  31.522  1.00  0.00     0.008 A 
HETATM   43  C28 UNL     1     -14.004   2.766  32.734  1.00  0.00     0.001 A 
HETATM   44  C29 UNL     1     -15.323   2.314  32.746  1.00  0.00     0.000 A 
HETATM   45  C30 UNL     1     -15.977   2.047  31.545  1.00  0.00     0.001 A 
HETATM   46  C31 UNL     1     -15.320   2.239  30.330  1.00  0.00     0.008 A 
ENDBRANCH  27  41
BRANCH  38  47
HETATM   47  O7  UNL     1     -16.468   9.716  22.066  1.00  0.00    -0.384 OA
HETATM   48  H52 UNL     1     -17.097  10.265  21.558  1.00  0.00     0.210 HD
ENDBRANCH  38  47
BRANCH  40  49
HETATM   49  O8  UNL     1     -17.877  12.136  23.453  1.00  0.00    -0.361 OA
HETATM   50  H53 UNL     1     -17.858  13.020  23.876  1.00  0.00     0.213 HD
ENDBRANCH  40  49
BRANCH  40  51
HETATM   51  O9  UNL     1     -15.753  11.990  22.720  1.00  0.00    -0.361 OA
HETATM   52  H54 UNL     1     -15.458  11.190  22.238  1.00  0.00     0.213 HD
ENDBRANCH  40  51
BRANCH   7  53
HETATM   53  O3  UNL     1     -11.386  12.453  24.702  1.00  0.00    -0.381 OA
HETATM   54  H12 UNL     1     -10.593  11.923  24.501  1.00  0.00     0.211 HD
ENDBRANCH   7  53
BRANCH   3  55
HETATM   55  C4  UNL     1     -16.128  14.506  24.495  1.00  0.00     0.172 C 
BRANCH  55  56
HETATM   56  O1  UNL     1     -16.146  15.772  25.143  1.00  0.00    -0.400 OA
HETATM   57  H8  UNL     1     -16.367  16.436  24.460  1.00  0.00     0.209 HD
ENDBRANCH  55  56
ENDBRANCH   3  55
TORSDOF 7
ENDMDL
MODEL 6
REMARK minimizedAffinity -7.8156662
REMARK CNNscore 0.257284492
REMARK CNNaffinity 6.32790375
REMARK  7 active torsions:
REMARK  status: ('A' for Active; 'I' for Inactive)
REMARK    1  A    between atoms: C3_3  and  C4_4 
REMARK    2  A    between atoms: C4_4  and  O1_5 
REMARK    3  A    between atoms: C7_9  and  O3_10 
REMARK    4  A    between atoms: C25_30  and  C26_31 
REMARK    5  A    between atoms: C41_47  and  O7_49 
REMARK    6  A    between atoms: C43_50  and  O8_51 
REMARK    7  A    between atoms: C43_50  and  O9_52 
ROOT
HETATM    1  C1  UNL     1     -11.719  -5.292  15.824  1.00  0.00     0.013 C 
HETATM    2  C2  UNL     1     -12.597  -6.351  15.159  1.00  0.00     0.023 C 
HETATM    3  C3  UNL     1     -12.293  -6.479  13.636  1.00  0.00     0.050 C 
HETATM    4  C5  UNL     1     -13.395  -5.617  12.913  1.00  0.00     0.194 C 
HETATM    5  O2  UNL     1     -14.034  -4.982  14.035  1.00  0.00    -0.371 OA
HETATM    6  C6  UNL     1     -14.055  -5.951  15.100  1.00  0.00     0.167 C 
HETATM    7  C7  UNL     1     -14.829  -5.409  16.309  1.00  0.00     0.226 C 
HETATM    8  C8  UNL     1     -16.241  -5.293  15.867  1.00  0.00    -0.072 C 
HETATM    9  C9  UNL     1     -17.255  -5.179  15.228  1.00  0.00    -0.103 C 
HETATM   10  C10 UNL     1     -18.353  -4.912  14.271  1.00  0.00     0.099 C 
HETATM   11  C11 UNL     1     -18.209  -3.479  13.705  1.00  0.00     0.009 C 
HETATM   12  C12 UNL     1     -19.591  -2.768  13.632  1.00  0.00     0.016 C 
HETATM   13  C13 UNL     1     -19.541  -1.270  13.155  1.00  0.00     0.027 C 
HETATM   14  C14 UNL     1     -18.518  -1.012  12.042  1.00  0.00    -0.036 C 
HETATM   15  C15 UNL     1     -18.734  -0.178  11.015  1.00  0.00     0.057 C 
HETATM   16  C16 UNL     1     -19.949   0.636  10.896  1.00  0.00     0.154 C 
HETATM   17  O4  UNL     1     -20.045   1.395   9.934  1.00  0.00    -0.293 OA
HETATM   18  C17 UNL     1     -20.999   0.621  11.990  1.00  0.00     0.071 C 
HETATM   19  C18 UNL     1     -20.954   1.959  12.748  1.00  0.00     0.045 C 
HETATM   20  C19 UNL     1     -20.151   1.812  14.032  1.00  0.00     0.122 C 
HETATM   21  C20 UNL     1     -20.902   0.891  14.999  1.00  0.00     0.033 C 
HETATM   22  C21 UNL     1     -21.616  -0.272  14.285  1.00  0.00     0.013 C 
HETATM   23  C22 UNL     1     -20.990  -0.655  12.904  1.00  0.00    -0.026 C 
HETATM   24  C23 UNL     1     -21.932  -1.683  12.221  1.00  0.00     0.016 C 
HETATM   25  O5  UNL     1     -19.896   3.065  14.661  1.00  0.00    -0.384 OA
HETATM   26  C24 UNL     1     -18.852   3.826  14.025  1.00  0.00     0.190 C 
HETATM   27  C25 UNL     1     -17.440   3.512  14.578  1.00  0.00     0.121 C 
HETATM   28  C32 UNL     1     -16.927   2.181  14.156  1.00  0.00    -0.093 C 
HETATM   29  C33 UNL     1     -16.467   1.110  13.852  1.00  0.00    -0.080 C 
HETATM   30  C34 UNL     1     -15.782  -0.153  13.561  1.00  0.00     0.263 C 
HETATM   31  O6  UNL     1     -16.647  -1.283  13.480  1.00  0.00    -0.363 OA
HETATM   32  C35 UNL     1     -17.189  -1.733  12.213  1.00  0.00     0.094 C 
HETATM   33  C36 UNL     1     -16.100  -1.741  11.132  1.00  0.00     0.044 C 
HETATM   34  C37 UNL     1     -15.120  -2.784  11.687  1.00  0.00     0.012 C 
HETATM   35  C38 UNL     1     -16.002  -3.953  12.204  1.00  0.00     0.037 C 
HETATM   36  C39 UNL     1     -17.470  -3.310  12.310  1.00  0.00     0.003 C 
HETATM   37  C40 UNL     1     -18.390  -3.797  11.149  1.00  0.00     0.019 C 
HETATM   38  C41 UNL     1     -15.696  -5.296  11.409  1.00  0.00     0.117 C 
HETATM   39  C42 UNL     1     -15.423  -5.036   9.897  1.00  0.00     0.052 C 
HETATM   40  C43 UNL     1     -14.503  -6.272  11.996  1.00  0.00     0.218 C 
ENDROOT
BRANCH  27  41
HETATM   41  C26 UNL     1     -16.481   4.618  14.154  1.00  0.00    -0.040 A 
HETATM   42  C27 UNL     1     -15.215   4.763  14.753  1.00  0.00     0.008 A 
HETATM   43  C28 UNL     1     -14.335   5.755  14.321  1.00  0.00     0.001 A 
HETATM   44  C29 UNL     1     -14.700   6.610  13.281  1.00  0.00     0.000 A 
HETATM   45  C30 UNL     1     -15.954   6.485  12.686  1.00  0.00     0.001 A 
HETATM   46  C31 UNL     1     -16.842   5.500  13.120  1.00  0.00     0.008 A 
ENDBRANCH  27  41
BRANCH  38  47
HETATM   47  O7  UNL     1     -16.894  -6.126  11.441  1.00  0.00    -0.384 OA
HETATM   48  H52 UNL     1     -16.704  -6.874  10.841  1.00  0.00     0.210 HD
ENDBRANCH  38  47
BRANCH  40  49
HETATM   49  O8  UNL     1     -13.930  -6.934  10.867  1.00  0.00    -0.361 OA
HETATM   50  H53 UNL     1     -13.060  -7.286  11.150  1.00  0.00     0.213 HD
ENDBRANCH  40  49
BRANCH  40  51
HETATM   51  O9  UNL     1     -15.153  -7.331  12.715  1.00  0.00    -0.361 OA
HETATM   52  H54 UNL     1     -16.099  -7.080  12.737  1.00  0.00     0.213 HD
ENDBRANCH  40  51
BRANCH   7  53
HETATM   53  O3  UNL     1     -14.736  -6.310  17.405  1.00  0.00    -0.381 OA
HETATM   54  H12 UNL     1     -15.454  -6.062  18.017  1.00  0.00     0.211 HD
ENDBRANCH   7  53
BRANCH   3  55
HETATM   55  C4  UNL     1     -12.156  -7.943  13.232  1.00  0.00     0.172 C 
BRANCH  55  56
HETATM   56  O1  UNL     1     -11.418  -8.034  12.019  1.00  0.00    -0.400 OA
HETATM   57  H8  UNL     1     -11.305  -8.985  11.828  1.00  0.00     0.209 HD
ENDBRANCH  55  56
ENDBRANCH   3  55
TORSDOF 7
ENDMDL
MODEL 7
REMARK minimizedAffinity -9.2103405
REMARK CNNscore 0.255399287
REMARK CNNaffinity 6.42710543
REMARK  7 active torsions:
REMARK  status: ('A' for Active; 'I' for Inactive)
REMARK    1  A    between atoms: C3_3  and  C4_4 
REMARK    2  A    between atoms: C4_4  and  O1_5 
REMARK    3  A    between atoms: C7_9  and  O3_10 
REMARK    4  A    between atoms: C25_30  and  C26_31 
REMARK    5  A    between atoms: C41_47  and  O7_49 
REMARK    6  A    between atoms: C43_50  and  O8_51 
REMARK    7  A    between atoms: C43_50  and  O9_52 
ROOT
HETATM    1  C1  UNL     1       0.760   8.462   8.943  1.00  0.00     0.013 C 
HETATM    2  C2  UNL     1       0.874   7.364  10.000  1.00  0.00     0.023 C 
HETATM    3  C3  UNL     1       0.086   7.726  11.295  1.00  0.00     0.050 C 
HETATM    4  C5  UNL     1       1.158   8.308  12.291  1.00  0.00     0.194 C 
HETATM    5  O2  UNL     1       2.316   8.389  11.440  1.00  0.00    -0.371 OA
HETATM    6  C6  UNL     1       2.269   7.241  10.571  1.00  0.00     0.167 C 
HETATM    7  C7  UNL     1       3.531   7.171   9.701  1.00  0.00     0.226 C 
HETATM    8  C8  UNL     1       4.653   6.901  10.635  1.00  0.00    -0.072 C 
HETATM    9  C9  UNL     1       5.370   6.813  11.598  1.00  0.00    -0.103 C 
HETATM   10  C10 UNL     1       6.123   6.914  12.869  1.00  0.00     0.099 C 
HETATM   11  C11 UNL     1       6.409   8.402  13.185  1.00  0.00     0.009 C 
HETATM   12  C12 UNL     1       7.862   8.591  13.708  1.00  0.00     0.016 C 
HETATM   13  C13 UNL     1       8.283  10.084  13.971  1.00  0.00     0.027 C 
HETATM   14  C14 UNL     1       7.164  10.942  14.573  1.00  0.00    -0.036 C 
HETATM   15  C15 UNL     1       7.369  11.876  15.513  1.00  0.00     0.057 C 
HETATM   16  C16 UNL     1       8.708  12.227  16.002  1.00  0.00     0.154 C 
HETATM   17  O4  UNL     1       8.801  13.118  16.843  1.00  0.00    -0.293 OA
HETATM   18  C17 UNL     1       9.943  11.585  15.401  1.00  0.00     0.071 C 
HETATM   19  C18 UNL     1      10.687  12.627  14.550  1.00  0.00     0.045 C 
HETATM   20  C19 UNL     1      10.338  12.454  13.079  1.00  0.00     0.122 C 
HETATM   21  C20 UNL     1      10.908  11.124  12.574  1.00  0.00     0.033 C 
HETATM   22  C21 UNL     1      10.822  10.000  13.624  1.00  0.00     0.013 C 
HETATM   23  C22 UNL     1       9.699  10.207  14.691  1.00  0.00    -0.026 C 
HETATM   24  C23 UNL     1       9.874   9.119  15.786  1.00  0.00     0.016 C 
HETATM   25  O5  UNL     1      10.827  13.523  12.274  1.00  0.00    -0.384 OA
HETATM   26  C24 UNL     1      10.045  14.727  12.378  1.00  0.00     0.190 C 
HETATM   27  C25 UNL     1       8.877  14.790  11.363  1.00  0.00     0.121 C 
HETATM   28  C32 UNL     1       7.762  13.863  11.693  1.00  0.00    -0.093 C 
HETATM   29  C33 UNL     1       6.835  13.124  11.906  1.00  0.00    -0.080 C 
HETATM   30  C34 UNL     1       5.641  12.285  12.043  1.00  0.00     0.263 C 
HETATM   31  O6  UNL     1       5.896  10.984  12.565  1.00  0.00    -0.363 OA
HETATM   32  C35 UNL     1       5.782  10.701  13.983  1.00  0.00     0.094 C 
HETATM   33  C36 UNL     1       4.508  11.333  14.559  1.00  0.00     0.044 C 
HETATM   34  C37 UNL     1       3.414  10.587  13.783  1.00  0.00     0.012 C 
HETATM   35  C38 UNL     1       3.854   9.098  13.767  1.00  0.00     0.037 C 
HETATM   36  C39 UNL     1       5.410   9.151  14.165  1.00  0.00     0.003 C 
HETATM   37  C40 UNL     1       5.638   8.679  15.634  1.00  0.00     0.019 C 
HETATM   38  C41 UNL     1       2.795   8.179  14.519  1.00  0.00     0.117 C 
HETATM   39  C42 UNL     1       2.196   8.881  15.776  1.00  0.00     0.052 C 
HETATM   40  C43 UNL     1       1.556   7.560  13.626  1.00  0.00     0.218 C 
ENDROOT
BRANCH  27  41
HETATM   41  C26 UNL     1       8.374  16.226  11.270  1.00  0.00    -0.040 A 
HETATM   42  C27 UNL     1       8.957  17.260  12.029  1.00  0.00     0.008 A 
HETATM   43  C28 UNL     1       8.511  18.574  11.898  1.00  0.00     0.001 A 
HETATM   44  C29 UNL     1       7.484  18.879  11.004  1.00  0.00     0.000 A 
HETATM   45  C30 UNL     1       6.891  17.865  10.254  1.00  0.00     0.001 A 
HETATM   46  C31 UNL     1       7.328  16.547  10.387  1.00  0.00     0.008 A 
ENDBRANCH  27  41
BRANCH  38  47
HETATM   47  O7  UNL     1       3.493   7.009  15.035  1.00  0.00    -0.384 OA
HETATM   48  H52 UNL     1       2.839   6.543  15.591  1.00  0.00     0.210 HD
ENDBRANCH  38  47
BRANCH  40  49
HETATM   49  O8  UNL     1       0.442   7.433  14.511  1.00  0.00    -0.361 OA
HETATM   50  H53 UNL     1      -0.360   7.342  13.955  1.00  0.00     0.213 HD
ENDBRANCH  40  49
BRANCH  40  51
HETATM   51  O9  UNL     1       1.904   6.200  13.324  1.00  0.00    -0.361 OA
HETATM   52  H54 UNL     1       2.825   6.097  13.640  1.00  0.00     0.213 HD
ENDBRANCH  40  51
BRANCH   7  53
HETATM   53  O3  UNL     1       3.425   6.117   8.753  1.00  0.00    -0.381 OA
HETATM   54  H12 UNL     1       4.333   5.945   8.441  1.00  0.00     0.211 HD
ENDBRANCH   7  53
BRANCH   3  55
HETATM   55  C4  UNL     1      -0.756   6.545  11.766  1.00  0.00     0.172 C 
BRANCH  55  56
HETATM   56  O1  UNL     1      -0.448   5.400  10.980  1.00  0.00    -0.400 OA
HETATM   57  H8  UNL     1      -0.963   4.656  11.350  1.00  0.00     0.209 HD
ENDBRANCH  55  56
ENDBRANCH   3  55
TORSDOF 7
ENDMDL
MODEL 8
REMARK minimizedAffinity -7.34228706
REMARK CNNscore 0.254128695
REMARK CNNaffinity 6.78145838
REMARK  7 active torsions:
REMARK  status: ('A' for Active; 'I' for Inactive)
REMARK    1  A    between atoms: C3_3  and  C4_4 
REMARK    2  A    between atoms: C4_4  and  O1_5 
REMARK    3  A    between atoms: C7_9  and  O3_10 
REMARK    4  A    between atoms: C25_30  and  C26_31 
REMARK    5  A    between atoms: C41_47  and  O7_49 
REMARK    6  A    between atoms: C43_50  and  O8_51 
REMARK    7  A    between atoms: C43_50  and  O9_52 
ROOT
HETATM    1  C1  UNL     1      -9.183  -8.836   7.512  1.00  0.00     0.013 C 
HETATM    2  C2  UNL     1      -8.111  -9.852   7.901  1.00  0.00     0.023 C 
HETATM    3  C3  UNL     1      -6.687  -9.219   7.896  1.00  0.00     0.050 C 
HETATM    4  C5  UNL     1      -6.056  -9.612   6.508  1.00  0.00     0.194 C 
HETATM    5  O2  UNL     1      -7.185 -10.213   5.848  1.00  0.00    -0.371 OA
HETATM    6  C6  UNL     1      -7.918 -10.931   6.858  1.00  0.00     0.167 C 
HETATM    7  C7  UNL     1      -9.081 -11.711   6.230  1.00  0.00     0.226 C 
HETATM    8  C8  UNL     1      -8.456 -12.762   5.388  1.00  0.00    -0.072 C 
HETATM    9  C9  UNL     1      -7.711 -13.415   4.704  1.00  0.00    -0.103 C 
HETATM   10  C10 UNL     1      -6.694 -13.988   3.792  1.00  0.00     0.099 C 
HETATM   11  C11 UNL     1      -6.581 -13.109   2.524  1.00  0.00     0.009 C 
HETATM   12  C12 UNL     1      -6.475 -13.989   1.245  1.00  0.00     0.016 C 
HETATM   13  C13 UNL     1      -6.450 -13.189  -0.109  1.00  0.00     0.027 C 
HETATM   14  C14 UNL     1      -5.643 -11.887  -0.040  1.00  0.00    -0.036 C 
HETATM   15  C15 UNL     1      -4.867 -11.440  -1.037  1.00  0.00     0.057 C 
HETATM   16  C16 UNL     1      -4.775 -12.119  -2.335  1.00  0.00     0.154 C 
HETATM   17  O4  UNL     1      -4.060 -11.620  -3.201  1.00  0.00    -0.293 OA
HETATM   18  C17 UNL     1      -5.627 -13.339  -2.631  1.00  0.00     0.071 C 
HETATM   19  C18 UNL     1      -6.723 -12.953  -3.639  1.00  0.00     0.045 C 
HETATM   20  C19 UNL     1      -8.033 -12.676  -2.915  1.00  0.00     0.122 C 
HETATM   21  C20 UNL     1      -8.564 -13.979  -2.307  1.00  0.00     0.033 C 
HETATM   22  C21 UNL     1      -7.443 -14.883  -1.758  1.00  0.00     0.013 C 
HETATM   23  C22 UNL     1      -6.138 -14.116  -1.367  1.00  0.00    -0.026 C 
HETATM   24  C23 UNL     1      -5.046 -15.170  -1.037  1.00  0.00     0.016 C 
HETATM   25  O5  UNL     1      -9.019 -12.108  -3.772  1.00  0.00    -0.384 OA
HETATM   26  C24 UNL     1      -8.807 -10.712  -4.048  1.00  0.00     0.190 C 
HETATM   27  C25 UNL     1      -9.482  -9.774  -3.016  1.00  0.00     0.121 C 
HETATM   28  C32 UNL     1      -8.800  -9.767  -1.694  1.00  0.00    -0.093 C 
HETATM   29  C33 UNL     1      -8.293  -9.730  -0.602  1.00  0.00    -0.080 C 
HETATM   30  C34 UNL     1      -7.783  -9.583   0.764  1.00  0.00     0.263 C 
HETATM   31  O6  UNL     1      -7.245 -10.780   1.321  1.00  0.00    -0.363 OA
HETATM   32  C35 UNL     1      -5.830 -11.084   1.240  1.00  0.00     0.094 C 
HETATM   33  C36 UNL     1      -4.991  -9.844   1.576  1.00  0.00     0.044 C 
HETATM   34  C37 UNL     1      -5.392  -9.585   3.035  1.00  0.00     0.012 C 
HETATM   35  C38 UNL     1      -5.405 -10.978   3.719  1.00  0.00     0.037 C 
HETATM   36  C39 UNL     1      -5.435 -12.011   2.488  1.00  0.00     0.003 C 
HETATM   37  C40 UNL     1      -4.046 -12.687   2.279  1.00  0.00     0.019 C 
HETATM   38  C41 UNL     1      -4.332 -11.052   4.890  1.00  0.00     0.117 C 
HETATM   39  C42 UNL     1      -3.022 -10.287   4.536  1.00  0.00     0.052 C 
HETATM   40  C43 UNL     1      -4.818 -10.590   6.396  1.00  0.00     0.218 C 
ENDROOT
BRANCH  27  41
HETATM   41  C26 UNL     1      -9.552  -8.365  -3.594  1.00  0.00    -0.040 A 
HETATM   42  C27 UNL     1     -10.680  -7.917  -4.307  1.00  0.00     0.008 A 
HETATM   43  C28 UNL     1     -10.742  -6.611  -4.790  1.00  0.00     0.001 A 
HETATM   44  C29 UNL     1      -9.685  -5.730  -4.563  1.00  0.00     0.000 A 
HETATM   45  C30 UNL     1      -8.557  -6.162  -3.868  1.00  0.00     0.001 A 
HETATM   46  C31 UNL     1      -8.486  -7.470  -3.389  1.00  0.00     0.008 A 
ENDBRANCH  27  41
BRANCH  38  47
HETATM   47  O7  UNL     1      -3.928 -12.443   5.050  1.00  0.00    -0.384 OA
HETATM   48  H52 UNL     1      -3.185 -12.424   5.684  1.00  0.00     0.210 HD
ENDBRANCH  38  47
BRANCH  40  49
HETATM   49  O8  UNL     1      -3.665 -10.055   7.047  1.00  0.00    -0.361 OA
HETATM   50  H53 UNL     1      -3.982  -9.528   7.810  1.00  0.00     0.213 HD
ENDBRANCH  40  49
BRANCH  40  51
HETATM   51  O9  UNL     1      -5.094 -11.793   7.130  1.00  0.00    -0.361 OA
HETATM   52  H54 UNL     1      -5.023 -12.513   6.471  1.00  0.00     0.213 HD
ENDBRANCH  40  51
BRANCH   7  53
HETATM   53  O3  UNL     1      -9.882 -12.311   7.239  1.00  0.00    -0.381 OA
HETATM   54  H12 UNL     1     -10.408 -12.999   6.791  1.00  0.00     0.211 HD
ENDBRANCH   7  53
BRANCH   3  55
HETATM   55  C4  UNL     1      -5.921  -9.598   9.159  1.00  0.00     0.172 C 
BRANCH  55  56
HETATM   56  O1  UNL     1      -6.322 -10.894   9.586  1.00  0.00    -0.400 OA
HETATM   57  H8  UNL     1      -5.769 -11.120  10.360  1.00  0.00     0.209 HD
ENDBRANCH  55  56
ENDBRANCH   3  55
TORSDOF 7
ENDMDL
MODEL 9
REMARK minimizedAffinity -7.02362776
REMARK CNNscore 0.240137592
REMARK CNNaffinity 6.64185572
REMARK  7 active torsions:
REMARK  status: ('A' for Active; 'I' for Inactive)
REMARK    1  A    between atoms: C3_3  and  C4_4 
REMARK    2  A    between atoms: C4_4  and  O1_5 
REMARK    3  A    between atoms: C7_9  and  O3_10 
REMARK    4  A    between atoms: C25_30  and  C26_31 
REMARK    5  A    between atoms: C41_47  and  O7_49 
REMARK    6  A    between atoms: C43_50  and  O8_51 
REMARK    7  A    between atoms: C43_50  and  O9_52 
ROOT
HETATM    1  C1  UNL     1      -6.597  17.343  14.256  1.00  0.00     0.013 C 
HETATM    2  C2  UNL     1      -7.768  18.115  14.862  1.00  0.00     0.023 C 
HETATM    3  C3  UNL     1      -7.724  18.099  16.420  1.00  0.00     0.050 C 
HETATM    4  C5  UNL     1      -8.711  16.952  16.857  1.00  0.00     0.194 C 
HETATM    5  O2  UNL     1      -9.030  16.358  15.585  1.00  0.00    -0.371 OA
HETATM    6  C6  UNL     1      -9.100  17.436  14.633  1.00  0.00     0.167 C 
HETATM    7  C7  UNL     1      -9.556  16.917  13.262  1.00  0.00     0.226 C 
HETATM    8  C8  UNL     1     -10.960  16.472  13.444  1.00  0.00    -0.072 C 
HETATM    9  C9  UNL     1     -12.009  16.081  13.887  1.00  0.00    -0.103 C 
HETATM   10  C10 UNL     1     -13.154  15.483  14.612  1.00  0.00     0.099 C 
HETATM   11  C11 UNL     1     -12.793  14.044  15.051  1.00  0.00     0.009 C 
HETATM   12  C12 UNL     1     -13.988  13.075  14.818  1.00  0.00     0.016 C 
HETATM   13  C13 UNL     1     -13.691  11.566  15.147  1.00  0.00     0.027 C 
HETATM   14  C14 UNL     1     -12.810  11.367  16.387  1.00  0.00    -0.036 C 
HETATM   15  C15 UNL     1     -12.992  10.381  17.276  1.00  0.00     0.057 C 
HETATM   16  C16 UNL     1     -14.010   9.337  17.106  1.00  0.00     0.154 C 
HETATM   17  O4  UNL     1     -14.083   8.455  17.958  1.00  0.00    -0.293 OA
HETATM   18  C17 UNL     1     -14.868   9.292  15.855  1.00  0.00     0.071 C 
HETATM   19  C18 UNL     1     -14.429   8.099  14.989  1.00  0.00     0.045 C 
HETATM   20  C19 UNL     1     -13.496   8.566  13.881  1.00  0.00     0.122 C 
HETATM   21  C20 UNL     1     -14.276   9.442  12.895  1.00  0.00     0.033 C 
HETATM   22  C21 UNL     1     -15.318  10.341  13.588  1.00  0.00     0.013 C 
HETATM   23  C22 UNL     1     -14.996  10.653  15.086  1.00  0.00    -0.026 C 
HETATM   24  C23 UNL     1     -16.225  11.381  15.696  1.00  0.00     0.016 C 
HETATM   25  O5  UNL     1     -12.891   7.480  13.185  1.00  0.00    -0.384 OA
HETATM   26  C24 UNL     1     -11.815   6.858  13.911  1.00  0.00     0.190 C 
HETATM   27  C25 UNL     1     -10.436   7.511  13.640  1.00  0.00     0.121 C 
HETATM   28  C32 UNL     1     -10.286   8.849  14.272  1.00  0.00    -0.093 C 
HETATM   29  C33 UNL     1     -10.113   9.939  14.753  1.00  0.00    -0.080 C 
HETATM   30  C34 UNL     1      -9.762  11.261  15.279  1.00  0.00     0.263 C 
HETATM   31  O6  UNL     1     -10.850  12.182  15.322  1.00  0.00    -0.363 OA
HETATM   32  C35 UNL     1     -11.654  12.349  16.517  1.00  0.00     0.094 C 
HETATM   33  C36 UNL     1     -10.762  12.426  17.762  1.00  0.00     0.044 C 
HETATM   34  C37 UNL     1      -9.956  13.703  17.487  1.00  0.00     0.012 C 
HETATM   35  C38 UNL     1     -10.980  14.736  16.946  1.00  0.00     0.037 C 
HETATM   36  C39 UNL     1     -12.247  13.840  16.528  1.00  0.00     0.003 C 
HETATM   37  C40 UNL     1     -13.409  13.983  17.558  1.00  0.00     0.019 C 
HETATM   38  C41 UNL     1     -11.087  15.997  17.909  1.00  0.00     0.117 C 
HETATM   39  C42 UNL     1     -10.989  15.599  19.412  1.00  0.00     0.052 C 
HETATM   40  C43 UNL     1     -10.056  17.254  17.632  1.00  0.00     0.218 C 
ENDROOT
BRANCH  27  41
HETATM   41  C26 UNL     1      -9.336   6.565  14.111  1.00  0.00    -0.040 A 
HETATM   42  C27 UNL     1      -8.695   5.683  13.221  1.00  0.00     0.008 A 
HETATM   43  C28 UNL     1      -7.661   4.857  13.662  1.00  0.00     0.001 A 
HETATM   44  C29 UNL     1      -7.248   4.905  14.993  1.00  0.00     0.000 A 
HETATM   45  C30 UNL     1      -7.880   5.766  15.888  1.00  0.00     0.001 A 
HETATM   46  C31 UNL     1      -8.921   6.588  15.454  1.00  0.00     0.008 A 
ENDBRANCH  27  41
BRANCH  38  47
HETATM   47  O7  UNL     1     -12.416  16.576  17.755  1.00  0.00    -0.384 OA
HETATM   48  H52 UNL     1     -12.480  17.260  18.449  1.00  0.00     0.210 HD
ENDBRANCH  38  47
BRANCH  40  49
HETATM   49  O8  UNL     1      -9.808  17.860  18.901  1.00  0.00    -0.361 OA
HETATM   50  H53 UNL     1      -9.001  18.409  18.806  1.00  0.00     0.213 HD
ENDBRANCH  40  49
BRANCH  40  51
HETATM   51  O9  UNL     1     -10.803  18.252  16.920  1.00  0.00    -0.361 OA
HETATM   52  H54 UNL     1     -11.661  17.828  16.713  1.00  0.00     0.213 HD
ENDBRANCH  40  51
BRANCH   7  53
HETATM   53  O3  UNL     1      -9.497  17.954  12.292  1.00  0.00    -0.381 OA
HETATM   54  H12 UNL     1     -10.048  17.654  11.546  1.00  0.00     0.211 HD
ENDBRANCH   7  53
BRANCH   3  55
HETATM   55  C4  UNL     1      -7.962  19.496  16.983  1.00  0.00     0.172 C 
BRANCH  55  56
HETATM   56  O1  UNL     1      -6.783  20.276  16.832  1.00  0.00    -0.400 OA
HETATM   57  H8  UNL     1      -6.995  21.175  17.151  1.00  0.00     0.209 HD
ENDBRANCH  55  56
ENDBRANCH   3  55
TORSDOF 7
ENDMDL
