MODEL 1
REMARK minimizedAffinity -8.47952652
REMARK CNNscore 0.476325095
REMARK CNNaffinity 6.50552368
REMARK  9 active torsions:
REMARK  status: ('A' for Active; 'I' for Inactive)
REMARK    1  A    between atoms: C4_4  and  C5_5 
REMARK    2  A    between atoms: C7_7  and  O1_9 
REMARK    3  A    between atoms: C20_21  and  O2_22 
REMARK    4  A    between atoms: O2_22  and  C21_23 
REMARK    5  A    between atoms: C22_25  and  C23_26 
REMARK    6  A    between atoms: C23_26  and  O4_27 
REMARK    7  A    between atoms: C24_28  and  O5_29 
REMARK    8  A    between atoms: C25_30  and  O6_31 
REMARK    9  A    between atoms: C26_32  and  O7_33 
ROOT
HETATM    1  C5  UNL     1      -5.024  47.838 -27.707  1.00  0.00     0.147 C 
HETATM    2  C6  UNL     1      -6.062  48.179 -26.640  1.00  0.00     0.074 C 
HETATM    3  C7  UNL     1      -7.432  47.514 -26.923  1.00  0.00     0.064 C 
HETATM    4  C8  UNL     1      -7.599  46.235 -26.093  1.00  0.00     0.046 C 
HETATM    5  C9  UNL     1      -7.583  47.202 -28.439  1.00  0.00     0.058 C 
HETATM    6  C10 UNL     1      -6.835  48.259 -29.238  1.00  0.00     0.131 C 
HETATM    7  C11 UNL     1      -7.119  47.854 -30.676  1.00  0.00     0.042 C 
HETATM    8  C12 UNL     1      -8.629  47.448 -30.704  1.00  0.00    -0.029 C 
HETATM    9  C13 UNL     1      -9.332  48.749 -31.190  1.00  0.00     0.016 C 
HETATM   10  C14 UNL     1      -8.929  46.261 -31.719  1.00  0.00     0.014 C 
HETATM   11  C15 UNL     1      -7.789  45.197 -31.714  1.00  0.00     0.034 C 
HETATM   12  C16 UNL     1      -8.120  43.814 -32.164  1.00  0.00    -0.022 C 
HETATM   13  C17 UNL     1      -9.342  43.397 -32.532  1.00  0.00    -0.059 C 
HETATM   14  C18 UNL     1     -10.525  44.341 -32.479  1.00  0.00     0.057 C 
HETATM   15  C19 UNL     1     -10.886  44.630 -33.921  1.00  0.00     0.024 C 
HETATM   16  C20 UNL     1     -10.723  43.762 -34.934  1.00  0.00     0.116 C 
HETATM   17  C27 UNL     1     -10.167  42.381 -34.647  1.00  0.00     0.194 C 
HETATM   18  O8  UNL     1     -10.167  41.521 -35.529  1.00  0.00    -0.289 OA
HETATM   19  C28 UNL     1      -9.640  42.059 -33.223  1.00  0.00     0.044 C 
HETATM   20  C29 UNL     1     -10.712  41.250 -32.474  1.00  0.00     0.028 C 
HETATM   21  C30 UNL     1      -8.397  41.156 -33.383  1.00  0.00     0.028 C 
HETATM   22  C31 UNL     1     -10.330  45.591 -31.531  1.00  0.00     0.032 C 
HETATM   23  C32 UNL     1     -11.525  46.546 -31.765  1.00  0.00     0.025 C 
HETATM   24  C33 UNL     1     -10.477  45.139 -30.069  1.00  0.00     0.137 C 
HETATM   25  O9  UNL     1     -11.410  44.412 -29.715  1.00  0.00    -0.297 OA
HETATM   26  C34 UNL     1      -9.450  45.587 -29.045  1.00  0.00     0.089 C 
HETATM   27  C35 UNL     1      -8.970  47.055 -29.182  1.00  0.00    -0.021 C 
HETATM   28  C36 UNL     1     -10.064  47.950 -28.565  1.00  0.00     0.017 C 
HETATM   29  O10 UNL     1      -5.428  48.225 -29.021  1.00  0.00    -0.376 OA
ENDROOT
BRANCH  16  30
HETATM   30  O2  UNL     1     -11.135  44.169 -36.192  1.00  0.00    -0.314 OA
BRANCH  30  31
HETATM   31  C21 UNL     1     -10.183  44.257 -37.261  1.00  0.00     0.298 C 
HETATM   32  O3  UNL     1     -10.464  43.193 -38.197  1.00  0.00    -0.348 OA
HETATM   33  C22 UNL     1     -11.345  43.512 -39.269  1.00  0.00     0.179 C 
HETATM   34  C24 UNL     1     -10.817  44.682 -40.131  1.00  0.00     0.180 C 
HETATM   35  C25 UNL     1      -9.747  45.520 -39.405  1.00  0.00     0.183 C 
HETATM   36  C26 UNL     1     -10.093  45.665 -37.929  1.00  0.00     0.205 C 
BRANCH  33  37
HETATM   37  C23 UNL     1     -12.792  43.704 -38.791  1.00  0.00     0.198 C 
BRANCH  37  38
HETATM   38  O4  UNL     1     -13.690  42.969 -39.622  1.00  0.00    -0.398 OA
HETATM   39  H32 UNL     1     -13.708  42.057 -39.282  1.00  0.00     0.209 HD
ENDBRANCH  37  38
ENDBRANCH  33  37
BRANCH  34  40
HETATM   40  O5  UNL     1     -10.197  44.186 -41.337  1.00  0.00    -0.390 OA
HETATM   41  H34 UNL     1     -10.903  43.777 -41.869  1.00  0.00     0.210 HD
ENDBRANCH  34  40
BRANCH  35  42
HETATM   42  O6  UNL     1      -8.444  44.950 -39.563  1.00  0.00    -0.390 OA
HETATM   43  H36 UNL     1      -8.511  44.385 -40.365  1.00  0.00     0.210 HD
ENDBRANCH  35  42
BRANCH  36  44
HETATM   44  O7  UNL     1     -11.319  46.410 -37.827  1.00  0.00    -0.388 OA
HETATM   45  H38 UNL     1     -11.106  47.340 -38.028  1.00  0.00     0.210 HD
ENDBRANCH  36  44
ENDBRANCH  30  31
ENDBRANCH  16  30
BRANCH   3  46
HETATM   46  O1  UNL     1      -8.409  48.446 -26.466  1.00  0.00    -0.390 OA
HETATM   47  H14 UNL     1      -8.289  48.581 -25.508  1.00  0.00     0.210 HD
ENDBRANCH   3  46
BRANCH   1  48
HETATM   48  C4  UNL     1      -3.683  48.449 -27.376  1.00  0.00     0.007 C 
HETATM   49  C2  UNL     1      -3.146  48.760 -26.177  1.00  0.00    -0.089 C 
HETATM   50  C1  UNL     1      -1.801  49.431 -26.085  1.00  0.00     0.042 C 
HETATM   51  C3  UNL     1      -3.788  48.480 -24.846  1.00  0.00     0.042 C 
ENDBRANCH   1  48
TORSDOF 9
ENDMDL
MODEL 2
REMARK minimizedAffinity -8.55629539
REMARK CNNscore 0.461394072
REMARK CNNaffinity 6.99012184
REMARK  9 active torsions:
REMARK  status: ('A' for Active; 'I' for Inactive)
REMARK    1  A    between atoms: C4_4  and  C5_5 
REMARK    2  A    between atoms: C7_7  and  O1_9 
REMARK    3  A    between atoms: C20_21  and  O2_22 
REMARK    4  A    between atoms: O2_22  and  C21_23 
REMARK    5  A    between atoms: C22_25  and  C23_26 
REMARK    6  A    between atoms: C23_26  and  O4_27 
REMARK    7  A    between atoms: C24_28  and  O5_29 
REMARK    8  A    between atoms: C25_30  and  O6_31 
REMARK    9  A    between atoms: C26_32  and  O7_33 
ROOT
HETATM    1  C5  UNL     1      -2.146  50.681 -20.171  1.00  0.00     0.147 C 
HETATM    2  C6  UNL     1      -1.554  49.498 -19.408  1.00  0.00     0.074 C 
HETATM    3  C7  UNL     1      -2.279  48.169 -19.737  1.00  0.00     0.064 C 
HETATM    4  C8  UNL     1      -1.492  47.363 -20.778  1.00  0.00     0.046 C 
HETATM    5  C9  UNL     1      -3.723  48.446 -20.241  1.00  0.00     0.058 C 
HETATM    6  C10 UNL     1      -4.256  49.695 -19.555  1.00  0.00     0.131 C 
HETATM    7  C11 UNL     1      -5.671  49.799 -20.101  1.00  0.00     0.042 C 
HETATM    8  C12 UNL     1      -6.224  48.336 -20.106  1.00  0.00    -0.029 C 
HETATM    9  C13 UNL     1      -7.011  48.255 -18.765  1.00  0.00     0.016 C 
HETATM   10  C14 UNL     1      -7.206  48.053 -21.325  1.00  0.00     0.014 C 
HETATM   11  C15 UNL     1      -6.721  48.757 -22.630  1.00  0.00     0.034 C 
HETATM   12  C16 UNL     1      -7.178  48.199 -23.936  1.00  0.00    -0.022 C 
HETATM   13  C17 UNL     1      -7.940  47.105 -24.080  1.00  0.00    -0.059 C 
HETATM   14  C18 UNL     1      -8.380  46.308 -22.870  1.00  0.00     0.057 C 
HETATM   15  C19 UNL     1      -9.869  46.551 -22.735  1.00  0.00     0.024 C 
HETATM   16  C20 UNL     1     -10.698  46.776 -23.768  1.00  0.00     0.116 C 
HETATM   17  C27 UNL     1     -10.146  46.769 -25.180  1.00  0.00     0.194 C 
HETATM   18  O8  UNL     1     -10.914  46.808 -26.143  1.00  0.00    -0.289 OA
HETATM   19  C28 UNL     1      -8.612  46.671 -25.391  1.00  0.00     0.044 C 
HETATM   20  C29 UNL     1      -8.259  45.222 -25.767  1.00  0.00     0.028 C 
HETATM   21  C30 UNL     1      -8.252  47.569 -26.596  1.00  0.00     0.028 C 
HETATM   22  C31 UNL     1      -7.503  46.538 -21.574  1.00  0.00     0.032 C 
HETATM   23  C32 UNL     1      -8.214  45.830 -20.396  1.00  0.00     0.025 C 
HETATM   24  C33 UNL     1      -6.171  45.785 -21.731  1.00  0.00     0.137 C 
HETATM   25  O9  UNL     1      -6.140  44.617 -22.128  1.00  0.00    -0.297 OA
HETATM   26  C34 UNL     1      -4.871  46.497 -21.401  1.00  0.00     0.089 C 
HETATM   27  C35 UNL     1      -4.911  47.408 -20.147  1.00  0.00    -0.021 C 
HETATM   28  C36 UNL     1      -4.792  46.489 -18.914  1.00  0.00     0.017 C 
HETATM   29  O10 UNL     1      -3.538  50.872 -19.912  1.00  0.00    -0.376 OA
ENDROOT
BRANCH  16  30
HETATM   30  O2  UNL     1     -12.042  46.948 -23.479  1.00  0.00    -0.314 OA
BRANCH  30  31
HETATM   31  C21 UNL     1     -12.938  45.832 -23.564  1.00  0.00     0.298 C 
HETATM   32  O3  UNL     1     -13.321  45.464 -22.220  1.00  0.00    -0.348 OA
HETATM   33  C22 UNL     1     -14.502  46.073 -21.711  1.00  0.00     0.179 C 
HETATM   34  C24 UNL     1     -15.740  45.767 -22.583  1.00  0.00     0.180 C 
HETATM   35  C25 UNL     1     -15.368  45.291 -24.000  1.00  0.00     0.183 C 
HETATM   36  C26 UNL     1     -14.154  46.054 -24.517  1.00  0.00     0.205 C 
BRANCH  33  37
HETATM   37  C23 UNL     1     -14.304  47.570 -21.426  1.00  0.00     0.198 C 
BRANCH  37  38
HETATM   38  O4  UNL     1     -13.065  47.787 -20.752  1.00  0.00    -0.398 OA
HETATM   39  H32 UNL     1     -12.375  47.835 -21.437  1.00  0.00     0.209 HD
ENDBRANCH  37  38
ENDBRANCH  33  37
BRANCH  34  40
HETATM   40  O5  UNL     1     -16.529  44.711 -21.993  1.00  0.00    -0.390 OA
HETATM   41  H34 UNL     1     -16.888  45.060 -21.157  1.00  0.00     0.210 HD
ENDBRANCH  34  40
BRANCH  35  42
HETATM   42  O6  UNL     1     -15.125  43.881 -24.029  1.00  0.00    -0.390 OA
HETATM   43  H36 UNL     1     -15.591  43.529 -23.238  1.00  0.00     0.210 HD
ENDBRANCH  35  42
BRANCH  36  44
HETATM   44  O7  UNL     1     -14.518  47.439 -24.645  1.00  0.00    -0.388 OA
HETATM   45  H38 UNL     1     -15.092  47.513 -25.429  1.00  0.00     0.210 HD
ENDBRANCH  36  44
ENDBRANCH  30  31
ENDBRANCH  16  30
BRANCH   3  46
HETATM   46  O1  UNL     1      -2.267  47.419 -18.525  1.00  0.00    -0.390 OA
HETATM   47  H14 UNL     1      -1.341  47.247 -18.272  1.00  0.00     0.210 HD
ENDBRANCH   3  46
BRANCH   1  48
HETATM   48  C4  UNL     1      -1.385  51.952 -19.878  1.00  0.00     0.007 C 
HETATM   49  C2  UNL     1      -0.222  52.402 -20.392  1.00  0.00    -0.089 C 
HETATM   50  C1  UNL     1       0.395  53.685 -19.900  1.00  0.00     0.042 C 
HETATM   51  C3  UNL     1       0.564  51.719 -21.478  1.00  0.00     0.042 C 
ENDBRANCH   1  48
TORSDOF 9
ENDMDL
MODEL 3
REMARK minimizedAffinity -7.78610516
REMARK CNNscore 0.451125503
REMARK CNNaffinity 7.06455803
REMARK  9 active torsions:
REMARK  status: ('A' for Active; 'I' for Inactive)
REMARK    1  A    between atoms: C4_4  and  C5_5 
REMARK    2  A    between atoms: C7_7  and  O1_9 
REMARK    3  A    between atoms: C20_21  and  O2_22 
REMARK    4  A    between atoms: O2_22  and  C21_23 
REMARK    5  A    between atoms: C22_25  and  C23_26 
REMARK    6  A    between atoms: C23_26  and  O4_27 
REMARK    7  A    between atoms: C24_28  and  O5_29 
REMARK    8  A    between atoms: C25_30  and  O6_31 
REMARK    9  A    between atoms: C26_32  and  O7_33 
ROOT
HETATM    1  C5  UNL     1       0.671  51.689 -16.844  1.00  0.00     0.147 C 
HETATM    2  C6  UNL     1       1.088  52.542 -18.041  1.00  0.00     0.074 C 
HETATM    3  C7  UNL     1       0.064  52.464 -19.200  1.00  0.00     0.064 C 
HETATM    4  C8  UNL     1      -0.872  53.679 -19.182  1.00  0.00     0.046 C 
HETATM    5  C9  UNL     1      -0.755  51.145 -19.115  1.00  0.00     0.058 C 
HETATM    6  C10 UNL     1       0.126  50.053 -18.525  1.00  0.00     0.131 C 
HETATM    7  C11 UNL     1      -0.784  48.835 -18.559  1.00  0.00     0.042 C 
HETATM    8  C12 UNL     1      -1.521  48.903 -19.937  1.00  0.00    -0.029 C 
HETATM    9  C13 UNL     1      -0.657  47.977 -20.842  1.00  0.00     0.016 C 
HETATM   10  C14 UNL     1      -3.011  48.351 -19.866  1.00  0.00     0.014 C 
HETATM   11  C15 UNL     1      -3.713  48.757 -18.534  1.00  0.00     0.034 C 
HETATM   12  C16 UNL     1      -5.204  48.801 -18.514  1.00  0.00    -0.022 C 
HETATM   13  C17 UNL     1      -5.994  48.563 -19.572  1.00  0.00    -0.059 C 
HETATM   14  C18 UNL     1      -5.393  48.252 -20.926  1.00  0.00     0.057 C 
HETATM   15  C19 UNL     1      -5.687  46.788 -21.182  1.00  0.00     0.024 C 
HETATM   16  C20 UNL     1      -6.776  46.142 -20.729  1.00  0.00     0.116 C 
HETATM   17  C27 UNL     1      -7.813  46.904 -19.928  1.00  0.00     0.194 C 
HETATM   18  O8  UNL     1      -8.889  46.373 -19.649  1.00  0.00    -0.289 OA
HETATM   19  C28 UNL     1      -7.515  48.367 -19.503  1.00  0.00     0.044 C 
HETATM   20  C29 UNL     1      -8.263  49.316 -20.454  1.00  0.00     0.028 C 
HETATM   21  C30 UNL     1      -8.100  48.566 -18.087  1.00  0.00     0.028 C 
HETATM   22  C31 UNL     1      -3.892  48.716 -21.105  1.00  0.00     0.032 C 
HETATM   23  C32 UNL     1      -3.378  48.131 -22.442  1.00  0.00     0.025 C 
HETATM   24  C33 UNL     1      -3.860  50.239 -21.312  1.00  0.00     0.137 C 
HETATM   25  O9  UNL     1      -4.630  50.794 -22.102  1.00  0.00    -0.297 OA
HETATM   26  C34 UNL     1      -2.872  51.077 -20.521  1.00  0.00     0.089 C 
HETATM   27  C35 UNL     1      -1.461  50.457 -20.350  1.00  0.00    -0.021 C 
HETATM   28  C36 UNL     1      -0.698  50.693 -21.670  1.00  0.00     0.017 C 
HETATM   29  O10 UNL     1       0.498  50.311 -17.175  1.00  0.00    -0.376 OA
ENDROOT
BRANCH  16  30
HETATM   30  O2  UNL     1      -6.914  44.809 -21.077  1.00  0.00    -0.314 OA
BRANCH  30  31
HETATM   31  C21 UNL     1      -7.212  44.453 -22.434  1.00  0.00     0.298 C 
HETATM   32  O3  UNL     1      -6.389  43.319 -22.788  1.00  0.00    -0.348 OA
HETATM   33  C22 UNL     1      -6.960  42.033 -22.573  1.00  0.00     0.179 C 
HETATM   34  C24 UNL     1      -8.277  41.840 -23.358  1.00  0.00     0.180 C 
HETATM   35  C25 UNL     1      -8.907  43.174 -23.804  1.00  0.00     0.183 C 
HETATM   36  C26 UNL     1      -8.730  44.234 -22.725  1.00  0.00     0.205 C 
BRANCH  33  37
HETATM   37  C23 UNL     1      -7.079  41.696 -21.079  1.00  0.00     0.198 C 
BRANCH  37  38
HETATM   38  O4  UNL     1      -5.837  41.931 -20.417  1.00  0.00    -0.398 OA
HETATM   39  H32 UNL     1      -5.811  42.878 -20.192  1.00  0.00     0.209 HD
ENDBRANCH  37  38
ENDBRANCH  33  37
BRANCH  34  40
HETATM   40  O5  UNL     1      -8.044  41.077 -24.562  1.00  0.00    -0.390 OA
HETATM   41  H34 UNL     1      -7.782  40.181 -24.282  1.00  0.00     0.210 HD
ENDBRANCH  34  40
BRANCH  35  42
HETATM   42  O6  UNL     1      -8.351  43.622 -25.045  1.00  0.00    -0.390 OA
HETATM   43  H36 UNL     1      -7.980  42.812 -25.462  1.00  0.00     0.210 HD
ENDBRANCH  35  42
BRANCH  36  44
HETATM   44  O7  UNL     1      -9.466  43.816 -21.562  1.00  0.00    -0.388 OA
HETATM   45  H38 UNL     1     -10.411  43.951 -21.758  1.00  0.00     0.210 HD
ENDBRANCH  36  44
ENDBRANCH  30  31
ENDBRANCH  16  30
BRANCH   3  46
HETATM   46  O1  UNL     1       0.835  52.542 -20.396  1.00  0.00    -0.390 OA
HETATM   47  H14 UNL     1       1.302  53.398 -20.413  1.00  0.00     0.210 HD
ENDBRANCH   3  46
BRANCH   1  48
HETATM   48  C4  UNL     1       1.656  51.830 -15.708  1.00  0.00     0.007 C 
HETATM   49  C2  UNL     1       1.486  51.622 -14.385  1.00  0.00    -0.089 C 
HETATM   50  C1  UNL     1       2.604  51.890 -13.412  1.00  0.00     0.042 C 
HETATM   51  C3  UNL     1       0.223  51.112 -13.747  1.00  0.00     0.042 C 
ENDBRANCH   1  48
TORSDOF 9
ENDMDL
MODEL 4
REMARK minimizedAffinity -8.2292347
REMARK CNNscore 0.448505282
REMARK CNNaffinity 7.13424063
REMARK  9 active torsions:
REMARK  status: ('A' for Active; 'I' for Inactive)
REMARK    1  A    between atoms: C4_4  and  C5_5 
REMARK    2  A    between atoms: C7_7  and  O1_9 
REMARK    3  A    between atoms: C20_21  and  O2_22 
REMARK    4  A    between atoms: O2_22  and  C21_23 
REMARK    5  A    between atoms: C22_25  and  C23_26 
REMARK    6  A    between atoms: C23_26  and  O4_27 
REMARK    7  A    between atoms: C24_28  and  O5_29 
REMARK    8  A    between atoms: C25_30  and  O6_31 
REMARK    9  A    between atoms: C26_32  and  O7_33 
ROOT
HETATM    1  C5  UNL     1       0.322  51.570 -16.713  1.00  0.00     0.147 C 
HETATM    2  C6  UNL     1       1.046  52.380 -17.787  1.00  0.00     0.074 C 
HETATM    3  C7  UNL     1       0.273  52.391 -19.129  1.00  0.00     0.064 C 
HETATM    4  C8  UNL     1      -0.536  53.686 -19.280  1.00  0.00     0.046 C 
HETATM    5  C9  UNL     1      -0.660  51.152 -19.232  1.00  0.00     0.058 C 
HETATM    6  C10 UNL     1      -0.017  49.986 -18.495  1.00  0.00     0.131 C 
HETATM    7  C11 UNL     1      -1.006  48.855 -18.731  1.00  0.00     0.042 C 
HETATM    8  C12 UNL     1      -1.441  48.988 -20.227  1.00  0.00    -0.029 C 
HETATM    9  C13 UNL     1      -0.499  47.985 -20.955  1.00  0.00     0.016 C 
HETATM   10  C14 UNL     1      -2.958  48.572 -20.466  1.00  0.00     0.014 C 
HETATM   11  C15 UNL     1      -3.875  49.042 -19.295  1.00  0.00     0.034 C 
HETATM   12  C16 UNL     1      -5.329  49.221 -19.574  1.00  0.00    -0.022 C 
HETATM   13  C17 UNL     1      -5.908  49.054 -20.773  1.00  0.00    -0.059 C 
HETATM   14  C18 UNL     1      -5.077  48.687 -21.984  1.00  0.00     0.057 C 
HETATM   15  C19 UNL     1      -5.443  47.255 -22.317  1.00  0.00     0.024 C 
HETATM   16  C20 UNL     1      -6.653  46.711 -22.103  1.00  0.00     0.116 C 
HETATM   17  C27 UNL     1      -7.759  47.565 -21.514  1.00  0.00     0.194 C 
HETATM   18  O8  UNL     1      -8.912  47.134 -21.466  1.00  0.00    -0.289 OA
HETATM   19  C28 UNL     1      -7.423  48.995 -21.014  1.00  0.00     0.044 C 
HETATM   20  C29 UNL     1      -7.877  50.007 -22.081  1.00  0.00     0.028 C 
HETATM   21  C30 UNL     1      -8.261  49.250 -19.742  1.00  0.00     0.028 C 
HETATM   22  C31 UNL     1      -3.535  49.013 -21.851  1.00  0.00     0.032 C 
HETATM   23  C32 UNL     1      -2.817  48.381 -23.067  1.00  0.00     0.025 C 
HETATM   24  C33 UNL     1      -3.327  50.527 -22.022  1.00  0.00     0.137 C 
HETATM   25  O9  UNL     1      -3.869  51.147 -22.942  1.00  0.00    -0.297 OA
HETATM   26  C34 UNL     1      -2.448  51.273 -21.035  1.00  0.00     0.089 C 
HETATM   27  C35 UNL     1      -1.161  50.528 -20.595  1.00  0.00    -0.021 C 
HETATM   28  C36 UNL     1      -0.130  50.692 -21.731  1.00  0.00     0.017 C 
HETATM   29  O10 UNL     1       0.098  50.213 -17.094  1.00  0.00    -0.376 OA
ENDROOT
BRANCH  16  30
HETATM   30  O2  UNL     1      -6.836  45.395 -22.494  1.00  0.00    -0.314 OA
BRANCH  30  31
HETATM   31  C21 UNL     1      -6.413  44.329 -21.633  1.00  0.00     0.298 C 
HETATM   32  O3  UNL     1      -7.288  44.311 -20.483  1.00  0.00    -0.348 OA
HETATM   33  C22 UNL     1      -8.432  43.470 -20.573  1.00  0.00     0.179 C 
HETATM   34  C24 UNL     1      -8.054  41.992 -20.817  1.00  0.00     0.180 C 
HETATM   35  C25 UNL     1      -6.620  41.826 -21.358  1.00  0.00     0.183 C 
HETATM   36  C26 UNL     1      -6.287  42.942 -22.339  1.00  0.00     0.205 C 
BRANCH  33  37
HETATM   37  C23 UNL     1      -9.471  44.011 -21.567  1.00  0.00     0.198 C 
BRANCH  37  38
HETATM   38  O4  UNL     1      -9.964  42.956 -22.392  1.00  0.00    -0.398 OA
HETATM   39  H32 UNL     1     -10.679  42.519 -21.897  1.00  0.00     0.209 HD
ENDBRANCH  37  38
ENDBRANCH  33  37
BRANCH  34  40
HETATM   40  O5  UNL     1      -8.113  41.242 -19.584  1.00  0.00    -0.390 OA
HETATM   41  H34 UNL     1      -9.048  41.222 -19.312  1.00  0.00     0.210 HD
ENDBRANCH  34  40
BRANCH  35  42
HETATM   42  O6  UNL     1      -5.664  41.790 -20.294  1.00  0.00    -0.390 OA
HETATM   43  H36 UNL     1      -6.181  41.529 -19.499  1.00  0.00     0.210 HD
ENDBRANCH  35  42
BRANCH  36  44
HETATM   44  O7  UNL     1      -7.159  42.813 -23.476  1.00  0.00    -0.388 OA
HETATM   45  H38 UNL     1      -6.841  42.052 -23.995  1.00  0.00     0.210 HD
ENDBRANCH  36  44
ENDBRANCH  30  31
ENDBRANCH  16  30
BRANCH   3  46
HETATM   46  O1  UNL     1       1.273  52.398 -20.145  1.00  0.00    -0.390 OA
HETATM   47  H14 UNL     1       1.808  53.208 -20.054  1.00  0.00     0.210 HD
ENDBRANCH   3  46
BRANCH   1  48
HETATM   48  C4  UNL     1       1.067  51.623 -15.399  1.00  0.00     0.007 C 
HETATM   49  C2  UNL     1       2.371  51.869 -15.153  1.00  0.00    -0.089 C 
HETATM   50  C1  UNL     1       2.916  51.808 -13.750  1.00  0.00     0.042 C 
HETATM   51  C3  UNL     1       3.393  52.228 -16.197  1.00  0.00     0.042 C 
ENDBRANCH   1  48
TORSDOF 9
ENDMDL
MODEL 5
REMARK minimizedAffinity -7.49556398
REMARK CNNscore 0.437225729
REMARK CNNaffinity 6.52347708
REMARK  9 active torsions:
REMARK  status: ('A' for Active; 'I' for Inactive)
REMARK    1  A    between atoms: C4_4  and  C5_5 
REMARK    2  A    between atoms: C7_7  and  O1_9 
REMARK    3  A    between atoms: C20_21  and  O2_22 
REMARK    4  A    between atoms: O2_22  and  C21_23 
REMARK    5  A    between atoms: C22_25  and  C23_26 
REMARK    6  A    between atoms: C23_26  and  O4_27 
REMARK    7  A    between atoms: C24_28  and  O5_29 
REMARK    8  A    between atoms: C25_30  and  O6_31 
REMARK    9  A    between atoms: C26_32  and  O7_33 
ROOT
HETATM    1  C5  UNL     1       6.930  52.261  -3.885  1.00  0.00     0.147 C 
HETATM    2  C6  UNL     1       7.682  53.590  -3.871  1.00  0.00     0.074 C 
HETATM    3  C7  UNL     1       7.009  54.651  -4.776  1.00  0.00     0.064 C 
HETATM    4  C8  UNL     1       6.141  55.605  -3.944  1.00  0.00     0.046 C 
HETATM    5  C9  UNL     1       6.158  53.965  -5.881  1.00  0.00     0.058 C 
HETATM    6  C10 UNL     1       6.811  52.644  -6.259  1.00  0.00     0.131 C 
HETATM    7  C11 UNL     1       5.909  52.129  -7.369  1.00  0.00     0.042 C 
HETATM    8  C12 UNL     1       5.576  53.380  -8.249  1.00  0.00    -0.029 C 
HETATM    9  C13 UNL     1       6.624  53.289  -9.396  1.00  0.00     0.016 C 
HETATM   10  C14 UNL     1       4.107  53.332  -8.856  1.00  0.00     0.014 C 
HETATM   11  C15 UNL     1       3.082  52.742  -7.839  1.00  0.00     0.034 C 
HETATM   12  C16 UNL     1       1.644  53.101  -8.007  1.00  0.00    -0.022 C 
HETATM   13  C17 UNL     1       1.164  53.934  -8.943  1.00  0.00    -0.059 C 
HETATM   14  C18 UNL     1       2.100  54.622  -9.914  1.00  0.00     0.057 C 
HETATM   15  C19 UNL     1       1.842  53.980 -11.261  1.00  0.00     0.024 C 
HETATM   16  C20 UNL     1       0.652  53.494 -11.655  1.00  0.00     0.116 C 
HETATM   17  C27 UNL     1      -0.540  53.601 -10.725  1.00  0.00     0.194 C 
HETATM   18  O8  UNL     1      -1.667  53.314 -11.131  1.00  0.00    -0.289 OA
HETATM   19  C28 UNL     1      -0.324  54.114  -9.276  1.00  0.00     0.044 C 
HETATM   20  C29 UNL     1      -0.756  55.589  -9.208  1.00  0.00     0.028 C 
HETATM   21  C30 UNL     1      -1.265  53.307  -8.355  1.00  0.00     0.028 C 
HETATM   22  C31 UNL     1       3.607  54.694  -9.439  1.00  0.00     0.032 C 
HETATM   23  C32 UNL     1       4.447  55.220 -10.628  1.00  0.00     0.025 C 
HETATM   24  C33 UNL     1       3.740  55.781  -8.360  1.00  0.00     0.137 C 
HETATM   25  O9  UNL     1       3.232  56.896  -8.509  1.00  0.00    -0.297 OA
HETATM   26  C34 UNL     1       4.502  55.472  -7.084  1.00  0.00     0.089 C 
HETATM   27  C35 UNL     1       5.793  54.634  -7.266  1.00  0.00    -0.021 C 
HETATM   28  C36 UNL     1       6.893  55.596  -7.761  1.00  0.00     0.017 C 
HETATM   29  O10 UNL     1       6.811  51.701  -5.193  1.00  0.00    -0.376 OA
ENDROOT
BRANCH  16  30
HETATM   30  O2  UNL     1       0.573  52.967 -12.934  1.00  0.00    -0.314 OA
BRANCH  30  31
HETATM   31  C21 UNL     1       0.019  51.659 -13.134  1.00  0.00     0.298 C 
HETATM   32  O3  UNL     1      -0.394  51.557 -14.515  1.00  0.00    -0.348 OA
HETATM   33  C22 UNL     1       0.567  51.032 -15.424  1.00  0.00     0.179 C 
HETATM   34  C24 UNL     1       1.027  49.610 -15.032  1.00  0.00     0.180 C 
HETATM   35  C25 UNL     1       0.723  49.270 -13.560  1.00  0.00     0.183 C 
HETATM   36  C26 UNL     1       0.945  50.490 -12.674  1.00  0.00     0.205 C 
BRANCH  33  37
HETATM   37  C23 UNL     1       1.727  52.009 -15.666  1.00  0.00     0.198 C 
BRANCH  37  38
HETATM   38  O4  UNL     1       1.225  53.307 -15.981  1.00  0.00    -0.398 OA
HETATM   39  H32 UNL     1       1.040  53.752 -15.135  1.00  0.00     0.209 HD
ENDBRANCH  37  38
ENDBRANCH  33  37
BRANCH  34  40
HETATM   40  O5  UNL     1       0.344  48.617 -15.828  1.00  0.00    -0.390 OA
HETATM   41  H34 UNL     1       0.645  48.737 -16.746  1.00  0.00     0.210 HD
ENDBRANCH  34  40
BRANCH  35  42
HETATM   42  O6  UNL     1      -0.610  48.772 -13.405  1.00  0.00    -0.390 OA
HETATM   43  H36 UNL     1      -0.863  48.448 -14.298  1.00  0.00     0.210 HD
ENDBRANCH  35  42
BRANCH  36  44
HETATM   44  O7  UNL     1       2.341  50.831 -12.723  1.00  0.00    -0.388 OA
HETATM   45  H38 UNL     1       2.817  50.166 -12.193  1.00  0.00     0.210 HD
ENDBRANCH  36  44
ENDBRANCH  30  31
ENDBRANCH  16  30
BRANCH   3  46
HETATM   46  O1  UNL     1       8.078  55.421  -5.321  1.00  0.00    -0.390 OA
HETATM   47  H14 UNL     1       8.558  55.853  -4.590  1.00  0.00     0.210 HD
ENDBRANCH   3  46
BRANCH   1  48
HETATM   48  C4  UNL     1       7.573  51.263  -2.950  1.00  0.00     0.007 C 
HETATM   49  C2  UNL     1       7.098  50.714  -1.812  1.00  0.00    -0.089 C 
HETATM   50  C1  UNL     1       7.949  49.778  -0.994  1.00  0.00     0.042 C 
HETATM   51  C3  UNL     1       5.723  50.947  -1.249  1.00  0.00     0.042 C 
ENDBRANCH   1  48
TORSDOF 9
ENDMDL
MODEL 6
REMARK minimizedAffinity -8.38578701
REMARK CNNscore 0.426668257
REMARK CNNaffinity 6.00567245
REMARK  9 active torsions:
REMARK  status: ('A' for Active; 'I' for Inactive)
REMARK    1  A    between atoms: C4_4  and  C5_5 
REMARK    2  A    between atoms: C7_7  and  O1_9 
REMARK    3  A    between atoms: C20_21  and  O2_22 
REMARK    4  A    between atoms: O2_22  and  C21_23 
REMARK    5  A    between atoms: C22_25  and  C23_26 
REMARK    6  A    between atoms: C23_26  and  O4_27 
REMARK    7  A    between atoms: C24_28  and  O5_29 
REMARK    8  A    between atoms: C25_30  and  O6_31 
REMARK    9  A    between atoms: C26_32  and  O7_33 
ROOT
HETATM    1  C5  UNL     1      -7.167  46.583 -29.900  1.00  0.00     0.147 C 
HETATM    2  C6  UNL     1      -7.084  47.570 -28.738  1.00  0.00     0.074 C 
HETATM    3  C7  UNL     1      -8.193  47.327 -27.685  1.00  0.00     0.064 C 
HETATM    4  C8  UNL     1      -7.651  46.519 -26.499  1.00  0.00     0.046 C 
HETATM    5  C9  UNL     1      -9.407  46.599 -28.329  1.00  0.00     0.058 C 
HETATM    6  C10 UNL     1      -9.530  47.034 -29.782  1.00  0.00     0.131 C 
HETATM    7  C11 UNL     1     -10.772  46.293 -30.249  1.00  0.00     0.042 C 
HETATM    8  C12 UNL     1     -11.794  46.409 -29.071  1.00  0.00    -0.029 C 
HETATM    9  C13 UNL     1     -12.667  47.629 -29.484  1.00  0.00     0.016 C 
HETATM   10  C14 UNL     1     -12.710  45.116 -28.921  1.00  0.00     0.014 C 
HETATM   11  C15 UNL     1     -11.907  43.807 -29.191  1.00  0.00     0.034 C 
HETATM   12  C16 UNL     1     -12.419  42.537 -28.599  1.00  0.00    -0.022 C 
HETATM   13  C17 UNL     1     -13.498  42.439 -27.808  1.00  0.00    -0.059 C 
HETATM   14  C18 UNL     1     -14.283  43.674 -27.420  1.00  0.00     0.057 C 
HETATM   15  C19 UNL     1     -15.602  43.573 -28.157  1.00  0.00     0.024 C 
HETATM   16  C20 UNL     1     -16.215  42.415 -28.461  1.00  0.00     0.116 C 
HETATM   17  C27 UNL     1     -15.586  41.105 -28.030  1.00  0.00     0.194 C 
HETATM   18  O8  UNL     1     -16.211  40.051 -28.152  1.00  0.00    -0.289 OA
HETATM   19  C28 UNL     1     -14.168  41.119 -27.400  1.00  0.00     0.044 C 
HETATM   20  C29 UNL     1     -14.308  40.991 -25.874  1.00  0.00     0.028 C 
HETATM   21  C30 UNL     1     -13.423  39.865 -27.908  1.00  0.00     0.028 C 
HETATM   22  C31 UNL     1     -13.490  45.034 -27.568  1.00  0.00     0.032 C 
HETATM   23  C32 UNL     1     -14.496  46.189 -27.346  1.00  0.00     0.025 C 
HETATM   24  C33 UNL     1     -12.492  45.161 -26.405  1.00  0.00     0.137 C 
HETATM   25  O9  UNL     1     -12.834  44.932 -25.241  1.00  0.00    -0.297 OA
HETATM   26  C34 UNL     1     -11.058  45.566 -26.696  1.00  0.00     0.089 C 
HETATM   27  C35 UNL     1     -10.884  46.670 -27.771  1.00  0.00    -0.021 C 
HETATM   28  C36 UNL     1     -11.190  48.020 -27.090  1.00  0.00     0.017 C 
HETATM   29  O10 UNL     1      -8.423  46.624 -30.578  1.00  0.00    -0.376 OA
ENDROOT
BRANCH  16  30
HETATM   30  O2  UNL     1     -17.436  42.495 -29.110  1.00  0.00    -0.314 OA
BRANCH  30  31
HETATM   31  C21 UNL     1     -18.650  42.283 -28.377  1.00  0.00     0.298 C 
HETATM   32  O3  UNL     1     -19.562  43.355 -28.705  1.00  0.00    -0.348 OA
HETATM   33  C22 UNL     1     -20.452  43.116 -29.790  1.00  0.00     0.179 C 
HETATM   34  C24 UNL     1     -21.349  41.881 -29.550  1.00  0.00     0.180 C 
HETATM   35  C25 UNL     1     -20.790  40.942 -28.464  1.00  0.00     0.183 C 
HETATM   36  C26 UNL     1     -19.271  40.862 -28.556  1.00  0.00     0.205 C 
BRANCH  33  37
HETATM   37  C23 UNL     1     -19.723  43.094 -31.142  1.00  0.00     0.198 C 
BRANCH  37  38
HETATM   38  O4  UNL     1     -18.806  44.185 -31.230  1.00  0.00    -0.398 OA
HETATM   39  H32 UNL     1     -17.985  43.901 -30.792  1.00  0.00     0.209 HD
ENDBRANCH  37  38
ENDBRANCH  33  37
BRANCH  34  40
HETATM   40  O5  UNL     1     -22.661  42.284 -29.104  1.00  0.00    -0.390 OA
HETATM   41  H34 UNL     1     -23.077  42.759 -29.846  1.00  0.00     0.210 HD
ENDBRANCH  34  40
BRANCH  35  42
HETATM   42  O6  UNL     1     -21.192  41.362 -27.156  1.00  0.00    -0.390 OA
HETATM   43  H36 UNL     1     -21.991  41.916 -27.304  1.00  0.00     0.210 HD
ENDBRANCH  35  42
BRANCH  36  44
HETATM   44  O7  UNL     1     -18.931  40.259 -29.817  1.00  0.00    -0.388 OA
HETATM   45  H38 UNL     1     -19.132  39.308 -29.742  1.00  0.00     0.210 HD
ENDBRANCH  36  44
ENDBRANCH  30  31
ENDBRANCH  16  30
BRANCH   3  46
HETATM   46  O1  UNL     1      -8.541  48.619 -27.192  1.00  0.00    -0.390 OA
HETATM   47  H14 UNL     1      -7.755  49.016 -26.772  1.00  0.00     0.210 HD
ENDBRANCH   3  46
BRANCH   1  48
HETATM   48  C4  UNL     1      -6.040  46.804 -30.882  1.00  0.00     0.007 C 
HETATM   49  C2  UNL     1      -5.428  45.930 -31.707  1.00  0.00    -0.089 C 
HETATM   50  C1  UNL     1      -4.267  46.361 -32.565  1.00  0.00     0.042 C 
HETATM   51  C3  UNL     1      -5.814  44.486 -31.875  1.00  0.00     0.042 C 
ENDBRANCH   1  48
TORSDOF 9
ENDMDL
MODEL 7
REMARK minimizedAffinity -9.24762535
REMARK CNNscore 0.425812989
REMARK CNNaffinity 6.4855504
REMARK  9 active torsions:
REMARK  status: ('A' for Active; 'I' for Inactive)
REMARK    1  A    between atoms: C4_4  and  C5_5 
REMARK    2  A    between atoms: C7_7  and  O1_9 
REMARK    3  A    between atoms: C20_21  and  O2_22 
REMARK    4  A    between atoms: O2_22  and  C21_23 
REMARK    5  A    between atoms: C22_25  and  C23_26 
REMARK    6  A    between atoms: C23_26  and  O4_27 
REMARK    7  A    between atoms: C24_28  and  O5_29 
REMARK    8  A    between atoms: C25_30  and  O6_31 
REMARK    9  A    between atoms: C26_32  and  O7_33 
ROOT
HETATM    1  C5  UNL     1      -4.638  47.892 -26.684  1.00  0.00     0.147 C 
HETATM    2  C6  UNL     1      -5.847  48.391 -25.896  1.00  0.00     0.074 C 
HETATM    3  C7  UNL     1      -7.161  47.706 -26.346  1.00  0.00     0.064 C 
HETATM    4  C8  UNL     1      -7.531  46.560 -25.395  1.00  0.00     0.046 C 
HETATM    5  C9  UNL     1      -7.032  47.182 -27.804  1.00  0.00     0.058 C 
HETATM    6  C10 UNL     1      -6.107  48.107 -28.581  1.00  0.00     0.131 C 
HETATM    7  C11 UNL     1      -6.126  47.505 -29.977  1.00  0.00     0.042 C 
HETATM    8  C12 UNL     1      -7.617  47.113 -30.240  1.00  0.00    -0.029 C 
HETATM    9  C13 UNL     1      -8.166  48.337 -31.029  1.00  0.00     0.016 C 
HETATM   10  C14 UNL     1      -7.761  45.796 -31.121  1.00  0.00     0.014 C 
HETATM   11  C15 UNL     1      -6.682  44.733 -30.748  1.00  0.00     0.034 C 
HETATM   12  C16 UNL     1      -6.972  43.303 -31.059  1.00  0.00    -0.022 C 
HETATM   13  C17 UNL     1      -8.115  42.850 -31.595  1.00  0.00    -0.059 C 
HETATM   14  C18 UNL     1      -9.251  43.802 -31.904  1.00  0.00     0.057 C 
HETATM   15  C19 UNL     1      -9.320  43.887 -33.414  1.00  0.00     0.024 C 
HETATM   16  C20 UNL     1      -8.999  42.881 -34.247  1.00  0.00     0.116 C 
HETATM   17  C27 UNL     1      -8.558  41.550 -33.670  1.00  0.00     0.194 C 
HETATM   18  O8  UNL     1      -8.421  40.573 -34.407  1.00  0.00    -0.289 OA
HETATM   19  C28 UNL     1      -8.325  41.430 -32.140  1.00  0.00     0.044 C 
HETATM   20  C29 UNL     1      -9.549  40.745 -31.509  1.00  0.00     0.028 C 
HETATM   21  C30 UNL     1      -7.108  40.502 -31.929  1.00  0.00     0.028 C 
HETATM   22  C31 UNL     1      -9.196  45.173 -31.118  1.00  0.00     0.032 C 
HETATM   23  C32 UNL     1     -10.288  46.096 -31.709  1.00  0.00     0.025 C 
HETATM   24  C33 UNL     1      -9.636  44.935 -29.664  1.00  0.00     0.137 C 
HETATM   25  O9  UNL     1     -10.645  44.274 -29.401  1.00  0.00    -0.297 OA
HETATM   26  C34 UNL     1      -8.807  45.515 -28.532  1.00  0.00     0.089 C 
HETATM   27  C35 UNL     1      -8.256  46.944 -28.774  1.00  0.00    -0.021 C 
HETATM   28  C36 UNL     1      -9.414  47.928 -28.511  1.00  0.00     0.017 C 
HETATM   29  O10 UNL     1      -4.769  48.092 -28.092  1.00  0.00    -0.376 OA
ENDROOT
BRANCH  16  30
HETATM   30  O2  UNL     1      -9.147  43.108 -35.605  1.00  0.00    -0.314 OA
BRANCH  30  31
HETATM   31  C21 UNL     1     -10.441  42.985 -36.212  1.00  0.00     0.298 C 
HETATM   32  O3  UNL     1     -11.187  44.188 -35.919  1.00  0.00    -0.348 OA
HETATM   33  C22 UNL     1     -11.096  45.236 -36.877  1.00  0.00     0.179 C 
HETATM   34  C24 UNL     1     -11.577  44.792 -38.277  1.00  0.00     0.180 C 
HETATM   35  C25 UNL     1     -11.600  43.260 -38.440  1.00  0.00     0.183 C 
HETATM   36  C26 UNL     1     -10.408  42.629 -37.731  1.00  0.00     0.205 C 
BRANCH  33  37
HETATM   37  C23 UNL     1      -9.709  45.895 -36.884  1.00  0.00     0.198 C 
BRANCH  37  38
HETATM   38  O4  UNL     1      -9.163  45.889 -38.203  1.00  0.00    -0.398 OA
HETATM   39  H32 UNL     1      -9.525  46.667 -38.663  1.00  0.00     0.209 HD
ENDBRANCH  37  38
ENDBRANCH  33  37
BRANCH  34  40
HETATM   40  O5  UNL     1     -12.925  45.248 -38.520  1.00  0.00    -0.390 OA
HETATM   41  H34 UNL     1     -12.891  46.220 -38.561  1.00  0.00     0.210 HD
ENDBRANCH  34  40
BRANCH  35  42
HETATM   42  O6  UNL     1     -12.825  42.703 -37.954  1.00  0.00    -0.390 OA
HETATM   43  H36 UNL     1     -13.465  43.450 -37.968  1.00  0.00     0.210 HD
ENDBRANCH  35  42
BRANCH  36  44
HETATM   44  O7  UNL     1      -9.209  43.081 -38.385  1.00  0.00    -0.388 OA
HETATM   45  H38 UNL     1      -9.151  42.608 -39.235  1.00  0.00     0.210 HD
ENDBRANCH  36  44
ENDBRANCH  30  31
ENDBRANCH  16  30
BRANCH   3  46
HETATM   46  O1  UNL     1      -8.173  48.702 -26.220  1.00  0.00    -0.390 OA
HETATM   47  H14 UNL     1      -8.234  48.971 -25.285  1.00  0.00     0.210 HD
ENDBRANCH   3  46
BRANCH   1  48
HETATM   48  C4  UNL     1      -3.364  48.532 -26.186  1.00  0.00     0.007 C 
HETATM   49  C2  UNL     1      -2.699  49.612 -26.650  1.00  0.00    -0.089 C 
HETATM   50  C1  UNL     1      -1.395  50.040 -26.030  1.00  0.00     0.042 C 
HETATM   51  C3  UNL     1      -3.160  50.488 -27.782  1.00  0.00     0.042 C 
ENDBRANCH   1  48
TORSDOF 9
ENDMDL
MODEL 8
REMARK minimizedAffinity -8.62501717
REMARK CNNscore 0.410153151
REMARK CNNaffinity 6.67761755
REMARK  9 active torsions:
REMARK  status: ('A' for Active; 'I' for Inactive)
REMARK    1  A    between atoms: C4_4  and  C5_5 
REMARK    2  A    between atoms: C7_7  and  O1_9 
REMARK    3  A    between atoms: C20_21  and  O2_22 
REMARK    4  A    between atoms: O2_22  and  C21_23 
REMARK    5  A    between atoms: C22_25  and  C23_26 
REMARK    6  A    between atoms: C23_26  and  O4_27 
REMARK    7  A    between atoms: C24_28  and  O5_29 
REMARK    8  A    between atoms: C25_30  and  O6_31 
REMARK    9  A    between atoms: C26_32  and  O7_33 
ROOT
HETATM    1  C5  UNL     1      -4.883  48.697 -18.402  1.00  0.00     0.147 C 
HETATM    2  C6  UNL     1      -4.398  47.271 -18.153  1.00  0.00     0.074 C 
HETATM    3  C7  UNL     1      -3.688  47.125 -16.784  1.00  0.00     0.064 C 
HETATM    4  C8  UNL     1      -4.645  46.545 -15.734  1.00  0.00     0.046 C 
HETATM    5  C9  UNL     1      -3.129  48.497 -16.311  1.00  0.00     0.058 C 
HETATM    6  C10 UNL     1      -2.723  49.312 -17.530  1.00  0.00     0.131 C 
HETATM    7  C11 UNL     1      -2.154  50.579 -16.911  1.00  0.00     0.042 C 
HETATM    8  C12 UNL     1      -1.305  50.100 -15.688  1.00  0.00    -0.029 C 
HETATM    9  C13 UNL     1       0.137  50.031 -16.270  1.00  0.00     0.016 C 
HETATM   10  C14 UNL     1      -1.347  51.123 -14.471  1.00  0.00     0.014 C 
HETATM   11  C15 UNL     1      -2.763  51.752 -14.297  1.00  0.00     0.034 C 
HETATM   12  C16 UNL     1      -3.130  52.288 -12.953  1.00  0.00    -0.022 C 
HETATM   13  C17 UNL     1      -2.350  52.229 -11.863  1.00  0.00    -0.059 C 
HETATM   14  C18 UNL     1      -0.996  51.554 -11.922  1.00  0.00     0.057 C 
HETATM   15  C19 UNL     1       0.025  52.667 -11.812  1.00  0.00     0.024 C 
HETATM   16  C20 UNL     1      -0.164  53.807 -11.125  1.00  0.00     0.116 C 
HETATM   17  C27 UNL     1      -1.465  54.015 -10.374  1.00  0.00     0.194 C 
HETATM   18  O8  UNL     1      -1.589  54.972  -9.609  1.00  0.00    -0.289 OA
HETATM   19  C28 UNL     1      -2.614  52.988 -10.555  1.00  0.00     0.044 C 
HETATM   20  C29 UNL     1      -2.628  52.048  -9.337  1.00  0.00     0.028 C 
HETATM   21  C30 UNL     1      -3.943  53.775 -10.555  1.00  0.00     0.028 C 
HETATM   22  C31 UNL     1      -0.815  50.539 -13.121  1.00  0.00     0.032 C 
HETATM   23  C32 UNL     1       0.673  50.118 -13.157  1.00  0.00     0.025 C 
HETATM   24  C33 UNL     1      -1.577  49.243 -12.800  1.00  0.00     0.137 C 
HETATM   25  O9  UNL     1      -1.479  48.700 -11.696  1.00  0.00    -0.297 OA
HETATM   26  C34 UNL     1      -2.475  48.627 -13.858  1.00  0.00     0.089 C 
HETATM   27  C35 UNL     1      -1.921  48.665 -15.306  1.00  0.00    -0.021 C 
HETATM   28  C36 UNL     1      -0.892  47.522 -15.428  1.00  0.00     0.017 C 
HETATM   29  O10 UNL     1      -3.829  49.660 -18.356  1.00  0.00    -0.376 OA
ENDROOT
BRANCH  16  30
HETATM   30  O2  UNL     1       0.883  54.713 -11.096  1.00  0.00    -0.314 OA
BRANCH  30  31
HETATM   31  C21 UNL     1       1.584  54.954  -9.868  1.00  0.00     0.298 C 
HETATM   32  O3  UNL     1       1.987  53.677  -9.327  1.00  0.00    -0.348 OA
HETATM   33  C22 UNL     1       3.280  53.212  -9.700  1.00  0.00     0.179 C 
HETATM   34  C24 UNL     1       4.397  54.198  -9.289  1.00  0.00     0.180 C 
HETATM   35  C25 UNL     1       3.865  55.616  -9.006  1.00  0.00     0.183 C 
HETATM   36  C26 UNL     1       2.757  55.977  -9.988  1.00  0.00     0.205 C 
BRANCH  33  37
HETATM   37  C23 UNL     1       3.340  52.796 -11.178  1.00  0.00     0.198 C 
BRANCH  37  38
HETATM   38  O4  UNL     1       3.475  51.379 -11.289  1.00  0.00    -0.398 OA
HETATM   39  H32 UNL     1       2.579  51.004 -11.228  1.00  0.00     0.209 HD
ENDBRANCH  37  38
ENDBRANCH  33  37
BRANCH  34  40
HETATM   40  O5  UNL     1       5.044  53.756  -8.076  1.00  0.00    -0.390 OA
HETATM   41  H34 UNL     1       5.505  52.925  -8.290  1.00  0.00     0.210 HD
ENDBRANCH  34  40
BRANCH  35  42
HETATM   42  O6  UNL     1       3.401  55.738  -7.658  1.00  0.00    -0.390 OA
HETATM   43  H36 UNL     1       3.854  55.015  -7.169  1.00  0.00     0.210 HD
ENDBRANCH  35  42
BRANCH  36  44
HETATM   44  O7  UNL     1       3.327  56.022 -11.307  1.00  0.00    -0.388 OA
HETATM   45  H38 UNL     1       3.855  56.839 -11.364  1.00  0.00     0.210 HD
ENDBRANCH  36  44
ENDBRANCH  30  31
ENDBRANCH  16  30
BRANCH   3  46
HETATM   46  O1  UNL     1      -2.655  46.165 -16.990  1.00  0.00    -0.390 OA
HETATM   47  H14 UNL     1      -3.061  45.319 -17.253  1.00  0.00     0.210 HD
ENDBRANCH   3  46
BRANCH   1  48
HETATM   48  C4  UNL     1      -5.621  48.798 -19.715  1.00  0.00     0.007 C 
HETATM   49  C2  UNL     1      -6.942  48.938 -19.957  1.00  0.00    -0.089 C 
HETATM   50  C1  UNL     1      -7.471  48.953 -21.367  1.00  0.00     0.042 C 
HETATM   51  C3  UNL     1      -8.000  49.099 -18.900  1.00  0.00     0.042 C 
ENDBRANCH   1  48
TORSDOF 9
ENDMDL
MODEL 9
REMARK minimizedAffinity -8.20552444
REMARK CNNscore 0.37419802
REMARK CNNaffinity 6.71974564
REMARK  9 active torsions:
REMARK  status: ('A' for Active; 'I' for Inactive)
REMARK    1  A    between atoms: C4_4  and  C5_5 
REMARK    2  A    between atoms: C7_7  and  O1_9 
REMARK    3  A    between atoms: C20_21  and  O2_22 
REMARK    4  A    between atoms: O2_22  and  C21_23 
REMARK    5  A    between atoms: C22_25  and  C23_26 
REMARK    6  A    between atoms: C23_26  and  O4_27 
REMARK    7  A    between atoms: C24_28  and  O5_29 
REMARK    8  A    between atoms: C25_30  and  O6_31 
REMARK    9  A    between atoms: C26_32  and  O7_33 
ROOT
HETATM    1  C5  UNL     1      -4.190  48.465 -26.286  1.00  0.00     0.147 C 
HETATM    2  C6  UNL     1      -3.711  49.874 -25.942  1.00  0.00     0.074 C 
HETATM    3  C7  UNL     1      -3.491  50.062 -24.420  1.00  0.00     0.064 C 
HETATM    4  C8  UNL     1      -2.006  49.914 -24.063  1.00  0.00     0.046 C 
HETATM    5  C9  UNL     1      -4.347  49.044 -23.616  1.00  0.00     0.058 C 
HETATM    6  C10 UNL     1      -5.633  48.766 -24.381  1.00  0.00     0.131 C 
HETATM    7  C11 UNL     1      -6.374  47.814 -23.456  1.00  0.00     0.042 C 
HETATM    8  C12 UNL     1      -6.159  48.383 -22.014  1.00  0.00    -0.029 C 
HETATM    9  C13 UNL     1      -7.446  49.224 -21.776  1.00  0.00     0.016 C 
HETATM   10  C14 UNL     1      -6.050  47.241 -20.912  1.00  0.00     0.014 C 
HETATM   11  C15 UNL     1      -5.255  46.007 -21.439  1.00  0.00     0.034 C 
HETATM   12  C16 UNL     1      -4.608  45.111 -20.436  1.00  0.00    -0.022 C 
HETATM   13  C17 UNL     1      -4.617  45.311 -19.109  1.00  0.00    -0.059 C 
HETATM   14  C18 UNL     1      -5.286  46.534 -18.519  1.00  0.00     0.057 C 
HETATM   15  C19 UNL     1      -6.523  46.024 -17.809  1.00  0.00     0.024 C 
HETATM   16  C20 UNL     1      -6.621  44.817 -17.225  1.00  0.00     0.116 C 
HETATM   17  C27 UNL     1      -5.423  43.887 -17.235  1.00  0.00     0.194 C 
HETATM   18  O8  UNL     1      -5.439  42.853 -16.566  1.00  0.00    -0.289 OA
HETATM   19  C28 UNL     1      -4.171  44.277 -18.065  1.00  0.00     0.044 C 
HETATM   20  C29 UNL     1      -3.107  44.844 -17.110  1.00  0.00     0.028 C 
HETATM   21  C30 UNL     1      -3.603  42.981 -18.682  1.00  0.00     0.028 C 
HETATM   22  C31 UNL     1      -5.492  47.728 -19.534  1.00  0.00     0.032 C 
HETATM   23  C32 UNL     1      -6.374  48.790 -18.835  1.00  0.00     0.025 C 
HETATM   24  C33 UNL     1      -4.144  48.432 -19.759  1.00  0.00     0.137 C 
HETATM   25  O9  UNL     1      -3.413  48.732 -18.811  1.00  0.00    -0.297 OA
HETATM   26  C34 UNL     1      -3.700  48.755 -21.175  1.00  0.00     0.089 C 
HETATM   27  C35 UNL     1      -4.817  49.262 -22.123  1.00  0.00    -0.021 C 
HETATM   28  C36 UNL     1      -5.052  50.751 -21.793  1.00  0.00     0.017 C 
HETATM   29  O10 UNL     1      -5.406  48.113 -25.626  1.00  0.00    -0.376 OA
ENDROOT
BRANCH  16  30
HETATM   30  O2  UNL     1      -7.812  44.514 -16.587  1.00  0.00    -0.314 OA
BRANCH  30  31
HETATM   31  C21 UNL     1      -7.879  44.527 -15.154  1.00  0.00     0.298 C 
HETATM   32  O3  UNL     1      -7.913  45.905 -14.722  1.00  0.00    -0.348 OA
HETATM   33  C22 UNL     1      -9.203  46.482 -14.553  1.00  0.00     0.179 C 
HETATM   34  C24 UNL     1     -10.057  45.712 -13.520  1.00  0.00     0.180 C 
HETATM   35  C25 UNL     1      -9.535  44.286 -13.262  1.00  0.00     0.183 C 
HETATM   36  C26 UNL     1      -9.030  43.659 -14.555  1.00  0.00     0.205 C 
BRANCH  33  37
HETATM   37  C23 UNL     1      -9.916  46.708 -15.895  1.00  0.00     0.198 C 
BRANCH  37  38
HETATM   38  O4  UNL     1     -10.174  48.098 -16.092  1.00  0.00    -0.398 OA
HETATM   39  H32 UNL     1      -9.364  48.486 -16.467  1.00  0.00     0.209 HD
ENDBRANCH  37  38
ENDBRANCH  33  37
BRANCH  34  40
HETATM   40  O5  UNL     1     -10.043  46.388 -12.245  1.00  0.00    -0.390 OA
HETATM   41  H34 UNL     1     -10.504  47.237 -12.371  1.00  0.00     0.210 HD
ENDBRANCH  34  40
BRANCH  35  42
HETATM   42  O6  UNL     1      -8.508  44.280 -12.266  1.00  0.00    -0.390 OA
HETATM   43  H36 UNL     1      -8.642  45.113 -11.760  1.00  0.00     0.210 HD
ENDBRANCH  35  42
BRANCH  36  44
HETATM   44  O7  UNL     1     -10.147  43.518 -15.450  1.00  0.00    -0.388 OA
HETATM   45  H38 UNL     1     -10.686  42.777 -15.120  1.00  0.00     0.210 HD
ENDBRANCH  36  44
ENDBRANCH  30  31
ENDBRANCH  16  30
BRANCH   3  46
HETATM   46  O1  UNL     1      -3.859  51.411 -24.145  1.00  0.00    -0.390 OA
HETATM   47  H14 UNL     1      -3.273  52.005 -24.649  1.00  0.00     0.210 HD
ENDBRANCH   3  46
BRANCH   1  48
HETATM   48  C4  UNL     1      -4.340  48.292 -27.779  1.00  0.00     0.007 C 
HETATM   49  C2  UNL     1      -5.407  47.887 -28.499  1.00  0.00    -0.089 C 
HETATM   50  C1  UNL     1      -5.312  47.723 -29.994  1.00  0.00     0.042 C 
HETATM   51  C3  UNL     1      -6.764  47.573 -27.931  1.00  0.00     0.042 C 
ENDBRANCH   1  48
TORSDOF 9
ENDMDL
