MODEL 1
REMARK minimizedAffinity -10.1716738
REMARK CNNscore 0.655590892
REMARK CNNaffinity 7.07345819
REMARK  11 active torsions:
REMARK  status: ('A' for Active; 'I' for Inactive)
REMARK    1  A    between atoms: O1_2  and  C2_3 
REMARK    2  A    between atoms: C4_5  and  O2_6 
REMARK    3  A    between atoms: O2_6  and  C5_7 
REMARK    4  A    between atoms: C8_10  and  C9_11 
REMARK    5  A    between atoms: N1_12  and  C10_14 
REMARK    6  A    between atoms: C10_14  and  C11_15 
REMARK    7  A    between atoms: C11_15  and  O3_16 
REMARK    8  A    between atoms: C17_22  and  C18_23 
REMARK    9  A    between atoms: C24_31  and  O6_32 
REMARK   10  A    between atoms: C28_36  and  O7_37 
REMARK   11  A    between atoms: C32_42  and  O9_43 
ROOT
HETATM    1  C5  UNL     1      -4.876   7.904  15.434  1.00  0.00     0.127 C 
HETATM    2  C6  UNL     1      -4.873   8.910  14.270  1.00  0.00     0.033 C 
HETATM    3  C7  UNL     1      -3.669   8.755  13.340  1.00  0.00     0.021 C 
HETATM    4  C8  UNL     1      -2.268   8.776  14.050  1.00  0.00     0.026 C 
HETATM    5  C12 UNL     1      -1.283   7.910  13.152  1.00  0.00     0.009 C 
HETATM    6  C13 UNL     1      -1.011   8.543  11.764  1.00  0.00     0.007 C 
HETATM    7  C14 UNL     1      -0.087   7.698  10.887  1.00  0.00     0.013 C 
HETATM    8  C15 UNL     1       1.256   7.363  11.576  1.00  0.00    -0.005 C 
HETATM    9  C16 UNL     1       2.127   8.642  11.680  1.00  0.00     0.019 C 
HETATM   10  C17 UNL     1       2.019   6.206  10.840  1.00  0.00     0.028 C 
HETATM   11  C22 UNL     1       1.295   4.921  11.320  1.00  0.00     0.013 C 
HETATM   12  C23 UNL     1       0.577   5.271  12.630  1.00  0.00     0.040 C 
HETATM   13  C24 UNL     1       1.014   6.709  12.975  1.00  0.00     0.070 C 
HETATM   14  C25 UNL     1       0.031   7.514  13.870  1.00  0.00     0.026 C 
HETATM   15  C26 UNL     1      -0.312   6.791  15.179  1.00  0.00     0.011 C 
HETATM   16  C27 UNL     1      -1.073   7.724  16.104  1.00  0.00     0.039 C 
HETATM   17  C28 UNL     1      -2.391   8.254  15.528  1.00  0.00     0.073 C 
HETATM   18  C29 UNL     1      -3.521   7.212  15.616  1.00  0.00     0.071 C 
ENDROOT
BRANCH   1  19
HETATM   19  O2  UNL     1      -5.926   6.945  15.254  1.00  0.00    -0.356 OA
BRANCH  19  20
HETATM   20  C4  UNL     1      -5.979   6.432  13.917  1.00  0.00     0.263 C 
HETATM   21  C3  UNL     1      -5.863   4.910  13.948  1.00  0.00     0.095 C 
HETATM   22  C2  UNL     1      -6.402   4.338  12.646  1.00  0.00     0.156 C 
HETATM   23  C32 UNL     1      -7.900   4.688  12.519  1.00  0.00     0.175 C 
HETATM   24  C30 UNL     1      -8.249   6.045  13.159  1.00  0.00     0.151 C 
HETATM   25  O8  UNL     1      -7.108   6.911  13.194  1.00  0.00    -0.354 OA
HETATM   26  C31 UNL     1      -8.934   5.973  14.524  1.00  0.00     0.042 C 
BRANCH  22  27
HETATM   27  O1  UNL     1      -6.284   2.899  12.572  1.00  0.00    -0.388 OA
HETATM   28  C1  UNL     1      -5.524   2.455  11.452  1.00  0.00     0.202 C 
ENDBRANCH  22  27
BRANCH  23  29
HETATM   29  O9  UNL     1      -8.713   3.640  13.056  1.00  0.00    -0.390 OA
HETATM   30  H49 UNL     1      -8.162   2.833  12.973  1.00  0.00     0.210 HD
ENDBRANCH  23  29
ENDBRANCH  19  20
ENDBRANCH   1  19
BRANCH  17  31
HETATM   31  O7  UNL     1      -2.788   9.339  16.396  1.00  0.00    -0.389 OA
HETATM   32  H41 UNL     1      -2.792   9.004  17.312  1.00  0.00     0.210 HD
ENDBRANCH  17  31
BRANCH   4  33
HETATM   33  C9  UNL     1      -1.825  10.243  14.144  1.00  0.00     0.068 C 
HETATM   34  N1  UNL     1      -0.791  10.616  14.824  1.00  0.00    -0.399 N 
ATOM     35  H1  UNL     1      -0.170   9.953  15.287  1.00  0.00     0.158 HD
BRANCH  34  36
HETATM   36  C10 UNL     1      -0.579  12.066  14.880  1.00  0.00     0.144 C 
BRANCH  36  37
HETATM   37  C11 UNL     1      -1.843  12.771  14.380  1.00  0.00     0.183 C 
BRANCH  37  38
HETATM   38  O3  UNL     1      -1.535  13.729  13.372  1.00  0.00    -0.399 OA
HETATM   39  H18 UNL     1      -1.156  13.244  12.616  1.00  0.00     0.209 HD
ENDBRANCH  37  38
ENDBRANCH  36  37
ENDBRANCH  34  36
ENDBRANCH   4  33
BRANCH  13  40
HETATM   40  O6  UNL     1       2.288   6.620  13.646  1.00  0.00    -0.389 OA
HETATM   41  H35 UNL     1       2.180   6.084  14.443  1.00  0.00     0.210 HD
ENDBRANCH  13  40
BRANCH  10  42
HETATM   42  C18 UNL     1       2.220   6.321   9.352  1.00  0.00    -0.045 A 
HETATM   43  C19 UNL     1       1.679   7.179   8.483  1.00  0.00     0.087 A 
HETATM   44  C20 UNL     1       2.127   6.788   7.149  1.00  0.00     0.283 A 
HETATM   45  O4  UNL     1       1.816   7.361   6.118  1.00  0.00    -0.260 OA
HETATM   46  O5  UNL     1       2.907   5.681   7.246  1.00  0.00    -0.314 OA
HETATM   47  C21 UNL     1       3.030   5.314   8.619  1.00  0.00     0.213 A 
ENDBRANCH  10  42
TORSDOF 11
ENDMDL
MODEL 2
REMARK minimizedAffinity -7.43340492
REMARK CNNscore 0.505631745
REMARK CNNaffinity 6.52205324
REMARK  11 active torsions:
REMARK  status: ('A' for Active; 'I' for Inactive)
REMARK    1  A    between atoms: O1_2  and  C2_3 
REMARK    2  A    between atoms: C4_5  and  O2_6 
REMARK    3  A    between atoms: O2_6  and  C5_7 
REMARK    4  A    between atoms: C8_10  and  C9_11 
REMARK    5  A    between atoms: N1_12  and  C10_14 
REMARK    6  A    between atoms: C10_14  and  C11_15 
REMARK    7  A    between atoms: C11_15  and  O3_16 
REMARK    8  A    between atoms: C17_22  and  C18_23 
REMARK    9  A    between atoms: C24_31  and  O6_32 
REMARK   10  A    between atoms: C28_36  and  O7_37 
REMARK   11  A    between atoms: C32_42  and  O9_43 
ROOT
HETATM    1  C5  UNL     1      -2.423  13.445  14.887  1.00  0.00     0.127 C 
HETATM    2  C6  UNL     1      -1.149  12.750  14.377  1.00  0.00     0.033 C 
HETATM    3  C7  UNL     1      -1.346  11.260  14.093  1.00  0.00     0.021 C 
HETATM    4  C8  UNL     1      -1.954  10.428  15.278  1.00  0.00     0.026 C 
HETATM    5  C12 UNL     1      -2.741   9.208  14.630  1.00  0.00     0.009 C 
HETATM    6  C13 UNL     1      -1.811   8.203  13.903  1.00  0.00     0.007 C 
HETATM    7  C14 UNL     1      -2.567   7.044  13.254  1.00  0.00     0.013 C 
HETATM    8  C15 UNL     1      -3.474   6.286  14.249  1.00  0.00    -0.005 C 
HETATM    9  C16 UNL     1      -2.602   5.475  15.242  1.00  0.00     0.019 C 
HETATM   10  C17 UNL     1      -4.511   5.366  13.512  1.00  0.00     0.028 C 
HETATM   11  C22 UNL     1      -5.615   6.351  13.046  1.00  0.00     0.013 C 
HETATM   12  C23 UNL     1      -5.501   7.603  13.926  1.00  0.00     0.040 C 
HETATM   13  C24 UNL     1      -4.434   7.272  14.989  1.00  0.00     0.070 C 
HETATM   14  C25 UNL     1      -3.703   8.494  15.611  1.00  0.00     0.026 C 
HETATM   15  C26 UNL     1      -4.668   9.527  16.206  1.00  0.00     0.011 C 
HETATM   16  C27 UNL     1      -3.894  10.563  17.002  1.00  0.00     0.039 C 
HETATM   17  C28 UNL     1      -2.853  11.342  16.189  1.00  0.00     0.073 C 
HETATM   18  C29 UNL     1      -3.498  12.448  15.334  1.00  0.00     0.071 C 
ENDROOT
BRANCH   1  19
HETATM   19  O2  UNL     1      -2.931  14.338  13.887  1.00  0.00    -0.356 OA
BRANCH  19  20
HETATM   20  C4  UNL     1      -3.317  15.607  14.428  1.00  0.00     0.263 C 
HETATM   21  C3  UNL     1      -2.296  16.050  15.473  1.00  0.00     0.095 C 
HETATM   22  C2  UNL     1      -2.409  17.552  15.681  1.00  0.00     0.156 C 
HETATM   23  C32 UNL     1      -2.065  18.275  14.361  1.00  0.00     0.175 C 
HETATM   24  C30 UNL     1      -2.486  17.469  13.117  1.00  0.00     0.151 C 
HETATM   25  O8  UNL     1      -3.566  16.578  13.416  1.00  0.00    -0.354 OA
HETATM   26  C31 UNL     1      -1.353  16.744  12.388  1.00  0.00     0.042 C 
BRANCH  22  27
HETATM   27  O1  UNL     1      -1.505  18.049  16.695  1.00  0.00    -0.388 OA
HETATM   28  C1  UNL     1      -1.011  17.027  17.555  1.00  0.00     0.202 C 
ENDBRANCH  22  27
BRANCH  23  29
HETATM   29  O9  UNL     1      -0.675  18.610  14.313  1.00  0.00    -0.390 OA
HETATM   30  H49 UNL     1      -0.405  18.683  15.253  1.00  0.00     0.210 HD
ENDBRANCH  23  29
ENDBRANCH  19  20
ENDBRANCH   1  19
BRANCH  17  31
HETATM   31  O7  UNL     1      -2.029  12.023  17.161  1.00  0.00    -0.389 OA
HETATM   32  H41 UNL     1      -2.619  12.529  17.751  1.00  0.00     0.210 HD
ENDBRANCH  17  31
BRANCH   4  33
HETATM   33  C9  UNL     1      -0.784   9.960  16.156  1.00  0.00     0.068 C 
HETATM   34  N1  UNL     1       0.449  10.232  15.877  1.00  0.00    -0.399 N 
ATOM     35  H1  UNL     1       0.716  10.827  15.093  1.00  0.00     0.158 HD
BRANCH  34  36
HETATM   36  C10 UNL     1       1.434   9.619  16.774  1.00  0.00     0.144 C 
BRANCH  36  37
HETATM   37  C11 UNL     1       2.029   8.387  16.088  1.00  0.00     0.183 C 
BRANCH  37  38
HETATM   38  O3  UNL     1       1.454   7.186  16.593  1.00  0.00    -0.399 OA
HETATM   39  H18 UNL     1       0.504   7.206  16.378  1.00  0.00     0.209 HD
ENDBRANCH  37  38
ENDBRANCH  36  37
ENDBRANCH  34  36
ENDBRANCH   4  33
BRANCH  13  40
HETATM   40  O6  UNL     1      -5.093   6.538  16.042  1.00  0.00    -0.389 OA
HETATM   41  H35 UNL     1      -5.797   7.090  16.409  1.00  0.00     0.210 HD
ENDBRANCH  13  40
BRANCH  10  42
HETATM   42  C18 UNL     1      -3.998   4.419  12.459  1.00  0.00    -0.045 A 
HETATM   43  C19 UNL     1      -2.776   4.312  11.932  1.00  0.00     0.087 A 
HETATM   44  C20 UNL     1      -2.845   3.306  10.875  1.00  0.00     0.283 A 
HETATM   45  O4  UNL     1      -1.899   2.962  10.183  1.00  0.00    -0.260 OA
HETATM   46  O5  UNL     1      -4.119   2.853  10.771  1.00  0.00    -0.314 OA
HETATM   47  C21 UNL     1      -4.928   3.501  11.751  1.00  0.00     0.213 A 
ENDBRANCH  10  42
TORSDOF 11
ENDMDL
MODEL 3
REMARK minimizedAffinity -7.35226774
REMARK CNNscore 0.480269432
REMARK CNNaffinity 6.52202797
REMARK  11 active torsions:
REMARK  status: ('A' for Active; 'I' for Inactive)
REMARK    1  A    between atoms: O1_2  and  C2_3 
REMARK    2  A    between atoms: C4_5  and  O2_6 
REMARK    3  A    between atoms: O2_6  and  C5_7 
REMARK    4  A    between atoms: C8_10  and  C9_11 
REMARK    5  A    between atoms: N1_12  and  C10_14 
REMARK    6  A    between atoms: C10_14  and  C11_15 
REMARK    7  A    between atoms: C11_15  and  O3_16 
REMARK    8  A    between atoms: C17_22  and  C18_23 
REMARK    9  A    between atoms: C24_31  and  O6_32 
REMARK   10  A    between atoms: C28_36  and  O7_37 
REMARK   11  A    between atoms: C32_42  and  O9_43 
ROOT
HETATM    1  C5  UNL     1      -2.575  13.410  15.359  1.00  0.00     0.127 C 
HETATM    2  C6  UNL     1      -1.461  12.989  14.385  1.00  0.00     0.033 C 
HETATM    3  C7  UNL     1      -1.497  11.501  14.032  1.00  0.00     0.021 C 
HETATM    4  C8  UNL     1      -1.512  10.522  15.261  1.00  0.00     0.026 C 
HETATM    5  C12 UNL     1      -2.264   9.203  14.791  1.00  0.00     0.009 C 
HETATM    6  C13 UNL     1      -1.492   8.421  13.697  1.00  0.00     0.007 C 
HETATM    7  C14 UNL     1      -2.226   7.167  13.222  1.00  0.00     0.013 C 
HETATM    8  C15 UNL     1      -2.595   6.212  14.380  1.00  0.00    -0.005 C 
HETATM    9  C16 UNL     1      -1.312   5.542  14.937  1.00  0.00     0.019 C 
HETATM   10  C17 UNL     1      -3.657   5.143  13.941  1.00  0.00     0.028 C 
HETATM   11  C22 UNL     1      -4.999   5.920  13.972  1.00  0.00     0.013 C 
HETATM   12  C23 UNL     1      -4.794   7.134  14.886  1.00  0.00     0.040 C 
HETATM   13  C24 UNL     1      -3.387   6.969  15.494  1.00  0.00     0.070 C 
HETATM   14  C25 UNL     1      -2.696   8.282  15.957  1.00  0.00     0.026 C 
HETATM   15  C26 UNL     1      -3.551   9.089  16.943  1.00  0.00     0.011 C 
HETATM   16  C27 UNL     1      -2.730  10.220  17.537  1.00  0.00     0.039 C 
HETATM   17  C28 UNL     1      -2.178  11.213  16.507  1.00  0.00     0.073 C 
HETATM   18  C29 UNL     1      -3.250  12.211  16.034  1.00  0.00     0.071 C 
ENDROOT
BRANCH   1  19
HETATM   19  O2  UNL     1      -3.536  14.230  14.682  1.00  0.00    -0.356 OA
BRANCH  19  20
HETATM   20  C4  UNL     1      -3.574  15.568  15.192  1.00  0.00     0.263 C 
HETATM   21  C3  UNL     1      -3.822  16.546  14.046  1.00  0.00     0.095 C 
HETATM   22  C2  UNL     1      -4.347  17.858  14.608  1.00  0.00     0.156 C 
HETATM   23  C32 UNL     1      -5.701  17.606  15.305  1.00  0.00     0.175 C 
HETATM   24  C30 UNL     1      -5.784  16.211  15.954  1.00  0.00     0.151 C 
HETATM   25  O8  UNL     1      -4.482  15.711  16.280  1.00  0.00    -0.354 OA
HETATM   26  C31 UNL     1      -6.600  15.174  15.181  1.00  0.00     0.042 C 
BRANCH  22  27
HETATM   27  O1  UNL     1      -4.563  18.861  13.589  1.00  0.00    -0.388 OA
HETATM   28  C1  UNL     1      -3.979  18.521  12.335  1.00  0.00     0.202 C 
ENDBRANCH  22  27
BRANCH  23  29
HETATM   29  O9  UNL     1      -6.786  17.818  14.397  1.00  0.00    -0.390 OA
HETATM   30  H49 UNL     1      -6.435  18.452  13.736  1.00  0.00     0.210 HD
ENDBRANCH  23  29
ENDBRANCH  19  20
ENDBRANCH   1  19
BRANCH  17  31
HETATM   31  O7  UNL     1      -1.191  11.999  17.213  1.00  0.00    -0.389 OA
HETATM   32  H41 UNL     1      -1.614  12.360  18.014  1.00  0.00     0.210 HD
ENDBRANCH  17  31
BRANCH   4  33
HETATM   33  C9  UNL     1      -0.051  10.249  15.646  1.00  0.00     0.068 C 
HETATM   34  N1  UNL     1       0.279   9.624  16.728  1.00  0.00    -0.399 N 
ATOM     35  H1  UNL     1      -0.411   9.218  17.360  1.00  0.00     0.158 HD
BRANCH  34  36
HETATM   36  C10 UNL     1       1.722   9.543  16.979  1.00  0.00     0.144 C 
BRANCH  36  37
HETATM   37  C11 UNL     1       2.312   8.425  16.117  1.00  0.00     0.183 C 
BRANCH  37  38
HETATM   38  O3  UNL     1       1.888   7.144  16.571  1.00  0.00    -0.399 OA
HETATM   39  H18 UNL     1       0.919   7.106  16.469  1.00  0.00     0.209 HD
ENDBRANCH  37  38
ENDBRANCH  36  37
ENDBRANCH  34  36
ENDBRANCH   4  33
BRANCH  13  40
HETATM   40  O6  UNL     1      -3.511   6.083  16.625  1.00  0.00    -0.389 OA
HETATM   41  H35 UNL     1      -4.124   6.477  17.260  1.00  0.00     0.210 HD
ENDBRANCH  13  40
BRANCH  10  42
HETATM   42  C18 UNL     1      -3.393   4.352  12.686  1.00  0.00    -0.045 A 
HETATM   43  C19 UNL     1      -2.233   3.951  12.161  1.00  0.00     0.087 A 
HETATM   44  C20 UNL     1      -2.532   3.312  10.882  1.00  0.00     0.283 A 
HETATM   45  O4  UNL     1      -1.696   2.831  10.135  1.00  0.00    -0.260 OA
HETATM   46  O5  UNL     1      -3.869   3.372  10.654  1.00  0.00    -0.314 OA
HETATM   47  C21 UNL     1      -4.504   4.013  11.759  1.00  0.00     0.213 A 
ENDBRANCH  10  42
TORSDOF 11
ENDMDL
MODEL 4
REMARK minimizedAffinity -8.15913773
REMARK CNNscore 0.478146344
REMARK CNNaffinity 6.77524805
REMARK  11 active torsions:
REMARK  status: ('A' for Active; 'I' for Inactive)
REMARK    1  A    between atoms: O1_2  and  C2_3 
REMARK    2  A    between atoms: C4_5  and  O2_6 
REMARK    3  A    between atoms: O2_6  and  C5_7 
REMARK    4  A    between atoms: C8_10  and  C9_11 
REMARK    5  A    between atoms: N1_12  and  C10_14 
REMARK    6  A    between atoms: C10_14  and  C11_15 
REMARK    7  A    between atoms: C11_15  and  O3_16 
REMARK    8  A    between atoms: C17_22  and  C18_23 
REMARK    9  A    between atoms: C24_31  and  O6_32 
REMARK   10  A    between atoms: C28_36  and  O7_37 
REMARK   11  A    between atoms: C32_42  and  O9_43 
ROOT
HETATM    1  C5  UNL     1      -2.864   6.371  13.299  1.00  0.00     0.127 C 
HETATM    2  C6  UNL     1      -2.681   5.943  14.765  1.00  0.00     0.033 C 
HETATM    3  C7  UNL     1      -2.759   7.111  15.750  1.00  0.00     0.021 C 
HETATM    4  C8  UNL     1      -1.801   8.315  15.436  1.00  0.00     0.026 C 
HETATM    5  C12 UNL     1      -2.493   9.620  16.023  1.00  0.00     0.009 C 
HETATM    6  C13 UNL     1      -2.592   9.612  17.571  1.00  0.00     0.007 C 
HETATM    7  C14 UNL     1      -3.282  10.852  18.137  1.00  0.00     0.013 C 
HETATM    8  C15 UNL     1      -2.629  12.172  17.666  1.00  0.00    -0.005 C 
HETATM    9  C16 UNL     1      -1.243  12.341  18.340  1.00  0.00     0.019 C 
HETATM   10  C17 UNL     1      -3.555  13.411  17.935  1.00  0.00     0.028 C 
HETATM   11  C22 UNL     1      -4.593  13.355  16.784  1.00  0.00     0.013 C 
HETATM   12  C23 UNL     1      -3.974  12.513  15.661  1.00  0.00     0.040 C 
HETATM   13  C24 UNL     1      -2.528  12.217  16.108  1.00  0.00     0.070 C 
HETATM   14  C25 UNL     1      -1.883  10.942  15.495  1.00  0.00     0.026 C 
HETATM   15  C26 UNL     1      -1.922  10.932  13.961  1.00  0.00     0.011 C 
HETATM   16  C27 UNL     1      -1.071   9.794  13.427  1.00  0.00     0.039 C 
HETATM   17  C28 UNL     1      -1.510   8.400  13.893  1.00  0.00     0.073 C 
HETATM   18  C29 UNL     1      -2.730   7.886  13.108  1.00  0.00     0.071 C 
ENDROOT
BRANCH   1  19
HETATM   19  O2  UNL     1      -4.122   5.897  12.801  1.00  0.00    -0.356 OA
BRANCH  19  20
HETATM   20  C4  UNL     1      -5.073   5.659  13.844  1.00  0.00     0.263 C 
HETATM   21  C3  UNL     1      -6.294   6.552  13.638  1.00  0.00     0.095 C 
HETATM   22  C2  UNL     1      -7.473   5.977  14.408  1.00  0.00     0.156 C 
HETATM   23  C32 UNL     1      -7.817   4.582  13.843  1.00  0.00     0.175 C 
HETATM   24  C30 UNL     1      -6.575   3.826  13.334  1.00  0.00     0.151 C 
HETATM   25  O8  UNL     1      -5.385   4.277  13.992  1.00  0.00    -0.354 OA
HETATM   26  C31 UNL     1      -6.395   3.803  11.815  1.00  0.00     0.042 C 
BRANCH  22  27
HETATM   27  O1  UNL     1      -8.663   6.792  14.305  1.00  0.00    -0.388 OA
HETATM   28  C1  UNL     1      -9.329   6.972  15.551  1.00  0.00     0.202 C 
ENDBRANCH  22  27
BRANCH  23  29
HETATM   29  O9  UNL     1      -8.816   4.680  12.823  1.00  0.00    -0.390 OA
HETATM   30  H49 UNL     1      -9.309   5.500  13.037  1.00  0.00     0.210 HD
ENDBRANCH  23  29
ENDBRANCH  19  20
ENDBRANCH   1  19
BRANCH  17  31
HETATM   31  O7  UNL     1      -0.420   7.515  13.554  1.00  0.00    -0.389 OA
HETATM   32  H41 UNL     1      -0.219   7.637  12.607  1.00  0.00     0.210 HD
ENDBRANCH  17  31
BRANCH   4  33
HETATM   33  C9  UNL     1      -0.456   8.019  16.115  1.00  0.00     0.068 C 
HETATM   34  N1  UNL     1       0.617   8.694  15.860  1.00  0.00    -0.399 N 
ATOM     35  H1  UNL     1       0.621   9.505  15.241  1.00  0.00     0.158 HD
BRANCH  34  36
HETATM   36  C10 UNL     1       1.827   8.205  16.528  1.00  0.00     0.144 C 
BRANCH  36  37
HETATM   37  C11 UNL     1       2.782   7.641  15.472  1.00  0.00     0.183 C 
BRANCH  37  38
HETATM   38  O3  UNL     1       2.209   6.521  14.804  1.00  0.00    -0.399 OA
HETATM   39  H18 UNL     1       1.415   6.838  14.336  1.00  0.00     0.209 HD
ENDBRANCH  37  38
ENDBRANCH  36  37
ENDBRANCH  34  36
ENDBRANCH   4  33
BRANCH  13  40
HETATM   40  O6  UNL     1      -1.727  13.361  15.751  1.00  0.00    -0.389 OA
HETATM   41  H35 UNL     1      -1.781  13.490  14.794  1.00  0.00     0.210 HD
ENDBRANCH  13  40
BRANCH  10  42
HETATM   42  C18 UNL     1      -4.126  13.585  19.318  1.00  0.00    -0.045 A 
HETATM   43  C19 UNL     1      -5.134  12.940  19.910  1.00  0.00     0.087 A 
HETATM   44  C20 UNL     1      -5.348  13.569  21.211  1.00  0.00     0.283 A 
HETATM   45  O4  UNL     1      -6.200  13.226  22.015  1.00  0.00    -0.260 OA
HETATM   46  O5  UNL     1      -4.479  14.601  21.357  1.00  0.00    -0.314 OA
HETATM   47  C21 UNL     1      -3.650  14.683  20.199  1.00  0.00     0.213 A 
ENDBRANCH  10  42
TORSDOF 11
ENDMDL
MODEL 5
REMARK minimizedAffinity -8.20425987
REMARK CNNscore 0.445679605
REMARK CNNaffinity 6.42936754
REMARK  11 active torsions:
REMARK  status: ('A' for Active; 'I' for Inactive)
REMARK    1  A    between atoms: O1_2  and  C2_3 
REMARK    2  A    between atoms: C4_5  and  O2_6 
REMARK    3  A    between atoms: O2_6  and  C5_7 
REMARK    4  A    between atoms: C8_10  and  C9_11 
REMARK    5  A    between atoms: N1_12  and  C10_14 
REMARK    6  A    between atoms: C10_14  and  C11_15 
REMARK    7  A    between atoms: C11_15  and  O3_16 
REMARK    8  A    between atoms: C17_22  and  C18_23 
REMARK    9  A    between atoms: C24_31  and  O6_32 
REMARK   10  A    between atoms: C28_36  and  O7_37 
REMARK   11  A    between atoms: C32_42  and  O9_43 
ROOT
HETATM    1  C5  UNL     1      -2.119   7.240  13.830  1.00  0.00     0.127 C 
HETATM    2  C6  UNL     1      -1.831   6.807  15.277  1.00  0.00     0.033 C 
HETATM    3  C7  UNL     1      -2.147   7.892  16.308  1.00  0.00     0.021 C 
HETATM    4  C8  UNL     1      -1.475   9.286  16.038  1.00  0.00     0.026 C 
HETATM    5  C12 UNL     1      -2.426  10.388  16.678  1.00  0.00     0.009 C 
HETATM    6  C13 UNL     1      -2.503  10.300  18.224  1.00  0.00     0.007 C 
HETATM    7  C14 UNL     1      -3.438  11.340  18.841  1.00  0.00     0.013 C 
HETATM    8  C15 UNL     1      -3.091  12.786  18.420  1.00  0.00    -0.005 C 
HETATM    9  C16 UNL     1      -1.766  13.226  19.095  1.00  0.00     0.019 C 
HETATM   10  C17 UNL     1      -4.259  13.785  18.740  1.00  0.00     0.028 C 
HETATM   11  C22 UNL     1      -5.274  13.549  17.592  1.00  0.00     0.013 C 
HETATM   12  C23 UNL     1      -4.501  12.904  16.434  1.00  0.00     0.040 C 
HETATM   13  C24 UNL     1      -3.020  12.910  16.864  1.00  0.00     0.070 C 
HETATM   14  C25 UNL     1      -2.122  11.829  16.200  1.00  0.00     0.026 C 
HETATM   15  C26 UNL     1      -2.176  11.869  14.667  1.00  0.00     0.011 C 
HETATM   16  C27 UNL     1      -1.106  10.962  14.086  1.00  0.00     0.039 C 
HETATM   17  C28 UNL     1      -1.228   9.490  14.499  1.00  0.00     0.073 C 
HETATM   18  C29 UNL     1      -2.317   8.754  13.698  1.00  0.00     0.071 C 
ENDROOT
BRANCH   1  19
HETATM   19  O2  UNL     1      -3.250   6.524  13.317  1.00  0.00    -0.356 OA
BRANCH  19  20
HETATM   20  C4  UNL     1      -3.123   5.107  13.476  1.00  0.00     0.263 C 
HETATM   21  C3  UNL     1      -4.093   4.397  12.535  1.00  0.00     0.095 C 
HETATM   22  C2  UNL     1      -3.636   2.961  12.331  1.00  0.00     0.156 C 
HETATM   23  C32 UNL     1      -2.247   2.960  11.655  1.00  0.00     0.175 C 
HETATM   24  C30 UNL     1      -1.384   4.166  12.073  1.00  0.00     0.151 C 
HETATM   25  O8  UNL     1      -1.774   4.664  13.358  1.00  0.00    -0.354 OA
HETATM   26  C31 UNL     1      -1.288   5.294  11.045  1.00  0.00     0.042 C 
BRANCH  22  27
HETATM   27  O1  UNL     1      -4.530   2.200  11.487  1.00  0.00    -0.388 OA
HETATM   28  C1  UNL     1      -5.816   2.797  11.351  1.00  0.00     0.202 C 
ENDBRANCH  22  27
BRANCH  23  29
HETATM   29  O9  UNL     1      -2.377   2.886  10.232  1.00  0.00    -0.390 OA
HETATM   30  H49 UNL     1      -3.239   2.442  10.085  1.00  0.00     0.210 HD
ENDBRANCH  23  29
ENDBRANCH  19  20
ENDBRANCH   1  19
BRANCH  17  31
HETATM   31  O7  UNL     1       0.024   8.874  14.121  1.00  0.00    -0.389 OA
HETATM   32  H41 UNL     1       0.182   9.073  13.179  1.00  0.00     0.210 HD
ENDBRANCH  17  31
BRANCH   4  33
HETATM   33  C9  UNL     1      -0.091   9.263  16.700  1.00  0.00     0.068 C 
HETATM   34  N1  UNL     1       0.704  10.282  16.690  1.00  0.00    -0.399 N 
ATOM     35  H1  UNL     1       0.435  11.185  16.298  1.00  0.00     0.158 HD
BRANCH  34  36
HETATM   36  C10 UNL     1       2.023  10.043  17.285  1.00  0.00     0.144 C 
BRANCH  36  37
HETATM   37  C11 UNL     1       2.043  10.632  18.698  1.00  0.00     0.183 C 
BRANCH  37  38
HETATM   38  O3  UNL     1       2.601   9.712  19.632  1.00  0.00    -0.399 OA
HETATM   39  H18 UNL     1       3.526   9.557  19.370  1.00  0.00     0.209 HD
ENDBRANCH  37  38
ENDBRANCH  36  37
ENDBRANCH  34  36
ENDBRANCH   4  33
BRANCH  13  40
HETATM   40  O6  UNL     1      -2.489  14.214  16.550  1.00  0.00    -0.389 OA
HETATM   41  H35 UNL     1      -2.580  14.363  15.599  1.00  0.00     0.210 HD
ENDBRANCH  13  40
BRANCH  10  42
HETATM   42  C18 UNL     1      -4.838  13.779  20.131  1.00  0.00    -0.045 A 
HETATM   43  C19 UNL     1      -5.808  13.021  20.646  1.00  0.00     0.087 A 
HETATM   44  C20 UNL     1      -6.056  13.495  22.005  1.00  0.00     0.283 A 
HETATM   45  O4  UNL     1      -6.887  13.022  22.764  1.00  0.00    -0.260 OA
HETATM   46  O5  UNL     1      -5.246  14.552  22.264  1.00  0.00    -0.314 OA
HETATM   47  C21 UNL     1      -4.423  14.802  21.126  1.00  0.00     0.213 A 
ENDBRANCH  10  42
TORSDOF 11
ENDMDL
MODEL 6
REMARK minimizedAffinity -8.46910191
REMARK CNNscore 0.388107717
REMARK CNNaffinity 6.68570948
REMARK  11 active torsions:
REMARK  status: ('A' for Active; 'I' for Inactive)
REMARK    1  A    between atoms: O1_2  and  C2_3 
REMARK    2  A    between atoms: C4_5  and  O2_6 
REMARK    3  A    between atoms: O2_6  and  C5_7 
REMARK    4  A    between atoms: C8_10  and  C9_11 
REMARK    5  A    between atoms: N1_12  and  C10_14 
REMARK    6  A    between atoms: C10_14  and  C11_15 
REMARK    7  A    between atoms: C11_15  and  O3_16 
REMARK    8  A    between atoms: C17_22  and  C18_23 
REMARK    9  A    between atoms: C24_31  and  O6_32 
REMARK   10  A    between atoms: C28_36  and  O7_37 
REMARK   11  A    between atoms: C32_42  and  O9_43 
ROOT
HETATM    1  C5  UNL     1       0.129  11.054  18.503  1.00  0.00     0.127 C 
HETATM    2  C6  UNL     1      -1.361  11.266  18.818  1.00  0.00     0.033 C 
HETATM    3  C7  UNL     1      -2.289  10.404  17.960  1.00  0.00     0.021 C 
HETATM    4  C8  UNL     1      -2.063  10.519  16.409  1.00  0.00     0.026 C 
HETATM    5  C12 UNL     1      -2.512   9.132  15.774  1.00  0.00     0.009 C 
HETATM    6  C13 UNL     1      -4.033   8.864  15.914  1.00  0.00     0.007 C 
HETATM    7  C14 UNL     1      -4.464   7.519  15.330  1.00  0.00     0.013 C 
HETATM    8  C15 UNL     1      -4.039   7.341  13.855  1.00  0.00    -0.005 C 
HETATM    9  C16 UNL     1      -4.881   8.276  12.949  1.00  0.00     0.019 C 
HETATM   10  C17 UNL     1      -4.145   5.845  13.392  1.00  0.00     0.028 C 
HETATM   11  C22 UNL     1      -2.871   5.184  13.981  1.00  0.00     0.013 C 
HETATM   12  C23 UNL     1      -1.866   6.310  14.255  1.00  0.00     0.040 C 
HETATM   13  C24 UNL     1      -2.506   7.591  13.683  1.00  0.00     0.070 C 
HETATM   14  C25 UNL     1      -2.025   8.925  14.320  1.00  0.00     0.026 C 
HETATM   15  C26 UNL     1      -0.500   9.090  14.275  1.00  0.00     0.011 C 
HETATM   16  C27 UNL     1      -0.119  10.501  14.685  1.00  0.00     0.039 C 
HETATM   17  C28 UNL     1      -0.569  10.896  16.097  1.00  0.00     0.073 C 
HETATM   18  C29 UNL     1       0.351  10.309  17.182  1.00  0.00     0.071 C 
ENDROOT
BRANCH   1  19
HETATM   19  O2  UNL     1       0.772  10.377  19.591  1.00  0.00    -0.356 OA
BRANCH  19  20
HETATM   20  C4  UNL     1       1.291  11.281  20.572  1.00  0.00     0.263 C 
HETATM   21  C3  UNL     1       2.227  10.530  21.517  1.00  0.00     0.095 C 
HETATM   22  C2  UNL     1       3.139  11.525  22.218  1.00  0.00     0.156 C 
HETATM   23  C32 UNL     1       4.015  12.240  21.166  1.00  0.00     0.175 C 
HETATM   24  C30 UNL     1       3.292  12.423  19.818  1.00  0.00     0.151 C 
HETATM   25  O8  UNL     1       1.870  12.444  19.989  1.00  0.00    -0.354 OA
HETATM   26  C31 UNL     1       3.704  11.450  18.713  1.00  0.00     0.042 C 
BRANCH  22  27
HETATM   27  O1  UNL     1       4.028  10.899  23.171  1.00  0.00    -0.388 OA
HETATM   28  C1  UNL     1       3.645   9.569  23.504  1.00  0.00     0.202 C 
ENDBRANCH  22  27
BRANCH  23  29
HETATM   29  O9  UNL     1       5.260  11.558  20.996  1.00  0.00    -0.390 OA
HETATM   30  H49 UNL     1       5.409  11.097  21.849  1.00  0.00     0.210 HD
ENDBRANCH  23  29
ENDBRANCH  19  20
ENDBRANCH   1  19
BRANCH  17  31
HETATM   31  O7  UNL     1      -0.403  12.330  16.172  1.00  0.00    -0.389 OA
HETATM   32  H41 UNL     1       0.513  12.539  15.910  1.00  0.00     0.210 HD
ENDBRANCH  17  31
BRANCH   4  33
HETATM   33  C9  UNL     1      -2.920  11.689  15.907  1.00  0.00     0.068 C 
HETATM   34  N1  UNL     1      -3.173  12.729  16.633  1.00  0.00    -0.399 N 
ATOM     35  H1  UNL     1      -2.767  12.865  17.558  1.00  0.00     0.158 HD
BRANCH  34  36
HETATM   36  C10 UNL     1      -4.089  13.699  16.023  1.00  0.00     0.144 C 
BRANCH  36  37
HETATM   37  C11 UNL     1      -5.464  13.563  16.682  1.00  0.00     0.183 C 
BRANCH  37  38
HETATM   38  O3  UNL     1      -6.498  13.486  15.706  1.00  0.00    -0.399 OA
HETATM   39  H18 UNL     1      -6.346  12.677  15.185  1.00  0.00     0.209 HD
ENDBRANCH  37  38
ENDBRANCH  36  37
ENDBRANCH  34  36
ENDBRANCH   4  33
BRANCH  13  40
HETATM   40  O6  UNL     1      -2.219   7.619  12.270  1.00  0.00    -0.389 OA
HETATM   41  H35 UNL     1      -1.260   7.620  12.150  1.00  0.00     0.210 HD
ENDBRANCH  13  40
BRANCH  10  42
HETATM   42  C18 UNL     1      -5.435   5.111  13.648  1.00  0.00    -0.045 A 
HETATM   43  C19 UNL     1      -5.924   4.017  13.058  1.00  0.00     0.087 A 
HETATM   44  C20 UNL     1      -7.259   3.787  13.606  1.00  0.00     0.283 A 
HETATM   45  O4  UNL     1      -7.991   2.867  13.282  1.00  0.00    -0.260 OA
HETATM   46  O5  UNL     1      -7.552   4.770  14.494  1.00  0.00    -0.314 OA
HETATM   47  C21 UNL     1      -6.441   5.659  14.594  1.00  0.00     0.213 A 
ENDBRANCH  10  42
TORSDOF 11
ENDMDL
MODEL 7
REMARK minimizedAffinity -9.47309971
REMARK CNNscore 0.366970658
REMARK CNNaffinity 6.62411547
REMARK  11 active torsions:
REMARK  status: ('A' for Active; 'I' for Inactive)
REMARK    1  A    between atoms: O1_2  and  C2_3 
REMARK    2  A    between atoms: C4_5  and  O2_6 
REMARK    3  A    between atoms: O2_6  and  C5_7 
REMARK    4  A    between atoms: C8_10  and  C9_11 
REMARK    5  A    between atoms: N1_12  and  C10_14 
REMARK    6  A    between atoms: C10_14  and  C11_15 
REMARK    7  A    between atoms: C11_15  and  O3_16 
REMARK    8  A    between atoms: C17_22  and  C18_23 
REMARK    9  A    between atoms: C24_31  and  O6_32 
REMARK   10  A    between atoms: C28_36  and  O7_37 
REMARK   11  A    between atoms: C32_42  and  O9_43 
ROOT
HETATM    1  C5  UNL     1       0.260  11.081  18.871  1.00  0.00     0.127 C 
HETATM    2  C6  UNL     1      -1.235  11.417  19.005  1.00  0.00     0.033 C 
HETATM    3  C7  UNL     1      -2.127  10.584  18.084  1.00  0.00     0.021 C 
HETATM    4  C8  UNL     1      -1.723  10.603  16.566  1.00  0.00     0.026 C 
HETATM    5  C12 UNL     1      -2.206   9.223  15.942  1.00  0.00     0.009 C 
HETATM    6  C13 UNL     1      -3.749   9.074  15.919  1.00  0.00     0.007 C 
HETATM    7  C14 UNL     1      -4.217   7.737  15.347  1.00  0.00     0.013 C 
HETATM    8  C15 UNL     1      -3.648   7.453  13.939  1.00  0.00    -0.005 C 
HETATM    9  C16 UNL     1      -4.309   8.400  12.904  1.00  0.00     0.019 C 
HETATM   10  C17 UNL     1      -3.818   5.947  13.531  1.00  0.00     0.028 C 
HETATM   11  C22 UNL     1      -2.673   5.225  14.288  1.00  0.00     0.013 C 
HETATM   12  C23 UNL     1      -1.619   6.287  14.627  1.00  0.00     0.040 C 
HETATM   13  C24 UNL     1      -2.090   7.581  13.932  1.00  0.00     0.070 C 
HETATM   14  C25 UNL     1      -1.579   8.907  14.563  1.00  0.00     0.026 C 
HETATM   15  C26 UNL     1      -0.050   8.958  14.685  1.00  0.00     0.011 C 
HETATM   16  C27 UNL     1       0.393  10.356  15.077  1.00  0.00     0.039 C 
HETATM   17  C28 UNL     1      -0.178  10.854  16.410  1.00  0.00     0.073 C 
HETATM   18  C29 UNL     1       0.567  10.256  17.617  1.00  0.00     0.071 C 
ENDROOT
BRANCH   1  19
HETATM   19  O2  UNL     1       0.723  10.415  20.053  1.00  0.00    -0.356 OA
BRANCH  19  20
HETATM   20  C4  UNL     1       2.105  10.674  20.326  1.00  0.00     0.263 C 
HETATM   21  C3  UNL     1       2.224  11.593  21.539  1.00  0.00     0.095 C 
HETATM   22  C2  UNL     1       3.623  11.475  22.124  1.00  0.00     0.156 C 
HETATM   23  C32 UNL     1       3.849  10.028  22.613  1.00  0.00     0.175 C 
HETATM   24  C30 UNL     1       3.104   8.989  21.753  1.00  0.00     0.151 C 
HETATM   25  O8  UNL     1       2.874   9.480  20.427  1.00  0.00    -0.354 OA
HETATM   26  C31 UNL     1       1.822   8.424  22.367  1.00  0.00     0.042 C 
BRANCH  22  27
HETATM   27  O1  UNL     1       3.837  12.353  23.254  1.00  0.00    -0.388 OA
HETATM   28  C1  UNL     1       2.962  13.477  23.263  1.00  0.00     0.202 C 
ENDBRANCH  22  27
BRANCH  23  29
HETATM   29  O9  UNL     1       3.501   9.900  23.994  1.00  0.00    -0.390 OA
HETATM   30  H49 UNL     1       3.619  10.800  24.364  1.00  0.00     0.210 HD
ENDBRANCH  23  29
ENDBRANCH  19  20
ENDBRANCH   1  19
BRANCH  17  31
HETATM   31  O7  UNL     1       0.090  12.273  16.443  1.00  0.00    -0.389 OA
HETATM   32  H41 UNL     1       1.043  12.402  16.279  1.00  0.00     0.210 HD
ENDBRANCH  17  31
BRANCH   4  33
HETATM   33  C9  UNL     1      -2.425  11.806  15.921  1.00  0.00     0.068 C 
HETATM   34  N1  UNL     1      -1.848  12.954  15.775  1.00  0.00    -0.399 N 
ATOM     35  H1  UNL     1      -0.871  13.112  16.022  1.00  0.00     0.158 HD
BRANCH  34  36
HETATM   36  C10 UNL     1      -2.705  14.011  15.229  1.00  0.00     0.144 C 
BRANCH  36  37
HETATM   37  C11 UNL     1      -1.982  14.678  14.056  1.00  0.00     0.183 C 
BRANCH  37  38
HETATM   38  O3  UNL     1      -1.143  13.751  13.373  1.00  0.00    -0.399 OA
HETATM   39  H18 UNL     1      -1.718  13.058  13.002  1.00  0.00     0.209 HD
ENDBRANCH  37  38
ENDBRANCH  36  37
ENDBRANCH  34  36
ENDBRANCH   4  33
BRANCH  13  40
HETATM   40  O6  UNL     1      -1.648   7.516  12.562  1.00  0.00    -0.389 OA
HETATM   41  H35 UNL     1      -0.684   7.442  12.551  1.00  0.00     0.210 HD
ENDBRANCH  13  40
BRANCH  10  42
HETATM   42  C18 UNL     1      -5.183   5.323  13.668  1.00  0.00    -0.045 A 
HETATM   43  C19 UNL     1      -5.707   4.273  13.032  1.00  0.00     0.087 A 
HETATM   44  C20 UNL     1      -7.099   4.156  13.459  1.00  0.00     0.283 A 
HETATM   45  O4  UNL     1      -7.874   3.298  13.068  1.00  0.00    -0.260 OA
HETATM   46  O5  UNL     1      -7.387   5.161  14.323  1.00  0.00    -0.314 OA
HETATM   47  C21 UNL     1      -6.220   5.956  14.524  1.00  0.00     0.213 A 
ENDBRANCH  10  42
TORSDOF 11
ENDMDL
MODEL 8
REMARK minimizedAffinity -8.9719944
REMARK CNNscore 0.34609139
REMARK CNNaffinity 6.66072845
REMARK  11 active torsions:
REMARK  status: ('A' for Active; 'I' for Inactive)
REMARK    1  A    between atoms: O1_2  and  C2_3 
REMARK    2  A    between atoms: C4_5  and  O2_6 
REMARK    3  A    between atoms: O2_6  and  C5_7 
REMARK    4  A    between atoms: C8_10  and  C9_11 
REMARK    5  A    between atoms: N1_12  and  C10_14 
REMARK    6  A    between atoms: C10_14  and  C11_15 
REMARK    7  A    between atoms: C11_15  and  O3_16 
REMARK    8  A    between atoms: C17_22  and  C18_23 
REMARK    9  A    between atoms: C24_31  and  O6_32 
REMARK   10  A    between atoms: C28_36  and  O7_37 
REMARK   11  A    between atoms: C32_42  and  O9_43 
ROOT
HETATM    1  C5  UNL     1      -5.385   7.927  15.297  1.00  0.00     0.127 C 
HETATM    2  C6  UNL     1      -5.168   9.019  14.235  1.00  0.00     0.033 C 
HETATM    3  C7  UNL     1      -3.890   8.821  13.418  1.00  0.00     0.021 C 
HETATM    4  C8  UNL     1      -2.577   8.646  14.261  1.00  0.00     0.026 C 
HETATM    5  C12 UNL     1      -1.583   7.762  13.391  1.00  0.00     0.009 C 
HETATM    6  C13 UNL     1      -1.108   8.476  12.099  1.00  0.00     0.007 C 
HETATM    7  C14 UNL     1      -0.176   7.618  11.245  1.00  0.00     0.013 C 
HETATM    8  C15 UNL     1       1.050   7.097  12.030  1.00  0.00    -0.005 C 
HETATM    9  C16 UNL     1       2.016   8.270  12.334  1.00  0.00     0.019 C 
HETATM   10  C17 UNL     1       1.779   5.933  11.271  1.00  0.00     0.028 C 
HETATM   11  C22 UNL     1       0.896   4.691  11.558  1.00  0.00     0.013 C 
HETATM   12  C23 UNL     1       0.077   5.004  12.817  1.00  0.00     0.040 C 
HETATM   13  C24 UNL     1       0.602   6.359  13.333  1.00  0.00     0.070 C 
HETATM   14  C25 UNL     1      -0.395   7.182  14.196  1.00  0.00     0.026 C 
HETATM   15  C26 UNL     1      -0.940   6.392  15.393  1.00  0.00     0.011 C 
HETATM   16  C27 UNL     1      -1.707   7.318  16.319  1.00  0.00     0.039 C 
HETATM   17  C28 UNL     1      -2.904   8.021  15.667  1.00  0.00     0.073 C 
HETATM   18  C29 UNL     1      -4.125   7.092  15.548  1.00  0.00     0.071 C 
ENDROOT
BRANCH   1  19
HETATM   19  O2  UNL     1      -6.492   7.094  14.927  1.00  0.00    -0.356 OA
BRANCH  19  20
HETATM   20  C4  UNL     1      -7.689   7.421  15.642  1.00  0.00     0.263 C 
HETATM   21  C3  UNL     1      -8.234   8.757  15.145  1.00  0.00     0.095 C 
HETATM   22  C2  UNL     1      -9.705   8.870  15.514  1.00  0.00     0.156 C 
HETATM   23  C32 UNL     1     -10.495   7.751  14.800  1.00  0.00     0.175 C 
HETATM   24  C30 UNL     1      -9.671   6.462  14.626  1.00  0.00     0.151 C 
HETATM   25  O8  UNL     1      -8.643   6.364  15.620  1.00  0.00    -0.354 OA
HETATM   26  C31 UNL     1      -9.111   6.222  13.223  1.00  0.00     0.042 C 
BRANCH  22  27
HETATM   27  O1  UNL     1     -10.289  10.133  15.120  1.00  0.00    -0.388 OA
HETATM   28  C1  UNL     1      -9.577  11.260  15.620  1.00  0.00     0.202 C 
ENDBRANCH  22  27
BRANCH  23  29
HETATM   29  O9  UNL     1     -11.004   8.212  13.545  1.00  0.00    -0.390 OA
HETATM   30  H49 UNL     1     -11.089   9.183  13.653  1.00  0.00     0.210 HD
ENDBRANCH  23  29
ENDBRANCH  19  20
ENDBRANCH   1  19
BRANCH  17  31
HETATM   31  O7  UNL     1      -3.291   9.066  16.586  1.00  0.00    -0.389 OA
HETATM   32  H41 UNL     1      -3.424   8.659  17.463  1.00  0.00     0.210 HD
ENDBRANCH  17  31
BRANCH   4  33
HETATM   33  C9  UNL     1      -2.016  10.049  14.532  1.00  0.00     0.068 C 
HETATM   34  N1  UNL     1      -2.726  11.121  14.397  1.00  0.00    -0.399 N 
ATOM     35  H1  UNL     1      -3.719  11.097  14.166  1.00  0.00     0.158 HD
BRANCH  34  36
HETATM   36  C10 UNL     1      -1.995  12.376  14.603  1.00  0.00     0.144 C 
BRANCH  36  37
HETATM   37  C11 UNL     1      -1.866  12.633  16.106  1.00  0.00     0.183 C 
BRANCH  37  38
HETATM   38  O3  UNL     1      -3.018  13.297  16.617  1.00  0.00    -0.399 OA
HETATM   39  H18 UNL     1      -3.777  12.699  16.491  1.00  0.00     0.209 HD
ENDBRANCH  37  38
ENDBRANCH  36  37
ENDBRANCH  34  36
ENDBRANCH   4  33
BRANCH  13  40
HETATM   40  O6  UNL     1       1.783   6.090  14.115  1.00  0.00    -0.389 OA
HETATM   41  H35 UNL     1       1.543   5.504  14.845  1.00  0.00     0.210 HD
ENDBRANCH  13  40
BRANCH  10  42
HETATM   42  C18 UNL     1       2.149   6.148   9.826  1.00  0.00    -0.045 A 
HETATM   43  C19 UNL     1       1.599   6.959   8.919  1.00  0.00     0.087 A 
HETATM   44  C20 UNL     1       2.267   6.702   7.645  1.00  0.00     0.283 A 
HETATM   45  O4  UNL     1       2.006   7.273   6.598  1.00  0.00    -0.260 OA
HETATM   46  O5  UNL     1       3.185   5.717   7.812  1.00  0.00    -0.314 OA
HETATM   47  C21 UNL     1       3.187   5.305   9.178  1.00  0.00     0.213 A 
ENDBRANCH  10  42
TORSDOF 11
ENDMDL
MODEL 9
REMARK minimizedAffinity -7.24126863
REMARK CNNscore 0.312330097
REMARK CNNaffinity 6.35053205
REMARK  11 active torsions:
REMARK  status: ('A' for Active; 'I' for Inactive)
REMARK    1  A    between atoms: O1_2  and  C2_3 
REMARK    2  A    between atoms: C4_5  and  O2_6 
REMARK    3  A    between atoms: O2_6  and  C5_7 
REMARK    4  A    between atoms: C8_10  and  C9_11 
REMARK    5  A    between atoms: N1_12  and  C10_14 
REMARK    6  A    between atoms: C10_14  and  C11_15 
REMARK    7  A    between atoms: C11_15  and  O3_16 
REMARK    8  A    between atoms: C17_22  and  C18_23 
REMARK    9  A    between atoms: C24_31  and  O6_32 
REMARK   10  A    between atoms: C28_36  and  O7_37 
REMARK   11  A    between atoms: C32_42  and  O9_43 
ROOT
HETATM    1  C5  UNL     1       1.045   8.302  11.837  1.00  0.00     0.127 C 
HETATM    2  C6  UNL     1      -0.488   8.316  11.710  1.00  0.00     0.033 C 
HETATM    3  C7  UNL     1      -1.185   9.024  12.873  1.00  0.00     0.021 C 
HETATM    4  C8  UNL     1      -0.786   8.510  14.303  1.00  0.00     0.026 C 
HETATM    5  C12 UNL     1      -0.972   9.734  15.301  1.00  0.00     0.009 C 
HETATM    6  C13 UNL     1      -2.451  10.171  15.457  1.00  0.00     0.007 C 
HETATM    7  C14 UNL     1      -2.631  11.365  16.393  1.00  0.00     0.013 C 
HETATM    8  C15 UNL     1      -2.008  11.134  17.789  1.00  0.00    -0.005 C 
HETATM    9  C16 UNL     1      -2.845  10.089  18.571  1.00  0.00     0.019 C 
HETATM   10  C17 UNL     1      -1.863  12.473  18.594  1.00  0.00     0.028 C 
HETATM   11  C22 UNL     1      -0.598  13.135  17.989  1.00  0.00     0.013 C 
HETATM   12  C23 UNL     1       0.213  12.021  17.315  1.00  0.00     0.040 C 
HETATM   13  C24 UNL     1      -0.511  10.705  17.666  1.00  0.00     0.070 C 
HETATM   14  C25 UNL     1      -0.286   9.530  16.674  1.00  0.00     0.026 C 
HETATM   15  C26 UNL     1       1.198   9.214  16.449  1.00  0.00     0.011 C 
HETATM   16  C27 UNL     1       1.342   7.918  15.672  1.00  0.00     0.039 C 
HETATM   17  C28 UNL     1       0.674   7.927  14.292  1.00  0.00     0.073 C 
HETATM   18  C29 UNL     1       1.521   8.674  13.245  1.00  0.00     0.071 C 
ENDROOT
BRANCH   1  19
HETATM   19  O2  UNL     1       1.629   9.162  10.850  1.00  0.00    -0.356 OA
BRANCH  19  20
HETATM   20  C4  UNL     1       2.701   8.533  10.138  1.00  0.00     0.263 C 
HETATM   21  C3  UNL     1       3.496   7.643  11.090  1.00  0.00     0.095 C 
HETATM   22  C2  UNL     1       4.286   6.624  10.284  1.00  0.00     0.156 C 
HETATM   23  C32 UNL     1       3.305   5.717   9.509  1.00  0.00     0.175 C 
HETATM   24  C30 UNL     1       2.025   6.459   9.081  1.00  0.00     0.151 C 
HETATM   25  O8  UNL     1       2.256   7.868   8.960  1.00  0.00    -0.354 OA
HETATM   26  C31 UNL     1       0.783   6.170   9.925  1.00  0.00     0.042 C 
BRANCH  22  27
HETATM   27  O1  UNL     1       5.108   5.768  11.110  1.00  0.00    -0.388 OA
HETATM   28  C1  UNL     1       5.990   6.492  11.963  1.00  0.00     0.202 C 
ENDBRANCH  22  27
BRANCH  23  29
HETATM   29  O9  UNL     1       2.993   4.545  10.268  1.00  0.00    -0.390 OA
HETATM   30  H49 UNL     1       3.769   4.415  10.853  1.00  0.00     0.210 HD
ENDBRANCH  23  29
ENDBRANCH  19  20
ENDBRANCH   1  19
BRANCH  17  31
HETATM   31  O7  UNL     1       0.644   6.547  13.863  1.00  0.00    -0.389 OA
HETATM   32  H41 UNL     1       1.551   6.194  13.929  1.00  0.00     0.210 HD
ENDBRANCH  17  31
BRANCH   4  33
HETATM   33  C9  UNL     1      -1.718   7.339  14.645  1.00  0.00     0.068 C 
HETATM   34  N1  UNL     1      -2.575   7.389  15.611  1.00  0.00    -0.399 N 
ATOM     35  H1  UNL     1      -2.729   8.232  16.165  1.00  0.00     0.158 HD
BRANCH  34  36
HETATM   36  C10 UNL     1      -3.308   6.142  15.852  1.00  0.00     0.144 C 
BRANCH  36  37
HETATM   37  C11 UNL     1      -4.764   6.332  15.421  1.00  0.00     0.183 C 
BRANCH  37  38
HETATM   38  O3  UNL     1      -5.270   7.591  15.854  1.00  0.00    -0.399 OA
HETATM   39  H18 UNL     1      -4.745   8.283  15.412  1.00  0.00     0.209 HD
ENDBRANCH  37  38
ENDBRANCH  36  37
ENDBRANCH  34  36
ENDBRANCH   4  33
BRANCH  13  40
HETATM   40  O6  UNL     1      -0.058  10.303  18.974  1.00  0.00    -0.389 OA
HETATM   41  H35 UNL     1       0.900  10.181  18.945  1.00  0.00     0.210 HD
ENDBRANCH  13  40
BRANCH  10  42
HETATM   42  C18 UNL     1      -3.071  13.367  18.712  1.00  0.00    -0.045 A 
HETATM   43  C19 UNL     1      -4.229  13.154  19.341  1.00  0.00     0.087 A 
HETATM   44  C20 UNL     1      -5.096  14.294  19.054  1.00  0.00     0.283 A 
HETATM   45  O4  UNL     1      -6.235  14.422  19.474  1.00  0.00    -0.260 OA
HETATM   46  O5  UNL     1      -4.445  15.153  18.230  1.00  0.00    -0.314 OA
HETATM   47  C21 UNL     1      -3.138  14.648  17.963  1.00  0.00     0.213 A 
ENDBRANCH  10  42
TORSDOF 11
ENDMDL
