MODEL 1
REMARK minimizedAffinity -7.65337992
REMARK  6 active torsions:
REMARK  status: ('A' for Active; 'I' for Inactive)
REMARK    1  A    between atoms: O1_2  and  C2_3 
REMARK    2  A    between atoms: C7_8  and  C8_9 
REMARK    3  A    between atoms: C8_9  and  C9_10 
REMARK    4  A    between atoms: C9_10  and  O3_12 
REMARK    5  A    between atoms: C10_13  and  C11_14 
REMARK    6  A    between atoms: C10_13  and  C17_20 
ROOT
HETATM    1  C8  UNL     1      -3.321   4.429  12.005  1.00  0.00     0.062 C 
HETATM    2  C10 UNL     1      -2.417   5.350  12.438  1.00  0.00     0.002 C 
ENDROOT
BRANCH   1   3
HETATM    3  C7  UNL     1      -4.733   4.391  12.457  1.00  0.00     0.015 A 
HETATM    4  C2  UNL     1      -5.524   3.237  12.300  1.00  0.00     0.079 A 
HETATM    5  C3  UNL     1      -6.857   3.258  12.730  1.00  0.00     0.037 A 
HETATM    6  C4  UNL     1      -7.397   4.409  13.315  1.00  0.00     0.003 A 
HETATM    7  C5  UNL     1      -6.615   5.548  13.473  1.00  0.00     0.001 A 
HETATM    8  C6  UNL     1      -5.288   5.540  13.043  1.00  0.00     0.015 A 
BRANCH   4   9
HETATM    9  O1  UNL     1      -4.911   2.155  11.721  1.00  0.00    -0.355 OA
HETATM   10  C1  UNL     1      -5.747   1.115  11.223  1.00  0.00     0.210 C 
ENDBRANCH   4   9
ENDBRANCH   1   3
BRANCH   1  11
HETATM   11  C9  UNL     1      -2.945   3.435  10.974  1.00  0.00     0.178 C 
HETATM   12  O2  UNL     1      -2.222   2.471  11.147  1.00  0.00    -0.646 OA
BRANCH  11  13
HETATM   13  O3  UNL     1      -3.458   3.726   9.767  1.00  0.00    -0.773 OA
HETATM   14  H8  UNL     1      -3.135   2.999   9.197  1.00  0.00     0.167 HD
ENDBRANCH  11  13
ENDBRANCH   1  11
BRANCH   2  15
HETATM   15  C11 UNL     1      -1.053   5.396  11.849  1.00  0.00    -0.024 A 
HETATM   16  C12 UNL     1      -0.073   4.462  12.233  1.00  0.00     0.012 A 
HETATM   17  C13 UNL     1       1.202   4.507  11.664  1.00  0.00     0.001 A 
HETATM   18  C14 UNL     1       1.510   5.486  10.716  1.00  0.00     0.000 A 
HETATM   19  C15 UNL     1       0.542   6.421  10.333  1.00  0.00     0.001 A 
HETATM   20  C16 UNL     1      -0.737   6.375  10.893  1.00  0.00     0.012 A 
ENDBRANCH   2  15
BRANCH   2  21
HETATM   21  C17 UNL     1      -2.802   6.331  13.486  1.00  0.00    -0.024 A 
HETATM   22  C18 UNL     1      -2.772   5.960  14.842  1.00  0.00     0.012 A 
HETATM   23  C19 UNL     1      -3.125   6.884  15.828  1.00  0.00     0.001 A 
HETATM   24  C20 UNL     1      -3.522   8.174  15.470  1.00  0.00     0.000 A 
HETATM   25  C21 UNL     1      -3.578   8.541  14.125  1.00  0.00     0.001 A 
HETATM   26  C22 UNL     1      -3.219   7.625  13.135  1.00  0.00     0.012 A 
ENDBRANCH   2  21
TORSDOF 6
ENDMDL
MODEL 2
REMARK minimizedAffinity -7.47360039
REMARK  6 active torsions:
REMARK  status: ('A' for Active; 'I' for Inactive)
REMARK    1  A    between atoms: O1_2  and  C2_3 
REMARK    2  A    between atoms: C7_8  and  C8_9 
REMARK    3  A    between atoms: C8_9  and  C9_10 
REMARK    4  A    between atoms: C9_10  and  O3_12 
REMARK    5  A    between atoms: C10_13  and  C11_14 
REMARK    6  A    between atoms: C10_13  and  C17_20 
ROOT
HETATM    1  C8  UNL     1      -3.157   6.693  14.543  1.00  0.00     0.062 C 
HETATM    2  C10 UNL     1      -4.368   6.184  14.188  1.00  0.00     0.002 C 
ENDROOT
BRANCH   1   3
HETATM    3  C7  UNL     1      -1.885   6.324  13.875  1.00  0.00     0.015 A 
HETATM    4  C2  UNL     1      -1.374   7.076  12.800  1.00  0.00     0.079 A 
HETATM    5  C3  UNL     1      -0.177   6.675  12.194  1.00  0.00     0.037 A 
HETATM    6  C4  UNL     1       0.509   5.545  12.652  1.00  0.00     0.003 A 
HETATM    7  C5  UNL     1       0.006   4.803  13.715  1.00  0.00     0.001 A 
HETATM    8  C6  UNL     1      -1.188   5.190  14.324  1.00  0.00     0.015 A 
BRANCH   4   9
HETATM    9  O1  UNL     1      -2.110   8.170  12.421  1.00  0.00    -0.355 OA
HETATM   10  C1  UNL     1      -1.501   9.090  11.522  1.00  0.00     0.210 C 
ENDBRANCH   4   9
ENDBRANCH   1   3
BRANCH   1  11
HETATM   11  C9  UNL     1      -3.056   7.727  15.598  1.00  0.00     0.178 C 
HETATM   12  O2  UNL     1      -3.135   8.929  15.426  1.00  0.00    -0.646 OA
BRANCH  11  13
HETATM   13  O3  UNL     1      -2.815   7.202  16.812  1.00  0.00    -0.773 OA
HETATM   14  H8  UNL     1      -2.775   7.984  17.398  1.00  0.00     0.167 HD
ENDBRANCH  11  13
ENDBRANCH   1  11
BRANCH   2  15
HETATM   15  C11 UNL     1      -5.611   6.692  14.827  1.00  0.00    -0.024 A 
HETATM   16  C12 UNL     1      -6.167   6.035  15.940  1.00  0.00     0.012 A 
HETATM   17  C13 UNL     1      -7.328   6.528  16.540  1.00  0.00     0.001 A 
HETATM   18  C14 UNL     1      -7.945   7.673  16.030  1.00  0.00     0.000 A 
HETATM   19  C15 UNL     1      -7.401   8.329  14.920  1.00  0.00     0.001 A 
HETATM   20  C16 UNL     1      -6.236   7.844  14.322  1.00  0.00     0.012 A 
ENDBRANCH   2  15
BRANCH   2  21
HETATM   21  C17 UNL     1      -4.453   5.133  13.141  1.00  0.00    -0.024 A 
HETATM   22  C18 UNL     1      -5.557   4.264  13.103  1.00  0.00     0.012 A 
HETATM   23  C19 UNL     1      -5.641   3.282  12.113  1.00  0.00     0.001 A 
HETATM   24  C20 UNL     1      -4.622   3.152  11.166  1.00  0.00     0.000 A 
HETATM   25  C21 UNL     1      -3.512   3.995  11.213  1.00  0.00     0.001 A 
HETATM   26  C22 UNL     1      -3.425   4.984  12.194  1.00  0.00     0.012 A 
ENDBRANCH   2  21
TORSDOF 6
ENDMDL
MODEL 3
REMARK minimizedAffinity -7.41814661
REMARK  6 active torsions:
REMARK  status: ('A' for Active; 'I' for Inactive)
REMARK    1  A    between atoms: O1_2  and  C2_3 
REMARK    2  A    between atoms: C7_8  and  C8_9 
REMARK    3  A    between atoms: C8_9  and  C9_10 
REMARK    4  A    between atoms: C9_10  and  O3_12 
REMARK    5  A    between atoms: C10_13  and  C11_14 
REMARK    6  A    between atoms: C10_13  and  C17_20 
ROOT
HETATM    1  C8  UNL     1      -1.243   7.295  12.552  1.00  0.00     0.062 C 
HETATM    2  C10 UNL     1      -0.857   6.219  11.812  1.00  0.00     0.002 C 
ENDROOT
BRANCH   1   3
HETATM    3  C7  UNL     1      -2.397   7.278  13.483  1.00  0.00     0.015 A 
HETATM    4  C2  UNL     1      -2.252   6.877  14.825  1.00  0.00     0.079 A 
HETATM    5  C3  UNL     1      -3.376   6.864  15.660  1.00  0.00     0.037 A 
HETATM    6  C4  UNL     1      -4.630   7.250  15.171  1.00  0.00     0.003 A 
HETATM    7  C5  UNL     1      -4.773   7.647  13.846  1.00  0.00     0.001 A 
HETATM    8  C6  UNL     1      -3.661   7.660  13.004  1.00  0.00     0.015 A 
BRANCH   4   9
HETATM    9  O1  UNL     1      -0.987   6.521  15.219  1.00  0.00    -0.355 OA
HETATM   10  C1  UNL     1      -0.280   7.431  16.055  1.00  0.00     0.210 C 
ENDBRANCH   4   9
ENDBRANCH   1   3
BRANCH   1  11
HETATM   11  C9  UNL     1      -0.461   8.552  12.514  1.00  0.00     0.178 C 
HETATM   12  O2  UNL     1       0.606   8.742  13.067  1.00  0.00    -0.646 OA
BRANCH  11  13
HETATM   13  O3  UNL     1      -1.080   9.523  11.822  1.00  0.00    -0.773 OA
HETATM   14  H8  UNL     1      -0.462  10.278  11.879  1.00  0.00     0.167 HD
ENDBRANCH  11  13
ENDBRANCH   1  11
BRANCH   2  15
HETATM   15  C11 UNL     1       0.380   6.279  10.990  1.00  0.00    -0.024 A 
HETATM   16  C12 UNL     1       1.559   5.642  11.420  1.00  0.00     0.012 A 
HETATM   17  C13 UNL     1       2.713   5.694  10.634  1.00  0.00     0.001 A 
HETATM   18  C14 UNL     1       2.700   6.386   9.420  1.00  0.00     0.000 A 
HETATM   19  C15 UNL     1       1.532   7.026   8.988  1.00  0.00     0.001 A 
HETATM   20  C16 UNL     1       0.374   6.969   9.767  1.00  0.00     0.012 A 
ENDBRANCH   2  15
BRANCH   2  21
HETATM   21  C17 UNL     1      -1.662   4.970  11.845  1.00  0.00    -0.024 A 
HETATM   22  C18 UNL     1      -1.268   3.859  11.080  1.00  0.00     0.012 A 
HETATM   23  C19 UNL     1      -2.020   2.682  11.118  1.00  0.00     0.001 A 
HETATM   24  C20 UNL     1      -3.171   2.610  11.904  1.00  0.00     0.000 A 
HETATM   25  C21 UNL     1      -3.582   3.718  12.647  1.00  0.00     0.001 A 
HETATM   26  C22 UNL     1      -2.831   4.894  12.621  1.00  0.00     0.012 A 
ENDBRANCH   2  21
TORSDOF 6
ENDMDL
MODEL 4
REMARK minimizedAffinity -6.99975395
REMARK  6 active torsions:
REMARK  status: ('A' for Active; 'I' for Inactive)
REMARK    1  A    between atoms: O1_2  and  C2_3 
REMARK    2  A    between atoms: C7_8  and  C8_9 
REMARK    3  A    between atoms: C8_9  and  C9_10 
REMARK    4  A    between atoms: C9_10  and  O3_12 
REMARK    5  A    between atoms: C10_13  and  C11_14 
REMARK    6  A    between atoms: C10_13  and  C17_20 
ROOT
HETATM    1  C8  UNL     1      -1.981   5.016  12.399  1.00  0.00     0.062 C 
HETATM    2  C10 UNL     1      -2.106   6.173  13.105  1.00  0.00     0.002 C 
ENDROOT
BRANCH   1   3
HETATM    3  C7  UNL     1      -3.108   4.088  12.140  1.00  0.00     0.015 A 
HETATM    4  C2  UNL     1      -2.887   2.742  11.791  1.00  0.00     0.079 A 
HETATM    5  C3  UNL     1      -3.986   1.911  11.540  1.00  0.00     0.037 A 
HETATM    6  C4  UNL     1      -5.291   2.408  11.641  1.00  0.00     0.003 A 
HETATM    7  C5  UNL     1      -5.509   3.736  11.987  1.00  0.00     0.001 A 
HETATM    8  C6  UNL     1      -4.422   4.575  12.234  1.00  0.00     0.015 A 
BRANCH   4   9
HETATM    9  O1  UNL     1      -1.577   2.340  11.721  1.00  0.00    -0.355 OA
HETATM   10  C1  UNL     1      -1.269   1.252  10.856  1.00  0.00     0.210 C 
ENDBRANCH   4   9
ENDBRANCH   1   3
BRANCH   1  11
HETATM   11  C9  UNL     1      -0.688   4.653  11.776  1.00  0.00     0.178 C 
HETATM   12  O2  UNL     1       0.298   4.251  12.366  1.00  0.00    -0.646 OA
BRANCH  11  13
HETATM   13  O3  UNL     1      -0.681   4.857  10.448  1.00  0.00    -0.773 OA
HETATM   14  H8  UNL     1       0.216   4.579  10.176  1.00  0.00     0.167 HD
ENDBRANCH  11  13
ENDBRANCH   1  11
BRANCH   2  15
HETATM   15  C11 UNL     1      -0.957   7.108  13.222  1.00  0.00    -0.024 A 
HETATM   16  C12 UNL     1      -0.164   7.131  14.385  1.00  0.00     0.012 A 
HETATM   17  C13 UNL     1       0.921   8.005  14.480  1.00  0.00     0.001 A 
HETATM   18  C14 UNL     1       1.218   8.866  13.420  1.00  0.00     0.000 A 
HETATM   19  C15 UNL     1       0.432   8.853  12.262  1.00  0.00     0.001 A 
HETATM   20  C16 UNL     1      -0.649   7.974  12.160  1.00  0.00     0.012 A 
ENDBRANCH   2  15
BRANCH   2  21
HETATM   21  C17 UNL     1      -3.405   6.516  13.742  1.00  0.00    -0.024 A 
HETATM   22  C18 UNL     1      -3.769   5.922  14.962  1.00  0.00     0.012 A 
HETATM   23  C19 UNL     1      -4.985   6.251  15.565  1.00  0.00     0.001 A 
HETATM   24  C20 UNL     1      -5.849   7.160  14.951  1.00  0.00     0.000 A 
HETATM   25  C21 UNL     1      -5.505   7.734  13.726  1.00  0.00     0.001 A 
HETATM   26  C22 UNL     1      -4.288   7.417  13.123  1.00  0.00     0.012 A 
ENDBRANCH   2  21
TORSDOF 6
ENDMDL
MODEL 5
REMARK minimizedAffinity -6.92930031
REMARK  6 active torsions:
REMARK  status: ('A' for Active; 'I' for Inactive)
REMARK    1  A    between atoms: O1_2  and  C2_3 
REMARK    2  A    between atoms: C7_8  and  C8_9 
REMARK    3  A    between atoms: C8_9  and  C9_10 
REMARK    4  A    between atoms: C9_10  and  O3_12 
REMARK    5  A    between atoms: C10_13  and  C11_14 
REMARK    6  A    between atoms: C10_13  and  C17_20 
ROOT
HETATM    1  C8  UNL     1      -0.807   7.302  12.523  1.00  0.00     0.062 C 
HETATM    2  C10 UNL     1      -1.770   6.358  12.708  1.00  0.00     0.002 C 
ENDROOT
BRANCH   1   3
HETATM    3  C7  UNL     1       0.363   7.116  11.631  1.00  0.00     0.015 A 
HETATM    4  C2  UNL     1       1.640   6.821  12.146  1.00  0.00     0.079 A 
HETATM    5  C3  UNL     1       2.715   6.670  11.261  1.00  0.00     0.037 A 
HETATM    6  C4  UNL     1       2.525   6.804   9.881  1.00  0.00     0.003 A 
HETATM    7  C5  UNL     1       1.264   7.093   9.372  1.00  0.00     0.001 A 
HETATM    8  C6  UNL     1       0.186   7.250  10.244  1.00  0.00     0.015 A 
BRANCH   4   9
HETATM    9  O1  UNL     1       1.733   6.703  13.509  1.00  0.00    -0.355 OA
HETATM   10  C1  UNL     1       2.577   7.623  14.192  1.00  0.00     0.210 C 
ENDBRANCH   4   9
ENDBRANCH   1   3
BRANCH   1  11
HETATM   11  C9  UNL     1      -0.923   8.629  13.168  1.00  0.00     0.178 C 
HETATM   12  O2  UNL     1      -0.747   8.864  14.349  1.00  0.00    -0.646 OA
BRANCH  11  13
HETATM   13  O3  UNL     1      -1.302   9.589  12.307  1.00  0.00    -0.773 OA
HETATM   14  H8  UNL     1      -1.336  10.395  12.859  1.00  0.00     0.167 HD
ENDBRANCH  11  13
ENDBRANCH   1  11
BRANCH   2  15
HETATM   15  C11 UNL     1      -2.973   6.664  13.526  1.00  0.00    -0.024 A 
HETATM   16  C12 UNL     1      -4.007   7.467  13.011  1.00  0.00     0.012 A 
HETATM   17  C13 UNL     1      -5.139   7.738  13.784  1.00  0.00     0.001 A 
HETATM   18  C14 UNL     1      -5.243   7.216  15.075  1.00  0.00     0.000 A 
HETATM   19  C15 UNL     1      -4.217   6.419  15.596  1.00  0.00     0.001 A 
HETATM   20  C16 UNL     1      -3.088   6.139  14.824  1.00  0.00     0.012 A 
ENDBRANCH   2  15
BRANCH   2  21
HETATM   21  C17 UNL     1      -1.631   5.023  12.069  1.00  0.00    -0.024 A 
HETATM   22  C18 UNL     1      -0.526   4.209  12.374  1.00  0.00     0.012 A 
HETATM   23  C19 UNL     1      -0.401   2.950  11.781  1.00  0.00     0.001 A 
HETATM   24  C20 UNL     1      -1.364   2.502  10.874  1.00  0.00     0.000 A 
HETATM   25  C21 UNL     1      -2.450   3.316  10.549  1.00  0.00     0.001 A 
HETATM   26  C22 UNL     1      -2.586   4.571  11.144  1.00  0.00     0.012 A 
ENDBRANCH   2  21
TORSDOF 6
ENDMDL
MODEL 6
REMARK minimizedAffinity -6.7135272
REMARK  6 active torsions:
REMARK  status: ('A' for Active; 'I' for Inactive)
REMARK    1  A    between atoms: O1_2  and  C2_3 
REMARK    2  A    between atoms: C7_8  and  C8_9 
REMARK    3  A    between atoms: C8_9  and  C9_10 
REMARK    4  A    between atoms: C9_10  and  O3_12 
REMARK    5  A    between atoms: C10_13  and  C11_14 
REMARK    6  A    between atoms: C10_13  and  C17_20 
ROOT
HETATM    1  C8  UNL     1       4.329   7.762  10.698  1.00  0.00     0.062 C 
HETATM    2  C10 UNL     1       3.743   7.919  11.916  1.00  0.00     0.002 C 
ENDROOT
BRANCH   1   3
HETATM    3  C7  UNL     1       3.577   7.436   9.462  1.00  0.00     0.015 A 
HETATM    4  C2  UNL     1       3.409   6.106   9.033  1.00  0.00     0.079 A 
HETATM    5  C3  UNL     1       2.703   5.853   7.850  1.00  0.00     0.037 A 
HETATM    6  C4  UNL     1       2.164   6.907   7.104  1.00  0.00     0.003 A 
HETATM    7  C5  UNL     1       2.328   8.221   7.528  1.00  0.00     0.001 A 
HETATM    8  C6  UNL     1       3.033   8.486   8.702  1.00  0.00     0.015 A 
BRANCH   4   9
HETATM    9  O1  UNL     1       3.966   5.137   9.828  1.00  0.00    -0.355 OA
HETATM   10  C1  UNL     1       4.063   3.822   9.290  1.00  0.00     0.210 C 
ENDBRANCH   4   9
ENDBRANCH   1   3
BRANCH   1  11
HETATM   11  C9  UNL     1       5.782   7.989  10.529  1.00  0.00     0.178 C 
HETATM   12  O2  UNL     1       6.640   7.125  10.517  1.00  0.00    -0.646 OA
BRANCH  11  13
HETATM   13  O3  UNL     1       6.093   9.293  10.431  1.00  0.00    -0.773 OA
HETATM   14  H8  UNL     1       7.065   9.292  10.325  1.00  0.00     0.167 HD
ENDBRANCH  11  13
ENDBRANCH   1  11
BRANCH   2  15
HETATM   15  C11 UNL     1       4.548   8.361  13.084  1.00  0.00    -0.024 A 
HETATM   16  C12 UNL     1       5.382   7.456  13.766  1.00  0.00     0.012 A 
HETATM   17  C13 UNL     1       6.144   7.885  14.856  1.00  0.00     0.001 A 
HETATM   18  C14 UNL     1       6.074   9.216  15.275  1.00  0.00     0.000 A 
HETATM   19  C15 UNL     1       5.243  10.121  14.605  1.00  0.00     0.001 A 
HETATM   20  C16 UNL     1       4.486   9.698  13.511  1.00  0.00     0.012 A 
ENDBRANCH   2  15
BRANCH   2  21
HETATM   21  C17 UNL     1       2.286   7.670  12.075  1.00  0.00    -0.024 A 
HETATM   22  C18 UNL     1       1.373   8.731  11.946  1.00  0.00     0.012 A 
HETATM   23  C19 UNL     1       0.003   8.496  12.086  1.00  0.00     0.001 A 
HETATM   24  C20 UNL     1      -0.463   7.210  12.368  1.00  0.00     0.000 A 
HETATM   25  C21 UNL     1       0.441   6.157  12.523  1.00  0.00     0.001 A 
HETATM   26  C22 UNL     1       1.810   6.383  12.375  1.00  0.00     0.012 A 
ENDBRANCH   2  21
TORSDOF 6
ENDMDL
MODEL 7
REMARK minimizedAffinity -6.70621443
REMARK  6 active torsions:
REMARK  status: ('A' for Active; 'I' for Inactive)
REMARK    1  A    between atoms: O1_2  and  C2_3 
REMARK    2  A    between atoms: C7_8  and  C8_9 
REMARK    3  A    between atoms: C8_9  and  C9_10 
REMARK    4  A    between atoms: C9_10  and  O3_12 
REMARK    5  A    between atoms: C10_13  and  C11_14 
REMARK    6  A    between atoms: C10_13  and  C17_20 
ROOT
HETATM    1  C8  UNL     1       2.155   7.356  12.537  1.00  0.00     0.062 C 
HETATM    2  C10 UNL     1       1.180   7.100  11.623  1.00  0.00     0.002 C 
ENDROOT
BRANCH   1   3
HETATM    3  C7  UNL     1       3.527   7.787  12.174  1.00  0.00     0.015 A 
HETATM    4  C2  UNL     1       3.893   9.147  12.167  1.00  0.00     0.079 A 
HETATM    5  C3  UNL     1       5.198   9.501  11.801  1.00  0.00     0.037 A 
HETATM    6  C4  UNL     1       6.130   8.519  11.451  1.00  0.00     0.003 A 
HETATM    7  C5  UNL     1       5.770   7.176  11.459  1.00  0.00     0.001 A 
HETATM    8  C6  UNL     1       4.472   6.811  11.817  1.00  0.00     0.015 A 
BRANCH   4   9
HETATM    9  O1  UNL     1       2.917  10.039  12.529  1.00  0.00    -0.355 OA
HETATM   10  C1  UNL     1       3.278  11.074  13.437  1.00  0.00     0.210 C 
ENDBRANCH   4   9
ENDBRANCH   1   3
BRANCH   1  11
HETATM   11  C9  UNL     1       1.863   7.284  13.987  1.00  0.00     0.178 C 
HETATM   12  O2  UNL     1       1.598   8.230  14.706  1.00  0.00    -0.646 OA
BRANCH  11  13
HETATM   13  O3  UNL     1       1.964   6.035  14.472  1.00  0.00    -0.773 OA
HETATM   14  H8  UNL     1       1.748   6.137  15.420  1.00  0.00     0.167 HD
ENDBRANCH  11  13
ENDBRANCH   1  11
BRANCH   2  15
HETATM   15  C11 UNL     1      -0.203   6.787  12.069  1.00  0.00    -0.024 A 
HETATM   16  C12 UNL     1      -0.651   5.455  12.139  1.00  0.00     0.012 A 
HETATM   17  C13 UNL     1      -1.949   5.171  12.571  1.00  0.00     0.001 A 
HETATM   18  C14 UNL     1      -2.808   6.213  12.930  1.00  0.00     0.000 A 
HETATM   19  C15 UNL     1      -2.371   7.541  12.859  1.00  0.00     0.001 A 
HETATM   20  C16 UNL     1      -1.072   7.828  12.435  1.00  0.00     0.012 A 
ENDBRANCH   2  15
BRANCH   2  21
HETATM   21  C17 UNL     1       1.492   7.157  10.171  1.00  0.00    -0.024 A 
HETATM   22  C18 UNL     1       2.212   6.112   9.564  1.00  0.00     0.012 A 
HETATM   23  C19 UNL     1       2.497   6.161   8.198  1.00  0.00     0.001 A 
HETATM   24  C20 UNL     1       2.081   7.253   7.433  1.00  0.00     0.000 A 
HETATM   25  C21 UNL     1       1.388   8.305   8.034  1.00  0.00     0.001 A 
HETATM   26  C22 UNL     1       1.092   8.259   9.397  1.00  0.00     0.012 A 
ENDBRANCH   2  21
TORSDOF 6
ENDMDL
MODEL 8
REMARK minimizedAffinity -6.62450314
REMARK  6 active torsions:
REMARK  status: ('A' for Active; 'I' for Inactive)
REMARK    1  A    between atoms: O1_2  and  C2_3 
REMARK    2  A    between atoms: C7_8  and  C8_9 
REMARK    3  A    between atoms: C8_9  and  C9_10 
REMARK    4  A    between atoms: C9_10  and  O3_12 
REMARK    5  A    between atoms: C10_13  and  C11_14 
REMARK    6  A    between atoms: C10_13  and  C17_20 
ROOT
HETATM    1  C8  UNL     1      -0.231   6.549  13.609  1.00  0.00     0.062 C 
HETATM    2  C10 UNL     1      -0.453   5.951  12.406  1.00  0.00     0.002 C 
ENDROOT
BRANCH   1   3
HETATM    3  C7  UNL     1       0.821   7.568  13.836  1.00  0.00     0.015 A 
HETATM    4  C2  UNL     1       0.583   8.936  13.599  1.00  0.00     0.079 A 
HETATM    5  C3  UNL     1       1.616   9.857  13.814  1.00  0.00     0.037 A 
HETATM    6  C4  UNL     1       2.869   9.428  14.264  1.00  0.00     0.003 A 
HETATM    7  C5  UNL     1       3.104   8.078  14.499  1.00  0.00     0.001 A 
HETATM    8  C6  UNL     1       2.085   7.150  14.284  1.00  0.00     0.015 A 
BRANCH   4   9
HETATM    9  O1  UNL     1      -0.676   9.266  13.165  1.00  0.00    -0.355 OA
HETATM   10  C1  UNL     1      -1.394  10.241  13.914  1.00  0.00     0.210 C 
ENDBRANCH   4   9
ENDBRANCH   1   3
BRANCH   1  11
HETATM   11  C9  UNL     1      -1.105   6.253  14.767  1.00  0.00     0.178 C 
HETATM   12  O2  UNL     1      -2.037   6.937  15.147  1.00  0.00    -0.646 OA
BRANCH  11  13
HETATM   13  O3  UNL     1      -0.736   5.137  15.418  1.00  0.00    -0.773 OA
HETATM   14  H8  UNL     1      -1.388   5.066  16.143  1.00  0.00     0.167 HD
ENDBRANCH  11  13
ENDBRANCH   1  11
BRANCH   2  15
HETATM   15  C11 UNL     1      -1.603   5.026  12.229  1.00  0.00    -0.024 A 
HETATM   16  C12 UNL     1      -2.923   5.475  12.418  1.00  0.00     0.012 A 
HETATM   17  C13 UNL     1      -3.997   4.601  12.237  1.00  0.00     0.001 A 
HETATM   18  C14 UNL     1      -3.761   3.272  11.873  1.00  0.00     0.000 A 
HETATM   19  C15 UNL     1      -2.451   2.816  11.688  1.00  0.00     0.001 A 
HETATM   20  C16 UNL     1      -1.375   3.690  11.860  1.00  0.00     0.012 A 
ENDBRANCH   2  15
BRANCH   2  21
HETATM   21  C17 UNL     1       0.443   6.244  11.257  1.00  0.00    -0.024 A 
HETATM   22  C18 UNL     1       0.114   7.265  10.349  1.00  0.00     0.012 A 
HETATM   23  C19 UNL     1       0.961   7.546   9.274  1.00  0.00     0.001 A 
HETATM   24  C20 UNL     1       2.130   6.804   9.090  1.00  0.00     0.000 A 
HETATM   25  C21 UNL     1       2.450   5.772   9.973  1.00  0.00     0.001 A 
HETATM   26  C22 UNL     1       1.613   5.492  11.054  1.00  0.00     0.012 A 
ENDBRANCH   2  21
TORSDOF 6
ENDMDL
MODEL 9
REMARK minimizedAffinity -6.55081892
REMARK  6 active torsions:
REMARK  status: ('A' for Active; 'I' for Inactive)
REMARK    1  A    between atoms: O1_2  and  C2_3 
REMARK    2  A    between atoms: C7_8  and  C8_9 
REMARK    3  A    between atoms: C8_9  and  C9_10 
REMARK    4  A    between atoms: C9_10  and  O3_12 
REMARK    5  A    between atoms: C10_13  and  C11_14 
REMARK    6  A    between atoms: C10_13  and  C17_20 
ROOT
HETATM    1  C8  UNL     1      -1.767   7.475  14.828  1.00  0.00     0.062 C 
HETATM    2  C10 UNL     1      -2.114   6.802  13.697  1.00  0.00     0.002 C 
ENDROOT
BRANCH   1   3
HETATM    3  C7  UNL     1      -0.423   8.060  15.054  1.00  0.00     0.015 A 
HETATM    4  C2  UNL     1      -0.101   9.357  14.608  1.00  0.00     0.079 A 
HETATM    5  C3  UNL     1       1.188   9.856  14.834  1.00  0.00     0.037 A 
HETATM    6  C4  UNL     1       2.145   9.081  15.498  1.00  0.00     0.003 A 
HETATM    7  C5  UNL     1       1.827   7.801  15.939  1.00  0.00     0.001 A 
HETATM    8  C6  UNL     1       0.548   7.291  15.717  1.00  0.00     0.015 A 
BRANCH   4   9
HETATM    9  O1  UNL     1      -1.102  10.046  13.972  1.00  0.00    -0.355 OA
HETATM   10  C1  UNL     1      -1.442  11.330  14.483  1.00  0.00     0.210 C 
ENDBRANCH   4   9
ENDBRANCH   1   3
BRANCH   1  11
HETATM   11  C9  UNL     1      -2.768   7.727  15.889  1.00  0.00     0.178 C 
HETATM   12  O2  UNL     1      -3.289   8.799  16.135  1.00  0.00    -0.646 OA
BRANCH  11  13
HETATM   13  O3  UNL     1      -3.031   6.630  16.620  1.00  0.00    -0.773 OA
HETATM   14  H8  UNL     1      -3.696   6.938  17.268  1.00  0.00     0.167 HD
ENDBRANCH  11  13
ENDBRANCH   1  11
BRANCH   2  15
HETATM   15  C11 UNL     1      -3.515   6.348  13.494  1.00  0.00    -0.024 A 
HETATM   16  C12 UNL     1      -3.832   4.977  13.488  1.00  0.00     0.012 A 
HETATM   17  C13 UNL     1      -5.154   4.562  13.309  1.00  0.00     0.001 A 
HETATM   18  C14 UNL     1      -6.165   5.509  13.129  1.00  0.00     0.000 A 
HETATM   19  C15 UNL     1      -5.857   6.874  13.130  1.00  0.00     0.001 A 
HETATM   20  C16 UNL     1      -4.538   7.294  13.317  1.00  0.00     0.012 A 
ENDBRANCH   2  15
BRANCH   2  21
HETATM   21  C17 UNL     1      -1.094   6.539  12.648  1.00  0.00    -0.024 A 
HETATM   22  C18 UNL     1      -0.327   5.362  12.691  1.00  0.00     0.012 A 
HETATM   23  C19 UNL     1       0.625   5.111  11.701  1.00  0.00     0.001 A 
HETATM   24  C20 UNL     1       0.828   6.034  10.673  1.00  0.00     0.000 A 
HETATM   25  C21 UNL     1       0.088   7.217  10.638  1.00  0.00     0.001 A 
HETATM   26  C22 UNL     1      -0.871   7.470  11.620  1.00  0.00     0.012 A 
ENDBRANCH   2  21
TORSDOF 6
ENDMDL
