MODEL 1
REMARK minimizedAffinity -6.8907752
REMARK CNNscore 0.593845546
REMARK CNNaffinity 7.13275385
REMARK  13 active torsions:
REMARK  status: ('A' for Active; 'I' for Inactive)
REMARK    1  A    between atoms: O1_2  and  C2_3 
REMARK    2  A    between atoms: C3_5  and  C4_6 
REMARK    3  A    between atoms: C4_6  and  O3_7 
REMARK    4  A    between atoms: C4_6  and  C5_8 
REMARK    5  A    between atoms: C5_8  and  O4_10 
REMARK    6  A    between atoms: C5_8  and  C7_11 
REMARK    7  A    between atoms: C7_11  and  O5_12 
REMARK    8  A    between atoms: C9_14  and  C10_15 
REMARK    9  A    between atoms: C23_28  and  O6_29 
REMARK   10  A    between atoms: O6_29  and  C24_30 
REMARK   11  A    between atoms: C24_30  and  C25_32 
REMARK   12  A    between atoms: C25_32  and  C26_33 
REMARK   13  A    between atoms: C34_41  and  O8_42 
ROOT
HETATM    1  C10 UNL     1      -2.450  53.251  -9.516  1.00  0.00     0.004 C 
HETATM    2  C11 UNL     1      -2.590  54.403 -10.543  1.00  0.00     0.007 C 
HETATM    3  C12 UNL     1      -1.311  55.236 -10.384  1.00  0.00     0.011 C 
HETATM    4  C13 UNL     1      -0.251  54.248  -9.909  1.00  0.00    -0.021 A 
HETATM    5  C14 UNL     1      -0.124  52.987 -10.737  1.00  0.00     0.022 A 
HETATM    6  C15 UNL     1      -0.950  52.981  -9.459  1.00  0.00    -0.027 A 
HETATM    7  C16 UNL     1      -0.413  52.167  -8.303  1.00  0.00     0.011 C 
HETATM    8  C17 UNL     1       0.735  52.808  -7.513  1.00  0.00     0.007 C 
HETATM    9  C18 UNL     1       1.721  53.595  -8.400  1.00  0.00     0.005 C 
HETATM   10  C19 UNL     1       3.128  53.912  -7.726  1.00  0.00    -0.035 C 
HETATM   11  C20 UNL     1       2.977  54.646  -6.375  1.00  0.00     0.016 C 
HETATM   12  C21 UNL     1       3.850  52.548  -7.434  1.00  0.00     0.012 C 
HETATM   13  C22 UNL     1       5.328  52.487  -7.838  1.00  0.00     0.034 C 
HETATM   14  C23 UNL     1       6.097  53.779  -7.554  1.00  0.00     0.140 C 
HETATM   15  C29 UNL     1       5.489  55.003  -8.324  1.00  0.00    -0.016 C 
HETATM   16  C30 UNL     1       5.661  56.316  -7.533  1.00  0.00     0.018 C 
HETATM   17  C31 UNL     1       6.328  55.170  -9.626  1.00  0.00     0.018 C 
HETATM   18  C32 UNL     1       3.992  54.723  -8.756  1.00  0.00     0.007 C 
HETATM   19  C33 UNL     1       3.237  55.965  -9.293  1.00  0.00     0.038 C 
HETATM   20  C34 UNL     1       1.934  55.578 -10.008  1.00  0.00     0.128 C 
HETATM   21  C35 UNL     1       0.959  54.799  -9.080  1.00  0.00    -0.005 C 
HETATM   22  C36 UNL     1       0.387  55.791  -8.026  1.00  0.00     0.019 C 
ENDROOT
BRANCH   1  23
HETATM   23  C9  UNL     1      -3.422  52.109  -9.836  1.00  0.00     0.048 C 
HETATM   24  C2  UNL     1      -3.750  51.743 -11.281  1.00  0.00     0.264 C 
HETATM   25  O2  UNL     1      -4.497  50.520 -11.173  1.00  0.00    -0.353 OA
HETATM   26  C3  UNL     1      -4.166  49.875  -9.921  1.00  0.00     0.157 C 
HETATM   27  C8  UNL     1      -3.079  50.742  -9.280  1.00  0.00     0.044 C 
BRANCH  24  28
HETATM   28  O1  UNL     1      -2.587  51.464 -12.049  1.00  0.00    -0.366 OA
HETATM   29  C1  UNL     1      -2.627  52.099 -13.320  1.00  0.00     0.204 C 
ENDBRANCH  24  28
BRANCH  26  30
HETATM   30  C4  UNL     1      -3.698  48.427 -10.181  1.00  0.00     0.183 C 
BRANCH  30  31
HETATM   31  O3  UNL     1      -2.296  48.309  -9.900  1.00  0.00    -0.390 OA
HETATM   32  H7  UNL     1      -1.932  49.220  -9.928  1.00  0.00     0.210 HD
ENDBRANCH  30  31
BRANCH  30  33
HETATM   33  C5  UNL     1      -4.026  47.855 -11.593  1.00  0.00     0.103 C 
HETATM   34  C6  UNL     1      -4.151  46.325 -11.527  1.00  0.00     0.051 C 
BRANCH  33  35
HETATM   35  O4  UNL     1      -5.304  48.380 -12.029  1.00  0.00    -0.385 OA
HETATM   36  H11 UNL     1      -5.994  47.952 -11.490  1.00  0.00     0.210 HD
ENDBRANCH  33  35
BRANCH  33  37
HETATM   37  C7  UNL     1      -3.002  48.223 -12.687  1.00  0.00     0.204 C 
BRANCH  37  38
HETATM   38  O5  UNL     1      -3.630  48.956 -13.741  1.00  0.00    -0.398 OA
HETATM   39  H14 UNL     1      -4.506  48.534 -13.842  1.00  0.00     0.209 HD
ENDBRANCH  37  38
ENDBRANCH  33  37
ENDBRANCH  30  33
ENDBRANCH  26  30
ENDBRANCH   1  23
BRANCH  20  40
HETATM   40  O8  UNL     1       2.283  54.792 -11.153  1.00  0.00    -0.395 OA
HETATM   41  H57 UNL     1       2.788  55.362 -11.756  1.00  0.00     0.210 HD
ENDBRANCH  20  40
BRANCH  14  42
HETATM   42  O6  UNL     1       6.084  53.967  -6.124  1.00  0.00    -0.315 OA
BRANCH  42  43
HETATM   43  C24 UNL     1       7.254  53.769  -5.450  1.00  0.00     0.259 C 
HETATM   44  O7  UNL     1       7.801  52.689  -5.292  1.00  0.00    -0.265 OA
BRANCH  43  45
HETATM   45  C25 UNL     1       7.762  55.111  -4.962  1.00  0.00     0.115 C 
BRANCH  45  46
HETATM   46  C26 UNL     1       9.190  55.135  -4.393  1.00  0.00    -0.013 C 
HETATM   47  C27 UNL     1       9.763  53.732  -4.180  1.00  0.00     0.010 C 
HETATM   48  C28 UNL     1      10.141  56.004  -5.215  1.00  0.00     0.010 C 
ENDBRANCH  45  46
ENDBRANCH  43  45
ENDBRANCH  42  43
ENDBRANCH  14  42
TORSDOF 13
ENDMDL
MODEL 2
REMARK minimizedAffinity -7.08330631
REMARK CNNscore 0.455849737
REMARK CNNaffinity 6.52821589
REMARK  13 active torsions:
REMARK  status: ('A' for Active; 'I' for Inactive)
REMARK    1  A    between atoms: O1_2  and  C2_3 
REMARK    2  A    between atoms: C3_5  and  C4_6 
REMARK    3  A    between atoms: C4_6  and  O3_7 
REMARK    4  A    between atoms: C4_6  and  C5_8 
REMARK    5  A    between atoms: C5_8  and  O4_10 
REMARK    6  A    between atoms: C5_8  and  C7_11 
REMARK    7  A    between atoms: C7_11  and  O5_12 
REMARK    8  A    between atoms: C9_14  and  C10_15 
REMARK    9  A    between atoms: C23_28  and  O6_29 
REMARK   10  A    between atoms: O6_29  and  C24_30 
REMARK   11  A    between atoms: C24_30  and  C25_32 
REMARK   12  A    between atoms: C25_32  and  C26_33 
REMARK   13  A    between atoms: C34_41  and  O8_42 
ROOT
HETATM    1  C10 UNL     1       1.930  55.372 -10.329  1.00  0.00     0.004 C 
HETATM    2  C11 UNL     1       3.335  55.063 -10.906  1.00  0.00     0.007 C 
HETATM    3  C12 UNL     1       4.321  55.664  -9.894  1.00  0.00     0.011 C 
HETATM    4  C13 UNL     1       3.596  55.611  -8.554  1.00  0.00    -0.021 A 
HETATM    5  C14 UNL     1       3.009  54.264  -8.190  1.00  0.00     0.022 A 
HETATM    6  C15 UNL     1       2.128  55.335  -8.818  1.00  0.00    -0.027 A 
HETATM    7  C16 UNL     1       1.056  55.939  -7.940  1.00  0.00     0.011 C 
HETATM    8  C17 UNL     1       1.536  56.983  -6.924  1.00  0.00     0.007 C 
HETATM    9  C18 UNL     1       2.910  56.649  -6.309  1.00  0.00     0.005 C 
HETATM   10  C19 UNL     1       3.259  57.438  -4.970  1.00  0.00    -0.035 C 
HETATM   11  C20 UNL     1       3.151  58.969  -5.149  1.00  0.00     0.016 C 
HETATM   12  C21 UNL     1       2.215  57.025  -3.872  1.00  0.00     0.012 C 
HETATM   13  C22 UNL     1       2.805  56.697  -2.495  1.00  0.00     0.034 C 
HETATM   14  C23 UNL     1       3.952  57.619  -2.081  1.00  0.00     0.140 C 
HETATM   15  C29 UNL     1       5.151  57.554  -3.092  1.00  0.00    -0.016 C 
HETATM   16  C30 UNL     1       5.888  58.905  -3.191  1.00  0.00     0.018 C 
HETATM   17  C31 UNL     1       6.177  56.543  -2.498  1.00  0.00     0.018 C 
HETATM   18  C32 UNL     1       4.686  56.988  -4.496  1.00  0.00     0.007 C 
HETATM   19  C33 UNL     1       5.740  57.127  -5.623  1.00  0.00     0.038 C 
HETATM   20  C34 UNL     1       5.385  56.270  -6.848  1.00  0.00     0.128 C 
HETATM   21  C35 UNL     1       4.001  56.645  -7.450  1.00  0.00    -0.005 C 
HETATM   22  C36 UNL     1       4.125  58.036  -8.137  1.00  0.00     0.019 C 
ENDROOT
BRANCH   1  23
HETATM   23  C9  UNL     1       0.862  54.486 -10.983  1.00  0.00     0.048 C 
HETATM   24  C2  UNL     1       1.043  52.973 -11.063  1.00  0.00     0.264 C 
HETATM   25  O2  UNL     1      -0.229  52.490 -11.526  1.00  0.00    -0.353 OA
HETATM   26  C3  UNL     1      -1.250  53.462 -11.198  1.00  0.00     0.157 C 
HETATM   27  C8  UNL     1      -0.538  54.563 -10.406  1.00  0.00     0.044 C 
BRANCH  24  28
HETATM   28  O1  UNL     1       1.282  52.386  -9.790  1.00  0.00    -0.366 OA
HETATM   29  C1  UNL     1       1.600  51.005  -9.896  1.00  0.00     0.204 C 
ENDBRANCH  24  28
BRANCH  26  30
HETATM   30  C4  UNL     1      -2.382  52.788 -10.395  1.00  0.00     0.183 C 
BRANCH  30  31
HETATM   31  O3  UNL     1      -1.923  51.541  -9.854  1.00  0.00    -0.390 OA
HETATM   32  H7  UNL     1      -1.138  51.284 -10.384  1.00  0.00     0.210 HD
ENDBRANCH  30  31
BRANCH  30  33
HETATM   33  C5  UNL     1      -3.727  52.594 -11.158  1.00  0.00     0.103 C 
HETATM   34  C6  UNL     1      -4.370  51.255 -10.762  1.00  0.00     0.051 C 
BRANCH  33  35
HETATM   35  O4  UNL     1      -4.643  53.649 -10.774  1.00  0.00    -0.385 OA
HETATM   36  H11 UNL     1      -4.922  53.473  -9.857  1.00  0.00     0.210 HD
ENDBRANCH  33  35
BRANCH  33  37
HETATM   37  C7  UNL     1      -3.607  52.652 -12.695  1.00  0.00     0.204 C 
BRANCH  37  38
HETATM   38  O5  UNL     1      -4.248  53.821 -13.208  1.00  0.00    -0.398 OA
HETATM   39  H14 UNL     1      -5.049  53.922 -12.655  1.00  0.00     0.209 HD
ENDBRANCH  37  38
ENDBRANCH  33  37
ENDBRANCH  30  33
ENDBRANCH  26  30
ENDBRANCH   1  23
BRANCH  20  40
HETATM   40  O8  UNL     1       5.409  54.898  -6.440  1.00  0.00    -0.395 OA
HETATM   41  H57 UNL     1       6.322  54.683  -6.189  1.00  0.00     0.210 HD
ENDBRANCH  20  40
BRANCH  14  42
HETATM   42  O6  UNL     1       3.401  58.947  -1.969  1.00  0.00    -0.315 OA
BRANCH  42  43
HETATM   43  C24 UNL     1       3.149  59.424  -0.715  1.00  0.00     0.259 C 
HETATM   44  O7  UNL     1       3.997  59.812   0.073  1.00  0.00    -0.265 OA
BRANCH  43  45
HETATM   45  C25 UNL     1       1.651  59.412  -0.486  1.00  0.00     0.115 C 
BRANCH  45  46
HETATM   46  C26 UNL     1       0.823  60.390  -1.334  1.00  0.00    -0.013 C 
HETATM   47  C27 UNL     1       1.643  61.585  -1.824  1.00  0.00     0.010 C 
HETATM   48  C28 UNL     1       0.096  59.704  -2.490  1.00  0.00     0.010 C 
ENDBRANCH  45  46
ENDBRANCH  43  45
ENDBRANCH  42  43
ENDBRANCH  14  42
TORSDOF 13
ENDMDL
MODEL 3
REMARK minimizedAffinity -7.75111771
REMARK CNNscore 0.413994014
REMARK CNNaffinity 6.02465773
REMARK  13 active torsions:
REMARK  status: ('A' for Active; 'I' for Inactive)
REMARK    1  A    between atoms: O1_2  and  C2_3 
REMARK    2  A    between atoms: C3_5  and  C4_6 
REMARK    3  A    between atoms: C4_6  and  O3_7 
REMARK    4  A    between atoms: C4_6  and  C5_8 
REMARK    5  A    between atoms: C5_8  and  O4_10 
REMARK    6  A    between atoms: C5_8  and  C7_11 
REMARK    7  A    between atoms: C7_11  and  O5_12 
REMARK    8  A    between atoms: C9_14  and  C10_15 
REMARK    9  A    between atoms: C23_28  and  O6_29 
REMARK   10  A    between atoms: O6_29  and  C24_30 
REMARK   11  A    between atoms: C24_30  and  C25_32 
REMARK   12  A    between atoms: C25_32  and  C26_33 
REMARK   13  A    between atoms: C34_41  and  O8_42 
ROOT
HETATM    1  C10 UNL     1     -13.469  46.250 -27.156  1.00  0.00     0.004 C 
HETATM    2  C11 UNL     1     -13.257  47.705 -26.665  1.00  0.00     0.007 C 
HETATM    3  C12 UNL     1     -11.816  48.054 -27.065  1.00  0.00     0.011 C 
HETATM    4  C13 UNL     1     -11.534  47.210 -28.304  1.00  0.00    -0.021 A 
HETATM    5  C14 UNL     1     -12.570  47.308 -29.402  1.00  0.00     0.022 A 
HETATM    6  C15 UNL     1     -12.612  46.151 -28.414  1.00  0.00    -0.027 A 
HETATM    7  C16 UNL     1     -12.296  44.776 -28.958  1.00  0.00     0.011 C 
HETATM    8  C17 UNL     1     -10.810  44.476 -29.189  1.00  0.00     0.007 C 
HETATM    9  C18 UNL     1     -10.016  45.691 -29.710  1.00  0.00     0.005 C 
HETATM   10  C19 UNL     1      -8.605  45.345 -30.362  1.00  0.00    -0.035 C 
HETATM   11  C20 UNL     1      -7.704  44.531 -29.406  1.00  0.00     0.016 C 
HETATM   12  C21 UNL     1      -8.858  44.454 -31.631  1.00  0.00     0.012 C 
HETATM   13  C22 UNL     1      -8.069  44.856 -32.883  1.00  0.00     0.034 C 
HETATM   14  C23 UNL     1      -6.634  45.297 -32.592  1.00  0.00     0.140 C 
HETATM   15  C29 UNL     1      -6.585  46.538 -31.633  1.00  0.00    -0.016 C 
HETATM   16  C30 UNL     1      -5.331  46.516 -30.735  1.00  0.00     0.018 C 
HETATM   17  C31 UNL     1      -6.444  47.795 -32.542  1.00  0.00     0.018 C 
HETATM   18  C32 UNL     1      -7.935  46.688 -30.821  1.00  0.00     0.007 C 
HETATM   19  C33 UNL     1      -7.880  47.728 -29.673  1.00  0.00     0.038 C 
HETATM   20  C34 UNL     1      -9.282  48.081 -29.153  1.00  0.00     0.128 C 
HETATM   21  C35 UNL     1     -10.047  46.836 -28.623  1.00  0.00    -0.005 C 
HETATM   22  C36 UNL     1      -9.385  46.384 -27.288  1.00  0.00     0.019 C 
ENDROOT
BRANCH   1  23
HETATM   23  C9  UNL     1     -14.962  45.905 -27.218  1.00  0.00     0.048 C 
HETATM   24  C2  UNL     1     -15.432  44.559 -27.764  1.00  0.00     0.264 C 
HETATM   25  O2  UNL     1     -16.835  44.525 -27.457  1.00  0.00    -0.353 OA
HETATM   26  C3  UNL     1     -17.097  45.416 -26.347  1.00  0.00     0.157 C 
HETATM   27  C8  UNL     1     -15.729  45.951 -25.912  1.00  0.00     0.044 C 
BRANCH  24  28
HETATM   28  O1  UNL     1     -14.825  43.460 -27.097  1.00  0.00    -0.366 OA
HETATM   29  C1  UNL     1     -15.037  42.238 -27.791  1.00  0.00     0.204 C 
ENDBRANCH  24  28
BRANCH  26  30
HETATM   30  C4  UNL     1     -17.825  44.654 -25.220  1.00  0.00     0.183 C 
BRANCH  30  31
HETATM   31  O3  UNL     1     -18.184  43.340 -25.670  1.00  0.00    -0.390 OA
HETATM   32  H7  UNL     1     -18.168  43.371 -26.650  1.00  0.00     0.210 HD
ENDBRANCH  30  31
BRANCH  30  33
HETATM   33  C5  UNL     1     -19.060  45.380 -24.604  1.00  0.00     0.103 C 
HETATM   34  C6  UNL     1     -18.601  46.593 -23.779  1.00  0.00     0.051 C 
BRANCH  33  35
HETATM   35  O4  UNL     1     -19.899  45.873 -25.678  1.00  0.00    -0.385 OA
HETATM   36  H11 UNL     1     -19.432  46.620 -26.093  1.00  0.00     0.210 HD
ENDBRANCH  33  35
BRANCH  33  37
HETATM   37  C7  UNL     1     -19.953  44.487 -23.720  1.00  0.00     0.204 C 
BRANCH  37  38
HETATM   38  O5  UNL     1     -19.851  44.870 -22.347  1.00  0.00    -0.398 OA
HETATM   39  H14 UNL     1     -18.906  45.097 -22.228  1.00  0.00     0.209 HD
ENDBRANCH  37  38
ENDBRANCH  33  37
ENDBRANCH  30  33
ENDBRANCH  26  30
ENDBRANCH   1  23
BRANCH  20  40
HETATM   40  O8  UNL     1     -10.001  48.701 -30.225  1.00  0.00    -0.395 OA
HETATM   41  H57 UNL     1      -9.549  49.535 -30.436  1.00  0.00     0.210 HD
ENDBRANCH  20  40
BRANCH  14  42
HETATM   42  O6  UNL     1      -5.949  44.152 -32.044  1.00  0.00    -0.315 OA
BRANCH  42  43
HETATM   43  C24 UNL     1      -5.747  43.082 -32.867  1.00  0.00     0.259 C 
HETATM   44  O7  UNL     1      -6.630  42.417 -33.386  1.00  0.00    -0.265 OA
BRANCH  43  45
HETATM   45  C25 UNL     1      -4.255  42.884 -33.044  1.00  0.00     0.115 C 
BRANCH  45  46
HETATM   46  C26 UNL     1      -3.819  41.629 -33.816  1.00  0.00    -0.013 C 
HETATM   47  C27 UNL     1      -3.871  41.823 -35.333  1.00  0.00     0.010 C 
HETATM   48  C28 UNL     1      -2.454  41.104 -33.371  1.00  0.00     0.010 C 
ENDBRANCH  45  46
ENDBRANCH  43  45
ENDBRANCH  42  43
ENDBRANCH  14  42
TORSDOF 13
ENDMDL
MODEL 4
REMARK minimizedAffinity -7.39184904
REMARK CNNscore 0.409196317
REMARK CNNaffinity 6.38624716
REMARK  13 active torsions:
REMARK  status: ('A' for Active; 'I' for Inactive)
REMARK    1  A    between atoms: O1_2  and  C2_3 
REMARK    2  A    between atoms: C3_5  and  C4_6 
REMARK    3  A    between atoms: C4_6  and  O3_7 
REMARK    4  A    between atoms: C4_6  and  C5_8 
REMARK    5  A    between atoms: C5_8  and  O4_10 
REMARK    6  A    between atoms: C5_8  and  C7_11 
REMARK    7  A    between atoms: C7_11  and  O5_12 
REMARK    8  A    between atoms: C9_14  and  C10_15 
REMARK    9  A    between atoms: C23_28  and  O6_29 
REMARK   10  A    between atoms: O6_29  and  C24_30 
REMARK   11  A    between atoms: C24_30  and  C25_32 
REMARK   12  A    between atoms: C25_32  and  C26_33 
REMARK   13  A    between atoms: C34_41  and  O8_42 
ROOT
HETATM    1  C10 UNL     1      -8.539  47.242 -30.571  1.00  0.00     0.004 C 
HETATM    2  C11 UNL     1      -7.460  46.513 -29.729  1.00  0.00     0.007 C 
HETATM    3  C12 UNL     1      -8.195  46.030 -28.471  1.00  0.00     0.011 C 
HETATM    4  C13 UNL     1      -9.640  45.819 -28.912  1.00  0.00    -0.021 A 
HETATM    5  C14 UNL     1      -9.819  44.970 -30.153  1.00  0.00     0.022 A 
HETATM    6  C15 UNL     1      -9.829  46.489 -30.259  1.00  0.00    -0.027 A 
HETATM    7  C16 UNL     1     -11.143  47.140 -30.624  1.00  0.00     0.011 C 
HETATM    8  C17 UNL     1     -12.170  47.250 -29.490  1.00  0.00     0.007 C 
HETATM    9  C18 UNL     1     -12.172  46.029 -28.548  1.00  0.00     0.005 C 
HETATM   10  C19 UNL     1     -13.468  45.885 -27.634  1.00  0.00    -0.035 C 
HETATM   11  C20 UNL     1     -13.741  47.159 -26.802  1.00  0.00     0.016 C 
HETATM   12  C21 UNL     1     -14.709  45.671 -28.573  1.00  0.00     0.012 C 
HETATM   13  C22 UNL     1     -15.667  44.551 -28.150  1.00  0.00     0.034 C 
HETATM   14  C23 UNL     1     -15.891  44.470 -26.640  1.00  0.00     0.140 C 
HETATM   15  C29 UNL     1     -14.553  44.210 -25.863  1.00  0.00    -0.016 C 
HETATM   16  C30 UNL     1     -14.564  44.873 -24.470  1.00  0.00     0.018 C 
HETATM   17  C31 UNL     1     -14.479  42.674 -25.609  1.00  0.00     0.018 C 
HETATM   18  C32 UNL     1     -13.295  44.608 -26.737  1.00  0.00     0.007 C 
HETATM   19  C33 UNL     1     -11.954  44.624 -25.961  1.00  0.00     0.038 C 
HETATM   20  C34 UNL     1     -10.745  44.673 -26.908  1.00  0.00     0.128 C 
HETATM   21  C35 UNL     1     -10.769  45.924 -27.832  1.00  0.00    -0.005 C 
HETATM   22  C36 UNL     1     -10.466  47.181 -26.964  1.00  0.00     0.019 C 
ENDROOT
BRANCH   1  23
HETATM   23  C9  UNL     1      -8.082  47.407 -32.024  1.00  0.00     0.048 C 
HETATM   24  C2  UNL     1      -7.073  46.442 -32.642  1.00  0.00     0.264 C 
HETATM   25  O2  UNL     1      -7.070  46.782 -34.039  1.00  0.00    -0.353 OA
HETATM   26  C3  UNL     1      -8.322  47.428 -34.369  1.00  0.00     0.157 C 
HETATM   27  C8  UNL     1      -9.161  47.390 -33.088  1.00  0.00     0.044 C 
BRANCH  24  28
HETATM   28  O1  UNL     1      -7.484  45.086 -32.536  1.00  0.00    -0.366 OA
HETATM   29  C1  UNL     1      -6.373  44.201 -32.469  1.00  0.00     0.204 C 
ENDBRANCH  24  28
BRANCH  26  30
HETATM   30  C4  UNL     1      -8.999  46.695 -35.546  1.00  0.00     0.183 C 
BRANCH  30  31
HETATM   31  O3  UNL     1      -8.602  45.316 -35.558  1.00  0.00    -0.390 OA
HETATM   32  H7  UNL     1      -7.776  45.264 -35.032  1.00  0.00     0.210 HD
ENDBRANCH  30  31
BRANCH  30  33
HETATM   33  C5  UNL     1      -8.790  47.339 -36.951  1.00  0.00     0.103 C 
HETATM   34  C6  UNL     1      -7.410  48.012 -37.023  1.00  0.00     0.051 C 
BRANCH  33  35
HETATM   35  O4  UNL     1      -8.821  46.295 -37.956  1.00  0.00    -0.385 OA
HETATM   36  H11 UNL     1      -8.000  45.778 -37.864  1.00  0.00     0.210 HD
ENDBRANCH  33  35
BRANCH  33  37
HETATM   37  C7  UNL     1      -9.867  48.368 -37.351  1.00  0.00     0.204 C 
BRANCH  37  38
HETATM   38  O5  UNL     1      -9.869  48.574 -38.765  1.00  0.00    -0.398 OA
HETATM   39  H14 UNL     1      -8.924  48.551 -39.015  1.00  0.00     0.209 HD
ENDBRANCH  37  38
ENDBRANCH  33  37
ENDBRANCH  30  33
ENDBRANCH  26  30
ENDBRANCH   1  23
BRANCH  20  40
HETATM   40  O8  UNL     1     -10.749  43.469 -27.683  1.00  0.00    -0.395 OA
HETATM   41  H57 UNL     1     -10.609  42.728 -27.070  1.00  0.00     0.210 HD
ENDBRANCH  20  40
BRANCH  14  42
HETATM   42  O6  UNL     1     -16.525  45.704 -26.245  1.00  0.00    -0.315 OA
BRANCH  42  43
HETATM   43  C24 UNL     1     -17.886  45.712 -26.148  1.00  0.00     0.259 C 
HETATM   44  O7  UNL     1     -18.651  45.192 -26.945  1.00  0.00    -0.265 OA
BRANCH  43  45
HETATM   45  C25 UNL     1     -18.275  46.447 -24.881  1.00  0.00     0.115 C 
BRANCH  45  46
HETATM   46  C26 UNL     1     -18.756  45.578 -23.708  1.00  0.00    -0.013 C 
HETATM   47  C27 UNL     1     -18.523  46.243 -22.349  1.00  0.00     0.010 C 
HETATM   48  C28 UNL     1     -20.207  45.123 -23.862  1.00  0.00     0.010 C 
ENDBRANCH  45  46
ENDBRANCH  43  45
ENDBRANCH  42  43
ENDBRANCH  14  42
TORSDOF 13
ENDMDL
MODEL 5
REMARK minimizedAffinity -8.67776012
REMARK CNNscore 0.362048507
REMARK CNNaffinity 7.28744555
REMARK  13 active torsions:
REMARK  status: ('A' for Active; 'I' for Inactive)
REMARK    1  A    between atoms: O1_2  and  C2_3 
REMARK    2  A    between atoms: C3_5  and  C4_6 
REMARK    3  A    between atoms: C4_6  and  O3_7 
REMARK    4  A    between atoms: C4_6  and  C5_8 
REMARK    5  A    between atoms: C5_8  and  O4_10 
REMARK    6  A    between atoms: C5_8  and  C7_11 
REMARK    7  A    between atoms: C7_11  and  O5_12 
REMARK    8  A    between atoms: C9_14  and  C10_15 
REMARK    9  A    between atoms: C23_28  and  O6_29 
REMARK   10  A    between atoms: O6_29  and  C24_30 
REMARK   11  A    between atoms: C24_30  and  C25_32 
REMARK   12  A    between atoms: C25_32  and  C26_33 
REMARK   13  A    between atoms: C34_41  and  O8_42 
ROOT
HETATM    1  C10 UNL     1      -0.870  50.297 -19.692  1.00  0.00     0.004 C 
HETATM    2  C11 UNL     1      -1.794  49.053 -19.651  1.00  0.00     0.007 C 
HETATM    3  C12 UNL     1      -1.723  48.552 -18.201  1.00  0.00     0.011 C 
HETATM    4  C13 UNL     1      -1.439  49.795 -17.366  1.00  0.00    -0.021 A 
HETATM    5  C14 UNL     1      -2.361  50.969 -17.619  1.00  0.00     0.022 A 
HETATM    6  C15 UNL     1      -1.001  50.906 -18.300  1.00  0.00    -0.027 A 
HETATM    7  C16 UNL     1       0.029  51.924 -17.865  1.00  0.00     0.011 C 
HETATM    8  C17 UNL     1       0.726  51.639 -16.529  1.00  0.00     0.007 C 
HETATM    9  C18 UNL     1      -0.211  51.018 -15.472  1.00  0.00     0.005 C 
HETATM   10  C19 UNL     1       0.321  51.094 -13.973  1.00  0.00    -0.035 C 
HETATM   11  C20 UNL     1       1.728  50.474 -13.819  1.00  0.00     0.016 C 
HETATM   12  C21 UNL     1       0.436  52.609 -13.571  1.00  0.00     0.012 C 
HETATM   13  C22 UNL     1      -0.135  52.967 -12.193  1.00  0.00     0.034 C 
HETATM   14  C23 UNL     1       0.147  51.917 -11.117  1.00  0.00     0.140 C 
HETATM   15  C29 UNL     1      -0.463  50.520 -11.488  1.00  0.00    -0.016 C 
HETATM   16  C30 UNL     1       0.391  49.360 -10.937  1.00  0.00     0.018 C 
HETATM   17  C31 UNL     1      -1.837  50.429 -10.759  1.00  0.00     0.018 C 
HETATM   18  C32 UNL     1      -0.742  50.410 -13.042  1.00  0.00     0.007 C 
HETATM   19  C33 UNL     1      -1.104  48.984 -13.529  1.00  0.00     0.038 C 
HETATM   20  C34 UNL     1      -1.693  48.996 -14.948  1.00  0.00     0.128 C 
HETATM   21  C35 UNL     1      -0.716  49.614 -15.988  1.00  0.00    -0.005 C 
HETATM   22  C36 UNL     1       0.461  48.620 -16.208  1.00  0.00     0.019 C 
ENDROOT
BRANCH   1  23
HETATM   23  C9  UNL     1      -1.156  51.152 -20.932  1.00  0.00     0.048 C 
HETATM   24  C2  UNL     1      -0.432  52.478 -21.152  1.00  0.00     0.264 C 
HETATM   25  O2  UNL     1      -0.793  52.858 -22.490  1.00  0.00    -0.353 OA
HETATM   26  C3  UNL     1      -1.173  51.674 -23.230  1.00  0.00     0.157 C 
HETATM   27  C8  UNL     1      -0.937  50.496 -22.281  1.00  0.00     0.044 C 
BRANCH  24  28
HETATM   28  O1  UNL     1       0.982  52.338 -21.117  1.00  0.00    -0.366 OA
HETATM   29  C1  UNL     1       1.633  53.592 -20.961  1.00  0.00     0.204 C 
ENDBRANCH  24  28
BRANCH  26  30
HETATM   30  C4  UNL     1      -0.340  51.572 -24.525  1.00  0.00     0.183 C 
BRANCH  30  31
HETATM   31  O3  UNL     1       0.957  52.151 -24.320  1.00  0.00    -0.390 OA
HETATM   32  H7  UNL     1       0.875  52.738 -23.538  1.00  0.00     0.210 HD
ENDBRANCH  30  31
BRANCH  30  33
HETATM   33  C5  UNL     1      -1.008  52.161 -25.805  1.00  0.00     0.103 C 
HETATM   34  C6  UNL     1      -1.568  51.026 -26.677  1.00  0.00     0.051 C 
BRANCH  33  35
HETATM   35  O4  UNL     1      -2.122  53.000 -25.410  1.00  0.00    -0.385 OA
HETATM   36  H11 UNL     1      -2.828  52.412 -25.085  1.00  0.00     0.210 HD
ENDBRANCH  33  35
BRANCH  33  37
HETATM   37  C7  UNL     1      -0.078  53.039 -26.667  1.00  0.00     0.204 C 
BRANCH  37  38
HETATM   38  O5  UNL     1       0.109  54.320 -26.064  1.00  0.00    -0.398 OA
HETATM   39  H14 UNL     1      -0.767  54.544 -25.690  1.00  0.00     0.209 HD
ENDBRANCH  37  38
ENDBRANCH  33  37
ENDBRANCH  30  33
ENDBRANCH  26  30
ENDBRANCH   1  23
BRANCH  20  40
HETATM   40  O8  UNL     1      -2.921  49.731 -14.904  1.00  0.00    -0.395 OA
HETATM   41  H57 UNL     1      -3.537  49.238 -14.336  1.00  0.00     0.210 HD
ENDBRANCH  20  40
BRANCH  14  42
HETATM   42  O6  UNL     1       1.579  51.864 -10.952  1.00  0.00    -0.315 OA
BRANCH  42  43
HETATM   43  C24 UNL     1       2.151  52.767 -10.102  1.00  0.00     0.259 C 
HETATM   44  O7  UNL     1       1.904  52.866  -8.911  1.00  0.00    -0.265 OA
BRANCH  43  45
HETATM   45  C25 UNL     1       3.153  53.595 -10.882  1.00  0.00     0.115 C 
BRANCH  45  46
HETATM   46  C26 UNL     1       3.662  54.874 -10.198  1.00  0.00    -0.013 C 
HETATM   47  C27 UNL     1       5.166  54.832  -9.917  1.00  0.00     0.010 C 
HETATM   48  C28 UNL     1       3.273  56.145 -10.953  1.00  0.00     0.010 C 
ENDBRANCH  45  46
ENDBRANCH  43  45
ENDBRANCH  42  43
ENDBRANCH  14  42
TORSDOF 13
ENDMDL
MODEL 6
REMARK minimizedAffinity -7.00543022
REMARK CNNscore 0.353770018
REMARK CNNaffinity 6.88991308
REMARK  13 active torsions:
REMARK  status: ('A' for Active; 'I' for Inactive)
REMARK    1  A    between atoms: O1_2  and  C2_3 
REMARK    2  A    between atoms: C3_5  and  C4_6 
REMARK    3  A    between atoms: C4_6  and  O3_7 
REMARK    4  A    between atoms: C4_6  and  C5_8 
REMARK    5  A    between atoms: C5_8  and  O4_10 
REMARK    6  A    between atoms: C5_8  and  C7_11 
REMARK    7  A    between atoms: C7_11  and  O5_12 
REMARK    8  A    between atoms: C9_14  and  C10_15 
REMARK    9  A    between atoms: C23_28  and  O6_29 
REMARK   10  A    between atoms: O6_29  and  C24_30 
REMARK   11  A    between atoms: C24_30  and  C25_32 
REMARK   12  A    between atoms: C25_32  and  C26_33 
REMARK   13  A    between atoms: C34_41  and  O8_42 
ROOT
HETATM    1  C10 UNL     1      -3.576  50.309 -22.738  1.00  0.00     0.004 C 
HETATM    2  C11 UNL     1      -3.227  51.300 -21.598  1.00  0.00     0.007 C 
HETATM    3  C12 UNL     1      -3.973  50.769 -20.366  1.00  0.00     0.011 C 
HETATM    4  C13 UNL     1      -4.074  49.263 -20.583  1.00  0.00    -0.021 A 
HETATM    5  C14 UNL     1      -2.772  48.569 -20.922  1.00  0.00     0.022 A 
HETATM    6  C15 UNL     1      -3.736  48.967 -22.031  1.00  0.00    -0.027 A 
HETATM    7  C16 UNL     1      -4.423  47.844 -22.774  1.00  0.00     0.011 C 
HETATM    8  C17 UNL     1      -5.597  47.181 -22.043  1.00  0.00     0.007 C 
HETATM    9  C18 UNL     1      -5.373  47.050 -20.523  1.00  0.00     0.005 C 
HETATM   10  C19 UNL     1      -6.333  46.014 -19.788  1.00  0.00    -0.035 C 
HETATM   11  C20 UNL     1      -7.827  46.313 -20.049  1.00  0.00     0.016 C 
HETATM   12  C21 UNL     1      -6.041  44.581 -20.363  1.00  0.00     0.012 C 
HETATM   13  C22 UNL     1      -5.902  43.469 -19.317  1.00  0.00     0.034 C 
HETATM   14  C23 UNL     1      -6.895  43.586 -18.159  1.00  0.00     0.140 C 
HETATM   15  C29 UNL     1      -6.727  44.936 -17.378  1.00  0.00    -0.016 C 
HETATM   16  C30 UNL     1      -8.071  45.436 -16.808  1.00  0.00     0.018 C 
HETATM   17  C31 UNL     1      -5.823  44.628 -16.147  1.00  0.00     0.018 C 
HETATM   18  C32 UNL     1      -5.979  46.018 -18.258  1.00  0.00     0.007 C 
HETATM   19  C33 UNL     1      -5.996  47.450 -17.666  1.00  0.00     0.038 C 
HETATM   20  C34 UNL     1      -4.984  48.371 -18.363  1.00  0.00     0.128 C 
HETATM   21  C35 UNL     1      -5.248  48.491 -19.891  1.00  0.00    -0.005 C 
HETATM   22  C36 UNL     1      -6.543  49.329 -20.100  1.00  0.00     0.019 C 
ENDROOT
BRANCH   1  23
HETATM   23  C9  UNL     1      -2.592  50.446 -23.905  1.00  0.00     0.048 C 
HETATM   24  C2  UNL     1      -2.675  49.517 -25.113  1.00  0.00     0.264 C 
HETATM   25  O2  UNL     1      -1.758  50.088 -26.061  1.00  0.00    -0.353 OA
HETATM   26  C3  UNL     1      -1.586  51.493 -25.762  1.00  0.00     0.157 C 
HETATM   27  C8  UNL     1      -2.539  51.792 -24.601  1.00  0.00     0.044 C 
BRANCH  24  28
HETATM   28  O1  UNL     1      -3.963  49.520 -25.713  1.00  0.00    -0.366 OA
HETATM   29  C1  UNL     1      -4.083  48.518 -26.715  1.00  0.00     0.204 C 
ENDBRANCH  24  28
BRANCH  26  30
HETATM   30  C4  UNL     1      -1.890  52.340 -27.016  1.00  0.00     0.183 C 
BRANCH  30  31
HETATM   31  O3  UNL     1      -2.362  51.495 -28.075  1.00  0.00    -0.390 OA
HETATM   32  H7  UNL     1      -2.073  50.585 -27.850  1.00  0.00     0.210 HD
ENDBRANCH  30  31
BRANCH  30  33
HETATM   33  C5  UNL     1      -0.725  53.248 -27.515  1.00  0.00     0.103 C 
HETATM   34  C6  UNL     1       0.248  52.429 -28.378  1.00  0.00     0.051 C 
BRANCH  33  35
HETATM   35  O4  UNL     1      -1.272  54.299 -28.351  1.00  0.00    -0.385 OA
HETATM   36  H11 UNL     1      -1.559  53.887 -29.186  1.00  0.00     0.210 HD
ENDBRANCH  33  35
BRANCH  33  37
HETATM   37  C7  UNL     1       0.071  53.945 -26.393  1.00  0.00     0.204 C 
BRANCH  37  38
HETATM   38  O5  UNL     1       0.156  55.351 -26.633  1.00  0.00    -0.398 OA
HETATM   39  H14 UNL     1       0.273  55.426 -27.602  1.00  0.00     0.209 HD
ENDBRANCH  37  38
ENDBRANCH  33  37
ENDBRANCH  30  33
ENDBRANCH  26  30
ENDBRANCH   1  23
BRANCH  20  40
HETATM   40  O8  UNL     1      -3.675  47.847 -18.113  1.00  0.00    -0.395 OA
HETATM   41  H57 UNL     1      -3.513  47.908 -17.157  1.00  0.00     0.210 HD
ENDBRANCH  20  40
BRANCH  14  42
HETATM   42  O6  UNL     1      -8.213  43.437 -18.723  1.00  0.00    -0.315 OA
BRANCH  42  43
HETATM   43  C24 UNL     1      -8.755  42.184 -18.743  1.00  0.00     0.259 C 
HETATM   44  O7  UNL     1      -9.391  41.707 -19.670  1.00  0.00    -0.265 OA
BRANCH  43  45
HETATM   45  C25 UNL     1      -8.410  41.489 -17.441  1.00  0.00     0.115 C 
BRANCH  45  46
HETATM   46  C26 UNL     1      -7.763  40.100 -17.559  1.00  0.00    -0.013 C 
HETATM   47  C27 UNL     1      -6.349  40.058 -16.976  1.00  0.00     0.010 C 
HETATM   48  C28 UNL     1      -8.636  38.988 -16.979  1.00  0.00     0.010 C 
ENDBRANCH  45  46
ENDBRANCH  43  45
ENDBRANCH  42  43
ENDBRANCH  14  42
TORSDOF 13
ENDMDL
MODEL 7
REMARK minimizedAffinity -6.97716379
REMARK CNNscore 0.342651576
REMARK CNNaffinity 5.71082067
REMARK  13 active torsions:
REMARK  status: ('A' for Active; 'I' for Inactive)
REMARK    1  A    between atoms: O1_2  and  C2_3 
REMARK    2  A    between atoms: C3_5  and  C4_6 
REMARK    3  A    between atoms: C4_6  and  O3_7 
REMARK    4  A    between atoms: C4_6  and  C5_8 
REMARK    5  A    between atoms: C5_8  and  O4_10 
REMARK    6  A    between atoms: C5_8  and  C7_11 
REMARK    7  A    between atoms: C7_11  and  O5_12 
REMARK    8  A    between atoms: C9_14  and  C10_15 
REMARK    9  A    between atoms: C23_28  and  O6_29 
REMARK   10  A    between atoms: O6_29  and  C24_30 
REMARK   11  A    between atoms: C24_30  and  C25_32 
REMARK   12  A    between atoms: C25_32  and  C26_33 
REMARK   13  A    between atoms: C34_41  and  O8_42 
ROOT
HETATM    1  C10 UNL     1     -14.366  44.708 -25.167  1.00  0.00     0.004 C 
HETATM    2  C11 UNL     1     -14.249  45.863 -24.141  1.00  0.00     0.007 C 
HETATM    3  C12 UNL     1     -12.993  46.641 -24.559  1.00  0.00     0.011 C 
HETATM    4  C13 UNL     1     -12.880  46.431 -26.065  1.00  0.00    -0.021 A 
HETATM    5  C14 UNL     1     -14.137  46.725 -26.855  1.00  0.00     0.022 A 
HETATM    6  C15 UNL     1     -13.803  45.294 -26.458  1.00  0.00    -0.027 A 
HETATM    7  C16 UNL     1     -13.432  44.345 -27.573  1.00  0.00     0.011 C 
HETATM    8  C17 UNL     1     -12.007  44.485 -28.123  1.00  0.00     0.007 C 
HETATM    9  C18 UNL     1     -11.519  45.947 -28.187  1.00  0.00     0.005 C 
HETATM   10  C19 UNL     1     -10.254  46.195 -29.122  1.00  0.00    -0.035 C 
HETATM   11  C20 UNL     1      -9.062  45.286 -28.745  1.00  0.00     0.016 C 
HETATM   12  C21 UNL     1     -10.658  45.839 -30.598  1.00  0.00     0.012 C 
HETATM   13  C22 UNL     1     -10.228  46.858 -31.660  1.00  0.00     0.034 C 
HETATM   14  C23 UNL     1      -8.836  47.447 -31.421  1.00  0.00     0.140 C 
HETATM   15  C29 UNL     1      -8.745  48.193 -30.044  1.00  0.00    -0.016 C 
HETATM   16  C30 UNL     1      -7.332  48.092 -29.433  1.00  0.00     0.018 C 
HETATM   17  C31 UNL     1      -8.980  49.704 -30.342  1.00  0.00     0.018 C 
HETATM   18  C32 UNL     1      -9.890  47.721 -29.058  1.00  0.00     0.007 C 
HETATM   19  C33 UNL     1      -9.724  48.214 -27.599  1.00  0.00     0.038 C 
HETATM   20  C34 UNL     1     -11.010  48.026 -26.780  1.00  0.00     0.128 C 
HETATM   21  C35 UNL     1     -11.463  46.539 -26.725  1.00  0.00    -0.005 C 
HETATM   22  C36 UNL     1     -10.468  45.756 -25.821  1.00  0.00     0.019 C 
ENDROOT
BRANCH   1  23
HETATM   23  C9  UNL     1     -15.774  44.102 -25.153  1.00  0.00     0.048 C 
HETATM   24  C2  UNL     1     -16.959  44.889 -24.599  1.00  0.00     0.264 C 
HETATM   25  O2  UNL     1     -18.105  44.098 -24.954  1.00  0.00    -0.353 OA
HETATM   26  C3  UNL     1     -17.769  43.266 -26.089  1.00  0.00     0.157 C 
HETATM   27  C8  UNL     1     -16.342  43.658 -26.486  1.00  0.00     0.044 C 
BRANCH  24  28
HETATM   28  O1  UNL     1     -17.108  46.158 -25.223  1.00  0.00    -0.366 OA
HETATM   29  C1  UNL     1     -18.218  46.876 -24.702  1.00  0.00     0.204 C 
ENDBRANCH  24  28
BRANCH  26  30
HETATM   30  C4  UNL     1     -18.787  43.490 -27.228  1.00  0.00     0.183 C 
BRANCH  30  31
HETATM   31  O3  UNL     1     -19.706  44.531 -26.864  1.00  0.00    -0.390 OA
HETATM   32  H7  UNL     1     -19.660  44.609 -25.887  1.00  0.00     0.210 HD
ENDBRANCH  30  31
BRANCH  30  33
HETATM   33  C5  UNL     1     -19.555  42.221 -27.705  1.00  0.00     0.103 C 
HETATM   34  C6  UNL     1     -20.104  41.450 -26.493  1.00  0.00     0.051 C 
BRANCH  33  35
HETATM   35  O4  UNL     1     -20.687  42.631 -28.511  1.00  0.00    -0.385 OA
HETATM   36  H11 UNL     1     -21.343  43.031 -27.910  1.00  0.00     0.210 HD
ENDBRANCH  33  35
BRANCH  33  37
HETATM   37  C7  UNL     1     -18.723  41.255 -28.572  1.00  0.00     0.204 C 
BRANCH  37  38
HETATM   38  O5  UNL     1     -19.312  39.954 -28.588  1.00  0.00    -0.398 OA
HETATM   39  H14 UNL     1     -19.641  39.825 -27.675  1.00  0.00     0.209 HD
ENDBRANCH  37  38
ENDBRANCH  33  37
ENDBRANCH  30  33
ENDBRANCH  26  30
ENDBRANCH   1  23
BRANCH  20  40
HETATM   40  O8  UNL     1     -12.025  48.846 -27.370  1.00  0.00    -0.395 OA
HETATM   41  H57 UNL     1     -11.748  49.771 -27.270  1.00  0.00     0.210 HD
ENDBRANCH  20  40
BRANCH  14  42
HETATM   42  O6  UNL     1      -7.900  46.355 -31.517  1.00  0.00    -0.315 OA
BRANCH  42  43
HETATM   43  C24 UNL     1      -7.226  46.201 -32.695  1.00  0.00     0.259 C 
HETATM   44  O7  UNL     1      -7.279  45.214 -33.411  1.00  0.00    -0.265 OA
BRANCH  43  45
HETATM   45  C25 UNL     1      -6.436  47.465 -32.966  1.00  0.00     0.115 C 
BRANCH  45  46
HETATM   46  C26 UNL     1      -4.935  47.417 -32.635  1.00  0.00    -0.013 C 
HETATM   47  C27 UNL     1      -4.567  46.228 -31.746  1.00  0.00     0.010 C 
HETATM   48  C28 UNL     1      -4.051  47.474 -33.881  1.00  0.00     0.010 C 
ENDBRANCH  45  46
ENDBRANCH  43  45
ENDBRANCH  42  43
ENDBRANCH  14  42
TORSDOF 13
ENDMDL
MODEL 8
REMARK minimizedAffinity -7.10012007
REMARK CNNscore 0.338882118
REMARK CNNaffinity 7.09008074
REMARK  13 active torsions:
REMARK  status: ('A' for Active; 'I' for Inactive)
REMARK    1  A    between atoms: O1_2  and  C2_3 
REMARK    2  A    between atoms: C3_5  and  C4_6 
REMARK    3  A    between atoms: C4_6  and  O3_7 
REMARK    4  A    between atoms: C4_6  and  C5_8 
REMARK    5  A    between atoms: C5_8  and  O4_10 
REMARK    6  A    between atoms: C5_8  and  C7_11 
REMARK    7  A    between atoms: C7_11  and  O5_12 
REMARK    8  A    between atoms: C9_14  and  C10_15 
REMARK    9  A    between atoms: C23_28  and  O6_29 
REMARK   10  A    between atoms: O6_29  and  C24_30 
REMARK   11  A    between atoms: C24_30  and  C25_32 
REMARK   12  A    between atoms: C25_32  and  C26_33 
REMARK   13  A    between atoms: C34_41  and  O8_42 
ROOT
HETATM    1  C10 UNL     1      -5.720  46.037 -20.842  1.00  0.00     0.004 C 
HETATM    2  C11 UNL     1      -4.949  45.664 -19.550  1.00  0.00     0.007 C 
HETATM    3  C12 UNL     1      -3.626  46.439 -19.638  1.00  0.00     0.011 C 
HETATM    4  C13 UNL     1      -3.949  47.682 -20.461  1.00  0.00    -0.021 A 
HETATM    5  C14 UNL     1      -5.152  48.472 -19.994  1.00  0.00     0.022 A 
HETATM    6  C15 UNL     1      -5.292  47.472 -21.133  1.00  0.00    -0.027 A 
HETATM    7  C16 UNL     1      -5.568  48.037 -22.507  1.00  0.00     0.011 C 
HETATM    8  C17 UNL     1      -4.361  48.640 -23.235  1.00  0.00     0.007 C 
HETATM    9  C18 UNL     1      -3.393  49.389 -22.296  1.00  0.00     0.005 C 
HETATM   10  C19 UNL     1      -2.378  50.377 -23.022  1.00  0.00    -0.035 C 
HETATM   11  C20 UNL     1      -1.557  49.667 -24.122  1.00  0.00     0.016 C 
HETATM   12  C21 UNL     1      -3.213  51.507 -23.725  1.00  0.00     0.012 C 
HETATM   13  C22 UNL     1      -2.691  52.934 -23.517  1.00  0.00     0.034 C 
HETATM   14  C23 UNL     1      -1.166  53.044 -23.554  1.00  0.00     0.140 C 
HETATM   15  C29 UNL     1      -0.490  52.171 -22.440  1.00  0.00    -0.016 C 
HETATM   16  C30 UNL     1       0.883  51.633 -22.891  1.00  0.00     0.018 C 
HETATM   17  C31 UNL     1      -0.208  53.123 -21.240  1.00  0.00     0.018 C 
HETATM   18  C32 UNL     1      -1.469  51.038 -21.926  1.00  0.00     0.007 C 
HETATM   19  C33 UNL     1      -0.800  49.977 -21.015  1.00  0.00     0.038 C 
HETATM   20  C34 UNL     1      -1.839  49.119 -20.278  1.00  0.00     0.128 C 
HETATM   21  C35 UNL     1      -2.787  48.368 -21.256  1.00  0.00    -0.005 C 
HETATM   22  C36 UNL     1      -1.974  47.240 -21.958  1.00  0.00     0.019 C 
ENDROOT
BRANCH   1  23
HETATM   23  C9  UNL     1      -7.208  45.694 -20.711  1.00  0.00     0.048 C 
HETATM   24  C2  UNL     1      -7.993  46.083 -19.461  1.00  0.00     0.264 C 
HETATM   25  O2  UNL     1      -9.361  45.798 -19.801  1.00  0.00    -0.353 OA
HETATM   26  C3  UNL     1      -9.502  45.817 -21.240  1.00  0.00     0.157 C 
HETATM   27  C8  UNL     1      -8.132  46.227 -21.788  1.00  0.00     0.044 C 
BRANCH  24  28
HETATM   28  O1  UNL     1      -7.908  47.473 -19.175  1.00  0.00    -0.366 OA
HETATM   29  C1  UNL     1      -8.708  47.834 -18.058  1.00  0.00     0.204 C 
ENDBRANCH  24  28
BRANCH  26  30
HETATM   30  C4  UNL     1     -10.624  46.795 -21.648  1.00  0.00     0.183 C 
BRANCH  30  31
HETATM   31  O3  UNL     1     -11.378  47.183 -20.491  1.00  0.00    -0.390 OA
HETATM   32  H7  UNL     1     -11.204  46.502 -19.808  1.00  0.00     0.210 HD
ENDBRANCH  30  31
BRANCH  30  33
HETATM   33  C5  UNL     1     -11.573  46.298 -22.781  1.00  0.00     0.103 C 
HETATM   34  C6  UNL     1     -12.020  44.855 -22.499  1.00  0.00     0.051 C 
BRANCH  33  35
HETATM   35  O4  UNL     1     -12.760  47.128 -22.798  1.00  0.00    -0.385 OA
HETATM   36  H11 UNL     1     -13.283  46.905 -22.006  1.00  0.00     0.210 HD
ENDBRANCH  33  35
BRANCH  33  37
HETATM   37  C7  UNL     1     -10.968  46.364 -24.198  1.00  0.00     0.204 C 
BRANCH  37  38
HETATM   38  O5  UNL     1     -10.212  47.564 -24.370  1.00  0.00    -0.398 OA
HETATM   39  H14 UNL     1     -10.727  48.246 -23.895  1.00  0.00     0.209 HD
ENDBRANCH  37  38
ENDBRANCH  33  37
ENDBRANCH  30  33
ENDBRANCH  26  30
ENDBRANCH   1  23
BRANCH  20  40
HETATM   40  O8  UNL     1      -2.583  49.983 -19.412  1.00  0.00    -0.395 OA
HETATM   41  H57 UNL     1      -1.966  50.331 -18.746  1.00  0.00     0.210 HD
ENDBRANCH  20  40
BRANCH  14  42
HETATM   42  O6  UNL     1      -0.752  52.660 -24.880  1.00  0.00    -0.315 OA
BRANCH  42  43
HETATM   43  C24 UNL     1      -0.075  53.583 -25.624  1.00  0.00     0.259 C 
HETATM   44  O7  UNL     1       0.092  54.752 -25.312  1.00  0.00    -0.265 OA
BRANCH  43  45
HETATM   45  C25 UNL     1       0.450  52.905 -26.873  1.00  0.00     0.115 C 
BRANCH  45  46
HETATM   46  C26 UNL     1       1.522  51.822 -26.664  1.00  0.00    -0.013 C 
HETATM   47  C27 UNL     1       0.935  50.409 -26.647  1.00  0.00     0.010 C 
HETATM   48  C28 UNL     1       2.677  51.932 -27.659  1.00  0.00     0.010 C 
ENDBRANCH  45  46
ENDBRANCH  43  45
ENDBRANCH  42  43
ENDBRANCH  14  42
TORSDOF 13
ENDMDL
MODEL 9
REMARK minimizedAffinity -8.80514812
REMARK CNNscore 0.322064191
REMARK CNNaffinity 6.47458601
REMARK  13 active torsions:
REMARK  status: ('A' for Active; 'I' for Inactive)
REMARK    1  A    between atoms: O1_2  and  C2_3 
REMARK    2  A    between atoms: C3_5  and  C4_6 
REMARK    3  A    between atoms: C4_6  and  O3_7 
REMARK    4  A    between atoms: C4_6  and  C5_8 
REMARK    5  A    between atoms: C5_8  and  O4_10 
REMARK    6  A    between atoms: C5_8  and  C7_11 
REMARK    7  A    between atoms: C7_11  and  O5_12 
REMARK    8  A    between atoms: C9_14  and  C10_15 
REMARK    9  A    between atoms: C23_28  and  O6_29 
REMARK   10  A    between atoms: O6_29  and  C24_30 
REMARK   11  A    between atoms: C24_30  and  C25_32 
REMARK   12  A    between atoms: C25_32  and  C26_33 
REMARK   13  A    between atoms: C34_41  and  O8_42 
ROOT
HETATM    1  C10 UNL     1      -2.360  50.422 -21.861  1.00  0.00     0.004 C 
HETATM    2  C11 UNL     1      -1.349  49.253 -21.739  1.00  0.00     0.007 C 
HETATM    3  C12 UNL     1      -2.065  48.194 -20.889  1.00  0.00     0.011 C 
HETATM    4  C13 UNL     1      -3.550  48.399 -21.168  1.00  0.00    -0.021 A 
HETATM    5  C14 UNL     1      -3.933  48.446 -22.632  1.00  0.00     0.022 A 
HETATM    6  C15 UNL     1      -3.724  49.739 -21.856  1.00  0.00    -0.027 A 
HETATM    7  C16 UNL     1      -4.948  50.588 -21.602  1.00  0.00     0.011 C 
HETATM    8  C17 UNL     1      -5.872  50.106 -20.477  1.00  0.00     0.007 C 
HETATM    9  C18 UNL     1      -5.994  48.571 -20.403  1.00  0.00     0.005 C 
HETATM   10  C19 UNL     1      -7.236  48.033 -19.563  1.00  0.00    -0.035 C 
HETATM   11  C20 UNL     1      -7.263  48.606 -18.128  1.00  0.00     0.016 C 
HETATM   12  C21 UNL     1      -8.553  48.508 -20.276  1.00  0.00     0.012 C 
HETATM   13  C22 UNL     1      -9.637  47.436 -20.435  1.00  0.00     0.034 C 
HETATM   14  C23 UNL     1      -9.773  46.513 -19.223  1.00  0.00     0.140 C 
HETATM   15  C29 UNL     1      -8.441  45.739 -18.924  1.00  0.00    -0.016 C 
HETATM   16  C30 UNL     1      -8.263  45.471 -17.415  1.00  0.00     0.018 C 
HETATM   17  C31 UNL     1      -8.579  44.342 -19.598  1.00  0.00     0.018 C 
HETATM   18  C32 UNL     1      -7.197  46.464 -19.582  1.00  0.00     0.007 C 
HETATM   19  C33 UNL     1      -5.821  45.915 -19.128  1.00  0.00     0.038 C 
HETATM   20  C34 UNL     1      -4.682  46.402 -20.036  1.00  0.00     0.128 C 
HETATM   21  C35 UNL     1      -4.579  47.953 -20.075  1.00  0.00    -0.005 C 
HETATM   22  C36 UNL     1      -4.039  48.444 -18.699  1.00  0.00     0.019 C 
ENDROOT
BRANCH   1  23
HETATM   23  C9  UNL     1      -1.978  51.360 -23.011  1.00  0.00     0.048 C 
HETATM   24  C2  UNL     1      -0.897  52.422 -22.828  1.00  0.00     0.264 C 
HETATM   25  O2  UNL     1      -0.676  52.932 -24.153  1.00  0.00    -0.353 OA
HETATM   26  C3  UNL     1      -1.089  51.935 -25.117  1.00  0.00     0.157 C 
HETATM   27  C8  UNL     1      -1.506  50.710 -24.297  1.00  0.00     0.044 C 
BRANCH  24  28
HETATM   28  O1  UNL     1       0.334  51.873 -22.374  1.00  0.00    -0.366 OA
HETATM   29  C1  UNL     1       0.862  52.598 -21.272  1.00  0.00     0.204 C 
ENDBRANCH  24  28
BRANCH  26  30
HETATM   30  C4  UNL     1       0.068  51.632 -26.092  1.00  0.00     0.183 C 
BRANCH  30  31
HETATM   31  O3  UNL     1       1.303  52.127 -25.554  1.00  0.00    -0.390 OA
HETATM   32  H7  UNL     1       1.061  52.797 -24.880  1.00  0.00     0.210 HD
ENDBRANCH  30  31
BRANCH  30  33
HETATM   33  C5  UNL     1      -0.134  52.134 -27.554  1.00  0.00     0.103 C 
HETATM   34  C6  UNL     1       1.110  51.813 -28.399  1.00  0.00     0.051 C 
BRANCH  33  35
HETATM   35  O4  UNL     1      -1.255  51.429 -28.143  1.00  0.00    -0.385 OA
HETATM   36  H11 UNL     1      -0.972  50.510 -28.299  1.00  0.00     0.210 HD
ENDBRANCH  33  35
BRANCH  33  37
HETATM   37  C7  UNL     1      -0.444  53.639 -27.679  1.00  0.00     0.204 C 
BRANCH  37  38
HETATM   38  O5  UNL     1      -1.773  53.843 -28.162  1.00  0.00    -0.398 OA
HETATM   39  H14 UNL     1      -1.902  53.136 -28.826  1.00  0.00     0.209 HD
ENDBRANCH  37  38
ENDBRANCH  33  37
ENDBRANCH  30  33
ENDBRANCH  26  30
ENDBRANCH   1  23
BRANCH  20  40
HETATM   40  O8  UNL     1      -4.913  45.875 -21.347  1.00  0.00    -0.395 OA
HETATM   41  H57 UNL     1      -4.846  44.908 -21.289  1.00  0.00     0.210 HD
ENDBRANCH  20  40
BRANCH  14  42
HETATM   42  O6  UNL     1     -10.190  47.337 -18.115  1.00  0.00    -0.315 OA
BRANCH  42  43
HETATM   43  C24 UNL     1     -11.393  47.056 -17.536  1.00  0.00     0.259 C 
HETATM   44  O7  UNL     1     -11.583  46.920 -16.337  1.00  0.00    -0.265 OA
BRANCH  43  45
HETATM   45  C25 UNL     1     -12.444  46.970 -18.625  1.00  0.00     0.115 C 
BRANCH  45  46
HETATM   46  C26 UNL     1     -13.608  47.970 -18.532  1.00  0.00    -0.013 C 
HETATM   47  C27 UNL     1     -13.896  48.663 -19.866  1.00  0.00     0.010 C 
HETATM   48  C28 UNL     1     -14.875  47.353 -17.942  1.00  0.00     0.010 C 
ENDBRANCH  45  46
ENDBRANCH  43  45
ENDBRANCH  42  43
ENDBRANCH  14  42
TORSDOF 13
ENDMDL
