MODEL 1
REMARK minimizedAffinity -6.78430462
REMARK CNNscore 0.630125642
REMARK CNNaffinity 6.21971369
REMARK  15 active torsions:
REMARK  status: ('A' for Active; 'I' for Inactive)
REMARK    1  A    between atoms: C14_15  and  O2_16 
REMARK    2  A    between atoms: C14_15  and  C15_17 
REMARK    3  A    between atoms: C15_17  and  C16_19 
REMARK    4  A    between atoms: C16_19  and  O4_20 
REMARK    5  A    between atoms: O4_20  and  C17_21 
REMARK    6  A    between atoms: C17_21  and  C18_23 
REMARK    7  A    between atoms: C18_23  and  C19_24 
REMARK    8  A    between atoms: C19_24  and  C20_25 
REMARK       I    between atoms: C20_25  and  N1_27 
REMARK    9  A    between atoms: N1_27  and  C21_28 
REMARK   10  A    between atoms: C21_28  and  C22_29 
REMARK   11  A    between atoms: C22_29  and  C23_30 
REMARK   12  A    between atoms: C23_30  and  C24_31 
REMARK   13  A    between atoms: C24_31  and  C25_32 
REMARK   14  A    between atoms: C25_32  and  C26_33 
REMARK   15  A    between atoms: C26_33  and  O8_35 
ROOT
HETATM    1  C1  UNL     1      -2.783  49.663 -23.886  1.00  0.00     0.020 C 
HETATM    2  C2  UNL     1      -2.937  49.744 -22.350  1.00  0.00    -0.016 C 
HETATM    3  C3  UNL     1      -2.888  51.244 -21.922  1.00  0.00     0.022 C 
HETATM    4  C4  UNL     1      -1.498  51.858 -21.979  1.00  0.00     0.084 C 
HETATM    5  C5  UNL     1      -0.529  51.042 -21.166  1.00  0.00     0.149 C 
HETATM    6  O1  UNL     1       0.436  51.543 -20.596  1.00  0.00    -0.293 OA
HETATM    7  C6  UNL     1      -0.710  49.573 -21.139  1.00  0.00     0.053 C 
HETATM    8  C7  UNL     1      -1.773  48.981 -21.713  1.00  0.00    -0.068 C 
HETATM    9  C8  UNL     1      -1.848  47.476 -21.770  1.00  0.00     0.035 C 
HETATM   10  C9  UNL     1      -3.176  46.949 -21.242  1.00  0.00     0.010 C 
HETATM   11  C10 UNL     1      -4.383  47.593 -21.945  1.00  0.00    -0.004 C 
HETATM   12  C11 UNL     1      -5.779  46.984 -21.570  1.00  0.00     0.002 C 
HETATM   13  C12 UNL     1      -5.811  46.014 -20.381  1.00  0.00     0.009 C 
HETATM   14  C13 UNL     1      -6.024  46.891 -19.158  1.00  0.00     0.047 C 
HETATM   15  C14 UNL     1      -6.850  48.097 -19.635  1.00  0.00     0.128 C 
HETATM   16  C27 UNL     1      -6.931  47.982 -21.213  1.00  0.00    -0.002 C 
HETATM   17  C28 UNL     1      -8.273  47.323 -21.642  1.00  0.00     0.019 C 
HETATM   18  C29 UNL     1      -6.862  49.336 -21.954  1.00  0.00     0.013 C 
HETATM   19  C30 UNL     1      -5.524  49.718 -22.575  1.00  0.00     0.007 C 
HETATM   20  C31 UNL     1      -4.308  49.134 -21.850  1.00  0.00     0.002 C 
ENDROOT
BRANCH  15  21
HETATM   21  O2  UNL     1      -6.096  49.257 -19.234  1.00  0.00    -0.381 OA
HETATM   22  H19 UNL     1      -6.712  50.018 -19.259  1.00  0.00     0.211 HD
ENDBRANCH  15  21
BRANCH  15  23
HETATM   23  C15 UNL     1      -8.217  48.308 -18.938  1.00  0.00     0.185 C 
HETATM   24  O3  UNL     1      -8.595  49.464 -18.694  1.00  0.00    -0.292 OA
BRANCH  23  25
HETATM   25  C16 UNL     1      -9.050  47.093 -18.532  1.00  0.00     0.260 C 
BRANCH  25  26
HETATM   26  O4  UNL     1     -10.309  47.440 -17.953  1.00  0.00    -0.314 OA
BRANCH  26  27
HETATM   27  C17 UNL     1     -11.366  47.382 -18.806  1.00  0.00     0.259 C 
HETATM   28  O5  UNL     1     -11.276  47.338 -20.026  1.00  0.00    -0.265 OA
BRANCH  27  29
HETATM   29  C18 UNL     1     -12.654  47.330 -18.030  1.00  0.00     0.120 C 
BRANCH  29  30
HETATM   30  C19 UNL     1     -13.754  48.105 -18.745  1.00  0.00     0.112 C 
BRANCH  30  31
HETATM   31  C20 UNL     1     -14.729  47.174 -19.430  1.00  0.00     0.217 C 
HETATM   32  O6  UNL     1     -14.490  46.600 -20.486  1.00  0.00    -0.274 OA
HETATM   33  N1  UNL     1     -15.919  47.045 -18.744  1.00  0.00    -0.361 N 
HETATM   34  H26 UNL     1     -16.084  47.630 -17.935  1.00  0.00     0.162 HD
BRANCH  33  35
HETATM   35  C21 UNL     1     -17.022  46.267 -19.271  1.00  0.00     0.122 C 
BRANCH  35  36
HETATM   36  C22 UNL     1     -18.132  47.171 -19.799  1.00  0.00     0.020 C 
BRANCH  36  37
HETATM   37  C23 UNL     1     -19.266  46.426 -20.510  1.00  0.00     0.002 C 
BRANCH  37  38
HETATM   38  C24 UNL     1     -18.819  45.571 -21.700  1.00  0.00     0.010 C 
BRANCH  38  39
HETATM   39  C25 UNL     1     -18.271  46.396 -22.864  1.00  0.00     0.110 C 
BRANCH  39  40
HETATM   40  C26 UNL     1     -19.176  46.326 -24.066  1.00  0.00     0.139 C 
HETATM   41  O7  UNL     1     -19.840  45.377 -24.441  1.00  0.00    -0.650 OA
BRANCH  40  42
HETATM   42  O8  UNL     1     -19.180  47.481 -24.759  1.00  0.00    -0.776 OA
HETATM   43  H37 UNL     1     -19.799  47.309 -25.499  1.00  0.00     0.167 HD
ENDBRANCH  40  42
ENDBRANCH  39  40
ENDBRANCH  38  39
ENDBRANCH  37  38
ENDBRANCH  36  37
ENDBRANCH  35  36
ENDBRANCH  33  35
ENDBRANCH  30  31
ENDBRANCH  29  30
ENDBRANCH  27  29
ENDBRANCH  26  27
ENDBRANCH  25  26
ENDBRANCH  23  25
ENDBRANCH  15  23
TORSDOF 15
ENDMDL
MODEL 2
REMARK minimizedAffinity -6.97890139
REMARK CNNscore 0.562563121
REMARK CNNaffinity 6.31853485
REMARK  15 active torsions:
REMARK  status: ('A' for Active; 'I' for Inactive)
REMARK    1  A    between atoms: C14_15  and  O2_16 
REMARK    2  A    between atoms: C14_15  and  C15_17 
REMARK    3  A    between atoms: C15_17  and  C16_19 
REMARK    4  A    between atoms: C16_19  and  O4_20 
REMARK    5  A    between atoms: O4_20  and  C17_21 
REMARK    6  A    between atoms: C17_21  and  C18_23 
REMARK    7  A    between atoms: C18_23  and  C19_24 
REMARK    8  A    between atoms: C19_24  and  C20_25 
REMARK       I    between atoms: C20_25  and  N1_27 
REMARK    9  A    between atoms: N1_27  and  C21_28 
REMARK   10  A    between atoms: C21_28  and  C22_29 
REMARK   11  A    between atoms: C22_29  and  C23_30 
REMARK   12  A    between atoms: C23_30  and  C24_31 
REMARK   13  A    between atoms: C24_31  and  C25_32 
REMARK   14  A    between atoms: C25_32  and  C26_33 
REMARK   15  A    between atoms: C26_33  and  O8_35 
ROOT
HETATM    1  C1  UNL     1      -3.080  48.479 -25.023  1.00  0.00     0.020 C 
HETATM    2  C2  UNL     1      -3.526  49.469 -23.922  1.00  0.00    -0.016 C 
HETATM    3  C3  UNL     1      -4.411  50.576 -24.573  1.00  0.00     0.022 C 
HETATM    4  C4  UNL     1      -3.627  51.590 -25.394  1.00  0.00     0.084 C 
HETATM    5  C5  UNL     1      -2.532  52.204 -24.565  1.00  0.00     0.149 C 
HETATM    6  O1  UNL     1      -2.140  53.354 -24.741  1.00  0.00    -0.293 OA
HETATM    7  C6  UNL     1      -1.854  51.347 -23.566  1.00  0.00     0.053 C 
HETATM    8  C7  UNL     1      -2.272  50.095 -23.308  1.00  0.00    -0.068 C 
HETATM    9  C8  UNL     1      -1.473  49.218 -22.377  1.00  0.00     0.035 C 
HETATM   10  C9  UNL     1      -2.340  48.599 -21.289  1.00  0.00     0.010 C 
HETATM   11  C10 UNL     1      -3.549  47.842 -21.863  1.00  0.00    -0.004 C 
HETATM   12  C11 UNL     1      -4.397  47.041 -20.815  1.00  0.00     0.002 C 
HETATM   13  C12 UNL     1      -4.089  47.303 -19.334  1.00  0.00     0.009 C 
HETATM   14  C13 UNL     1      -4.975  48.474 -18.945  1.00  0.00     0.047 C 
HETATM   15  C14 UNL     1      -6.236  48.366 -19.818  1.00  0.00     0.128 C 
HETATM   16  C27 UNL     1      -5.953  47.209 -20.862  1.00  0.00    -0.002 C 
HETATM   17  C28 UNL     1      -6.585  45.873 -20.378  1.00  0.00     0.019 C 
HETATM   18  C29 UNL     1      -6.529  47.469 -22.273  1.00  0.00     0.013 C 
HETATM   19  C30 UNL     1      -5.555  47.955 -23.339  1.00  0.00     0.007 C 
HETATM   20  C31 UNL     1      -4.376  48.763 -22.789  1.00  0.00     0.002 C 
ENDROOT
BRANCH  15  21
HETATM   21  O2  UNL     1      -6.356  49.643 -20.474  1.00  0.00    -0.381 OA
HETATM   22  H19 UNL     1      -7.277  49.710 -20.799  1.00  0.00     0.211 HD
ENDBRANCH  15  21
BRANCH  15  23
HETATM   23  C15 UNL     1      -7.582  48.231 -19.063  1.00  0.00     0.185 C 
HETATM   24  O3  UNL     1      -7.569  47.956 -17.854  1.00  0.00    -0.292 OA
BRANCH  23  25
HETATM   25  C16 UNL     1      -8.893  48.400 -19.829  1.00  0.00     0.260 C 
BRANCH  25  26
HETATM   26  O4  UNL     1     -10.046  48.071 -19.053  1.00  0.00    -0.314 OA
BRANCH  26  27
HETATM   27  C17 UNL     1     -11.110  47.622 -19.771  1.00  0.00     0.259 C 
HETATM   28  O5  UNL     1     -11.030  47.012 -20.829  1.00  0.00    -0.265 OA
BRANCH  27  29
HETATM   29  C18 UNL     1     -12.392  47.941 -19.050  1.00  0.00     0.120 C 
BRANCH  29  30
HETATM   30  C19 UNL     1     -13.322  48.766 -19.931  1.00  0.00     0.112 C 
BRANCH  30  31
HETATM   31  C20 UNL     1     -14.455  47.926 -20.478  1.00  0.00     0.217 C 
HETATM   32  O6  UNL     1     -14.748  47.877 -21.666  1.00  0.00    -0.274 OA
HETATM   33  N1  UNL     1     -15.125  47.228 -19.496  1.00  0.00    -0.361 N 
HETATM   34  H26 UNL     1     -14.893  47.399 -18.526  1.00  0.00     0.162 HD
BRANCH  33  35
HETATM   35  C21 UNL     1     -16.298  46.429 -19.795  1.00  0.00     0.122 C 
BRANCH  35  36
HETATM   36  C22 UNL     1     -17.576  47.145 -19.369  1.00  0.00     0.020 C 
BRANCH  36  37
HETATM   37  C23 UNL     1     -18.818  46.742 -20.169  1.00  0.00     0.002 C 
BRANCH  37  38
HETATM   38  C24 UNL     1     -18.542  46.362 -21.628  1.00  0.00     0.010 C 
BRANCH  38  39
HETATM   39  C25 UNL     1     -19.167  45.028 -22.033  1.00  0.00     0.110 C 
BRANCH  39  40
HETATM   40  C26 UNL     1     -19.285  44.093 -20.857  1.00  0.00     0.139 C 
HETATM   41  O7  UNL     1     -18.390  43.477 -20.306  1.00  0.00    -0.650 OA
BRANCH  40  42
HETATM   42  O8  UNL     1     -20.560  43.967 -20.443  1.00  0.00    -0.776 OA
HETATM   43  H37 UNL     1     -20.501  43.348 -19.685  1.00  0.00     0.167 HD
ENDBRANCH  40  42
ENDBRANCH  39  40
ENDBRANCH  38  39
ENDBRANCH  37  38
ENDBRANCH  36  37
ENDBRANCH  35  36
ENDBRANCH  33  35
ENDBRANCH  30  31
ENDBRANCH  29  30
ENDBRANCH  27  29
ENDBRANCH  26  27
ENDBRANCH  25  26
ENDBRANCH  23  25
ENDBRANCH  15  23
TORSDOF 15
ENDMDL
MODEL 3
REMARK minimizedAffinity -6.95092916
REMARK CNNscore 0.530470669
REMARK CNNaffinity 6.03149652
REMARK  15 active torsions:
REMARK  status: ('A' for Active; 'I' for Inactive)
REMARK    1  A    between atoms: C14_15  and  O2_16 
REMARK    2  A    between atoms: C14_15  and  C15_17 
REMARK    3  A    between atoms: C15_17  and  C16_19 
REMARK    4  A    between atoms: C16_19  and  O4_20 
REMARK    5  A    between atoms: O4_20  and  C17_21 
REMARK    6  A    between atoms: C17_21  and  C18_23 
REMARK    7  A    between atoms: C18_23  and  C19_24 
REMARK    8  A    between atoms: C19_24  and  C20_25 
REMARK       I    between atoms: C20_25  and  N1_27 
REMARK    9  A    between atoms: N1_27  and  C21_28 
REMARK   10  A    between atoms: C21_28  and  C22_29 
REMARK   11  A    between atoms: C22_29  and  C23_30 
REMARK   12  A    between atoms: C23_30  and  C24_31 
REMARK   13  A    between atoms: C24_31  and  C25_32 
REMARK   14  A    between atoms: C25_32  and  C26_33 
REMARK   15  A    between atoms: C26_33  and  O8_35 
ROOT
HETATM    1  C1  UNL     1      -2.786  48.702 -25.194  1.00  0.00     0.020 C 
HETATM    2  C2  UNL     1      -3.362  49.633 -24.102  1.00  0.00    -0.016 C 
HETATM    3  C3  UNL     1      -4.170  50.775 -24.793  1.00  0.00     0.022 C 
HETATM    4  C4  UNL     1      -3.300  51.829 -25.462  1.00  0.00     0.084 C 
HETATM    5  C5  UNL     1      -2.313  52.397 -24.479  1.00  0.00     0.149 C 
HETATM    6  O1  UNL     1      -1.909  53.554 -24.547  1.00  0.00    -0.293 OA
HETATM    7  C6  UNL     1      -1.753  51.487 -23.454  1.00  0.00     0.053 C 
HETATM    8  C7  UNL     1      -2.193  50.224 -23.312  1.00  0.00    -0.068 C 
HETATM    9  C8  UNL     1      -1.503  49.298 -22.342  1.00  0.00     0.035 C 
HETATM   10  C9  UNL     1      -2.490  48.623 -21.397  1.00  0.00     0.010 C 
HETATM   11  C10 UNL     1      -3.619  47.899 -22.149  1.00  0.00    -0.004 C 
HETATM   12  C11 UNL     1      -4.580  47.046 -21.251  1.00  0.00     0.002 C 
HETATM   13  C12 UNL     1      -4.449  47.229 -19.732  1.00  0.00     0.009 C 
HETATM   14  C13 UNL     1      -5.381  48.379 -19.389  1.00  0.00     0.047 C 
HETATM   15  C14 UNL     1      -6.530  48.318 -20.408  1.00  0.00     0.128 C 
HETATM   16  C27 UNL     1      -6.120  47.218 -21.472  1.00  0.00    -0.002 C 
HETATM   17  C28 UNL     1      -6.799  45.859 -21.136  1.00  0.00     0.019 C 
HETATM   18  C29 UNL     1      -6.529  47.553 -22.924  1.00  0.00     0.013 C 
HETATM   19  C30 UNL     1      -5.438  48.094 -23.842  1.00  0.00     0.007 C 
HETATM   20  C31 UNL     1      -4.336  48.869 -23.115  1.00  0.00     0.002 C 
ENDROOT
BRANCH  15  21
HETATM   21  O2  UNL     1      -6.578  49.629 -21.005  1.00  0.00    -0.381 OA
HETATM   22  H19 UNL     1      -7.455  49.714 -21.433  1.00  0.00     0.211 HD
ENDBRANCH  15  21
BRANCH  15  23
HETATM   23  C15 UNL     1      -7.954  48.146 -19.825  1.00  0.00     0.185 C 
HETATM   24  O3  UNL     1      -8.933  48.360 -20.556  1.00  0.00    -0.292 OA
BRANCH  23  25
HETATM   25  C16 UNL     1      -8.123  47.755 -18.357  1.00  0.00     0.260 C 
BRANCH  25  26
HETATM   26  O4  UNL     1      -9.271  46.939 -18.119  1.00  0.00    -0.314 OA
BRANCH  26  27
HETATM   27  C17 UNL     1      -9.419  46.521 -16.834  1.00  0.00     0.259 C 
HETATM   28  O5  UNL     1      -8.496  46.225 -16.087  1.00  0.00    -0.265 OA
BRANCH  27  29
HETATM   29  C18 UNL     1     -10.875  46.523 -16.454  1.00  0.00     0.120 C 
BRANCH  29  30
HETATM   30  C19 UNL     1     -11.755  46.784 -17.670  1.00  0.00     0.112 C 
BRANCH  30  31
HETATM   31  C20 UNL     1     -13.168  47.139 -17.263  1.00  0.00     0.217 C 
HETATM   32  O6  UNL     1     -13.607  46.977 -16.131  1.00  0.00    -0.274 OA
HETATM   33  N1  UNL     1     -13.911  47.655 -18.304  1.00  0.00    -0.361 N 
HETATM   34  H26 UNL     1     -13.514  47.661 -19.235  1.00  0.00     0.162 HD
BRANCH  33  35
HETATM   35  C21 UNL     1     -15.316  47.980 -18.150  1.00  0.00     0.122 C 
BRANCH  35  36
HETATM   36  C22 UNL     1     -16.121  47.536 -19.367  1.00  0.00     0.020 C 
BRANCH  36  37
HETATM   37  C23 UNL     1     -17.621  47.373 -19.104  1.00  0.00     0.002 C 
BRANCH  37  38
HETATM   38  C24 UNL     1     -18.433  46.900 -20.315  1.00  0.00     0.010 C 
BRANCH  38  39
HETATM   39  C25 UNL     1     -18.993  45.487 -20.152  1.00  0.00     0.110 C 
BRANCH  39  40
HETATM   40  C26 UNL     1     -19.631  45.299 -18.801  1.00  0.00     0.139 C 
HETATM   41  O7  UNL     1     -19.457  44.381 -18.018  1.00  0.00    -0.650 OA
BRANCH  40  42
HETATM   42  O8  UNL     1     -20.493  46.292 -18.510  1.00  0.00    -0.776 OA
HETATM   43  H37 UNL     1     -20.831  46.057 -17.620  1.00  0.00     0.167 HD
ENDBRANCH  40  42
ENDBRANCH  39  40
ENDBRANCH  38  39
ENDBRANCH  37  38
ENDBRANCH  36  37
ENDBRANCH  35  36
ENDBRANCH  33  35
ENDBRANCH  30  31
ENDBRANCH  29  30
ENDBRANCH  27  29
ENDBRANCH  26  27
ENDBRANCH  25  26
ENDBRANCH  23  25
ENDBRANCH  15  23
TORSDOF 15
ENDMDL
MODEL 4
REMARK minimizedAffinity -6.6382947
REMARK CNNscore 0.427279502
REMARK CNNaffinity 6.72070694
REMARK  15 active torsions:
REMARK  status: ('A' for Active; 'I' for Inactive)
REMARK    1  A    between atoms: C14_15  and  O2_16 
REMARK    2  A    between atoms: C14_15  and  C15_17 
REMARK    3  A    between atoms: C15_17  and  C16_19 
REMARK    4  A    between atoms: C16_19  and  O4_20 
REMARK    5  A    between atoms: O4_20  and  C17_21 
REMARK    6  A    between atoms: C17_21  and  C18_23 
REMARK    7  A    between atoms: C18_23  and  C19_24 
REMARK    8  A    between atoms: C19_24  and  C20_25 
REMARK       I    between atoms: C20_25  and  N1_27 
REMARK    9  A    between atoms: N1_27  and  C21_28 
REMARK   10  A    between atoms: C21_28  and  C22_29 
REMARK   11  A    between atoms: C22_29  and  C23_30 
REMARK   12  A    between atoms: C23_30  and  C24_31 
REMARK   13  A    between atoms: C24_31  and  C25_32 
REMARK   14  A    between atoms: C25_32  and  C26_33 
REMARK   15  A    between atoms: C26_33  and  O8_35 
ROOT
HETATM    1  C1  UNL     1      -2.544  48.461 -21.512  1.00  0.00     0.020 C 
HETATM    2  C2  UNL     1      -2.797  49.780 -20.747  1.00  0.00    -0.016 C 
HETATM    3  C3  UNL     1      -4.336  50.016 -20.652  1.00  0.00     0.022 C 
HETATM    4  C4  UNL     1      -4.974  50.461 -21.959  1.00  0.00     0.084 C 
HETATM    5  C5  UNL     1      -4.281  51.686 -22.492  1.00  0.00     0.149 C 
HETATM    6  O1  UNL     1      -4.868  52.540 -23.151  1.00  0.00    -0.293 OA
HETATM    7  C6  UNL     1      -2.821  51.805 -22.279  1.00  0.00     0.053 C 
HETATM    8  C7  UNL     1      -2.141  50.919 -21.530  1.00  0.00    -0.068 C 
HETATM    9  C8  UNL     1      -0.638  51.009 -21.449  1.00  0.00     0.035 C 
HETATM   10  C9  UNL     1      -0.142  51.006 -20.008  1.00  0.00     0.010 C 
HETATM   11  C10 UNL     1      -0.670  49.802 -19.210  1.00  0.00    -0.004 C 
HETATM   12  C11 UNL     1      -0.074  49.641 -17.768  1.00  0.00     0.002 C 
HETATM   13  C12 UNL     1       0.755  50.817 -17.230  1.00  0.00     0.009 C 
HETATM   14  C13 UNL     1      -0.250  51.736 -16.557  1.00  0.00     0.047 C 
HETATM   15  C14 UNL     1      -1.373  50.829 -16.027  1.00  0.00     0.128 C 
HETATM   16  C27 UNL     1      -1.076  49.381 -16.595  1.00  0.00    -0.002 C 
HETATM   17  C28 UNL     1      -0.340  48.519 -15.529  1.00  0.00     0.019 C 
HETATM   18  C29 UNL     1      -2.338  48.582 -16.993  1.00  0.00     0.013 C 
HETATM   19  C30 UNL     1      -2.680  48.523 -18.477  1.00  0.00     0.007 C 
HETATM   20  C31 UNL     1      -2.213  49.742 -19.276  1.00  0.00     0.002 C 
ENDROOT
BRANCH  15  21
HETATM   21  O2  UNL     1      -2.590  51.368 -16.580  1.00  0.00    -0.381 OA
HETATM   22  H19 UNL     1      -3.328  51.006 -16.046  1.00  0.00     0.211 HD
ENDBRANCH  15  21
BRANCH  15  23
HETATM   23  C15 UNL     1      -1.629  50.878 -14.500  1.00  0.00     0.185 C 
HETATM   24  O3  UNL     1      -0.659  50.866 -13.727  1.00  0.00    -0.292 OA
BRANCH  23  25
HETATM   25  C16 UNL     1      -3.065  50.900 -13.979  1.00  0.00     0.260 C 
BRANCH  25  26
HETATM   26  O4  UNL     1      -3.413  52.127 -13.336  1.00  0.00    -0.314 OA
BRANCH  26  27
HETATM   27  C17 UNL     1      -3.653  52.026 -12.002  1.00  0.00     0.259 C 
HETATM   28  O5  UNL     1      -3.685  50.974 -11.377  1.00  0.00    -0.265 OA
BRANCH  27  29
HETATM   29  C18 UNL     1      -3.825  53.395 -11.402  1.00  0.00     0.120 C 
BRANCH  29  30
HETATM   30  C19 UNL     1      -2.978  53.550 -10.145  1.00  0.00     0.112 C 
BRANCH  30  31
HETATM   31  C20 UNL     1      -1.709  54.324 -10.426  1.00  0.00     0.217 C 
HETATM   32  O6  UNL     1      -1.614  55.538 -10.295  1.00  0.00    -0.274 OA
HETATM   33  N1  UNL     1      -0.675  53.518 -10.852  1.00  0.00    -0.361 N 
HETATM   34  H26 UNL     1      -0.858  52.540 -11.037  1.00  0.00     0.162 HD
BRANCH  33  35
HETATM   35  C21 UNL     1       0.604  54.069 -11.256  1.00  0.00     0.122 C 
BRANCH  35  36
HETATM   36  C22 UNL     1       1.756  53.179 -10.802  1.00  0.00     0.020 C 
BRANCH  36  37
HETATM   37  C23 UNL     1       3.013  53.944 -10.376  1.00  0.00     0.002 C 
BRANCH  37  38
HETATM   38  C24 UNL     1       2.739  55.254  -9.630  1.00  0.00     0.010 C 
BRANCH  38  39
HETATM   39  C25 UNL     1       3.953  56.182  -9.573  1.00  0.00     0.110 C 
BRANCH  39  40
HETATM   40  C26 UNL     1       4.034  56.904  -8.254  1.00  0.00     0.139 C 
HETATM   41  O7  UNL     1       3.332  57.820  -7.863  1.00  0.00    -0.650 OA
BRANCH  40  42
HETATM   42  O8  UNL     1       5.036  56.434  -7.486  1.00  0.00    -0.776 OA
HETATM   43  H37 UNL     1       4.981  56.974  -6.670  1.00  0.00     0.167 HD
ENDBRANCH  40  42
ENDBRANCH  39  40
ENDBRANCH  38  39
ENDBRANCH  37  38
ENDBRANCH  36  37
ENDBRANCH  35  36
ENDBRANCH  33  35
ENDBRANCH  30  31
ENDBRANCH  29  30
ENDBRANCH  27  29
ENDBRANCH  26  27
ENDBRANCH  25  26
ENDBRANCH  23  25
ENDBRANCH  15  23
TORSDOF 15
ENDMDL
MODEL 5
REMARK minimizedAffinity -6.55311298
REMARK CNNscore 0.350928396
REMARK CNNaffinity 6.43434334
REMARK  15 active torsions:
REMARK  status: ('A' for Active; 'I' for Inactive)
REMARK    1  A    between atoms: C14_15  and  O2_16 
REMARK    2  A    between atoms: C14_15  and  C15_17 
REMARK    3  A    between atoms: C15_17  and  C16_19 
REMARK    4  A    between atoms: C16_19  and  O4_20 
REMARK    5  A    between atoms: O4_20  and  C17_21 
REMARK    6  A    between atoms: C17_21  and  C18_23 
REMARK    7  A    between atoms: C18_23  and  C19_24 
REMARK    8  A    between atoms: C19_24  and  C20_25 
REMARK       I    between atoms: C20_25  and  N1_27 
REMARK    9  A    between atoms: N1_27  and  C21_28 
REMARK   10  A    between atoms: C21_28  and  C22_29 
REMARK   11  A    between atoms: C22_29  and  C23_30 
REMARK   12  A    between atoms: C23_30  and  C24_31 
REMARK   13  A    between atoms: C24_31  and  C25_32 
REMARK   14  A    between atoms: C25_32  and  C26_33 
REMARK   15  A    between atoms: C26_33  and  O8_35 
ROOT
HETATM    1  C1  UNL     1      -0.270  48.902 -20.648  1.00  0.00     0.020 C 
HETATM    2  C2  UNL     1      -1.358  49.989 -20.802  1.00  0.00    -0.016 C 
HETATM    3  C3  UNL     1      -0.937  50.958 -21.951  1.00  0.00     0.022 C 
HETATM    4  C4  UNL     1       0.191  51.908 -21.576  1.00  0.00     0.084 C 
HETATM    5  C5  UNL     1      -0.164  52.680 -20.334  1.00  0.00     0.149 C 
HETATM    6  O1  UNL     1       0.241  53.821 -20.131  1.00  0.00    -0.293 OA
HETATM    7  C6  UNL     1      -0.956  51.990 -19.290  1.00  0.00     0.053 C 
HETATM    8  C7  UNL     1      -1.456  50.757 -19.482  1.00  0.00    -0.068 C 
HETATM    9  C8  UNL     1      -2.145  50.046 -18.345  1.00  0.00     0.035 C 
HETATM   10  C9  UNL     1      -3.515  49.513 -18.749  1.00  0.00     0.010 C 
HETATM   11  C10 UNL     1      -3.451  48.624 -20.002  1.00  0.00    -0.004 C 
HETATM   12  C11 UNL     1      -4.792  47.908 -20.384  1.00  0.00     0.002 C 
HETATM   13  C12 UNL     1      -6.054  48.364 -19.636  1.00  0.00     0.009 C 
HETATM   14  C13 UNL     1      -6.604  49.520 -20.455  1.00  0.00     0.047 C 
HETATM   15  C14 UNL     1      -6.215  49.235 -21.915  1.00  0.00     0.128 C 
HETATM   16  C27 UNL     1      -5.251  47.979 -21.879  1.00  0.00    -0.002 C 
HETATM   17  C28 UNL     1      -6.042  46.677 -22.190  1.00  0.00     0.019 C 
HETATM   18  C29 UNL     1      -4.095  48.034 -22.904  1.00  0.00     0.013 C 
HETATM   19  C30 UNL     1      -2.724  48.443 -22.379  1.00  0.00     0.007 C 
HETATM   20  C31 UNL     1      -2.771  49.378 -21.168  1.00  0.00     0.002 C 
ENDROOT
BRANCH  15  21
HETATM   21  O2  UNL     1      -5.519  50.415 -22.361  1.00  0.00    -0.381 OA
HETATM   22  H19 UNL     1      -5.515  50.389 -23.340  1.00  0.00     0.211 HD
ENDBRANCH  15  21
BRANCH  15  23
HETATM   23  C15 UNL     1      -7.385  49.115 -22.923  1.00  0.00     0.185 C 
HETATM   24  O3  UNL     1      -7.556  50.018 -23.756  1.00  0.00    -0.292 OA
BRANCH  23  25
HETATM   25  C16 UNL     1      -8.322  47.911 -22.847  1.00  0.00     0.260 C 
BRANCH  25  26
HETATM   26  O4  UNL     1      -9.389  47.965 -23.795  1.00  0.00    -0.314 OA
BRANCH  26  27
HETATM   27  C17 UNL     1      -9.123  47.373 -24.989  1.00  0.00     0.259 C 
HETATM   28  O5  UNL     1      -8.154  46.660 -25.214  1.00  0.00    -0.265 OA
BRANCH  27  29
HETATM   29  C18 UNL     1     -10.218  47.681 -25.975  1.00  0.00     0.120 C 
BRANCH  29  30
HETATM   30  C19 UNL     1     -10.551  46.459 -26.821  1.00  0.00     0.112 C 
BRANCH  30  31
HETATM   31  C20 UNL     1     -10.243  46.697 -28.282  1.00  0.00     0.217 C 
HETATM   32  O6  UNL     1     -11.080  46.617 -29.172  1.00  0.00    -0.274 OA
HETATM   33  N1  UNL     1      -8.918  47.006 -28.505  1.00  0.00    -0.361 N 
HETATM   34  H26 UNL     1      -8.264  46.951 -27.734  1.00  0.00     0.162 HD
BRANCH  33  35
HETATM   35  C21 UNL     1      -8.393  47.188 -29.844  1.00  0.00     0.122 C 
BRANCH  35  36
HETATM   36  C22 UNL     1      -7.965  45.857 -30.454  1.00  0.00     0.020 C 
BRANCH  36  37
HETATM   37  C23 UNL     1      -6.449  45.640 -30.490  1.00  0.00     0.002 C 
BRANCH  37  38
HETATM   38  C24 UNL     1      -5.838  45.638 -31.895  1.00  0.00     0.010 C 
BRANCH  38  39
HETATM   39  C25 UNL     1      -4.400  46.156 -31.930  1.00  0.00     0.110 C 
BRANCH  39  40
HETATM   40  C26 UNL     1      -4.150  47.009 -33.146  1.00  0.00     0.139 C 
HETATM   41  O7  UNL     1      -3.165  47.682 -33.391  1.00  0.00    -0.650 OA
BRANCH  40  42
HETATM   42  O8  UNL     1      -5.191  46.983 -34.000  1.00  0.00    -0.776 OA
HETATM   43  H37 UNL     1      -4.906  47.563 -34.737  1.00  0.00     0.167 HD
ENDBRANCH  40  42
ENDBRANCH  39  40
ENDBRANCH  38  39
ENDBRANCH  37  38
ENDBRANCH  36  37
ENDBRANCH  35  36
ENDBRANCH  33  35
ENDBRANCH  30  31
ENDBRANCH  29  30
ENDBRANCH  27  29
ENDBRANCH  26  27
ENDBRANCH  25  26
ENDBRANCH  23  25
ENDBRANCH  15  23
TORSDOF 15
ENDMDL
MODEL 6
REMARK minimizedAffinity -8.28419685
REMARK CNNscore 0.33119598
REMARK CNNaffinity 6.04293871
REMARK  15 active torsions:
REMARK  status: ('A' for Active; 'I' for Inactive)
REMARK    1  A    between atoms: C14_15  and  O2_16 
REMARK    2  A    between atoms: C14_15  and  C15_17 
REMARK    3  A    between atoms: C15_17  and  C16_19 
REMARK    4  A    between atoms: C16_19  and  O4_20 
REMARK    5  A    between atoms: O4_20  and  C17_21 
REMARK    6  A    between atoms: C17_21  and  C18_23 
REMARK    7  A    between atoms: C18_23  and  C19_24 
REMARK    8  A    between atoms: C19_24  and  C20_25 
REMARK       I    between atoms: C20_25  and  N1_27 
REMARK    9  A    between atoms: N1_27  and  C21_28 
REMARK   10  A    between atoms: C21_28  and  C22_29 
REMARK   11  A    between atoms: C22_29  and  C23_30 
REMARK   12  A    between atoms: C23_30  and  C24_31 
REMARK   13  A    between atoms: C24_31  and  C25_32 
REMARK   14  A    between atoms: C25_32  and  C26_33 
REMARK   15  A    between atoms: C26_33  and  O8_35 
ROOT
HETATM    1  C1  UNL     1       0.434  50.587 -26.131  1.00  0.00     0.020 C 
HETATM    2  C2  UNL     1      -0.760  51.526 -25.842  1.00  0.00    -0.016 C 
HETATM    3  C3  UNL     1      -1.333  52.037 -27.200  1.00  0.00     0.022 C 
HETATM    4  C4  UNL     1      -0.466  53.084 -27.882  1.00  0.00     0.084 C 
HETATM    5  C5  UNL     1      -0.201  54.236 -26.949  1.00  0.00     0.149 C 
HETATM    6  O1  UNL     1      -0.040  55.385 -27.352  1.00  0.00    -0.293 OA
HETATM    7  C6  UNL     1      -0.043  53.939 -25.508  1.00  0.00     0.053 C 
HETATM    8  C7  UNL     1      -0.250  52.706 -25.012  1.00  0.00    -0.068 C 
HETATM    9  C8  UNL     1       0.047  52.425 -23.561  1.00  0.00     0.035 C 
HETATM   10  C9  UNL     1      -1.126  51.753 -22.857  1.00  0.00     0.010 C 
HETATM   11  C10 UNL     1      -1.594  50.482 -23.584  1.00  0.00    -0.004 C 
HETATM   12  C11 UNL     1      -2.688  49.646 -22.833  1.00  0.00     0.002 C 
HETATM   13  C12 UNL     1      -3.342  50.307 -21.610  1.00  0.00     0.009 C 
HETATM   14  C13 UNL     1      -4.522  51.088 -22.165  1.00  0.00     0.047 C 
HETATM   15  C14 UNL     1      -5.003  50.317 -23.404  1.00  0.00     0.128 C 
HETATM   16  C27 UNL     1      -3.933  49.176 -23.658  1.00  0.00    -0.002 C 
HETATM   17  C28 UNL     1      -4.419  47.830 -23.050  1.00  0.00     0.019 C 
HETATM   18  C29 UNL     1      -3.646  48.893 -25.150  1.00  0.00     0.013 C 
HETATM   19  C30 UNL     1      -2.372  49.492 -25.735  1.00  0.00     0.007 C 
HETATM   20  C31 UNL     1      -1.925  50.792 -25.062  1.00  0.00     0.002 C 
ENDROOT
BRANCH  15  21
HETATM   21  O2  UNL     1      -5.003  51.280 -24.476  1.00  0.00    -0.381 OA
HETATM   22  H19 UNL     1      -5.565  50.911 -25.189  1.00  0.00     0.211 HD
ENDBRANCH  15  21
BRANCH  15  23
HETATM   23  C15 UNL     1      -6.470  49.822 -23.376  1.00  0.00     0.185 C 
HETATM   24  O3  UNL     1      -7.220  50.215 -22.470  1.00  0.00    -0.292 OA
BRANCH  23  25
HETATM   25  C16 UNL     1      -6.951  48.834 -24.437  1.00  0.00     0.260 C 
BRANCH  25  26
HETATM   26  O4  UNL     1      -8.354  48.918 -24.692  1.00  0.00    -0.314 OA
BRANCH  26  27
HETATM   27  C17 UNL     1      -8.847  47.947 -25.507  1.00  0.00     0.259 C 
HETATM   28  O5  UNL     1      -8.339  46.845 -25.664  1.00  0.00    -0.265 OA
BRANCH  27  29
HETATM   29  C18 UNL     1     -10.129  48.410 -26.145  1.00  0.00     0.120 C 
BRANCH  29  30
HETATM   30  C19 UNL     1     -10.893  47.237 -26.746  1.00  0.00     0.112 C 
BRANCH  30  31
HETATM   31  C20 UNL     1     -12.381  47.503 -26.774  1.00  0.00     0.217 C 
HETATM   32  O6  UNL     1     -12.881  48.502 -27.276  1.00  0.00    -0.274 OA
HETATM   33  N1  UNL     1     -13.115  46.505 -26.168  1.00  0.00    -0.361 N 
HETATM   34  H26 UNL     1     -12.626  45.762 -25.684  1.00  0.00     0.162 HD
BRANCH  33  35
HETATM   35  C21 UNL     1     -14.553  46.604 -26.011  1.00  0.00     0.122 C 
BRANCH  35  36
HETATM   36  C22 UNL     1     -14.923  47.031 -24.594  1.00  0.00     0.020 C 
BRANCH  36  37
HETATM   37  C23 UNL     1     -16.189  46.363 -24.047  1.00  0.00     0.002 C 
BRANCH  37  38
HETATM   38  C24 UNL     1     -17.444  46.583 -24.898  1.00  0.00     0.010 C 
BRANCH  38  39
HETATM   39  C25 UNL     1     -18.680  46.938 -24.071  1.00  0.00     0.110 C 
BRANCH  39  40
HETATM   40  C26 UNL     1     -18.863  45.988 -22.916  1.00  0.00     0.139 C 
HETATM   41  O7  UNL     1     -19.135  44.802 -22.966  1.00  0.00    -0.650 OA
BRANCH  40  42
HETATM   42  O8  UNL     1     -18.710  46.606 -21.730  1.00  0.00    -0.776 OA
HETATM   43  H37 UNL     1     -18.848  45.892 -21.073  1.00  0.00     0.167 HD
ENDBRANCH  40  42
ENDBRANCH  39  40
ENDBRANCH  38  39
ENDBRANCH  37  38
ENDBRANCH  36  37
ENDBRANCH  35  36
ENDBRANCH  33  35
ENDBRANCH  30  31
ENDBRANCH  29  30
ENDBRANCH  27  29
ENDBRANCH  26  27
ENDBRANCH  25  26
ENDBRANCH  23  25
ENDBRANCH  15  23
TORSDOF 15
ENDMDL
MODEL 7
REMARK minimizedAffinity -8.00485992
REMARK CNNscore 0.322412193
REMARK CNNaffinity 6.36473322
REMARK  15 active torsions:
REMARK  status: ('A' for Active; 'I' for Inactive)
REMARK    1  A    between atoms: C14_15  and  O2_16 
REMARK    2  A    between atoms: C14_15  and  C15_17 
REMARK    3  A    between atoms: C15_17  and  C16_19 
REMARK    4  A    between atoms: C16_19  and  O4_20 
REMARK    5  A    between atoms: O4_20  and  C17_21 
REMARK    6  A    between atoms: C17_21  and  C18_23 
REMARK    7  A    between atoms: C18_23  and  C19_24 
REMARK    8  A    between atoms: C19_24  and  C20_25 
REMARK       I    between atoms: C20_25  and  N1_27 
REMARK    9  A    between atoms: N1_27  and  C21_28 
REMARK   10  A    between atoms: C21_28  and  C22_29 
REMARK   11  A    between atoms: C22_29  and  C23_30 
REMARK   12  A    between atoms: C23_30  and  C24_31 
REMARK   13  A    between atoms: C24_31  and  C25_32 
REMARK   14  A    between atoms: C25_32  and  C26_33 
REMARK   15  A    between atoms: C26_33  and  O8_35 
ROOT
HETATM    1  C1  UNL     1       0.595  50.719 -26.145  1.00  0.00     0.020 C 
HETATM    2  C2  UNL     1      -0.634  51.609 -25.850  1.00  0.00    -0.016 C 
HETATM    3  C3  UNL     1      -1.241  52.086 -27.206  1.00  0.00     0.022 C 
HETATM    4  C4  UNL     1      -0.425  53.163 -27.904  1.00  0.00     0.084 C 
HETATM    5  C5  UNL     1      -0.199  54.331 -26.982  1.00  0.00     0.149 C 
HETATM    6  O1  UNL     1      -0.090  55.483 -27.395  1.00  0.00    -0.293 OA
HETATM    7  C6  UNL     1      -0.015  54.052 -25.540  1.00  0.00     0.053 C 
HETATM    8  C7  UNL     1      -0.165  52.815 -25.034  1.00  0.00    -0.068 C 
HETATM    9  C8  UNL     1       0.157  52.558 -23.584  1.00  0.00     0.035 C 
HETATM   10  C9  UNL     1      -0.979  51.843 -22.863  1.00  0.00     0.010 C 
HETATM   11  C10 UNL     1      -1.401  50.548 -23.577  1.00  0.00    -0.004 C 
HETATM   12  C11 UNL     1      -2.452  49.673 -22.809  1.00  0.00     0.002 C 
HETATM   13  C12 UNL     1      -3.121  50.315 -21.584  1.00  0.00     0.009 C 
HETATM   14  C13 UNL     1      -4.337  51.043 -22.132  1.00  0.00     0.047 C 
HETATM   15  C14 UNL     1      -4.798  50.243 -23.361  1.00  0.00     0.128 C 
HETATM   16  C27 UNL     1      -3.685  49.146 -23.618  1.00  0.00    -0.002 C 
HETATM   17  C28 UNL     1      -4.108  47.785 -22.995  1.00  0.00     0.019 C 
HETATM   18  C29 UNL     1      -3.401  48.864 -25.111  1.00  0.00     0.013 C 
HETATM   19  C30 UNL     1      -2.159  49.511 -25.713  1.00  0.00     0.007 C 
HETATM   20  C31 UNL     1      -1.760  50.833 -25.053  1.00  0.00     0.002 C 
ENDROOT
BRANCH  15  21
HETATM   21  O2  UNL     1      -4.849  51.198 -24.439  1.00  0.00    -0.381 OA
HETATM   22  H19 UNL     1      -5.402  50.800 -25.144  1.00  0.00     0.211 HD
ENDBRANCH  15  21
BRANCH  15  23
HETATM   23  C15 UNL     1      -6.244  49.688 -23.314  1.00  0.00     0.185 C 
HETATM   24  O3  UNL     1      -7.121  50.344 -22.733  1.00  0.00    -0.292 OA
BRANCH  23  25
HETATM   25  C16 UNL     1      -6.549  48.332 -23.948  1.00  0.00     0.260 C 
BRANCH  25  26
HETATM   26  O4  UNL     1      -7.299  48.432 -25.160  1.00  0.00    -0.314 OA
BRANCH  26  27
HETATM   27  C17 UNL     1      -7.185  47.364 -25.993  1.00  0.00     0.259 C 
HETATM   28  O5  UNL     1      -7.751  46.291 -25.832  1.00  0.00    -0.265 OA
BRANCH  27  29
HETATM   29  C18 UNL     1      -6.303  47.711 -27.162  1.00  0.00     0.120 C 
BRANCH  29  30
HETATM   30  C19 UNL     1      -6.847  47.110 -28.452  1.00  0.00     0.112 C 
BRANCH  30  31
HETATM   31  C20 UNL     1      -8.115  47.805 -28.895  1.00  0.00     0.217 C 
HETATM   32  O6  UNL     1      -8.126  48.814 -29.588  1.00  0.00    -0.274 OA
HETATM   33  N1  UNL     1      -9.255  47.186 -28.428  1.00  0.00    -0.361 N 
HETATM   34  H26 UNL     1      -9.164  46.418 -27.775  1.00  0.00     0.162 HD
BRANCH  33  35
HETATM   35  C21 UNL     1     -10.574  47.739 -28.666  1.00  0.00     0.122 C 
BRANCH  35  36
HETATM   36  C22 UNL     1     -11.304  46.971 -29.764  1.00  0.00     0.020 C 
BRANCH  36  37
HETATM   37  C23 UNL     1     -12.823  46.908 -29.585  1.00  0.00     0.002 C 
BRANCH  37  38
HETATM   38  C24 UNL     1     -13.291  46.052 -28.402  1.00  0.00     0.010 C 
BRANCH  38  39
HETATM   39  C25 UNL     1     -14.703  45.495 -28.581  1.00  0.00     0.110 C 
BRANCH  39  40
HETATM   40  C26 UNL     1     -15.441  45.431 -27.270  1.00  0.00     0.139 C 
HETATM   41  O7  UNL     1     -16.627  45.211 -27.094  1.00  0.00    -0.650 OA
BRANCH  40  42
HETATM   42  O8  UNL     1     -14.628  45.674 -26.224  1.00  0.00    -0.776 OA
HETATM   43  H37 UNL     1     -15.219  45.601 -25.445  1.00  0.00     0.167 HD
ENDBRANCH  40  42
ENDBRANCH  39  40
ENDBRANCH  38  39
ENDBRANCH  37  38
ENDBRANCH  36  37
ENDBRANCH  35  36
ENDBRANCH  33  35
ENDBRANCH  30  31
ENDBRANCH  29  30
ENDBRANCH  27  29
ENDBRANCH  26  27
ENDBRANCH  25  26
ENDBRANCH  23  25
ENDBRANCH  15  23
TORSDOF 15
ENDMDL
MODEL 8
REMARK minimizedAffinity -7.30533314
REMARK CNNscore 0.265618026
REMARK CNNaffinity 6.10407782
REMARK  15 active torsions:
REMARK  status: ('A' for Active; 'I' for Inactive)
REMARK    1  A    between atoms: C14_15  and  O2_16 
REMARK    2  A    between atoms: C14_15  and  C15_17 
REMARK    3  A    between atoms: C15_17  and  C16_19 
REMARK    4  A    between atoms: C16_19  and  O4_20 
REMARK    5  A    between atoms: O4_20  and  C17_21 
REMARK    6  A    between atoms: C17_21  and  C18_23 
REMARK    7  A    between atoms: C18_23  and  C19_24 
REMARK    8  A    between atoms: C19_24  and  C20_25 
REMARK       I    between atoms: C20_25  and  N1_27 
REMARK    9  A    between atoms: N1_27  and  C21_28 
REMARK   10  A    between atoms: C21_28  and  C22_29 
REMARK   11  A    between atoms: C22_29  and  C23_30 
REMARK   12  A    between atoms: C23_30  and  C24_31 
REMARK   13  A    between atoms: C24_31  and  C25_32 
REMARK   14  A    between atoms: C25_32  and  C26_33 
REMARK   15  A    between atoms: C26_33  and  O8_35 
ROOT
HETATM    1  C1  UNL     1       0.441  50.724 -26.221  1.00  0.00     0.020 C 
HETATM    2  C2  UNL     1      -0.664  51.677 -25.708  1.00  0.00    -0.016 C 
HETATM    3  C3  UNL     1      -1.422  52.270 -26.936  1.00  0.00     0.022 C 
HETATM    4  C4  UNL     1      -0.635  53.328 -27.695  1.00  0.00     0.084 C 
HETATM    5  C5  UNL     1      -0.193  54.424 -26.763  1.00  0.00     0.149 C 
HETATM    6  O1  UNL     1      -0.059  55.587 -27.133  1.00  0.00    -0.293 OA
HETATM    7  C6  UNL     1       0.174  54.051 -25.379  1.00  0.00     0.053 C 
HETATM    8  C7  UNL     1       0.005  52.801 -24.914  1.00  0.00    -0.068 C 
HETATM    9  C8  UNL     1       0.512  52.440 -23.541  1.00  0.00     0.035 C 
HETATM   10  C9  UNL     1      -0.559  51.763 -22.695  1.00  0.00     0.010 C 
HETATM   11  C10 UNL     1      -1.175  50.542 -23.398  1.00  0.00    -0.004 C 
HETATM   12  C11 UNL     1      -2.168  49.697 -22.526  1.00  0.00     0.002 C 
HETATM   13  C12 UNL     1      -2.604  50.312 -21.188  1.00  0.00     0.009 C 
HETATM   14  C13 UNL     1      -3.829  51.150 -21.517  1.00  0.00     0.047 C 
HETATM   15  C14 UNL     1      -4.520  50.454 -22.701  1.00  0.00     0.128 C 
HETATM   16  C27 UNL     1      -3.539  49.301 -23.169  1.00  0.00    -0.002 C 
HETATM   17  C28 UNL     1      -3.970  47.938 -22.555  1.00  0.00     0.019 C 
HETATM   18  C29 UNL     1      -3.494  49.086 -24.699  1.00  0.00     0.013 C 
HETATM   19  C30 UNL     1      -2.306  49.682 -25.446  1.00  0.00     0.007 C 
HETATM   20  C31 UNL     1      -1.719  50.934 -24.791  1.00  0.00     0.002 C 
ENDROOT
BRANCH  15  21
HETATM   21  O2  UNL     1      -4.653  51.469 -23.714  1.00  0.00    -0.381 OA
HETATM   22  H19 UNL     1      -5.329  51.151 -24.348  1.00  0.00     0.211 HD
ENDBRANCH  15  21
BRANCH  15  23
HETATM   23  C15 UNL     1      -5.981  49.996 -22.468  1.00  0.00     0.185 C 
HETATM   24  O3  UNL     1      -6.365  49.777 -21.310  1.00  0.00    -0.292 OA
BRANCH  23  25
HETATM   25  C16 UNL     1      -6.902  49.785 -23.668  1.00  0.00     0.260 C 
BRANCH  25  26
HETATM   26  O4  UNL     1      -7.892  48.779 -23.450  1.00  0.00    -0.314 OA
BRANCH  26  27
HETATM   27  C17 UNL     1      -7.460  47.502 -23.627  1.00  0.00     0.259 C 
HETATM   28  O5  UNL     1      -7.255  46.704 -22.722  1.00  0.00    -0.265 OA
BRANCH  27  29
HETATM   29  C18 UNL     1      -7.321  47.203 -25.095  1.00  0.00     0.120 C 
BRANCH  29  30
HETATM   30  C19 UNL     1      -8.412  47.898 -25.900  1.00  0.00     0.112 C 
BRANCH  30  31
HETATM   31  C20 UNL     1      -9.409  46.904 -26.454  1.00  0.00     0.217 C 
HETATM   32  O6  UNL     1      -9.125  46.059 -27.294  1.00  0.00    -0.274 OA
HETATM   33  N1  UNL     1     -10.670  47.056 -25.919  1.00  0.00    -0.361 N 
HETATM   34  H26 UNL     1     -10.853  47.843 -25.309  1.00  0.00     0.162 HD
BRANCH  33  35
HETATM   35  C21 UNL     1     -11.793  46.261 -26.376  1.00  0.00     0.122 C 
BRANCH  35  36
HETATM   36  C22 UNL     1     -12.380  45.432 -25.238  1.00  0.00     0.020 C 
BRANCH  36  37
HETATM   37  C23 UNL     1     -13.392  44.374 -25.687  1.00  0.00     0.002 C 
BRANCH  37  38
HETATM   38  C24 UNL     1     -14.846  44.683 -25.312  1.00  0.00     0.010 C 
BRANCH  38  39
HETATM   39  C25 UNL     1     -14.974  45.574 -24.077  1.00  0.00     0.110 C 
BRANCH  39  40
HETATM   40  C26 UNL     1     -15.709  46.851 -24.391  1.00  0.00     0.139 C 
HETATM   41  O7  UNL     1     -15.379  47.987 -24.102  1.00  0.00    -0.650 OA
BRANCH  40  42
HETATM   42  O8  UNL     1     -16.859  46.618 -25.052  1.00  0.00    -0.776 OA
HETATM   43  H37 UNL     1     -17.232  47.513 -25.197  1.00  0.00     0.167 HD
ENDBRANCH  40  42
ENDBRANCH  39  40
ENDBRANCH  38  39
ENDBRANCH  37  38
ENDBRANCH  36  37
ENDBRANCH  35  36
ENDBRANCH  33  35
ENDBRANCH  30  31
ENDBRANCH  29  30
ENDBRANCH  27  29
ENDBRANCH  26  27
ENDBRANCH  25  26
ENDBRANCH  23  25
ENDBRANCH  15  23
TORSDOF 15
ENDMDL
MODEL 9
REMARK minimizedAffinity -6.59411478
REMARK CNNscore 0.241869286
REMARK CNNaffinity 5.79718018
REMARK  15 active torsions:
REMARK  status: ('A' for Active; 'I' for Inactive)
REMARK    1  A    between atoms: C14_15  and  O2_16 
REMARK    2  A    between atoms: C14_15  and  C15_17 
REMARK    3  A    between atoms: C15_17  and  C16_19 
REMARK    4  A    between atoms: C16_19  and  O4_20 
REMARK    5  A    between atoms: O4_20  and  C17_21 
REMARK    6  A    between atoms: C17_21  and  C18_23 
REMARK    7  A    between atoms: C18_23  and  C19_24 
REMARK    8  A    between atoms: C19_24  and  C20_25 
REMARK       I    between atoms: C20_25  and  N1_27 
REMARK    9  A    between atoms: N1_27  and  C21_28 
REMARK   10  A    between atoms: C21_28  and  C22_29 
REMARK   11  A    between atoms: C22_29  and  C23_30 
REMARK   12  A    between atoms: C23_30  and  C24_31 
REMARK   13  A    between atoms: C24_31  and  C25_32 
REMARK   14  A    between atoms: C25_32  and  C26_33 
REMARK   15  A    between atoms: C26_33  and  O8_35 
ROOT
HETATM    1  C1  UNL     1      -6.166  45.870 -31.276  1.00  0.00     0.020 C 
HETATM    2  C2  UNL     1      -7.491  45.082 -31.167  1.00  0.00    -0.016 C 
HETATM    3  C3  UNL     1      -7.169  43.625 -30.711  1.00  0.00     0.022 C 
HETATM    4  C4  UNL     1      -6.554  42.758 -31.799  1.00  0.00     0.084 C 
HETATM    5  C5  UNL     1      -7.430  42.750 -33.022  1.00  0.00     0.149 C 
HETATM    6  O1  UNL     1      -7.498  41.783 -33.777  1.00  0.00    -0.293 OA
HETATM    7  C6  UNL     1      -8.160  43.993 -33.361  1.00  0.00     0.053 C 
HETATM    8  C7  UNL     1      -8.151  45.063 -32.547  1.00  0.00    -0.068 C 
HETATM    9  C8  UNL     1      -8.802  46.347 -32.995  1.00  0.00     0.035 C 
HETATM   10  C9  UNL     1      -9.773  46.890 -31.954  1.00  0.00     0.010 C 
HETATM   11  C10 UNL     1      -9.118  47.052 -30.572  1.00  0.00    -0.004 C 
HETATM   12  C11 UNL     1     -10.007  47.757 -29.489  1.00  0.00     0.002 C 
HETATM   13  C12 UNL     1     -11.486  47.970 -29.843  1.00  0.00     0.009 C 
HETATM   14  C13 UNL     1     -12.189  46.702 -29.389  1.00  0.00     0.047 C 
HETATM   15  C14 UNL     1     -11.398  46.183 -28.178  1.00  0.00     0.128 C 
HETATM   16  C27 UNL     1     -10.100  47.085 -28.078  1.00  0.00    -0.002 C 
HETATM   17  C28 UNL     1     -10.304  48.217 -27.031  1.00  0.00     0.019 C 
HETATM   18  C29 UNL     1      -8.826  46.324 -27.644  1.00  0.00     0.013 C 
HETATM   19  C30 UNL     1      -7.840  45.943 -28.741  1.00  0.00     0.007 C 
HETATM   20  C31 UNL     1      -8.484  45.719 -30.112  1.00  0.00     0.002 C 
ENDROOT
BRANCH  15  21
HETATM   21  O2  UNL     1     -11.062  44.819 -28.500  1.00  0.00    -0.381 OA
HETATM   22  H19 UNL     1     -10.820  44.380 -27.658  1.00  0.00     0.211 HD
ENDBRANCH  15  21
BRANCH  15  23
HETATM   23  C15 UNL     1     -12.186  46.046 -26.852  1.00  0.00     0.185 C 
HETATM   24  O3  UNL     1     -11.789  45.241 -25.997  1.00  0.00    -0.292 OA
BRANCH  23  25
HETATM   25  C16 UNL     1     -13.452  46.875 -26.642  1.00  0.00     0.260 C 
BRANCH  25  26
HETATM   26  O4  UNL     1     -13.646  47.275 -25.285  1.00  0.00    -0.314 OA
BRANCH  26  27
HETATM   27  C17 UNL     1     -14.698  46.682 -24.659  1.00  0.00     0.259 C 
HETATM   28  O5  UNL     1     -15.866  46.784 -25.010  1.00  0.00    -0.265 OA
BRANCH  27  29
HETATM   29  C18 UNL     1     -14.210  45.848 -23.505  1.00  0.00     0.120 C 
BRANCH  29  30
HETATM   30  C19 UNL     1     -13.479  46.707 -22.481  1.00  0.00     0.112 C 
BRANCH  30  31
HETATM   31  C20 UNL     1     -14.439  47.319 -21.487  1.00  0.00     0.217 C 
HETATM   32  O6  UNL     1     -14.298  48.438 -21.010  1.00  0.00    -0.274 OA
HETATM   33  N1  UNL     1     -15.486  46.480 -21.168  1.00  0.00    -0.361 N 
HETATM   34  H26 UNL     1     -15.480  45.532 -21.521  1.00  0.00     0.162 HD
BRANCH  33  35
HETATM   35  C21 UNL     1     -16.474  46.839 -20.169  1.00  0.00     0.122 C 
BRANCH  35  36
HETATM   36  C22 UNL     1     -17.608  45.820 -20.125  1.00  0.00     0.020 C 
BRANCH  36  37
HETATM   37  C23 UNL     1     -18.841  46.214 -20.944  1.00  0.00     0.002 C 
BRANCH  37  38
HETATM   38  C24 UNL     1     -18.548  46.568 -22.406  1.00  0.00     0.010 C 
BRANCH  38  39
HETATM   39  C25 UNL     1     -19.275  45.666 -23.403  1.00  0.00     0.110 C 
BRANCH  39  40
HETATM   40  C26 UNL     1     -19.396  46.321 -24.754  1.00  0.00     0.139 C 
HETATM   41  O7  UNL     1     -19.818  45.826 -25.784  1.00  0.00    -0.650 OA
BRANCH  40  42
HETATM   42  O8  UNL     1     -18.946  47.590 -24.738  1.00  0.00    -0.776 OA
HETATM   43  H37 UNL     1     -19.081  47.899 -25.659  1.00  0.00     0.167 HD
ENDBRANCH  40  42
ENDBRANCH  39  40
ENDBRANCH  38  39
ENDBRANCH  37  38
ENDBRANCH  36  37
ENDBRANCH  35  36
ENDBRANCH  33  35
ENDBRANCH  30  31
ENDBRANCH  29  30
ENDBRANCH  27  29
ENDBRANCH  26  27
ENDBRANCH  25  26
ENDBRANCH  23  25
ENDBRANCH  15  23
TORSDOF 15
ENDMDL
