MODEL 1
REMARK minimizedAffinity -10.373662
REMARK  6 active torsions:
REMARK  status: ('A' for Active; 'I' for Inactive)
REMARK    1  A    between atoms: C2_2  and  C30_32 
REMARK    2  A    between atoms: C3_3  and  C4_4 
REMARK    3  A    between atoms: C4_4  and  C5_6 
REMARK    4  A    between atoms: C5_6  and  C6_7 
REMARK    5  A    between atoms: C6_7  and  C8_9 
REMARK    6  A    between atoms: C30_32  and  O4_34 
ROOT
HETATM    1  C8  UNL     1      -0.492  52.512 -21.943  1.00  0.00    -0.001 C 
HETATM    2  C9  UNL     1       0.898  53.220 -21.952  1.00  0.00     0.007 C 
HETATM    3  C10 UNL     1       1.463  53.156 -20.522  1.00  0.00     0.015 C 
HETATM    4  C11 UNL     1       0.255  52.770 -19.645  1.00  0.00    -0.013 C 
HETATM    5  C12 UNL     1      -0.528  54.097 -19.383  1.00  0.00     0.021 C 
HETATM    6  C13 UNL     1       0.496  52.148 -18.271  1.00  0.00    -0.070 C 
HETATM    7  C14 UNL     1       1.697  52.157 -17.672  1.00  0.00    -0.022 C 
HETATM    8  C15 UNL     1       1.952  51.678 -16.283  1.00  0.00     0.034 C 
HETATM    9  C16 UNL     1       0.679  51.511 -15.412  1.00  0.00     0.013 C 
HETATM   10  C17 UNL     1       0.996  50.852 -14.014  1.00  0.00     0.018 C 
HETATM   11  C18 UNL     1       0.162  51.534 -12.904  1.00  0.00     0.023 C 
HETATM   12  C19 UNL     1       2.469  50.971 -13.572  1.00  0.00     0.023 C 
HETATM   13  C20 UNL     1       0.675  49.353 -14.051  1.00  0.00     0.135 C 
HETATM   14  O2  UNL     1       0.412  48.717 -13.028  1.00  0.00    -0.297 OA
HETATM   15  C21 UNL     1       0.797  48.646 -15.380  1.00  0.00     0.080 C 
HETATM   16  C22 UNL     1       0.021  49.318 -16.513  1.00  0.00     0.017 C 
HETATM   17  C23 UNL     1      -0.445  50.774 -16.233  1.00  0.00    -0.031 C 
HETATM   18  C24 UNL     1      -1.780  50.710 -15.441  1.00  0.00     0.016 C 
HETATM   19  C25 UNL     1      -0.746  51.583 -17.574  1.00  0.00     0.024 C 
HETATM   20  C26 UNL     1      -1.682  50.807 -18.551  1.00  0.00     0.010 C 
HETATM   21  C27 UNL     1      -1.834  51.407 -19.961  1.00  0.00     0.011 C 
HETATM   22  C28 UNL     1      -0.468  51.738 -20.586  1.00  0.00    -0.029 C 
HETATM   23  C29 UNL     1       0.340  50.415 -20.760  1.00  0.00     0.016 C 
ENDROOT
BRANCH   1  24
HETATM   24  C6  UNL     1      -0.758  51.748 -23.275  1.00  0.00    -0.007 C 
HETATM   25  C7  UNL     1      -1.531  50.442 -23.055  1.00  0.00     0.011 C 
BRANCH  24  26
HETATM   26  C5  UNL     1      -1.553  52.643 -24.258  1.00  0.00     0.087 C 
BRANCH  26  27
HETATM   27  C4  UNL     1      -0.907  52.766 -25.632  1.00  0.00     0.150 C 
HETATM   28  O1  UNL     1      -1.516  53.164 -26.619  1.00  0.00    -0.293 OA
BRANCH  27  29
HETATM   29  C3  UNL     1       0.509  52.304 -25.723  1.00  0.00     0.063 C 
HETATM   30  C2  UNL     1       1.120  51.893 -26.850  1.00  0.00     0.015 C 
HETATM   31  C1  UNL     1       0.551  51.875 -28.235  1.00  0.00     0.055 C 
BRANCH  30  32
HETATM   32  C30 UNL     1       2.520  51.442 -26.668  1.00  0.00     0.171 C 
HETATM   33  O3  UNL     1       2.907  50.583 -25.895  1.00  0.00    -0.646 OA
BRANCH  32  34
HETATM   34  O4  UNL     1       3.376  52.082 -27.479  1.00  0.00    -0.773 OA
HETATM   35  H44 UNL     1       4.246  51.685 -27.266  1.00  0.00     0.167 HD
ENDBRANCH  32  34
ENDBRANCH  30  32
ENDBRANCH  27  29
ENDBRANCH  26  27
ENDBRANCH  24  26
ENDBRANCH   1  24
TORSDOF 6
ENDMDL
MODEL 2
REMARK minimizedAffinity -9.70596123
REMARK  6 active torsions:
REMARK  status: ('A' for Active; 'I' for Inactive)
REMARK    1  A    between atoms: C2_2  and  C30_32 
REMARK    2  A    between atoms: C3_3  and  C4_4 
REMARK    3  A    between atoms: C4_4  and  C5_6 
REMARK    4  A    between atoms: C5_6  and  C6_7 
REMARK    5  A    between atoms: C6_7  and  C8_9 
REMARK    6  A    between atoms: C30_32  and  O4_34 
ROOT
HETATM    1  C8  UNL     1      -0.820  51.947 -21.028  1.00  0.00    -0.001 C 
HETATM    2  C9  UNL     1      -0.208  50.726 -20.274  1.00  0.00     0.007 C 
HETATM    3  C10 UNL     1      -1.240  49.585 -20.322  1.00  0.00     0.015 C 
HETATM    4  C11 UNL     1      -2.554  50.268 -20.750  1.00  0.00    -0.013 C 
HETATM    5  C12 UNL     1      -3.157  50.892 -19.450  1.00  0.00     0.021 C 
HETATM    6  C13 UNL     1      -3.669  49.426 -21.367  1.00  0.00    -0.070 C 
HETATM    7  C14 UNL     1      -3.675  48.084 -21.319  1.00  0.00    -0.022 C 
HETATM    8  C15 UNL     1      -4.800  47.227 -21.793  1.00  0.00     0.034 C 
HETATM    9  C16 UNL     1      -6.141  47.977 -22.003  1.00  0.00     0.013 C 
HETATM   10  C17 UNL     1      -7.244  47.055 -22.655  1.00  0.00     0.018 C 
HETATM   11  C18 UNL     1      -8.619  47.332 -22.004  1.00  0.00     0.023 C 
HETATM   12  C19 UNL     1      -6.990  45.543 -22.487  1.00  0.00     0.023 C 
HETATM   13  C20 UNL     1      -7.328  47.316 -24.163  1.00  0.00     0.135 C 
HETATM   14  O2  UNL     1      -8.350  47.080 -24.810  1.00  0.00    -0.297 OA
HETATM   15  C21 UNL     1      -6.070  47.775 -24.863  1.00  0.00     0.080 C 
HETATM   16  C22 UNL     1      -5.408  48.991 -24.214  1.00  0.00     0.017 C 
HETATM   17  C23 UNL     1      -5.890  49.327 -22.776  1.00  0.00    -0.031 C 
HETATM   18  C24 UNL     1      -7.189  50.171 -22.886  1.00  0.00     0.016 C 
HETATM   19  C25 UNL     1      -4.835  50.214 -21.974  1.00  0.00     0.024 C 
HETATM   20  C26 UNL     1      -4.359  51.463 -22.779  1.00  0.00     0.010 C 
HETATM   21  C27 UNL     1      -3.172  52.240 -22.181  1.00  0.00     0.011 C 
HETATM   22  C28 UNL     1      -2.013  51.302 -21.803  1.00  0.00    -0.029 C 
HETATM   23  C29 UNL     1      -1.477  50.617 -23.099  1.00  0.00     0.016 C 
ENDROOT
BRANCH   1  24
HETATM   24  C6  UNL     1       0.270  52.753 -21.797  1.00  0.00    -0.007 C 
HETATM   25  C7  UNL     1       1.690  52.413 -21.327  1.00  0.00     0.011 C 
BRANCH  24  26
HETATM   26  C5  UNL     1       0.165  52.480 -23.319  1.00  0.00     0.087 C 
BRANCH  26  27
HETATM   27  C4  UNL     1       0.567  53.668 -24.182  1.00  0.00     0.150 C 
HETATM   28  O1  UNL     1       1.367  54.520 -23.810  1.00  0.00    -0.293 OA
BRANCH  27  29
HETATM   29  C3  UNL     1      -0.129  53.774 -25.498  1.00  0.00     0.063 C 
HETATM   30  C2  UNL     1       0.166  53.051 -26.594  1.00  0.00     0.015 C 
HETATM   31  C1  UNL     1       1.185  51.959 -26.712  1.00  0.00     0.055 C 
BRANCH  30  32
HETATM   32  C30 UNL     1      -0.645  53.377 -27.790  1.00  0.00     0.171 C 
HETATM   33  O3  UNL     1      -1.656  54.057 -27.813  1.00  0.00    -0.646 OA
BRANCH  32  34
HETATM   34  O4  UNL     1      -0.142  52.844 -28.913  1.00  0.00    -0.773 OA
HETATM   35  H44 UNL     1      -0.757  53.143 -29.615  1.00  0.00     0.167 HD
ENDBRANCH  32  34
ENDBRANCH  30  32
ENDBRANCH  27  29
ENDBRANCH  26  27
ENDBRANCH  24  26
ENDBRANCH   1  24
TORSDOF 6
ENDMDL
MODEL 3
REMARK minimizedAffinity -9.59763145
REMARK  6 active torsions:
REMARK  status: ('A' for Active; 'I' for Inactive)
REMARK    1  A    between atoms: C2_2  and  C30_32 
REMARK    2  A    between atoms: C3_3  and  C4_4 
REMARK    3  A    between atoms: C4_4  and  C5_6 
REMARK    4  A    between atoms: C5_6  and  C6_7 
REMARK    5  A    between atoms: C6_7  and  C8_9 
REMARK    6  A    between atoms: C30_32  and  O4_34 
ROOT
HETATM    1  C8  UNL     1      -1.875  49.970 -23.076  1.00  0.00    -0.001 C 
HETATM    2  C9  UNL     1      -3.070  48.982 -23.247  1.00  0.00     0.007 C 
HETATM    3  C10 UNL     1      -3.360  48.360 -21.869  1.00  0.00     0.015 C 
HETATM    4  C11 UNL     1      -2.114  48.692 -21.024  1.00  0.00    -0.013 C 
HETATM    5  C12 UNL     1      -1.045  47.614 -21.395  1.00  0.00     0.021 C 
HETATM    6  C13 UNL     1      -2.217  48.672 -19.500  1.00  0.00    -0.070 C 
HETATM    7  C14 UNL     1      -3.259  48.129 -18.851  1.00  0.00    -0.022 C 
HETATM    8  C15 UNL     1      -3.342  47.973 -17.370  1.00  0.00     0.034 C 
HETATM    9  C16 UNL     1      -1.991  48.127 -16.625  1.00  0.00     0.013 C 
HETATM   10  C17 UNL     1      -2.169  48.112 -15.057  1.00  0.00     0.018 C 
HETATM   11  C18 UNL     1      -1.023  47.308 -14.401  1.00  0.00     0.023 C 
HETATM   12  C19 UNL     1      -3.480  47.459 -14.571  1.00  0.00     0.023 C 
HETATM   13  C20 UNL     1      -2.170  49.545 -14.511  1.00  0.00     0.135 C 
HETATM   14  O2  UNL     1      -1.856  49.799 -13.347  1.00  0.00    -0.297 OA
HETATM   15  C21 UNL     1      -2.677  50.638 -15.422  1.00  0.00     0.080 C 
HETATM   16  C22 UNL     1      -2.006  50.662 -16.795  1.00  0.00     0.017 C 
HETATM   17  C23 UNL     1      -1.212  49.381 -17.174  1.00  0.00    -0.031 C 
HETATM   18  C24 UNL     1       0.206  49.489 -16.548  1.00  0.00     0.016 C 
HETATM   19  C25 UNL     1      -1.007  49.238 -18.749  1.00  0.00     0.024 C 
HETATM   20  C26 UNL     1      -0.446  50.535 -19.407  1.00  0.00     0.010 C 
HETATM   21  C27 UNL     1      -0.440  50.565 -20.946  1.00  0.00     0.011 C 
HETATM   22  C28 UNL     1      -1.802  50.148 -21.526  1.00  0.00    -0.029 C 
HETATM   23  C29 UNL     1      -2.879  51.183 -21.074  1.00  0.00     0.016 C 
ENDROOT
BRANCH   1  24
HETATM   24  C6  UNL     1      -2.021  51.216 -24.001  1.00  0.00    -0.007 C 
HETATM   25  C7  UNL     1      -3.459  51.748 -24.044  1.00  0.00     0.011 C 
BRANCH  24  26
HETATM   26  C5  UNL     1      -1.080  52.351 -23.526  1.00  0.00     0.087 C 
BRANCH  26  27
HETATM   27  C4  UNL     1      -0.342  53.049 -24.660  1.00  0.00     0.150 C 
HETATM   28  O1  UNL     1      -0.776  54.053 -25.216  1.00  0.00    -0.293 OA
BRANCH  27  29
HETATM   29  C3  UNL     1       0.922  52.395 -25.109  1.00  0.00     0.063 C 
HETATM   30  C2  UNL     1       1.262  52.161 -26.389  1.00  0.00     0.015 C 
HETATM   31  C1  UNL     1       0.501  52.558 -27.618  1.00  0.00     0.055 C 
BRANCH  30  32
HETATM   32  C30 UNL     1       2.553  51.457 -26.570  1.00  0.00     0.171 C 
HETATM   33  O3  UNL     1       2.933  50.476 -25.953  1.00  0.00    -0.646 OA
BRANCH  32  34
HETATM   34  O4  UNL     1       3.310  52.007 -27.531  1.00  0.00    -0.773 OA
HETATM   35  H44 UNL     1       4.113  51.446 -27.552  1.00  0.00     0.167 HD
ENDBRANCH  32  34
ENDBRANCH  30  32
ENDBRANCH  27  29
ENDBRANCH  26  27
ENDBRANCH  24  26
ENDBRANCH   1  24
TORSDOF 6
ENDMDL
MODEL 4
REMARK minimizedAffinity -9.44434357
REMARK  6 active torsions:
REMARK  status: ('A' for Active; 'I' for Inactive)
REMARK    1  A    between atoms: C2_2  and  C30_32 
REMARK    2  A    between atoms: C3_3  and  C4_4 
REMARK    3  A    between atoms: C4_4  and  C5_6 
REMARK    4  A    between atoms: C5_6  and  C6_7 
REMARK    5  A    between atoms: C6_7  and  C8_9 
REMARK    6  A    between atoms: C30_32  and  O4_34 
ROOT
HETATM    1  C8  UNL     1      -1.695  51.099 -23.680  1.00  0.00    -0.001 C 
HETATM    2  C9  UNL     1      -2.584  51.739 -24.791  1.00  0.00     0.007 C 
HETATM    3  C10 UNL     1      -3.897  50.939 -24.855  1.00  0.00     0.015 C 
HETATM    4  C11 UNL     1      -3.601  49.644 -24.074  1.00  0.00    -0.013 C 
HETATM    5  C12 UNL     1      -2.860  48.698 -25.075  1.00  0.00     0.021 C 
HETATM    6  C13 UNL     1      -4.762  48.828 -23.508  1.00  0.00    -0.070 C 
HETATM    7  C14 UNL     1      -6.037  49.033 -23.874  1.00  0.00    -0.022 C 
HETATM    8  C15 UNL     1      -7.185  48.181 -23.448  1.00  0.00     0.034 C 
HETATM    9  C16 UNL     1      -6.785  46.805 -22.855  1.00  0.00     0.013 C 
HETATM   10  C17 UNL     1      -8.027  46.021 -22.277  1.00  0.00     0.018 C 
HETATM   11  C18 UNL     1      -7.911  44.517 -22.618  1.00  0.00     0.023 C 
HETATM   12  C19 UNL     1      -9.388  46.481 -22.840  1.00  0.00     0.023 C 
HETATM   13  C20 UNL     1      -8.104  46.199 -20.756  1.00  0.00     0.135 C 
HETATM   14  O2  UNL     1      -8.672  45.380 -20.032  1.00  0.00    -0.297 OA
HETATM   15  C21 UNL     1      -7.551  47.479 -20.175  1.00  0.00     0.080 C 
HETATM   16  C22 UNL     1      -6.119  47.789 -20.610  1.00  0.00     0.017 C 
HETATM   17  C23 UNL     1      -5.601  46.981 -21.832  1.00  0.00    -0.031 C 
HETATM   18  C24 UNL     1      -5.082  45.609 -21.319  1.00  0.00     0.016 C 
HETATM   19  C25 UNL     1      -4.371  47.695 -22.554  1.00  0.00     0.024 C 
HETATM   20  C26 UNL     1      -3.243  48.110 -21.560  1.00  0.00     0.010 C 
HETATM   21  C27 UNL     1      -2.133  49.010 -22.133  1.00  0.00     0.011 C 
HETATM   22  C28 UNL     1      -2.716  50.207 -22.903  1.00  0.00    -0.029 C 
HETATM   23  C29 UNL     1      -3.528  51.096 -21.910  1.00  0.00     0.016 C 
ENDROOT
BRANCH   1  24
HETATM   24  C6  UNL     1      -0.859  52.173 -22.922  1.00  0.00    -0.007 C 
HETATM   25  C7  UNL     1      -0.669  51.828 -21.439  1.00  0.00     0.011 C 
BRANCH  24  26
HETATM   26  C5  UNL     1       0.533  52.334 -23.582  1.00  0.00     0.087 C 
BRANCH  26  27
HETATM   27  C4  UNL     1       0.719  53.664 -24.300  1.00  0.00     0.150 C 
HETATM   28  O1  UNL     1       1.393  54.580 -23.840  1.00  0.00    -0.293 OA
BRANCH  27  29
HETATM   29  C3  UNL     1      -0.030  53.816 -25.582  1.00  0.00     0.063 C 
HETATM   30  C2  UNL     1       0.162  53.073 -26.687  1.00  0.00     0.015 C 
HETATM   31  C1  UNL     1       1.096  51.912 -26.848  1.00  0.00     0.055 C 
BRANCH  30  32
HETATM   32  C30 UNL     1      -0.682  53.451 -27.844  1.00  0.00     0.171 C 
HETATM   33  O3  UNL     1      -1.821  53.882 -27.797  1.00  0.00    -0.646 OA
BRANCH  32  34
HETATM   34  O4  UNL     1      -0.051  53.286 -29.017  1.00  0.00    -0.773 OA
HETATM   35  H44 UNL     1      -0.706  53.580 -29.683  1.00  0.00     0.167 HD
ENDBRANCH  32  34
ENDBRANCH  30  32
ENDBRANCH  27  29
ENDBRANCH  26  27
ENDBRANCH  24  26
ENDBRANCH   1  24
TORSDOF 6
ENDMDL
MODEL 5
REMARK minimizedAffinity -9.22930717
REMARK  6 active torsions:
REMARK  status: ('A' for Active; 'I' for Inactive)
REMARK    1  A    between atoms: C2_2  and  C30_32 
REMARK    2  A    between atoms: C3_3  and  C4_4 
REMARK    3  A    between atoms: C4_4  and  C5_6 
REMARK    4  A    between atoms: C5_6  and  C6_7 
REMARK    5  A    between atoms: C6_7  and  C8_9 
REMARK    6  A    between atoms: C30_32  and  O4_34 
ROOT
HETATM    1  C8  UNL     1      -0.556  52.435 -21.921  1.00  0.00    -0.001 C 
HETATM    2  C9  UNL     1       0.823  53.161 -22.000  1.00  0.00     0.007 C 
HETATM    3  C10 UNL     1       1.433  53.157 -20.588  1.00  0.00     0.015 C 
HETATM    4  C11 UNL     1       0.260  52.786 -19.659  1.00  0.00    -0.013 C 
HETATM    5  C12 UNL     1      -0.534  54.111 -19.419  1.00  0.00     0.021 C 
HETATM    6  C13 UNL     1       0.554  52.217 -18.272  1.00  0.00    -0.070 C 
HETATM    7  C14 UNL     1       1.774  52.264 -17.713  1.00  0.00    -0.022 C 
HETATM    8  C15 UNL     1       2.079  51.839 -16.317  1.00  0.00     0.034 C 
HETATM    9  C16 UNL     1       0.838  51.687 -15.400  1.00  0.00     0.013 C 
HETATM   10  C17 UNL     1       1.208  51.082 -13.990  1.00  0.00     0.018 C 
HETATM   11  C18 UNL     1       0.400  51.792 -12.879  1.00  0.00     0.023 C 
HETATM   12  C19 UNL     1       2.693  51.238 -13.600  1.00  0.00     0.023 C 
HETATM   13  C20 UNL     1       0.909  49.579 -13.963  1.00  0.00     0.135 C 
HETATM   14  O2  UNL     1       0.688  48.976 -12.911  1.00  0.00    -0.297 OA
HETATM   15  C21 UNL     1       0.999  48.826 -15.270  1.00  0.00     0.080 C 
HETATM   16  C22 UNL     1       0.178  49.446 -16.400  1.00  0.00     0.017 C 
HETATM   17  C23 UNL     1      -0.301  50.905 -16.157  1.00  0.00    -0.031 C 
HETATM   18  C24 UNL     1      -1.609  50.851 -15.321  1.00  0.00     0.016 C 
HETATM   19  C25 UNL     1      -0.657  51.661 -17.515  1.00  0.00     0.024 C 
HETATM   20  C26 UNL     1      -1.611  50.837 -18.434  1.00  0.00     0.010 C 
HETATM   21  C27 UNL     1      -1.817  51.384 -19.859  1.00  0.00     0.011 C 
HETATM   22  C28 UNL     1      -0.477  51.711 -20.538  1.00  0.00    -0.029 C 
HETATM   23  C29 UNL     1       0.345  50.393 -20.692  1.00  0.00     0.016 C 
ENDROOT
BRANCH   1  24
HETATM   24  C6  UNL     1      -0.852  51.620 -23.215  1.00  0.00    -0.007 C 
HETATM   25  C7  UNL     1      -1.800  50.441 -22.960  1.00  0.00     0.011 C 
BRANCH  24  26
HETATM   26  C5  UNL     1      -1.474  52.538 -24.297  1.00  0.00     0.087 C 
BRANCH  26  27
HETATM   27  C4  UNL     1      -2.867  52.108 -24.737  1.00  0.00     0.150 C 
HETATM   28  O1  UNL     1      -3.858  52.241 -24.027  1.00  0.00    -0.293 OA
BRANCH  27  29
HETATM   29  C3  UNL     1      -2.948  51.446 -26.072  1.00  0.00     0.063 C 
HETATM   30  C2  UNL     1      -3.462  50.224 -26.302  1.00  0.00     0.015 C 
HETATM   31  C1  UNL     1      -4.113  49.312 -25.308  1.00  0.00     0.055 C 
BRANCH  30  32
HETATM   32  C30 UNL     1      -3.385  49.773 -27.711  1.00  0.00     0.171 C 
HETATM   33  O3  UNL     1      -3.637  48.655 -28.127  1.00  0.00    -0.646 OA
BRANCH  32  34
HETATM   34  O4  UNL     1      -3.009  50.754 -28.546  1.00  0.00    -0.773 OA
HETATM   35  H44 UNL     1      -3.012  50.330 -29.428  1.00  0.00     0.167 HD
ENDBRANCH  32  34
ENDBRANCH  30  32
ENDBRANCH  27  29
ENDBRANCH  26  27
ENDBRANCH  24  26
ENDBRANCH   1  24
TORSDOF 6
ENDMDL
MODEL 6
REMARK minimizedAffinity -9.05678558
REMARK  6 active torsions:
REMARK  status: ('A' for Active; 'I' for Inactive)
REMARK    1  A    between atoms: C2_2  and  C30_32 
REMARK    2  A    between atoms: C3_3  and  C4_4 
REMARK    3  A    between atoms: C4_4  and  C5_6 
REMARK    4  A    between atoms: C5_6  and  C6_7 
REMARK    5  A    between atoms: C6_7  and  C8_9 
REMARK    6  A    between atoms: C30_32  and  O4_34 
ROOT
HETATM    1  C8  UNL     1      -2.486  50.441 -24.918  1.00  0.00    -0.001 C 
HETATM    2  C9  UNL     1      -3.524  51.577 -25.171  1.00  0.00     0.007 C 
HETATM    3  C10 UNL     1      -4.718  51.335 -24.231  1.00  0.00     0.015 C 
HETATM    4  C11 UNL     1      -4.537  49.885 -23.740  1.00  0.00    -0.013 C 
HETATM    5  C12 UNL     1      -5.115  48.974 -24.871  1.00  0.00     0.021 C 
HETATM    6  C13 UNL     1      -5.225  49.440 -22.451  1.00  0.00    -0.070 C 
HETATM    7  C14 UNL     1      -6.189  50.161 -21.858  1.00  0.00    -0.022 C 
HETATM    8  C15 UNL     1      -6.975  49.708 -20.674  1.00  0.00     0.034 C 
HETATM    9  C16 UNL     1      -6.887  48.187 -20.381  1.00  0.00     0.013 C 
HETATM   10  C17 UNL     1      -7.604  47.797 -19.031  1.00  0.00     0.018 C 
HETATM   11  C18 UNL     1      -8.365  46.461 -19.201  1.00  0.00     0.023 C 
HETATM   12  C19 UNL     1      -8.651  48.823 -18.546  1.00  0.00     0.023 C 
HETATM   13  C20 UNL     1      -6.574  47.663 -17.904  1.00  0.00     0.135 C 
HETATM   14  O2  UNL     1      -6.784  46.967 -16.908  1.00  0.00    -0.297 OA
HETATM   15  C21 UNL     1      -5.323  48.504 -17.999  1.00  0.00     0.080 C 
HETATM   16  C22 UNL     1      -4.582  48.365 -19.328  1.00  0.00     0.017 C 
HETATM   17  C23 UNL     1      -5.391  47.705 -20.479  1.00  0.00    -0.031 C 
HETATM   18  C24 UNL     1      -5.278  46.163 -20.326  1.00  0.00     0.016 C 
HETATM   19  C25 UNL     1      -4.804  48.066 -21.917  1.00  0.00     0.024 C 
HETATM   20  C26 UNL     1      -3.267  47.828 -22.022  1.00  0.00     0.010 C 
HETATM   21  C27 UNL     1      -2.582  48.369 -23.290  1.00  0.00     0.011 C 
HETATM   22  C28 UNL     1      -2.976  49.830 -23.566  1.00  0.00    -0.029 C 
HETATM   23  C29 UNL     1      -2.471  50.718 -22.386  1.00  0.00     0.016 C 
ENDROOT
BRANCH   1  24
HETATM   24  C6  UNL     1      -1.022  50.956 -25.060  1.00  0.00    -0.007 C 
HETATM   25  C7  UNL     1      -0.343  50.446 -26.337  1.00  0.00     0.011 C 
BRANCH  24  26
HETATM   26  C5  UNL     1      -0.995  52.504 -25.060  1.00  0.00     0.087 C 
BRANCH  26  27
HETATM   27  C4  UNL     1       0.410  53.091 -25.071  1.00  0.00     0.150 C 
HETATM   28  O1  UNL     1       1.198  52.912 -25.993  1.00  0.00    -0.293 OA
BRANCH  27  29
HETATM   29  C3  UNL     1       0.802  53.851 -23.847  1.00  0.00     0.063 C 
HETATM   30  C2  UNL     1       0.970  53.317 -22.623  1.00  0.00     0.015 C 
HETATM   31  C1  UNL     1       0.872  51.871 -22.243  1.00  0.00     0.055 C 
BRANCH  30  32
HETATM   32  C30 UNL     1       1.318  54.292 -21.563  1.00  0.00     0.171 C 
HETATM   33  O3  UNL     1       0.972  54.243 -20.396  1.00  0.00    -0.646 OA
BRANCH  32  34
HETATM   34  O4  UNL     1       2.103  55.282 -22.013  1.00  0.00    -0.773 OA
HETATM   35  H44 UNL     1       2.264  55.836 -21.222  1.00  0.00     0.167 HD
ENDBRANCH  32  34
ENDBRANCH  30  32
ENDBRANCH  27  29
ENDBRANCH  26  27
ENDBRANCH  24  26
ENDBRANCH   1  24
TORSDOF 6
ENDMDL
MODEL 7
REMARK minimizedAffinity -8.93435097
REMARK  6 active torsions:
REMARK  status: ('A' for Active; 'I' for Inactive)
REMARK    1  A    between atoms: C2_2  and  C30_32 
REMARK    2  A    between atoms: C3_3  and  C4_4 
REMARK    3  A    between atoms: C4_4  and  C5_6 
REMARK    4  A    between atoms: C5_6  and  C6_7 
REMARK    5  A    between atoms: C6_7  and  C8_9 
REMARK    6  A    between atoms: C30_32  and  O4_34 
ROOT
HETATM    1  C8  UNL     1      -3.174  49.845 -20.166  1.00  0.00    -0.001 C 
HETATM    2  C9  UNL     1      -4.187  49.013 -21.011  1.00  0.00     0.007 C 
HETATM    3  C10 UNL     1      -3.922  49.324 -22.495  1.00  0.00     0.015 C 
HETATM    4  C11 UNL     1      -3.046  50.593 -22.474  1.00  0.00    -0.013 C 
HETATM    5  C12 UNL     1      -4.032  51.793 -22.296  1.00  0.00     0.021 C 
HETATM    6  C13 UNL     1      -2.191  50.931 -23.694  1.00  0.00    -0.070 C 
HETATM    7  C14 UNL     1      -2.354  50.331 -24.883  1.00  0.00    -0.022 C 
HETATM    8  C15 UNL     1      -1.632  50.716 -26.130  1.00  0.00     0.034 C 
HETATM    9  C16 UNL     1      -0.948  52.107 -26.078  1.00  0.00     0.013 C 
HETATM   10  C17 UNL     1      -0.070  52.387 -27.359  1.00  0.00     0.018 C 
HETATM   11  C18 UNL     1      -0.232  53.860 -27.802  1.00  0.00     0.023 C 
HETATM   12  C19 UNL     1      -0.443  51.531 -28.588  1.00  0.00     0.023 C 
HETATM   13  C20 UNL     1       1.407  52.099 -27.063  1.00  0.00     0.135 C 
HETATM   14  O2  UNL     1       2.316  52.632 -27.702  1.00  0.00    -0.297 OA
HETATM   15  C21 UNL     1       1.717  51.048 -26.024  1.00  0.00     0.080 C 
HETATM   16  C22 UNL     1       1.006  51.268 -24.688  1.00  0.00     0.017 C 
HETATM   17  C23 UNL     1      -0.174  52.278 -24.717  1.00  0.00    -0.031 C 
HETATM   18  C24 UNL     1       0.411  53.709 -24.570  1.00  0.00     0.016 C 
HETATM   19  C25 UNL     1      -1.182  52.068 -23.499  1.00  0.00     0.024 C 
HETATM   20  C26 UNL     1      -0.457  51.997 -22.120  1.00  0.00     0.010 C 
HETATM   21  C27 UNL     1      -1.323  51.563 -20.922  1.00  0.00     0.011 C 
HETATM   22  C28 UNL     1      -2.126  50.289 -21.236  1.00  0.00    -0.029 C 
HETATM   23  C29 UNL     1      -1.129  49.118 -21.500  1.00  0.00     0.016 C 
ENDROOT
BRANCH   1  24
HETATM   24  C6  UNL     1      -2.714  49.072 -18.894  1.00  0.00    -0.007 C 
HETATM   25  C7  UNL     1      -2.578  47.564 -19.143  1.00  0.00     0.011 C 
BRANCH  24  26
HETATM   26  C5  UNL     1      -1.355  49.622 -18.393  1.00  0.00     0.087 C 
BRANCH  26  27
HETATM   27  C4  UNL     1      -1.488  50.744 -17.373  1.00  0.00     0.150 C 
HETATM   28  O1  UNL     1      -2.535  51.358 -17.193  1.00  0.00    -0.293 OA
BRANCH  27  29
HETATM   29  C3  UNL     1      -0.238  51.104 -16.642  1.00  0.00     0.063 C 
HETATM   30  C2  UNL     1       0.728  51.917 -17.108  1.00  0.00     0.015 C 
HETATM   31  C1  UNL     1       0.728  52.676 -18.400  1.00  0.00     0.055 C 
BRANCH  30  32
HETATM   32  C30 UNL     1       1.891  52.080 -16.206  1.00  0.00     0.171 C 
HETATM   33  O3  UNL     1       2.296  51.266 -15.395  1.00  0.00    -0.646 OA
BRANCH  32  34
HETATM   34  O4  UNL     1       2.509  53.260 -16.372  1.00  0.00    -0.773 OA
HETATM   35  H44 UNL     1       3.252  53.230 -15.735  1.00  0.00     0.167 HD
ENDBRANCH  32  34
ENDBRANCH  30  32
ENDBRANCH  27  29
ENDBRANCH  26  27
ENDBRANCH  24  26
ENDBRANCH   1  24
TORSDOF 6
ENDMDL
MODEL 8
REMARK minimizedAffinity -8.88615704
REMARK  6 active torsions:
REMARK  status: ('A' for Active; 'I' for Inactive)
REMARK    1  A    between atoms: C2_2  and  C30_32 
REMARK    2  A    between atoms: C3_3  and  C4_4 
REMARK    3  A    between atoms: C4_4  and  C5_6 
REMARK    4  A    between atoms: C5_6  and  C6_7 
REMARK    5  A    between atoms: C6_7  and  C8_9 
REMARK    6  A    between atoms: C30_32  and  O4_34 
ROOT
HETATM    1  C8  UNL     1      -4.685  47.567 -20.171  1.00  0.00    -0.001 C 
HETATM    2  C9  UNL     1      -3.738  48.234 -19.127  1.00  0.00     0.007 C 
HETATM    3  C10 UNL     1      -2.718  49.087 -19.901  1.00  0.00     0.015 C 
HETATM    4  C11 UNL     1      -2.840  48.607 -21.361  1.00  0.00    -0.013 C 
HETATM    5  C12 UNL     1      -1.976  47.308 -21.459  1.00  0.00     0.021 C 
HETATM    6  C13 UNL     1      -2.359  49.515 -22.491  1.00  0.00    -0.070 C 
HETATM    7  C14 UNL     1      -1.597  50.599 -22.274  1.00  0.00    -0.022 C 
HETATM    8  C15 UNL     1      -1.000  51.440 -23.352  1.00  0.00     0.034 C 
HETATM    9  C16 UNL     1      -0.988  50.782 -24.756  1.00  0.00     0.013 C 
HETATM   10  C17 UNL     1      -0.495  51.777 -25.877  1.00  0.00     0.018 C 
HETATM   11  C18 UNL     1       0.413  51.034 -26.884  1.00  0.00     0.023 C 
HETATM   12  C19 UNL     1       0.336  52.966 -25.352  1.00  0.00     0.023 C 
HETATM   13  C20 UNL     1      -1.696  52.380 -26.615  1.00  0.00     0.135 C 
HETATM   14  O2  UNL     1      -1.604  52.814 -27.765  1.00  0.00    -0.297 OA
HETATM   15  C21 UNL     1      -2.986  52.528 -25.844  1.00  0.00     0.080 C 
HETATM   16  C22 UNL     1      -3.453  51.241 -25.165  1.00  0.00     0.017 C 
HETATM   17  C23 UNL     1      -2.385  50.118 -25.053  1.00  0.00    -0.031 C 
HETATM   18  C24 UNL     1      -2.369  49.331 -26.392  1.00  0.00     0.016 C 
HETATM   19  C25 UNL     1      -2.731  49.063 -23.907  1.00  0.00     0.024 C 
HETATM   20  C26 UNL     1      -4.192  48.525 -24.000  1.00  0.00     0.010 C 
HETATM   21  C27 UNL     1      -4.683  47.689 -22.804  1.00  0.00     0.011 C 
HETATM   22  C28 UNL     1      -4.393  48.390 -21.466  1.00  0.00    -0.029 C 
HETATM   23  C29 UNL     1      -5.192  49.730 -21.418  1.00  0.00     0.016 C 
ENDROOT
BRANCH   1  24
HETATM   24  C6  UNL     1      -6.143  47.447 -19.632  1.00  0.00    -0.007 C 
HETATM   25  C7  UNL     1      -6.760  48.812 -19.305  1.00  0.00     0.011 C 
BRANCH  24  26
HETATM   26  C5  UNL     1      -7.040  46.725 -20.667  1.00  0.00     0.087 C 
BRANCH  26  27
HETATM   27  C4  UNL     1      -8.376  47.415 -20.906  1.00  0.00     0.150 C 
HETATM   28  O1  UNL     1      -9.370  47.195 -20.221  1.00  0.00    -0.293 OA
BRANCH  27  29
HETATM   29  C3  UNL     1      -8.427  48.337 -22.078  1.00  0.00     0.063 C 
HETATM   30  C2  UNL     1      -8.283  47.966 -23.364  1.00  0.00     0.015 C 
HETATM   31  C1  UNL     1      -8.116  46.574 -23.893  1.00  0.00     0.055 C 
BRANCH  30  32
HETATM   32  C30 UNL     1      -8.330  49.079 -24.340  1.00  0.00     0.171 C 
HETATM   33  O3  UNL     1      -9.218  49.294 -25.147  1.00  0.00    -0.646 OA
BRANCH  32  34
HETATM   34  O4  UNL     1      -7.264  49.888 -24.251  1.00  0.00    -0.773 OA
HETATM   35  H44 UNL     1      -7.428  50.574 -24.931  1.00  0.00     0.167 HD
ENDBRANCH  32  34
ENDBRANCH  30  32
ENDBRANCH  27  29
ENDBRANCH  26  27
ENDBRANCH  24  26
ENDBRANCH   1  24
TORSDOF 6
ENDMDL
MODEL 9
REMARK minimizedAffinity -8.83840942
REMARK  6 active torsions:
REMARK  status: ('A' for Active; 'I' for Inactive)
REMARK    1  A    between atoms: C2_2  and  C30_32 
REMARK    2  A    between atoms: C3_3  and  C4_4 
REMARK    3  A    between atoms: C4_4  and  C5_6 
REMARK    4  A    between atoms: C5_6  and  C6_7 
REMARK    5  A    between atoms: C6_7  and  C8_9 
REMARK    6  A    between atoms: C30_32  and  O4_34 
ROOT
HETATM    1  C8  UNL     1      -1.159  50.650 -22.437  1.00  0.00    -0.001 C 
HETATM    2  C9  UNL     1      -1.476  50.223 -23.903  1.00  0.00     0.007 C 
HETATM    3  C10 UNL     1      -2.702  49.294 -23.862  1.00  0.00     0.015 C 
HETATM    4  C11 UNL     1      -2.836  48.894 -22.379  1.00  0.00    -0.013 C 
HETATM    5  C12 UNL     1      -1.820  47.727 -22.156  1.00  0.00     0.021 C 
HETATM    6  C13 UNL     1      -4.179  48.385 -21.859  1.00  0.00    -0.070 C 
HETATM    7  C14 UNL     1      -5.180  48.018 -22.675  1.00  0.00    -0.022 C 
HETATM    8  C15 UNL     1      -6.457  47.398 -22.218  1.00  0.00     0.034 C 
HETATM    9  C16 UNL     1      -6.426  46.842 -20.770  1.00  0.00     0.013 C 
HETATM   10  C17 UNL     1      -7.845  46.347 -20.291  1.00  0.00     0.018 C 
HETATM   11  C18 UNL     1      -7.704  45.043 -19.473  1.00  0.00     0.023 C 
HETATM   12  C19 UNL     1      -8.828  46.025 -21.436  1.00  0.00     0.023 C 
HETATM   13  C20 UNL     1      -8.519  47.423 -19.431  1.00  0.00     0.135 C 
HETATM   14  O2  UNL     1      -9.386  47.146 -18.600  1.00  0.00    -0.297 OA
HETATM   15  C21 UNL     1      -8.163  48.864 -19.712  1.00  0.00     0.080 C 
HETATM   16  C22 UNL     1      -6.660  49.141 -19.715  1.00  0.00     0.017 C 
HETATM   17  C23 UNL     1      -5.748  47.886 -19.806  1.00  0.00    -0.031 C 
HETATM   18  C24 UNL     1      -5.575  47.310 -18.373  1.00  0.00     0.016 C 
HETATM   19  C25 UNL     1      -4.286  48.236 -20.337  1.00  0.00     0.024 C 
HETATM   20  C26 UNL     1      -3.631  49.426 -19.571  1.00  0.00     0.010 C 
HETATM   21  C27 UNL     1      -2.326  49.981 -20.170  1.00  0.00     0.011 C 
HETATM   22  C28 UNL     1      -2.464  50.251 -21.678  1.00  0.00    -0.029 C 
HETATM   23  C29 UNL     1      -3.546  51.355 -21.894  1.00  0.00     0.016 C 
ENDROOT
BRANCH   1  24
HETATM   24  C6  UNL     1      -0.629  52.115 -22.366  1.00  0.00    -0.007 C 
HETATM   25  C7  UNL     1      -0.304  52.551 -20.932  1.00  0.00     0.011 C 
BRANCH  24  26
HETATM   26  C5  UNL     1       0.642  52.269 -23.238  1.00  0.00     0.087 C 
BRANCH  26  27
HETATM   27  C4  UNL     1       0.668  53.552 -24.059  1.00  0.00     0.150 C 
HETATM   28  O1  UNL     1       1.304  54.544 -23.720  1.00  0.00    -0.293 OA
BRANCH  27  29
HETATM   29  C3  UNL     1      -0.190  53.555 -25.280  1.00  0.00     0.063 C 
HETATM   30  C2  UNL     1       0.080  52.893 -26.420  1.00  0.00     0.015 C 
HETATM   31  C1  UNL     1       1.234  51.974 -26.684  1.00  0.00     0.055 C 
BRANCH  30  32
HETATM   32  C30 UNL     1      -0.910  53.094 -27.503  1.00  0.00     0.171 C 
HETATM   33  O3  UNL     1      -2.118  53.185 -27.370  1.00  0.00    -0.646 OA
BRANCH  32  34
HETATM   34  O4  UNL     1      -0.338  53.187 -28.713  1.00  0.00    -0.773 OA
HETATM   35  H44 UNL     1      -1.091  53.328 -29.323  1.00  0.00     0.167 HD
ENDBRANCH  32  34
ENDBRANCH  30  32
ENDBRANCH  27  29
ENDBRANCH  26  27
ENDBRANCH  24  26
ENDBRANCH   1  24
TORSDOF 6
ENDMDL
