MODEL 1
REMARK minimizedAffinity -9.27602386
REMARK  5 active torsions:
REMARK  status: ('A' for Active; 'I' for Inactive)
REMARK    1  A    between atoms: C2_2  and  C4_4 
REMARK    2  A    between atoms: C7_7  and  C8_8 
REMARK    3  A    between atoms: C8_8  and  O2_10 
REMARK    4  A    between atoms: C11_13  and  C12_14 
REMARK    5  A    between atoms: C12_14  and  O4_16 
ROOT
HETATM    1  C4  UNL     1      -2.203  49.023 -16.960  1.00  0.00     0.019 C 
HETATM    2  C5  UNL     1      -3.020  48.073 -16.046  1.00  0.00     0.011 C 
HETATM    3  C6  UNL     1      -3.705  47.058 -16.973  1.00  0.00     0.021 C 
HETATM    4  C7  UNL     1      -3.796  47.789 -18.317  1.00  0.00     0.050 C 
HETATM    5  C9  UNL     1      -3.966  46.882 -19.536  1.00  0.00     0.022 C 
HETATM    6  C10 UNL     1      -3.785  47.671 -20.850  1.00  0.00     0.023 C 
HETATM    7  C11 UNL     1      -2.517  48.608 -20.958  1.00  0.00     0.057 C 
HETATM    8  C13 UNL     1      -2.233  49.353 -19.612  1.00  0.00     0.011 C 
HETATM    9  C14 UNL     1      -0.877  50.064 -19.655  1.00  0.00     0.007 C 
HETATM   10  C15 UNL     1      -0.537  50.719 -20.998  1.00  0.00     0.006 C 
HETATM   11  C16 UNL     1      -1.749  51.019 -21.908  1.00  0.00     0.003 C 
HETATM   12  C17 UNL     1      -1.368  51.873 -23.229  1.00  0.00    -0.035 C 
HETATM   13  C18 UNL     1      -2.493  52.923 -23.460  1.00  0.00     0.016 C 
HETATM   14  C19 UNL     1      -0.046  52.676 -23.032  1.00  0.00     0.017 C 
HETATM   15  C20 UNL     1       0.429  53.435 -24.262  1.00  0.00     0.080 C 
HETATM   16  C21 UNL     1       0.580  52.511 -25.442  1.00  0.00     0.135 C 
HETATM   17  O5  UNL     1       1.570  52.614 -26.171  1.00  0.00    -0.297 OA
HETATM   18  C22 UNL     1      -0.581  51.556 -25.767  1.00  0.00     0.017 C 
HETATM   19  C23 UNL     1      -1.611  52.328 -26.605  1.00  0.00     0.023 C 
HETATM   20  C24 UNL     1      -0.006  50.433 -26.672  1.00  0.00     0.023 C 
HETATM   21  C25 UNL     1      -1.150  50.915 -24.447  1.00  0.00     0.009 C 
HETATM   22  C26 UNL     1      -2.402  50.054 -24.686  1.00  0.00     0.007 C 
HETATM   23  C27 UNL     1      -2.613  49.092 -23.529  1.00  0.00     0.011 C 
HETATM   24  C28 UNL     1      -2.717  49.749 -22.123  1.00  0.00    -0.022 C 
HETATM   25  C29 UNL     1      -4.174  50.327 -22.052  1.00  0.00     0.017 C 
HETATM   26  C30 UNL     1      -2.396  48.438 -18.380  1.00  0.00     0.018 C 
ENDROOT
BRANCH   4  27
HETATM   27  C8  UNL     1      -4.979  48.767 -18.232  1.00  0.00     0.149 C 
HETATM   28  O1  UNL     1      -5.064  49.879 -18.722  1.00  0.00    -0.649 OA
BRANCH  27  29
HETATM   29  O2  UNL     1      -6.003  48.292 -17.493  1.00  0.00    -0.776 OA
HETATM   30  H11 UNL     1      -6.661  49.017 -17.505  1.00  0.00     0.167 HD
ENDBRANCH  27  29
ENDBRANCH   4  27
BRANCH   1  31
HETATM   31  C2  UNL     1      -0.770  49.183 -16.481  1.00  0.00    -0.088 C 
HETATM   32  C1  UNL     1      -0.132  48.171 -15.866  1.00  0.00     0.014 C 
HETATM   33  C3  UNL     1      -0.062  50.491 -16.726  1.00  0.00     0.043 C 
ENDBRANCH   1  31
BRANCH   7  34
HETATM   34  C12 UNL     1      -1.295  47.688 -21.278  1.00  0.00     0.149 C 
HETATM   35  O3  UNL     1      -0.153  47.780 -20.855  1.00  0.00    -0.649 OA
BRANCH  34  36
HETATM   36  O4  UNL     1      -1.563  46.648 -22.089  1.00  0.00    -0.776 OA
HETATM   37  H16 UNL     1      -0.699  46.189 -22.163  1.00  0.00     0.167 HD
ENDBRANCH  34  36
ENDBRANCH   7  34
TORSDOF 5
ENDMDL
MODEL 2
REMARK minimizedAffinity -9.16311646
REMARK  5 active torsions:
REMARK  status: ('A' for Active; 'I' for Inactive)
REMARK    1  A    between atoms: C2_2  and  C4_4 
REMARK    2  A    between atoms: C7_7  and  C8_8 
REMARK    3  A    between atoms: C8_8  and  O2_10 
REMARK    4  A    between atoms: C11_13  and  C12_14 
REMARK    5  A    between atoms: C12_14  and  O4_16 
ROOT
HETATM    1  C4  UNL     1      -6.089  47.443 -27.188  1.00  0.00     0.019 C 
HETATM    2  C5  UNL     1      -7.406  47.276 -27.990  1.00  0.00     0.011 C 
HETATM    3  C6  UNL     1      -8.530  47.831 -27.103  1.00  0.00     0.021 C 
HETATM    4  C7  UNL     1      -7.976  47.700 -25.680  1.00  0.00     0.050 C 
HETATM    5  C9  UNL     1      -8.636  48.609 -24.643  1.00  0.00     0.022 C 
HETATM    6  C10 UNL     1      -7.850  48.604 -23.315  1.00  0.00     0.023 C 
HETATM    7  C11 UNL     1      -6.287  48.813 -23.402  1.00  0.00     0.057 C 
HETATM    8  C13 UNL     1      -5.669  48.049 -24.620  1.00  0.00     0.011 C 
HETATM    9  C14 UNL     1      -4.206  48.451 -24.834  1.00  0.00     0.007 C 
HETATM   10  C15 UNL     1      -3.400  48.650 -23.547  1.00  0.00     0.006 C 
HETATM   11  C16 UNL     1      -3.977  47.952 -22.295  1.00  0.00     0.003 C 
HETATM   12  C17 UNL     1      -3.004  48.034 -21.004  1.00  0.00    -0.035 C 
HETATM   13  C18 UNL     1      -3.045  46.654 -20.286  1.00  0.00     0.016 C 
HETATM   14  C19 UNL     1      -1.519  48.273 -21.418  1.00  0.00     0.017 C 
HETATM   15  C20 UNL     1      -0.553  48.451 -20.257  1.00  0.00     0.080 C 
HETATM   16  C21 UNL     1      -1.001  49.567 -19.349  1.00  0.00     0.135 C 
HETATM   17  O5  UNL     1      -0.170  50.372 -18.921  1.00  0.00    -0.297 OA
HETATM   18  C22 UNL     1      -2.468  49.580 -18.887  1.00  0.00     0.017 C 
HETATM   19  C23 UNL     1      -2.590  48.649 -17.670  1.00  0.00     0.023 C 
HETATM   20  C24 UNL     1      -2.777  51.019 -18.393  1.00  0.00     0.023 C 
HETATM   21  C25 UNL     1      -3.425  49.229 -20.086  1.00  0.00     0.009 C 
HETATM   22  C26 UNL     1      -4.896  49.089 -19.661  1.00  0.00     0.007 C 
HETATM   23  C27 UNL     1      -5.812  49.245 -20.864  1.00  0.00     0.011 C 
HETATM   24  C28 UNL     1      -5.536  48.271 -22.046  1.00  0.00    -0.022 C 
HETATM   25  C29 UNL     1      -6.169  46.905 -21.602  1.00  0.00     0.017 C 
HETATM   26  C30 UNL     1      -6.524  48.180 -25.899  1.00  0.00     0.018 C 
ENDROOT
BRANCH   4  27
HETATM   27  C8  UNL     1      -8.134  46.231 -25.257  1.00  0.00     0.149 C 
HETATM   28  O1  UNL     1      -7.861  45.236 -25.902  1.00  0.00    -0.649 OA
BRANCH  27  29
HETATM   29  O2  UNL     1      -8.667  46.093 -24.024  1.00  0.00    -0.776 OA
HETATM   30  H11 UNL     1      -8.731  45.124 -23.901  1.00  0.00     0.167 HD
ENDBRANCH  27  29
ENDBRANCH   4  27
BRANCH   1  31
HETATM   31  C2  UNL     1      -4.999  48.106 -28.015  1.00  0.00    -0.088 C 
HETATM   32  C1  UNL     1      -5.254  48.559 -29.256  1.00  0.00     0.014 C 
HETATM   33  C3  UNL     1      -3.628  48.273 -27.412  1.00  0.00     0.043 C 
ENDBRANCH   1  31
BRANCH   7  34
HETATM   34  C12 UNL     1      -6.041  50.343 -23.606  1.00  0.00     0.149 C 
HETATM   35  O3  UNL     1      -5.188  50.883 -24.293  1.00  0.00    -0.649 OA
BRANCH  34  36
HETATM   36  O4  UNL     1      -6.911  51.148 -22.969  1.00  0.00    -0.776 OA
HETATM   37  H16 UNL     1      -6.612  52.049 -23.219  1.00  0.00     0.167 HD
ENDBRANCH  34  36
ENDBRANCH   7  34
TORSDOF 5
ENDMDL
MODEL 3
REMARK minimizedAffinity -9.07391548
REMARK  5 active torsions:
REMARK  status: ('A' for Active; 'I' for Inactive)
REMARK    1  A    between atoms: C2_2  and  C4_4 
REMARK    2  A    between atoms: C7_7  and  C8_8 
REMARK    3  A    between atoms: C8_8  and  O2_10 
REMARK    4  A    between atoms: C11_13  and  C12_14 
REMARK    5  A    between atoms: C12_14  and  O4_16 
ROOT
HETATM    1  C4  UNL     1       0.367  52.423 -23.045  1.00  0.00     0.019 C 
HETATM    2  C5  UNL     1       0.702  53.370 -24.228  1.00  0.00     0.011 C 
HETATM    3  C6  UNL     1      -0.592  53.527 -25.041  1.00  0.00     0.021 C 
HETATM    4  C7  UNL     1      -1.387  52.256 -24.719  1.00  0.00     0.050 C 
HETATM    5  C9  UNL     1      -2.891  52.355 -24.971  1.00  0.00     0.022 C 
HETATM    6  C10 UNL     1      -3.637  51.140 -24.378  1.00  0.00     0.023 C 
HETATM    7  C11 UNL     1      -3.293  50.739 -22.890  1.00  0.00     0.057 C 
HETATM    8  C13 UNL     1      -1.762  50.871 -22.596  1.00  0.00     0.011 C 
HETATM    9  C14 UNL     1      -1.476  50.714 -21.099  1.00  0.00     0.007 C 
HETATM   10  C15 UNL     1      -2.317  49.647 -20.393  1.00  0.00     0.006 C 
HETATM   11  C16 UNL     1      -2.926  48.570 -21.319  1.00  0.00     0.003 C 
HETATM   12  C17 UNL     1      -3.650  47.365 -20.518  1.00  0.00    -0.035 C 
HETATM   13  C18 UNL     1      -3.296  46.032 -21.239  1.00  0.00     0.016 C 
HETATM   14  C19 UNL     1      -3.110  47.237 -19.061  1.00  0.00     0.017 C 
HETATM   15  C20 UNL     1      -3.805  46.183 -18.213  1.00  0.00     0.080 C 
HETATM   16  C21 UNL     1      -5.292  46.417 -18.172  1.00  0.00     0.135 C 
HETATM   17  O5  UNL     1      -5.896  46.307 -17.102  1.00  0.00    -0.297 OA
HETATM   18  C22 UNL     1      -6.024  46.661 -19.503  1.00  0.00     0.017 C 
HETATM   19  C23 UNL     1      -6.337  45.293 -20.129  1.00  0.00     0.023 C 
HETATM   20  C24 UNL     1      -7.383  47.328 -19.160  1.00  0.00     0.023 C 
HETATM   21  C25 UNL     1      -5.189  47.631 -20.418  1.00  0.00     0.009 C 
HETATM   22  C26 UNL     1      -5.797  47.808 -21.820  1.00  0.00     0.007 C 
HETATM   23  C27 UNL     1      -5.272  49.078 -22.469  1.00  0.00     0.011 C 
HETATM   24  C28 UNL     1      -3.724  49.185 -22.576  1.00  0.00    -0.022 C 
HETATM   25  C29 UNL     1      -3.338  48.273 -23.793  1.00  0.00     0.017 C 
HETATM   26  C30 UNL     1      -1.150  52.155 -23.196  1.00  0.00     0.018 C 
ENDROOT
BRANCH   4  27
HETATM   27  C8  UNL     1      -0.794  51.116 -25.561  1.00  0.00     0.149 C 
HETATM   28  O1  UNL     1       0.382  50.850 -25.734  1.00  0.00    -0.649 OA
BRANCH  27  29
HETATM   29  O2  UNL     1      -1.736  50.371 -26.176  1.00  0.00    -0.776 OA
HETATM   30  H11 UNL     1      -1.222  49.711 -26.686  1.00  0.00     0.167 HD
ENDBRANCH  27  29
ENDBRANCH   4  27
BRANCH   1  31
HETATM   31  C2  UNL     1       0.827  52.991 -21.713  1.00  0.00    -0.088 C 
HETATM   32  C1  UNL     1       0.998  54.316 -21.550  1.00  0.00     0.014 C 
HETATM   33  C3  UNL     1       1.069  52.047 -20.564  1.00  0.00     0.043 C 
ENDBRANCH   1  31
BRANCH   7  34
HETATM   34  C12 UNL     1      -4.059  51.733 -21.960  1.00  0.00     0.149 C 
HETATM   35  O3  UNL     1      -4.098  51.744 -20.739  1.00  0.00    -0.649 OA
BRANCH  34  36
HETATM   36  O4  UNL     1      -4.720  52.715 -22.600  1.00  0.00    -0.776 OA
HETATM   37  H16 UNL     1      -5.120  53.234 -21.869  1.00  0.00     0.167 HD
ENDBRANCH  34  36
ENDBRANCH   7  34
TORSDOF 5
ENDMDL
MODEL 4
REMARK minimizedAffinity -8.68453121
REMARK  5 active torsions:
REMARK  status: ('A' for Active; 'I' for Inactive)
REMARK    1  A    between atoms: C2_2  and  C4_4 
REMARK    2  A    between atoms: C7_7  and  C8_8 
REMARK    3  A    between atoms: C8_8  and  O2_10 
REMARK    4  A    between atoms: C11_13  and  C12_14 
REMARK    5  A    between atoms: C12_14  and  O4_16 
ROOT
HETATM    1  C4  UNL     1      -7.719  46.464 -27.083  1.00  0.00     0.019 C 
HETATM    2  C5  UNL     1      -9.047  45.746 -27.440  1.00  0.00     0.011 C 
HETATM    3  C6  UNL     1      -9.949  45.856 -26.202  1.00  0.00     0.021 C 
HETATM    4  C7  UNL     1      -8.962  46.029 -25.041  1.00  0.00     0.050 C 
HETATM    5  C9  UNL     1      -9.555  46.655 -23.778  1.00  0.00     0.022 C 
HETATM    6  C10 UNL     1      -8.449  47.031 -22.769  1.00  0.00     0.023 C 
HETATM    7  C11 UNL     1      -7.211  47.839 -23.327  1.00  0.00     0.057 C 
HETATM    8  C13 UNL     1      -6.770  47.320 -24.736  1.00  0.00     0.011 C 
HETATM    9  C14 UNL     1      -5.735  48.258 -25.365  1.00  0.00     0.007 C 
HETATM   10  C15 UNL     1      -4.704  48.827 -24.385  1.00  0.00     0.006 C 
HETATM   11  C16 UNL     1      -4.526  48.023 -23.078  1.00  0.00     0.003 C 
HETATM   12  C17 UNL     1      -3.305  48.553 -22.157  1.00  0.00    -0.035 C 
HETATM   13  C18 UNL     1      -2.570  47.309 -21.578  1.00  0.00     0.016 C 
HETATM   14  C19 UNL     1      -2.251  49.338 -22.996  1.00  0.00     0.017 C 
HETATM   15  C20 UNL     1      -1.115  49.946 -22.187  1.00  0.00     0.080 C 
HETATM   16  C21 UNL     1      -1.647  50.838 -21.096  1.00  0.00     0.135 C 
HETATM   17  O5  UNL     1      -1.108  51.928 -20.886  1.00  0.00    -0.297 OA
HETATM   18  C22 UNL     1      -2.768  50.292 -20.196  1.00  0.00     0.017 C 
HETATM   19  C23 UNL     1      -2.118  49.454 -19.084  1.00  0.00     0.023 C 
HETATM   20  C24 UNL     1      -3.439  51.514 -19.513  1.00  0.00     0.023 C 
HETATM   21  C25 UNL     1      -3.841  49.529 -21.057  1.00  0.00     0.009 C 
HETATM   22  C26 UNL     1      -4.918  48.839 -20.204  1.00  0.00     0.007 C 
HETATM   23  C27 UNL     1      -6.155  48.555 -21.041  1.00  0.00     0.011 C 
HETATM   24  C28 UNL     1      -5.915  47.710 -22.325  1.00  0.00    -0.022 C 
HETATM   25  C29 UNL     1      -5.783  46.231 -21.819  1.00  0.00     0.017 C 
HETATM   26  C30 UNL     1      -7.969  47.034 -25.665  1.00  0.00     0.018 C 
ENDROOT
BRANCH   4  27
HETATM   27  C8  UNL     1      -8.388  44.643 -24.712  1.00  0.00     0.149 C 
HETATM   28  O1  UNL     1      -7.941  43.817 -25.488  1.00  0.00    -0.649 OA
BRANCH  27  29
HETATM   29  O2  UNL     1      -8.434  44.353 -23.395  1.00  0.00    -0.776 OA
HETATM   30  H11 UNL     1      -8.066  43.447 -23.338  1.00  0.00     0.167 HD
ENDBRANCH  27  29
ENDBRANCH   4  27
BRANCH   1  31
HETATM   31  C2  UNL     1      -7.304  47.461 -28.152  1.00  0.00    -0.088 C 
HETATM   32  C1  UNL     1      -6.056  47.452 -28.656  1.00  0.00     0.014 C 
HETATM   33  C3  UNL     1      -8.322  48.450 -28.660  1.00  0.00     0.043 C 
ENDBRANCH   1  31
BRANCH   7  34
HETATM   34  C12 UNL     1      -7.663  49.327 -23.471  1.00  0.00     0.149 C 
HETATM   35  O3  UNL     1      -7.436  50.259 -22.716  1.00  0.00    -0.649 OA
BRANCH  34  36
HETATM   36  O4  UNL     1      -8.354  49.605 -24.592  1.00  0.00    -0.776 OA
HETATM   37  H16 UNL     1      -8.537  50.566 -24.514  1.00  0.00     0.167 HD
ENDBRANCH  34  36
ENDBRANCH   7  34
TORSDOF 5
ENDMDL
MODEL 5
REMARK minimizedAffinity -8.60845852
REMARK  5 active torsions:
REMARK  status: ('A' for Active; 'I' for Inactive)
REMARK    1  A    between atoms: C2_2  and  C4_4 
REMARK    2  A    between atoms: C7_7  and  C8_8 
REMARK    3  A    between atoms: C8_8  and  O2_10 
REMARK    4  A    between atoms: C11_13  and  C12_14 
REMARK    5  A    between atoms: C12_14  and  O4_16 
ROOT
HETATM    1  C4  UNL     1      -0.710  52.085 -22.162  1.00  0.00     0.019 C 
HETATM    2  C5  UNL     1       0.456  52.753 -21.387  1.00  0.00     0.011 C 
HETATM    3  C6  UNL     1       0.759  51.844 -20.186  1.00  0.00     0.021 C 
HETATM    4  C7  UNL     1      -0.559  51.097 -19.948  1.00  0.00     0.050 C 
HETATM    5  C9  UNL     1      -0.428  49.790 -19.165  1.00  0.00     0.022 C 
HETATM    6  C10 UNL     1      -1.744  48.983 -19.201  1.00  0.00     0.023 C 
HETATM    7  C11 UNL     1      -2.428  48.785 -20.611  1.00  0.00     0.057 C 
HETATM    8  C13 UNL     1      -2.342  50.081 -21.483  1.00  0.00     0.011 C 
HETATM    9  C14 UNL     1      -2.789  49.804 -22.921  1.00  0.00     0.007 C 
HETATM   10  C15 UNL     1      -3.985  48.855 -23.051  1.00  0.00     0.006 C 
HETATM   11  C16 UNL     1      -4.862  48.726 -21.785  1.00  0.00     0.003 C 
HETATM   12  C17 UNL     1      -6.209  47.861 -22.020  1.00  0.00    -0.035 C 
HETATM   13  C18 UNL     1      -7.369  48.569 -21.260  1.00  0.00     0.016 C 
HETATM   14  C19 UNL     1      -6.619  47.832 -23.525  1.00  0.00     0.017 C 
HETATM   15  C20 UNL     1      -7.827  46.965 -23.841  1.00  0.00     0.080 C 
HETATM   16  C21 UNL     1      -7.621  45.554 -23.355  1.00  0.00     0.135 C 
HETATM   17  O5  UNL     1      -7.948  44.609 -24.077  1.00  0.00    -0.297 OA
HETATM   18  C22 UNL     1      -7.125  45.350 -21.913  1.00  0.00     0.017 C 
HETATM   19  C23 UNL     1      -8.345  45.407 -20.980  1.00  0.00     0.023 C 
HETATM   20  C24 UNL     1      -6.553  43.909 -21.829  1.00  0.00     0.023 C 
HETATM   21  C25 UNL     1      -5.984  46.378 -21.574  1.00  0.00     0.009 C 
HETATM   22  C26 UNL     1      -5.539  46.320 -20.103  1.00  0.00     0.007 C 
HETATM   23  C27 UNL     1      -4.160  46.938 -19.943  1.00  0.00     0.011 C 
HETATM   24  C28 UNL     1      -4.018  48.401 -20.452  1.00  0.00    -0.022 C 
HETATM   25  C29 UNL     1      -4.666  49.286 -19.331  1.00  0.00     0.017 C 
HETATM   26  C30 UNL     1      -0.958  50.760 -21.402  1.00  0.00     0.018 C 
ENDROOT
BRANCH   4  27
HETATM   27  C8  UNL     1      -1.504  52.054 -19.204  1.00  0.00     0.149 C 
HETATM   28  O1  UNL     1      -2.717  51.988 -19.120  1.00  0.00    -0.649 OA
BRANCH  27  29
HETATM   29  O2  UNL     1      -0.856  53.079 -18.613  1.00  0.00    -0.776 OA
HETATM   30  H11 UNL     1      -1.572  53.610 -18.206  1.00  0.00     0.167 HD
ENDBRANCH  27  29
ENDBRANCH   4  27
BRANCH   1  31
HETATM   31  C2  UNL     1      -0.413  51.970 -23.649  1.00  0.00    -0.088 C 
HETATM   32  C1  UNL     1      -1.112  51.123 -24.427  1.00  0.00     0.014 C 
HETATM   33  C3  UNL     1       0.664  52.837 -24.246  1.00  0.00     0.043 C 
ENDBRANCH   1  31
BRANCH   7  34
HETATM   34  C12 UNL     1      -1.646  47.647 -21.343  1.00  0.00     0.149 C 
HETATM   35  O3  UNL     1      -2.063  46.872 -22.189  1.00  0.00    -0.649 OA
BRANCH  34  36
HETATM   36  O4  UNL     1      -0.345  47.551 -21.015  1.00  0.00    -0.776 OA
HETATM   37  H16 UNL     1      -0.025  46.807 -21.570  1.00  0.00     0.167 HD
ENDBRANCH  34  36
ENDBRANCH   7  34
TORSDOF 5
ENDMDL
MODEL 6
REMARK minimizedAffinity -8.34371662
REMARK  5 active torsions:
REMARK  status: ('A' for Active; 'I' for Inactive)
REMARK    1  A    between atoms: C2_2  and  C4_4 
REMARK    2  A    between atoms: C7_7  and  C8_8 
REMARK    3  A    between atoms: C8_8  and  O2_10 
REMARK    4  A    between atoms: C11_13  and  C12_14 
REMARK    5  A    between atoms: C12_14  and  O4_16 
ROOT
HETATM    1  C4  UNL     1      -5.026  47.645 -21.014  1.00  0.00     0.019 C 
HETATM    2  C5  UNL     1      -6.454  47.122 -20.708  1.00  0.00     0.011 C 
HETATM    3  C6  UNL     1      -7.304  47.419 -21.952  1.00  0.00     0.021 C 
HETATM    4  C7  UNL     1      -6.583  48.596 -22.618  1.00  0.00     0.050 C 
HETATM    5  C9  UNL     1      -6.892  48.785 -24.104  1.00  0.00     0.022 C 
HETATM    6  C10 UNL     1      -5.935  49.813 -24.747  1.00  0.00     0.023 C 
HETATM    7  C11 UNL     1      -4.392  49.636 -24.462  1.00  0.00     0.057 C 
HETATM    8  C13 UNL     1      -4.122  49.214 -22.979  1.00  0.00     0.011 C 
HETATM    9  C14 UNL     1      -2.657  48.814 -22.781  1.00  0.00     0.007 C 
HETATM   10  C15 UNL     1      -1.647  49.678 -23.544  1.00  0.00     0.006 C 
HETATM   11  C16 UNL     1      -2.159  51.074 -23.961  1.00  0.00     0.003 C 
HETATM   12  C17 UNL     1      -1.010  52.019 -24.599  1.00  0.00    -0.035 C 
HETATM   13  C18 UNL     1      -1.216  53.460 -24.048  1.00  0.00     0.016 C 
HETATM   14  C19 UNL     1       0.415  51.573 -24.149  1.00  0.00     0.017 C 
HETATM   15  C20 UNL     1       1.558  52.356 -24.777  1.00  0.00     0.080 C 
HETATM   16  C21 UNL     1       1.476  52.317 -26.281  1.00  0.00     0.135 C 
HETATM   17  O5  UNL     1       2.503  52.134 -26.940  1.00  0.00    -0.297 OA
HETATM   18  C22 UNL     1       0.125  52.637 -26.941  1.00  0.00     0.017 C 
HETATM   19  C23 UNL     1       0.003  54.165 -27.055  1.00  0.00     0.023 C 
HETATM   20  C24 UNL     1       0.181  52.075 -28.388  1.00  0.00     0.023 C 
HETATM   21  C25 UNL     1      -1.048  51.936 -26.161  1.00  0.00     0.009 C 
HETATM   22  C26 UNL     1      -2.439  52.327 -26.687  1.00  0.00     0.007 C 
HETATM   23  C27 UNL     1      -3.473  51.296 -26.266  1.00  0.00     0.011 C 
HETATM   24  C28 UNL     1      -3.571  51.032 -24.736  1.00  0.00    -0.022 C 
HETATM   25  C29 UNL     1      -4.388  52.245 -24.167  1.00  0.00     0.017 C 
HETATM   26  C30 UNL     1      -5.113  48.142 -22.477  1.00  0.00     0.018 C 
ENDROOT
BRANCH   4  27
HETATM   27  C8  UNL     1      -6.963  49.868 -21.844  1.00  0.00     0.149 C 
HETATM   28  O1  UNL     1      -6.815  50.090 -20.656  1.00  0.00    -0.649 OA
BRANCH  27  29
HETATM   29  O2  UNL     1      -7.548  50.803 -22.622  1.00  0.00    -0.776 OA
HETATM   30  H11 UNL     1      -7.754  51.533 -22.002  1.00  0.00     0.167 HD
ENDBRANCH  27  29
ENDBRANCH   4  27
BRANCH   1  31
HETATM   31  C2  UNL     1      -3.960  46.603 -20.713  1.00  0.00    -0.088 C 
HETATM   32  C1  UNL     1      -2.754  46.968 -20.243  1.00  0.00     0.014 C 
HETATM   33  C3  UNL     1      -4.284  45.148 -20.928  1.00  0.00     0.043 C 
ENDBRANCH   1  31
BRANCH   7  34
HETATM   34  C12 UNL     1      -3.883  48.492 -25.398  1.00  0.00     0.149 C 
HETATM   35  O3  UNL     1      -2.739  48.086 -25.536  1.00  0.00    -0.649 OA
BRANCH  34  36
HETATM   36  O4  UNL     1      -4.842  47.864 -26.101  1.00  0.00    -0.776 OA
HETATM   37  H16 UNL     1      -4.346  47.187 -26.609  1.00  0.00     0.167 HD
ENDBRANCH  34  36
ENDBRANCH   7  34
TORSDOF 5
ENDMDL
MODEL 7
REMARK minimizedAffinity -8.29555607
REMARK  5 active torsions:
REMARK  status: ('A' for Active; 'I' for Inactive)
REMARK    1  A    between atoms: C2_2  and  C4_4 
REMARK    2  A    between atoms: C7_7  and  C8_8 
REMARK    3  A    between atoms: C8_8  and  O2_10 
REMARK    4  A    between atoms: C11_13  and  C12_14 
REMARK    5  A    between atoms: C12_14  and  O4_16 
ROOT
HETATM    1  C4  UNL     1      -0.304  51.985 -18.915  1.00  0.00     0.019 C 
HETATM    2  C5  UNL     1       0.756  52.043 -17.784  1.00  0.00     0.011 C 
HETATM    3  C6  UNL     1       0.726  50.675 -17.087  1.00  0.00     0.021 C 
HETATM    4  C7  UNL     1      -0.685  50.147 -17.373  1.00  0.00     0.050 C 
HETATM    5  C9  UNL     1      -0.846  48.633 -17.244  1.00  0.00     0.022 C 
HETATM    6  C10 UNL     1      -2.210  48.167 -17.799  1.00  0.00     0.023 C 
HETATM    7  C11 UNL     1      -2.630  48.707 -19.223  1.00  0.00     0.057 C 
HETATM    8  C13 UNL     1      -2.240  50.211 -19.409  1.00  0.00     0.011 C 
HETATM    9  C14 UNL     1      -2.431  50.651 -20.863  1.00  0.00     0.007 C 
HETATM   10  C15 UNL     1      -3.674  50.076 -21.550  1.00  0.00     0.006 C 
HETATM   11  C16 UNL     1      -4.786  49.586 -20.595  1.00  0.00     0.003 C 
HETATM   12  C17 UNL     1      -6.148  49.158 -21.357  1.00  0.00    -0.035 C 
HETATM   13  C18 UNL     1      -7.350  49.676 -20.513  1.00  0.00     0.016 C 
HETATM   14  C19 UNL     1      -6.263  49.840 -22.755  1.00  0.00     0.017 C 
HETATM   15  C20 UNL     1      -7.474  49.419 -23.573  1.00  0.00     0.080 C 
HETATM   16  C21 UNL     1      -7.516  47.922 -23.744  1.00  0.00     0.135 C 
HETATM   17  O5  UNL     1      -7.798  47.445 -24.846  1.00  0.00    -0.297 OA
HETATM   18  C22 UNL     1      -7.330  47.045 -22.495  1.00  0.00     0.017 C 
HETATM   19  C23 UNL     1      -8.692  46.922 -21.794  1.00  0.00     0.023 C 
HETATM   20  C24 UNL     1      -6.942  45.625 -22.990  1.00  0.00     0.023 C 
HETATM   21  C25 UNL     1      -6.172  47.612 -21.593  1.00  0.00     0.009 C 
HETATM   22  C26 UNL     1      -6.024  46.861 -20.259  1.00  0.00     0.007 C 
HETATM   23  C27 UNL     1      -4.644  47.095 -19.669  1.00  0.00     0.011 C 
HETATM   24  C28 UNL     1      -4.252  48.584 -19.452  1.00  0.00    -0.022 C 
HETATM   25  C29 UNL     1      -5.004  49.015 -18.145  1.00  0.00     0.017 C 
HETATM   26  C30 UNL     1      -0.833  50.532 -18.861  1.00  0.00     0.018 C 
ENDROOT
BRANCH   4  27
HETATM   27  C8  UNL     1      -1.647  50.854 -16.405  1.00  0.00     0.149 C 
HETATM   28  O1  UNL     1      -1.571  50.916 -15.191  1.00  0.00    -0.649 OA
BRANCH  27  29
HETATM   29  O2  UNL     1      -2.692  51.435 -17.031  1.00  0.00    -0.776 OA
HETATM   30  H11 UNL     1      -3.223  51.817 -16.303  1.00  0.00     0.167 HD
ENDBRANCH  27  29
ENDBRANCH   4  27
BRANCH   1  31
HETATM   31  C2  UNL     1       0.257  52.455 -20.247  1.00  0.00    -0.088 C 
HETATM   32  C1  UNL     1       0.475  51.584 -21.249  1.00  0.00     0.014 C 
HETATM   33  C3  UNL     1       0.546  53.922 -20.439  1.00  0.00     0.043 C 
ENDBRANCH   1  31
BRANCH   7  34
HETATM   34  C12 UNL     1      -1.848  47.863 -20.281  1.00  0.00     0.149 C 
HETATM   35  O3  UNL     1      -0.659  47.915 -20.556  1.00  0.00    -0.649 OA
BRANCH  34  36
HETATM   36  O4  UNL     1      -2.585  46.944 -20.931  1.00  0.00    -0.776 OA
HETATM   37  H16 UNL     1      -1.936  46.515 -21.530  1.00  0.00     0.167 HD
ENDBRANCH  34  36
ENDBRANCH   7  34
TORSDOF 5
ENDMDL
MODEL 8
REMARK minimizedAffinity -8.25842667
REMARK  5 active torsions:
REMARK  status: ('A' for Active; 'I' for Inactive)
REMARK    1  A    between atoms: C2_2  and  C4_4 
REMARK    2  A    between atoms: C7_7  and  C8_8 
REMARK    3  A    between atoms: C8_8  and  O2_10 
REMARK    4  A    between atoms: C11_13  and  C12_14 
REMARK    5  A    between atoms: C12_14  and  O4_16 
ROOT
HETATM    1  C4  UNL     1      -4.905  48.519 -17.996  1.00  0.00     0.019 C 
HETATM    2  C5  UNL     1      -6.016  47.589 -17.444  1.00  0.00     0.011 C 
HETATM    3  C6  UNL     1      -6.454  46.692 -18.612  1.00  0.00     0.021 C 
HETATM    4  C7  UNL     1      -6.090  47.506 -19.859  1.00  0.00     0.050 C 
HETATM    5  C9  UNL     1      -5.943  46.690 -21.143  1.00  0.00     0.022 C 
HETATM    6  C10 UNL     1      -5.326  47.538 -22.276  1.00  0.00     0.023 C 
HETATM    7  C11 UNL     1      -4.028  48.369 -21.928  1.00  0.00     0.057 C 
HETATM    8  C13 UNL     1      -4.115  49.007 -20.502  1.00  0.00     0.011 C 
HETATM    9  C14 UNL     1      -2.767  49.602 -20.085  1.00  0.00     0.007 C 
HETATM   10  C15 UNL     1      -1.999  50.305 -21.209  1.00  0.00     0.006 C 
HETATM   11  C16 UNL     1      -2.860  50.758 -22.409  1.00  0.00     0.003 C 
HETATM   12  C17 UNL     1      -2.047  51.654 -23.484  1.00  0.00    -0.035 C 
HETATM   13  C18 UNL     1      -2.982  52.807 -23.950  1.00  0.00     0.016 C 
HETATM   14  C19 UNL     1      -0.797  52.330 -22.841  1.00  0.00     0.017 C 
HETATM   15  C20 UNL     1       0.072  53.118 -23.810  1.00  0.00     0.080 C 
HETATM   16  C21 UNL     1       0.512  52.256 -24.964  1.00  0.00     0.135 C 
HETATM   17  O5  UNL     1       1.679  52.317 -25.357  1.00  0.00    -0.297 OA
HETATM   18  C22 UNL     1      -0.556  51.422 -25.694  1.00  0.00     0.017 C 
HETATM   19  C23 UNL     1      -1.236  52.327 -26.733  1.00  0.00     0.023 C 
HETATM   20  C24 UNL     1       0.193  50.310 -26.477  1.00  0.00     0.023 C 
HETATM   21  C25 UNL     1      -1.533  50.754 -24.658  1.00  0.00     0.009 C 
HETATM   22  C26 UNL     1      -2.707  50.018 -25.325  1.00  0.00     0.007 C 
HETATM   23  C27 UNL     1      -3.316  49.011 -24.365  1.00  0.00     0.011 C 
HETATM   24  C28 UNL     1      -3.797  49.590 -23.003  1.00  0.00    -0.022 C 
HETATM   25  C29 UNL     1      -5.168  50.283 -23.318  1.00  0.00     0.017 C 
HETATM   26  C30 UNL     1      -4.698  48.037 -19.452  1.00  0.00     0.018 C 
ENDROOT
BRANCH   4  27
HETATM   27  C8  UNL     1      -7.180  48.574 -20.046  1.00  0.00     0.149 C 
HETATM   28  O1  UNL     1      -7.067  49.782 -19.940  1.00  0.00    -0.649 OA
BRANCH  27  29
HETATM   29  O2  UNL     1      -8.388  48.047 -20.337  1.00  0.00    -0.776 OA
HETATM   30  H11 UNL     1      -8.977  48.827 -20.403  1.00  0.00     0.167 HD
ENDBRANCH  27  29
ENDBRANCH   4  27
BRANCH   1  31
HETATM   31  C2  UNL     1      -3.674  48.530 -17.103  1.00  0.00    -0.088 C 
HETATM   32  C1  UNL     1      -3.259  49.666 -16.515  1.00  0.00     0.014 C 
HETATM   33  C3  UNL     1      -2.936  47.238 -16.866  1.00  0.00     0.043 C 
ENDBRANCH   1  31
BRANCH   7  34
HETATM   34  C12 UNL     1      -2.827  47.370 -21.946  1.00  0.00     0.149 C 
HETATM   35  O3  UNL     1      -1.760  47.487 -22.528  1.00  0.00    -0.649 OA
BRANCH  34  36
HETATM   36  O4  UNL     1      -2.992  46.269 -21.191  1.00  0.00    -0.776 OA
HETATM   37  H16 UNL     1      -2.151  45.779 -21.316  1.00  0.00     0.167 HD
ENDBRANCH  34  36
ENDBRANCH   7  34
TORSDOF 5
ENDMDL
MODEL 9
REMARK minimizedAffinity -8.1832943
REMARK  5 active torsions:
REMARK  status: ('A' for Active; 'I' for Inactive)
REMARK    1  A    between atoms: C2_2  and  C4_4 
REMARK    2  A    between atoms: C7_7  and  C8_8 
REMARK    3  A    between atoms: C8_8  and  O2_10 
REMARK    4  A    between atoms: C11_13  and  C12_14 
REMARK    5  A    between atoms: C12_14  and  O4_16 
ROOT
HETATM    1  C4  UNL     1      -8.766  44.448 -27.551  1.00  0.00     0.019 C 
HETATM    2  C5  UNL     1     -10.033  43.556 -27.476  1.00  0.00     0.011 C 
HETATM    3  C6  UNL     1     -10.956  44.196 -26.428  1.00  0.00     0.021 C 
HETATM    4  C7  UNL     1      -9.999  44.987 -25.528  1.00  0.00     0.050 C 
HETATM    5  C9  UNL     1     -10.651  46.108 -24.720  1.00  0.00     0.022 C 
HETATM    6  C10 UNL     1      -9.588  47.009 -24.055  1.00  0.00     0.023 C 
HETATM    7  C11 UNL     1      -8.406  47.522 -24.969  1.00  0.00     0.057 C 
HETATM    8  C13 UNL     1      -7.911  46.411 -25.953  1.00  0.00     0.011 C 
HETATM    9  C14 UNL     1      -6.941  46.988 -26.987  1.00  0.00     0.007 C 
HETATM   10  C15 UNL     1      -5.967  48.037 -26.440  1.00  0.00     0.006 C 
HETATM   11  C16 UNL     1      -5.746  47.994 -24.912  1.00  0.00     0.003 C 
HETATM   12  C17 UNL     1      -4.578  48.992 -24.401  1.00  0.00    -0.035 C 
HETATM   13  C18 UNL     1      -3.760  48.248 -23.305  1.00  0.00     0.016 C 
HETATM   14  C19 UNL     1      -3.575  49.335 -25.545  1.00  0.00     0.017 C 
HETATM   15  C20 UNL     1      -2.497  50.340 -25.168  1.00  0.00     0.080 C 
HETATM   16  C21 UNL     1      -3.106  51.614 -24.642  1.00  0.00     0.135 C 
HETATM   17  O5  UNL     1      -2.652  52.701 -25.008  1.00  0.00    -0.297 OA
HETATM   18  C22 UNL     1      -4.195  51.503 -23.561  1.00  0.00     0.017 C 
HETATM   19  C23 UNL     1      -3.498  51.367 -22.198  1.00  0.00     0.023 C 
HETATM   20  C24 UNL     1      -4.963  52.852 -23.548  1.00  0.00     0.023 C 
HETATM   21  C25 UNL     1      -5.198  50.342 -23.909  1.00  0.00     0.009 C 
HETATM   22  C26 UNL     1      -6.232  50.086 -22.799  1.00  0.00     0.007 C 
HETATM   23  C27 UNL     1      -7.434  49.342 -23.356  1.00  0.00     0.011 C 
HETATM   24  C28 UNL     1      -7.117  47.994 -24.067  1.00  0.00    -0.022 C 
HETATM   25  C29 UNL     1      -6.882  46.968 -22.903  1.00  0.00     0.017 C 
HETATM   26  C30 UNL     1      -9.074  45.622 -26.590  1.00  0.00     0.018 C 
ENDROOT
BRANCH   4  27
HETATM   27  C8  UNL     1      -9.327  43.985 -24.576  1.00  0.00     0.149 C 
HETATM   28  O1  UNL     1      -9.867  43.223 -23.794  1.00  0.00    -0.649 OA
BRANCH  27  29
HETATM   29  O2  UNL     1      -7.980  44.017 -24.642  1.00  0.00    -0.776 OA
HETATM   30  H11 UNL     1      -7.694  43.358 -23.976  1.00  0.00     0.167 HD
ENDBRANCH  27  29
ENDBRANCH   4  27
BRANCH   1  31
HETATM   31  C2  UNL     1      -8.413  44.817 -28.983  1.00  0.00    -0.088 C 
HETATM   32  C1  UNL     1      -7.332  44.289 -29.584  1.00  0.00     0.014 C 
HETATM   33  C3  UNL     1      -9.309  45.771 -29.731  1.00  0.00     0.043 C 
ENDBRANCH   1  31
BRANCH   7  34
HETATM   34  C12 UNL     1      -8.966  48.712 -25.813  1.00  0.00     0.149 C 
HETATM   35  O3  UNL     1      -9.358  48.695 -26.970  1.00  0.00    -0.649 OA
BRANCH  34  36
HETATM   36  O4  UNL     1      -9.056  49.883 -25.156  1.00  0.00    -0.776 OA
HETATM   37  H16 UNL     1      -9.430  50.493 -25.828  1.00  0.00     0.167 HD
ENDBRANCH  34  36
ENDBRANCH   7  34
TORSDOF 5
ENDMDL
