MODEL 1
REMARK minimizedAffinity -10.077713
REMARK  4 active torsions:
REMARK  status: ('A' for Active; 'I' for Inactive)
REMARK    1  A    between atoms: C2_2  and  C4_4 
REMARK    2  A    between atoms: C4_4  and  C5_5 
REMARK    3  A    between atoms: C5_5  and  O1_6 
REMARK    4  A    between atoms: C8_9  and  C9_10 
ROOT
HETATM    1  C9  UNL     1      -1.624  50.687 -23.438  1.00  0.00     0.001 C 
HETATM    2  C10 UNL     1      -1.400  51.340 -22.049  1.00  0.00     0.007 C 
HETATM    3  C11 UNL     1      -2.659  51.056 -21.210  1.00  0.00     0.011 C 
HETATM    4  C12 UNL     1      -3.421  49.960 -21.979  1.00  0.00    -0.032 C 
HETATM    5  C13 UNL     1      -2.778  48.598 -21.565  1.00  0.00     0.016 C 
HETATM    6  C14 UNL     1      -4.949  49.935 -21.720  1.00  0.00     0.004 C 
HETATM    7  C15 UNL     1      -5.333  49.452 -20.316  1.00  0.00     0.007 C 
HETATM    8  C16 UNL     1      -6.839  49.574 -20.127  1.00  0.00     0.007 C 
HETATM    9  C17 UNL     1      -7.609  48.534 -20.968  1.00  0.00     0.010 C 
HETATM   10  C18 UNL     1      -7.725  47.097 -20.317  1.00  0.00     0.018 C 
HETATM   11  C19 UNL     1      -9.181  46.579 -20.406  1.00  0.00     0.023 C 
HETATM   12  C20 UNL     1      -7.367  47.042 -18.814  1.00  0.00     0.023 C 
HETATM   13  C21 UNL     1      -6.830  46.105 -21.072  1.00  0.00     0.135 C 
HETATM   14  O2  UNL     1      -6.034  45.362 -20.493  1.00  0.00    -0.297 OA
HETATM   15  C22 UNL     1      -6.999  45.990 -22.571  1.00  0.00     0.080 C 
HETATM   16  C23 UNL     1      -7.555  47.262 -23.185  1.00  0.00     0.018 C 
HETATM   17  C24 UNL     1      -7.077  48.485 -22.430  1.00  0.00    -0.026 A 
HETATM   18  C25 UNL     1      -7.065  49.770 -23.218  1.00  0.00     0.021 A 
HETATM   19  C26 UNL     1      -5.727  49.166 -22.816  1.00  0.00    -0.027 A 
HETATM   20  C27 UNL     1      -4.899  48.536 -23.947  1.00  0.00     0.011 C 
HETATM   21  C28 UNL     1      -3.600  49.241 -24.380  1.00  0.00     0.011 C 
HETATM   22  C29 UNL     1      -3.158  50.391 -23.468  1.00  0.00    -0.032 C 
HETATM   23  C30 UNL     1      -3.943  51.657 -23.905  1.00  0.00     0.016 C 
ENDROOT
BRANCH   1  24
HETATM   24  C8  UNL     1      -0.884  51.411 -24.594  1.00  0.00     0.014 C 
HETATM   25  C7  UNL     1       0.293  52.323 -24.209  1.00  0.00     0.010 C 
HETATM   26  C6  UNL     1       0.372  53.563 -25.097  1.00  0.00     0.041 C 
HETATM   27  C4  UNL     1       0.100  53.256 -26.591  1.00  0.00     0.085 C 
HETATM   28  O3  UNL     1      -1.132  52.511 -26.760  1.00  0.00    -0.377 OA
HETATM   29  C31 UNL     1      -1.820  52.122 -25.573  1.00  0.00     0.174 C 
BRANCH  27  30
HETATM   30  C2  UNL     1       1.231  52.369 -27.228  1.00  0.00     0.014 C 
HETATM   31  C1  UNL     1       0.775  51.414 -28.335  1.00  0.00     0.012 C 
HETATM   32  C3  UNL     1       2.029  51.571 -26.182  1.00  0.00     0.012 C 
ENDBRANCH  27  30
BRANCH  27  33
HETATM   33  C5  UNL     1      -0.122  54.594 -27.348  1.00  0.00     0.202 C 
BRANCH  33  34
HETATM   34  O1  UNL     1       0.189  55.750 -26.581  1.00  0.00    -0.398 OA
HETATM   35  H10 UNL     1      -0.535  55.888 -25.949  1.00  0.00     0.209 HD
ENDBRANCH  33  34
ENDBRANCH  27  33
ENDBRANCH   1  24
TORSDOF 4
ENDMDL
MODEL 2
REMARK minimizedAffinity -9.93818474
REMARK  4 active torsions:
REMARK  status: ('A' for Active; 'I' for Inactive)
REMARK    1  A    between atoms: C2_2  and  C4_4 
REMARK    2  A    between atoms: C4_4  and  C5_5 
REMARK    3  A    between atoms: C5_5  and  O1_6 
REMARK    4  A    between atoms: C8_9  and  C9_10 
ROOT
HETATM    1  C9  UNL     1      -2.313  51.519 -23.563  1.00  0.00     0.001 C 
HETATM    2  C10 UNL     1      -3.262  52.730 -23.365  1.00  0.00     0.007 C 
HETATM    3  C11 UNL     1      -4.621  52.168 -22.912  1.00  0.00     0.011 C 
HETATM    4  C12 UNL     1      -4.342  50.706 -22.510  1.00  0.00    -0.032 C 
HETATM    5  C13 UNL     1      -3.812  50.743 -21.042  1.00  0.00     0.016 C 
HETATM    6  C14 UNL     1      -5.569  49.764 -22.616  1.00  0.00     0.004 C 
HETATM    7  C15 UNL     1      -6.646  50.026 -21.557  1.00  0.00     0.007 C 
HETATM    8  C16 UNL     1      -7.849  49.128 -21.820  1.00  0.00     0.007 C 
HETATM    9  C17 UNL     1      -7.542  47.650 -21.504  1.00  0.00     0.010 C 
HETATM   10  C18 UNL     1      -7.676  47.247 -19.980  1.00  0.00     0.018 C 
HETATM   11  C19 UNL     1      -8.488  45.936 -19.836  1.00  0.00     0.023 C 
HETATM   12  C20 UNL     1      -8.420  48.281 -19.105  1.00  0.00     0.023 C 
HETATM   13  C21 UNL     1      -6.286  47.003 -19.378  1.00  0.00     0.135 C 
HETATM   14  O2  UNL     1      -5.925  47.525 -18.320  1.00  0.00    -0.297 OA
HETATM   15  C22 UNL     1      -5.369  46.023 -20.075  1.00  0.00     0.080 C 
HETATM   16  C23 UNL     1      -5.681  45.898 -21.555  1.00  0.00     0.018 C 
HETATM   17  C24 UNL     1      -6.181  47.212 -22.119  1.00  0.00    -0.026 A 
HETATM   18  C25 UNL     1      -5.988  47.397 -23.602  1.00  0.00     0.021 A 
HETATM   19  C26 UNL     1      -5.169  48.268 -22.660  1.00  0.00    -0.027 A 
HETATM   20  C27 UNL     1      -3.670  47.944 -22.567  1.00  0.00     0.011 C 
HETATM   21  C28 UNL     1      -2.666  48.951 -23.161  1.00  0.00     0.011 C 
HETATM   22  C29 UNL     1      -3.277  50.290 -23.589  1.00  0.00    -0.032 C 
HETATM   23  C30 UNL     1      -3.866  50.097 -25.013  1.00  0.00     0.016 C 
ENDROOT
BRANCH   1  24
HETATM   24  C8  UNL     1      -1.219  51.754 -24.637  1.00  0.00     0.014 C 
HETATM   25  C7  UNL     1      -1.169  50.764 -25.814  1.00  0.00     0.010 C 
HETATM   26  C6  UNL     1       0.263  50.479 -26.263  1.00  0.00     0.041 C 
HETATM   27  C4  UNL     1       1.153  51.747 -26.292  1.00  0.00     0.085 C 
HETATM   28  O3  UNL     1       1.082  52.469 -25.037  1.00  0.00    -0.377 OA
HETATM   29  C31 UNL     1       0.179  51.968 -24.053  1.00  0.00     0.174 C 
BRANCH  27  30
HETATM   30  C2  UNL     1       0.698  52.763 -27.401  1.00  0.00     0.014 C 
HETATM   31  C1  UNL     1      -0.023  54.015 -26.892  1.00  0.00     0.012 C 
HETATM   32  C3  UNL     1      -0.160  52.110 -28.498  1.00  0.00     0.012 C 
ENDBRANCH  27  30
BRANCH  27  33
HETATM   33  C5  UNL     1       2.638  51.316 -26.435  1.00  0.00     0.202 C 
BRANCH  33  34
HETATM   34  O1  UNL     1       3.353  52.028 -27.437  1.00  0.00    -0.398 OA
HETATM   35  H10 UNL     1       3.078  51.677 -28.300  1.00  0.00     0.209 HD
ENDBRANCH  33  34
ENDBRANCH  27  33
ENDBRANCH   1  24
TORSDOF 4
ENDMDL
MODEL 3
REMARK minimizedAffinity -9.792799
REMARK  4 active torsions:
REMARK  status: ('A' for Active; 'I' for Inactive)
REMARK    1  A    between atoms: C2_2  and  C4_4 
REMARK    2  A    between atoms: C4_4  and  C5_5 
REMARK    3  A    between atoms: C5_5  and  O1_6 
REMARK    4  A    between atoms: C8_9  and  C9_10 
ROOT
HETATM    1  C9  UNL     1      -1.547  50.868 -23.619  1.00  0.00     0.001 C 
HETATM    2  C10 UNL     1      -1.403  51.744 -22.346  1.00  0.00     0.007 C 
HETATM    3  C11 UNL     1      -2.659  51.503 -21.490  1.00  0.00     0.011 C 
HETATM    4  C12 UNL     1      -3.323  50.247 -22.088  1.00  0.00    -0.032 C 
HETATM    5  C13 UNL     1      -2.597  49.017 -21.456  1.00  0.00     0.016 C 
HETATM    6  C14 UNL     1      -4.852  50.151 -21.848  1.00  0.00     0.004 C 
HETATM    7  C15 UNL     1      -5.235  49.866 -20.390  1.00  0.00     0.007 C 
HETATM    8  C16 UNL     1      -6.750  49.905 -20.244  1.00  0.00     0.007 C 
HETATM    9  C17 UNL     1      -7.424  48.694 -20.921  1.00  0.00     0.010 C 
HETATM   10  C18 UNL     1      -7.455  47.371 -20.054  1.00  0.00     0.018 C 
HETATM   11  C19 UNL     1      -8.869  46.740 -20.080  1.00  0.00     0.023 C 
HETATM   12  C20 UNL     1      -7.131  47.576 -18.557  1.00  0.00     0.023 C 
HETATM   13  C21 UNL     1      -6.474  46.341 -20.632  1.00  0.00     0.135 C 
HETATM   14  O2  UNL     1      -5.643  45.757 -19.933  1.00  0.00    -0.297 OA
HETATM   15  C22 UNL     1      -6.598  45.983 -22.096  1.00  0.00     0.080 C 
HETATM   16  C23 UNL     1      -7.226  47.099 -22.910  1.00  0.00     0.018 C 
HETATM   17  C24 UNL     1      -6.854  48.457 -22.350  1.00  0.00    -0.026 A 
HETATM   18  C25 UNL     1      -6.914  49.601 -23.329  1.00  0.00     0.021 A 
HETATM   19  C26 UNL     1      -5.547  49.166 -22.820  1.00  0.00    -0.027 A 
HETATM   20  C27 UNL     1      -4.649  48.431 -23.827  1.00  0.00     0.011 C 
HETATM   21  C28 UNL     1      -3.392  49.152 -24.348  1.00  0.00     0.011 C 
HETATM   22  C29 UNL     1      -3.054  50.459 -23.622  1.00  0.00    -0.032 C 
HETATM   23  C30 UNL     1      -3.916  51.581 -24.263  1.00  0.00     0.016 C 
ENDROOT
BRANCH   1  24
HETATM   24  C8  UNL     1      -0.831  51.455 -24.864  1.00  0.00     0.014 C 
HETATM   25  C7  UNL     1      -0.852  50.609 -26.148  1.00  0.00     0.010 C 
HETATM   26  C6  UNL     1       0.451  50.727 -26.935  1.00  0.00     0.041 C 
HETATM   27  C4  UNL     1       1.001  52.175 -26.982  1.00  0.00     0.085 C 
HETATM   28  O3  UNL     1       1.082  52.751 -25.655  1.00  0.00    -0.377 OA
HETATM   29  C31 UNL     1       0.584  51.962 -24.576  1.00  0.00     0.174 C 
BRANCH  27  30
HETATM   30  C2  UNL     1       0.072  53.133 -27.814  1.00  0.00     0.014 C 
HETATM   31  C1  UNL     1      -0.017  54.573 -27.300  1.00  0.00     0.012 C 
HETATM   32  C3  UNL     1      -1.353  52.582 -27.992  1.00  0.00     0.012 C 
ENDBRANCH  27  30
BRANCH  27  33
HETATM   33  C5  UNL     1       2.463  52.141 -27.506  1.00  0.00     0.202 C 
BRANCH  33  34
HETATM   34  O1  UNL     1       3.284  51.173 -26.864  1.00  0.00    -0.398 OA
HETATM   35  H10 UNL     1       3.515  51.519 -25.986  1.00  0.00     0.209 HD
ENDBRANCH  33  34
ENDBRANCH  27  33
ENDBRANCH   1  24
TORSDOF 4
ENDMDL
MODEL 4
REMARK minimizedAffinity -9.5744009
REMARK  4 active torsions:
REMARK  status: ('A' for Active; 'I' for Inactive)
REMARK    1  A    between atoms: C2_2  and  C4_4 
REMARK    2  A    between atoms: C4_4  and  C5_5 
REMARK    3  A    between atoms: C5_5  and  O1_6 
REMARK    4  A    between atoms: C8_9  and  C9_10 
ROOT
HETATM    1  C9  UNL     1      -2.493  51.389 -23.118  1.00  0.00     0.001 C 
HETATM    2  C10 UNL     1      -3.498  52.517 -22.763  1.00  0.00     0.007 C 
HETATM    3  C11 UNL     1      -4.699  51.848 -22.072  1.00  0.00     0.011 C 
HETATM    4  C12 UNL     1      -4.224  50.425 -21.717  1.00  0.00    -0.032 C 
HETATM    5  C13 UNL     1      -3.449  50.542 -20.366  1.00  0.00     0.016 C 
HETATM    6  C14 UNL     1      -5.360  49.377 -21.598  1.00  0.00     0.004 C 
HETATM    7  C15 UNL     1      -6.254  49.568 -20.367  1.00  0.00     0.007 C 
HETATM    8  C16 UNL     1      -7.398  48.563 -20.407  1.00  0.00     0.007 C 
HETATM    9  C17 UNL     1      -6.909  47.125 -20.140  1.00  0.00     0.010 C 
HETATM   10  C18 UNL     1      -6.737  46.746 -18.614  1.00  0.00     0.018 C 
HETATM   11  C19 UNL     1      -7.389  45.373 -18.320  1.00  0.00     0.023 C 
HETATM   12  C20 UNL     1      -7.405  47.731 -17.628  1.00  0.00     0.023 C 
HETATM   13  C21 UNL     1      -5.246  46.638 -18.265  1.00  0.00     0.135 C 
HETATM   14  O2  UNL     1      -4.753  47.213 -17.292  1.00  0.00    -0.297 OA
HETATM   15  C22 UNL     1      -4.381  45.727 -19.107  1.00  0.00     0.080 C 
HETATM   16  C23 UNL     1      -4.935  45.542 -20.508  1.00  0.00     0.018 C 
HETATM   17  C24 UNL     1      -5.643  46.794 -20.984  1.00  0.00    -0.026 A 
HETATM   18  C25 UNL     1      -5.731  46.961 -22.478  1.00  0.00     0.021 A 
HETATM   19  C26 UNL     1      -4.841  47.922 -21.702  1.00  0.00    -0.027 A 
HETATM   20  C27 UNL     1      -3.326  47.733 -21.873  1.00  0.00     0.011 C 
HETATM   21  C28 UNL     1      -2.537  48.810 -22.642  1.00  0.00     0.011 C 
HETATM   22  C29 UNL     1      -3.331  50.080 -22.965  1.00  0.00    -0.032 C 
HETATM   23  C30 UNL     1      -4.141  49.804 -24.260  1.00  0.00     0.016 C 
ENDROOT
BRANCH   1  24
HETATM   24  C8  UNL     1      -1.629  51.694 -24.370  1.00  0.00     0.014 C 
HETATM   25  C7  UNL     1      -0.338  52.501 -24.150  1.00  0.00     0.010 C 
HETATM   26  C6  UNL     1      -0.057  53.459 -25.306  1.00  0.00     0.041 C 
HETATM   27  C4  UNL     1      -0.341  52.833 -26.694  1.00  0.00     0.085 C 
HETATM   28  O3  UNL     1      -1.666  52.249 -26.748  1.00  0.00    -0.377 OA
HETATM   29  C31 UNL     1      -2.429  52.265 -25.543  1.00  0.00     0.174 C 
BRANCH  27  30
HETATM   30  C2  UNL     1       0.659  51.668 -27.033  1.00  0.00     0.014 C 
HETATM   31  C1  UNL     1       1.986  51.696 -26.268  1.00  0.00     0.012 C 
HETATM   32  C3  UNL     1       0.957  51.551 -28.537  1.00  0.00     0.012 C 
ENDBRANCH  27  30
BRANCH  27  33
HETATM   33  C5  UNL     1      -0.345  53.960 -27.763  1.00  0.00     0.202 C 
BRANCH  33  34
HETATM   34  O1  UNL     1      -1.624  54.211 -28.333  1.00  0.00    -0.398 OA
HETATM   35  H10 UNL     1      -1.811  53.495 -28.962  1.00  0.00     0.209 HD
ENDBRANCH  33  34
ENDBRANCH  27  33
ENDBRANCH   1  24
TORSDOF 4
ENDMDL
MODEL 5
REMARK minimizedAffinity -9.4291811
REMARK  4 active torsions:
REMARK  status: ('A' for Active; 'I' for Inactive)
REMARK    1  A    between atoms: C2_2  and  C4_4 
REMARK    2  A    between atoms: C4_4  and  C5_5 
REMARK    3  A    between atoms: C5_5  and  O1_6 
REMARK    4  A    between atoms: C8_9  and  C9_10 
ROOT
HETATM    1  C9  UNL     1      -0.826  50.818 -23.012  1.00  0.00     0.001 C 
HETATM    2  C10 UNL     1      -0.181  51.625 -21.854  1.00  0.00     0.007 C 
HETATM    3  C11 UNL     1      -0.980  51.302 -20.580  1.00  0.00     0.011 C 
HETATM    4  C12 UNL     1      -1.827  50.063 -20.934  1.00  0.00    -0.032 C 
HETATM    5  C13 UNL     1      -0.903  48.821 -20.728  1.00  0.00     0.016 C 
HETATM    6  C14 UNL     1      -3.126  49.912 -20.102  1.00  0.00     0.004 C 
HETATM    7  C15 UNL     1      -2.884  49.535 -18.635  1.00  0.00     0.007 C 
HETATM    8  C16 UNL     1      -4.209  49.524 -17.885  1.00  0.00     0.007 C 
HETATM    9  C17 UNL     1      -5.096  48.334 -18.305  1.00  0.00     0.010 C 
HETATM   10  C18 UNL     1      -4.769  46.964 -17.584  1.00  0.00     0.018 C 
HETATM   11  C19 UNL     1      -6.070  46.297 -17.074  1.00  0.00     0.023 C 
HETATM   12  C20 UNL     1      -3.866  47.095 -16.337  1.00  0.00     0.023 C 
HETATM   13  C21 UNL     1      -4.104  45.997 -18.573  1.00  0.00     0.135 C 
HETATM   14  O2  UNL     1      -3.059  45.398 -18.307  1.00  0.00    -0.297 OA
HETATM   15  C22 UNL     1      -4.811  45.716 -19.880  1.00  0.00     0.080 C 
HETATM   16  C23 UNL     1      -5.718  46.858 -20.298  1.00  0.00     0.018 C 
HETATM   17  C24 UNL     1      -5.155  48.193 -19.854  1.00  0.00    -0.026 A 
HETATM   18  C25 UNL     1      -5.610  49.387 -20.652  1.00  0.00     0.021 A 
HETATM   19  C26 UNL     1      -4.153  48.963 -20.768  1.00  0.00    -0.027 A 
HETATM   20  C27 UNL     1      -3.739  48.310 -22.096  1.00  0.00     0.011 C 
HETATM   21  C28 UNL     1      -2.804  49.094 -23.036  1.00  0.00     0.011 C 
HETATM   22  C29 UNL     1      -2.204  50.368 -22.430  1.00  0.00    -0.032 C 
HETATM   23  C30 UNL     1      -3.255  51.500 -22.595  1.00  0.00     0.016 C 
ENDROOT
BRANCH   1  24
HETATM   24  C8  UNL     1      -0.679  51.493 -24.401  1.00  0.00     0.014 C 
HETATM   25  C7  UNL     1       0.743  51.609 -24.975  1.00  0.00     0.010 C 
HETATM   26  C6  UNL     1       0.944  52.911 -25.749  1.00  0.00     0.041 C 
HETATM   27  C4  UNL     1      -0.271  53.283 -26.634  1.00  0.00     0.085 C 
HETATM   28  O3  UNL     1      -1.505  53.257 -25.874  1.00  0.00    -0.377 OA
HETATM   29  C31 UNL     1      -1.418  52.828 -24.516  1.00  0.00     0.174 C 
BRANCH  27  30
HETATM   30  C2  UNL     1      -0.472  52.270 -27.819  1.00  0.00     0.014 C 
HETATM   31  C1  UNL     1      -1.551  51.205 -27.599  1.00  0.00     0.012 C 
HETATM   32  C3  UNL     1       0.832  51.574 -28.241  1.00  0.00     0.012 C 
ENDBRANCH  27  30
BRANCH  27  33
HETATM   33  C5  UNL     1      -0.114  54.753 -27.111  1.00  0.00     0.202 C 
BRANCH  33  34
HETATM   34  O1  UNL     1       0.263  55.658 -26.081  1.00  0.00    -0.398 OA
HETATM   35  H10 UNL     1      -0.523  55.828 -25.537  1.00  0.00     0.209 HD
ENDBRANCH  33  34
ENDBRANCH  27  33
ENDBRANCH   1  24
TORSDOF 4
ENDMDL
MODEL 6
REMARK minimizedAffinity -9.23929024
REMARK  4 active torsions:
REMARK  status: ('A' for Active; 'I' for Inactive)
REMARK    1  A    between atoms: C2_2  and  C4_4 
REMARK    2  A    between atoms: C4_4  and  C5_5 
REMARK    3  A    between atoms: C5_5  and  O1_6 
REMARK    4  A    between atoms: C8_9  and  C9_10 
ROOT
HETATM    1  C9  UNL     1      -1.811  51.414 -21.239  1.00  0.00     0.001 C 
HETATM    2  C10 UNL     1      -3.119  50.585 -21.331  1.00  0.00     0.007 C 
HETATM    3  C11 UNL     1      -3.272  49.835 -19.995  1.00  0.00     0.011 C 
HETATM    4  C12 UNL     1      -2.269  50.506 -19.036  1.00  0.00    -0.032 C 
HETATM    5  C13 UNL     1      -2.982  51.772 -18.463  1.00  0.00     0.016 C 
HETATM    6  C14 UNL     1      -1.775  49.597 -17.881  1.00  0.00     0.004 C 
HETATM    7  C15 UNL     1      -2.846  49.300 -16.824  1.00  0.00     0.007 C 
HETATM    8  C16 UNL     1      -2.294  48.314 -15.803  1.00  0.00     0.007 C 
HETATM    9  C17 UNL     1      -1.224  48.960 -14.900  1.00  0.00     0.010 C 
HETATM   10  C18 UNL     1      -1.789  49.788 -13.675  1.00  0.00     0.018 C 
HETATM   11  C19 UNL     1      -1.038  49.411 -12.375  1.00  0.00     0.023 C 
HETATM   12  C20 UNL     1      -3.283  49.540 -13.367  1.00  0.00     0.023 C 
HETATM   13  C21 UNL     1      -1.580  51.289 -13.916  1.00  0.00     0.135 C 
HETATM   14  O2  UNL     1      -2.490  52.111 -13.786  1.00  0.00    -0.297 OA
HETATM   15  C22 UNL     1      -0.184  51.771 -14.244  1.00  0.00     0.080 C 
HETATM   16  C23 UNL     1       0.661  50.688 -14.888  1.00  0.00     0.018 C 
HETATM   17  C24 UNL     1      -0.190  49.767 -15.739  1.00  0.00    -0.026 A 
HETATM   18  C25 UNL     1       0.539  49.043 -16.840  1.00  0.00     0.021 A 
HETATM   19  C26 UNL     1      -0.467  50.115 -17.233  1.00  0.00    -0.027 A 
HETATM   20  C27 UNL     1       0.116  51.423 -17.790  1.00  0.00     0.011 C 
HETATM   21  C28 UNL     1      -0.094  51.740 -19.282  1.00  0.00     0.011 C 
HETATM   22  C29 UNL     1      -1.069  50.805 -20.007  1.00  0.00    -0.032 C 
HETATM   23  C30 UNL     1      -0.272  49.541 -20.429  1.00  0.00     0.016 C 
ENDROOT
BRANCH   1  24
HETATM   24  C8  UNL     1      -1.121  51.643 -22.609  1.00  0.00     0.014 C 
HETATM   25  C7  UNL     1       0.305  52.219 -22.587  1.00  0.00     0.010 C 
HETATM   26  C6  UNL     1       0.553  53.180 -23.749  1.00  0.00     0.041 C 
HETATM   27  C4  UNL     1      -0.050  52.682 -25.086  1.00  0.00     0.085 C 
HETATM   28  O3  UNL     1      -1.445  52.321 -24.933  1.00  0.00    -0.377 OA
HETATM   29  C31 UNL     1      -1.991  52.396 -23.617  1.00  0.00     0.174 C 
BRANCH  27  30
HETATM   30  C2  UNL     1       0.675  51.392 -25.617  1.00  0.00     0.014 C 
HETATM   31  C1  UNL     1       2.042  51.624 -26.267  1.00  0.00     0.012 C 
HETATM   32  C3  UNL     1      -0.197  50.566 -26.577  1.00  0.00     0.012 C 
ENDBRANCH  27  30
BRANCH  27  33
HETATM   33  C5  UNL     1      -0.038  53.850 -26.109  1.00  0.00     0.202 C 
BRANCH  33  34
HETATM   34  O1  UNL     1       0.284  55.114 -25.541  1.00  0.00    -0.398 OA
HETATM   35  H10 UNL     1      -0.499  55.428 -25.061  1.00  0.00     0.209 HD
ENDBRANCH  33  34
ENDBRANCH  27  33
ENDBRANCH   1  24
TORSDOF 4
ENDMDL
MODEL 7
REMARK minimizedAffinity -9.20836353
REMARK  4 active torsions:
REMARK  status: ('A' for Active; 'I' for Inactive)
REMARK    1  A    between atoms: C2_2  and  C4_4 
REMARK    2  A    between atoms: C4_4  and  C5_5 
REMARK    3  A    between atoms: C5_5  and  O1_6 
REMARK    4  A    between atoms: C8_9  and  C9_10 
ROOT
HETATM    1  C9  UNL     1      -3.801  50.112 -24.695  1.00  0.00     0.001 C 
HETATM    2  C10 UNL     1      -4.449  49.206 -25.775  1.00  0.00     0.007 C 
HETATM    3  C11 UNL     1      -5.211  48.094 -25.033  1.00  0.00     0.011 C 
HETATM    4  C12 UNL     1      -5.298  48.569 -23.569  1.00  0.00    -0.032 C 
HETATM    5  C13 UNL     1      -6.524  49.532 -23.487  1.00  0.00     0.016 C 
HETATM    6  C14 UNL     1      -5.439  47.427 -22.529  1.00  0.00     0.004 C 
HETATM    7  C15 UNL     1      -6.802  46.726 -22.559  1.00  0.00     0.007 C 
HETATM    8  C16 UNL     1      -6.796  45.555 -21.584  1.00  0.00     0.007 C 
HETATM    9  C17 UNL     1      -6.790  46.030 -20.117  1.00  0.00     0.010 C 
HETATM   10  C18 UNL     1      -8.210  46.407 -19.528  1.00  0.00     0.018 C 
HETATM   11  C19 UNL     1      -8.408  45.758 -18.136  1.00  0.00     0.023 C 
HETATM   12  C20 UNL     1      -9.407  45.920 -20.376  1.00  0.00     0.023 C 
HETATM   13  C21 UNL     1      -8.318  47.928 -19.354  1.00  0.00     0.135 C 
HETATM   14  O2  UNL     1      -9.278  48.574 -19.782  1.00  0.00    -0.297 OA
HETATM   15  C22 UNL     1      -7.243  48.633 -18.557  1.00  0.00     0.080 C 
HETATM   16  C23 UNL     1      -5.927  47.877 -18.575  1.00  0.00     0.018 C 
HETATM   17  C24 UNL     1      -5.734  47.150 -19.890  1.00  0.00    -0.026 A 
HETATM   18  C25 UNL     1      -4.305  46.855 -20.264  1.00  0.00     0.021 A 
HETATM   19  C26 UNL     1      -5.065  47.878 -21.096  1.00  0.00    -0.027 A 
HETATM   20  C27 UNL     1      -4.649  49.346 -20.913  1.00  0.00     0.011 C 
HETATM   21  C28 UNL     1      -3.926  50.051 -22.075  1.00  0.00     0.011 C 
HETATM   22  C29 UNL     1      -3.897  49.261 -23.388  1.00  0.00    -0.032 C 
HETATM   23  C30 UNL     1      -2.709  48.265 -23.305  1.00  0.00     0.016 C 
ENDROOT
BRANCH   1  24
HETATM   24  C8  UNL     1      -2.489  50.796 -25.159  1.00  0.00     0.014 C 
HETATM   25  C7  UNL     1      -1.277  50.700 -24.217  1.00  0.00     0.010 C 
HETATM   26  C6  UNL     1      -0.437  51.975 -24.231  1.00  0.00     0.041 C 
HETATM   27  C4  UNL     1      -0.255  52.565 -25.652  1.00  0.00     0.085 C 
HETATM   28  O3  UNL     1      -1.528  52.714 -26.328  1.00  0.00    -0.377 OA
HETATM   29  C31 UNL     1      -2.684  52.235 -25.642  1.00  0.00     0.174 C 
BRANCH  27  30
HETATM   30  C2  UNL     1       0.615  51.633 -26.571  1.00  0.00     0.014 C 
HETATM   31  C1  UNL     1       2.124  51.674 -26.310  1.00  0.00     0.012 C 
HETATM   32  C3  UNL     1       0.365  51.865 -28.071  1.00  0.00     0.012 C 
ENDBRANCH  27  30
BRANCH  27  33
HETATM   33  C5  UNL     1       0.316  54.004 -25.530  1.00  0.00     0.202 C 
BRANCH  33  34
HETATM   34  O1  UNL     1       0.007  54.844 -26.636  1.00  0.00    -0.398 OA
HETATM   35  H10 UNL     1       0.584  54.584 -27.373  1.00  0.00     0.209 HD
ENDBRANCH  33  34
ENDBRANCH  27  33
ENDBRANCH   1  24
TORSDOF 4
ENDMDL
MODEL 8
REMARK minimizedAffinity -8.80192757
REMARK  4 active torsions:
REMARK  status: ('A' for Active; 'I' for Inactive)
REMARK    1  A    between atoms: C2_2  and  C4_4 
REMARK    2  A    between atoms: C4_4  and  C5_5 
REMARK    3  A    between atoms: C5_5  and  O1_6 
REMARK    4  A    between atoms: C8_9  and  C9_10 
ROOT
HETATM    1  C9  UNL     1      -5.829  50.245 -21.377  1.00  0.00     0.001 C 
HETATM    2  C10 UNL     1      -4.883  50.959 -20.377  1.00  0.00     0.007 C 
HETATM    3  C11 UNL     1      -3.547  51.191 -21.106  1.00  0.00     0.011 C 
HETATM    4  C12 UNL     1      -3.851  50.943 -22.597  1.00  0.00    -0.032 C 
HETATM    5  C13 UNL     1      -4.443  52.276 -23.156  1.00  0.00     0.016 C 
HETATM    6  C14 UNL     1      -2.625  50.504 -23.439  1.00  0.00     0.004 C 
HETATM    7  C15 UNL     1      -1.593  51.616 -23.660  1.00  0.00     0.007 C 
HETATM    8  C16 UNL     1      -0.385  51.051 -24.396  1.00  0.00     0.007 C 
HETATM    9  C17 UNL     1      -0.712  50.718 -25.866  1.00  0.00     0.010 C 
HETATM   10  C18 UNL     1      -0.645  51.945 -26.863  1.00  0.00     0.018 C 
HETATM   11  C19 UNL     1       0.154  51.565 -28.134  1.00  0.00     0.023 C 
HETATM   12  C20 UNL     1       0.066  53.195 -26.297  1.00  0.00     0.023 C 
HETATM   13  C21 UNL     1      -2.061  52.341 -27.302  1.00  0.00     0.135 C 
HETATM   14  O2  UNL     1      -2.464  53.506 -27.254  1.00  0.00    -0.297 OA
HETATM   15  C22 UNL     1      -2.952  51.269 -27.888  1.00  0.00     0.080 C 
HETATM   16  C23 UNL     1      -2.578  49.881 -27.400  1.00  0.00     0.018 C 
HETATM   17  C24 UNL     1      -2.048  49.927 -25.981  1.00  0.00    -0.026 A 
HETATM   18  C25 UNL     1      -2.176  48.647 -25.199  1.00  0.00     0.021 A 
HETATM   19  C26 UNL     1      -3.030  49.833 -24.774  1.00  0.00    -0.027 A 
HETATM   20  C27 UNL     1      -4.534  49.729 -25.074  1.00  0.00     0.011 C 
HETATM   21  C28 UNL     1      -5.506  49.566 -23.891  1.00  0.00     0.011 C 
HETATM   22  C29 UNL     1      -4.871  49.750 -22.508  1.00  0.00    -0.032 C 
HETATM   23  C30 UNL     1      -4.222  48.396 -22.111  1.00  0.00     0.016 C 
ENDROOT
BRANCH   1  24
HETATM   24  C8  UNL     1      -6.875  49.324 -20.697  1.00  0.00     0.014 C 
HETATM   25  C7  UNL     1      -6.425  48.562 -19.439  1.00  0.00     0.010 C 
HETATM   26  C6  UNL     1      -7.041  47.166 -19.362  1.00  0.00     0.041 C 
HETATM   27  C4  UNL     1      -8.532  47.138 -19.780  1.00  0.00     0.085 C 
HETATM   28  O3  UNL     1      -8.731  47.779 -21.065  1.00  0.00    -0.377 OA
HETATM   29  C31 UNL     1      -7.589  48.383 -21.670  1.00  0.00     0.174 C 
BRANCH  27  30
HETATM   30  C2  UNL     1      -9.445  47.915 -18.764  1.00  0.00     0.014 C 
HETATM   31  C1  UNL     1     -10.850  48.257 -19.269  1.00  0.00     0.012 C 
HETATM   32  C3  UNL     1      -8.788  49.195 -18.222  1.00  0.00     0.012 C 
ENDBRANCH  27  30
BRANCH  27  33
HETATM   33  C5  UNL     1      -8.969  45.662 -19.986  1.00  0.00     0.202 C 
BRANCH  33  34
HETATM   34  O1  UNL     1      -8.260  44.987 -21.017  1.00  0.00    -0.398 OA
HETATM   35  H10 UNL     1      -8.609  45.300 -21.868  1.00  0.00     0.209 HD
ENDBRANCH  33  34
ENDBRANCH  27  33
ENDBRANCH   1  24
TORSDOF 4
ENDMDL
MODEL 9
REMARK minimizedAffinity -8.76896858
REMARK  4 active torsions:
REMARK  status: ('A' for Active; 'I' for Inactive)
REMARK    1  A    between atoms: C2_2  and  C4_4 
REMARK    2  A    between atoms: C4_4  and  C5_5 
REMARK    3  A    between atoms: C5_5  and  O1_6 
REMARK    4  A    between atoms: C8_9  and  C9_10 
ROOT
HETATM    1  C9  UNL     1      -2.470  49.796 -23.453  1.00  0.00     0.001 C 
HETATM    2  C10 UNL     1      -2.367  50.178 -21.953  1.00  0.00     0.007 C 
HETATM    3  C11 UNL     1      -3.714  49.819 -21.302  1.00  0.00     0.011 C 
HETATM    4  C12 UNL     1      -4.433  48.919 -22.328  1.00  0.00    -0.032 C 
HETATM    5  C13 UNL     1      -3.886  47.473 -22.109  1.00  0.00     0.016 C 
HETATM    6  C14 UNL     1      -5.980  48.932 -22.223  1.00  0.00     0.004 C 
HETATM    7  C15 UNL     1      -6.523  48.229 -20.973  1.00  0.00     0.007 C 
HETATM    8  C16 UNL     1      -8.035  48.396 -20.909  1.00  0.00     0.007 C 
HETATM    9  C17 UNL     1      -8.751  47.566 -21.994  1.00  0.00     0.010 C 
HETATM   10  C18 UNL     1      -8.986  46.045 -21.629  1.00  0.00     0.018 C 
HETATM   11  C19 UNL     1     -10.443  45.630 -21.949  1.00  0.00     0.023 C 
HETATM   12  C20 UNL     1      -8.787  45.704 -20.135  1.00  0.00     0.023 C 
HETATM   13  C21 UNL     1      -8.054  45.156 -22.465  1.00  0.00     0.135 C 
HETATM   14  O2  UNL     1      -7.350  44.279 -21.958  1.00  0.00    -0.297 OA
HETATM   15  C22 UNL     1      -8.073  45.318 -23.968  1.00  0.00     0.080 C 
HETATM   16  C23 UNL     1      -8.516  46.707 -24.390  1.00  0.00     0.018 C 
HETATM   17  C24 UNL     1      -8.074  47.749 -23.383  1.00  0.00    -0.026 A 
HETATM   18  C25 UNL     1      -7.935  49.151 -23.919  1.00  0.00     0.021 A 
HETATM   19  C26 UNL     1      -6.668  48.413 -23.509  1.00  0.00    -0.027 A 
HETATM   20  C27 UNL     1      -5.752  47.951 -24.652  1.00  0.00     0.011 C 
HETATM   21  C28 UNL     1      -4.390  48.649 -24.825  1.00  0.00     0.011 C 
HETATM   22  C29 UNL     1      -4.002  49.593 -23.681  1.00  0.00    -0.032 C 
HETATM   23  C30 UNL     1      -4.692  50.958 -23.952  1.00  0.00     0.016 C 
ENDROOT
BRANCH   1  24
HETATM   24  C8  UNL     1      -1.589  50.672 -24.382  1.00  0.00     0.014 C 
HETATM   25  C7  UNL     1      -1.587  52.188 -24.120  1.00  0.00     0.010 C 
HETATM   26  C6  UNL     1      -1.503  52.993 -25.415  1.00  0.00     0.041 C 
HETATM   27  C4  UNL     1      -0.508  52.393 -26.438  1.00  0.00     0.085 C 
HETATM   28  O3  UNL     1      -0.764  50.984 -26.659  1.00  0.00    -0.377 OA
HETATM   29  C31 UNL     1      -1.790  50.382 -25.871  1.00  0.00     0.174 C 
BRANCH  27  30
HETATM   30  C2  UNL     1       0.980  52.488 -25.941  1.00  0.00     0.014 C 
HETATM   31  C1  UNL     1       1.797  51.198 -26.057  1.00  0.00     0.012 C 
HETATM   32  C3  UNL     1       1.100  53.022 -24.503  1.00  0.00     0.012 C 
ENDBRANCH  27  30
BRANCH  27  33
HETATM   33  C5  UNL     1      -0.732  53.073 -27.817  1.00  0.00     0.202 C 
BRANCH  33  34
HETATM   34  O1  UNL     1      -2.056  53.550 -28.018  1.00  0.00    -0.398 OA
HETATM   35  H10 UNL     1      -2.620  52.782 -28.207  1.00  0.00     0.209 HD
ENDBRANCH  33  34
ENDBRANCH  27  33
ENDBRANCH   1  24
TORSDOF 4
ENDMDL
