MODEL 1
REMARK minimizedAffinity -9.05145741
REMARK  9 active torsions:
REMARK  status: ('A' for Active; 'I' for Inactive)
REMARK    1  A    between atoms: C11_11  and  C12_12 
REMARK    2  A    between atoms: C12_12  and  O1_13 
REMARK    3  A    between atoms: C12_12  and  C13_14 
REMARK    4  A    between atoms: C17_19  and  C18_20 
REMARK    5  A    between atoms: C19_21  and  C20_22 
REMARK    6  A    between atoms: C20_22  and  O4_24 
REMARK    7  A    between atoms: C21_25  and  C22_26 
REMARK    8  A    between atoms: C22_26  and  C23_28 
REMARK    9  A    between atoms: C23_28  and  O6_30 
ROOT
HETATM    1  C1  UNL     1       6.776  59.324 -35.592  1.00  0.00     0.048 C 
HETATM    2  C2  UNL     1       6.593  60.607 -34.836  1.00  0.00    -0.065 C 
HETATM    3  C3  UNL     1       5.380  61.072 -34.464  1.00  0.00    -0.015 C 
HETATM    4  C4  UNL     1       5.213  62.331 -33.633  1.00  0.00     0.014 C 
HETATM    5  C5  UNL     1       3.822  62.419 -32.993  1.00  0.00     0.009 C 
HETATM    6  C6  UNL     1       3.807  63.520 -31.941  1.00  0.00     0.001 C 
HETATM    7  C7  UNL     1       4.303  64.853 -32.491  1.00  0.00     0.005 C 
HETATM    8  C8  UNL     1       5.663  64.761 -33.234  1.00  0.00    -0.013 C 
HETATM    9  C9  UNL     1       6.036  66.183 -33.642  1.00  0.00     0.010 C 
HETATM   10  C10 UNL     1       5.566  63.691 -34.368  1.00  0.00     0.008 C 
HETATM   11  C11 UNL     1       6.773  63.479 -35.349  1.00  0.00     0.059 C 
HETATM   12  C21 UNL     1       7.907  62.691 -34.666  1.00  0.00    -0.002 C 
HETATM   13  C25 UNL     1       7.811  61.350 -34.511  1.00  0.00     0.018 C 
ENDROOT
BRANCH  11  14
HETATM   14  C12 UNL     1       7.248  64.575 -36.363  1.00  0.00     0.166 C 
BRANCH  14  15
HETATM   15  O1  UNL     1       6.447  64.375 -37.572  1.00  0.00    -0.391 OA
HETATM   16  H19 UNL     1       5.560  64.727 -37.392  1.00  0.00     0.210 HD
ENDBRANCH  14  15
BRANCH  14  17
HETATM   17  C13 UNL     1       7.129  66.100 -35.947  1.00  0.00     0.111 C 
HETATM   18  C14 UNL     1       7.352  66.375 -34.460  1.00  0.00     0.054 C 
HETATM   19  O2  UNL     1       8.254  66.796 -36.588  1.00  0.00    -0.369 OA
HETATM   20  C15 UNL     1       7.757  67.671 -37.607  1.00  0.00     0.197 C 
HETATM   21  C16 UNL     1       6.291  67.716 -37.414  1.00  0.00     0.009 C 
HETATM   22  C17 UNL     1       5.914  66.835 -36.484  1.00  0.00    -0.023 C 
BRANCH  22  23
HETATM   23  C18 UNL     1       4.573  66.664 -35.982  1.00  0.00     0.017 C 
HETATM   24  C19 UNL     1       3.555  66.172 -36.704  1.00  0.00     0.082 C 
BRANCH  24  25
HETATM   25  C20 UNL     1       2.242  65.989 -36.077  1.00  0.00     0.165 C 
HETATM   26  O3  UNL     1       1.275  66.722 -36.155  1.00  0.00    -0.647 OA
BRANCH  25  27
HETATM   27  O4  UNL     1       2.230  64.858 -35.353  1.00  0.00    -0.773 OA
HETATM   28  H28 UNL     1       1.321  64.820 -34.989  1.00  0.00     0.167 HD
ENDBRANCH  25  27
ENDBRANCH  24  25
ENDBRANCH  22  23
ENDBRANCH  14  17
ENDBRANCH  11  14
BRANCH  12  29
HETATM   29  C22 UNL     1       9.097  63.452 -34.165  1.00  0.00     0.184 C 
HETATM   30  O5  UNL     1       9.048  64.025 -33.072  1.00  0.00    -0.290 OA
BRANCH  29  31
HETATM   31  C23 UNL     1      10.389  63.509 -34.989  1.00  0.00     0.188 C 
HETATM   32  C24 UNL     1      10.274  62.627 -36.223  1.00  0.00     0.048 C 
BRANCH  31  33
HETATM   33  O6  UNL     1      11.481  63.015 -34.209  1.00  0.00    -0.388 OA
HETATM   34  H33 UNL     1      11.090  62.370 -33.585  1.00  0.00     0.210 HD
ENDBRANCH  31  33
ENDBRANCH  29  31
ENDBRANCH  12  29
TORSDOF 9
ENDMDL
MODEL 2
REMARK minimizedAffinity -8.60172558
REMARK  9 active torsions:
REMARK  status: ('A' for Active; 'I' for Inactive)
REMARK    1  A    between atoms: C11_11  and  C12_12 
REMARK    2  A    between atoms: C12_12  and  O1_13 
REMARK    3  A    between atoms: C12_12  and  C13_14 
REMARK    4  A    between atoms: C17_19  and  C18_20 
REMARK    5  A    between atoms: C19_21  and  C20_22 
REMARK    6  A    between atoms: C20_22  and  O4_24 
REMARK    7  A    between atoms: C21_25  and  C22_26 
REMARK    8  A    between atoms: C22_26  and  C23_28 
REMARK    9  A    between atoms: C23_28  and  O6_30 
ROOT
HETATM    1  C1  UNL     1      -0.433  53.428 -24.785  1.00  0.00     0.048 C 
HETATM    2  C2  UNL     1      -1.178  52.134 -24.915  1.00  0.00    -0.065 C 
HETATM    3  C3  UNL     1      -1.938  51.830 -25.990  1.00  0.00    -0.015 C 
HETATM    4  C4  UNL     1      -2.625  50.486 -26.146  1.00  0.00     0.014 C 
HETATM    5  C5  UNL     1      -3.060  50.225 -27.593  1.00  0.00     0.009 C 
HETATM    6  C6  UNL     1      -3.459  48.764 -27.757  1.00  0.00     0.001 C 
HETATM    7  C7  UNL     1      -4.495  48.328 -26.727  1.00  0.00     0.005 C 
HETATM    8  C8  UNL     1      -4.115  48.678 -25.263  1.00  0.00    -0.013 C 
HETATM    9  C9  UNL     1      -5.216  48.105 -24.376  1.00  0.00     0.010 C 
HETATM   10  C10 UNL     1      -3.829  50.210 -25.152  1.00  0.00     0.008 C 
HETATM   11  C11 UNL     1      -3.532  50.850 -23.750  1.00  0.00     0.059 C 
HETATM   12  C21 UNL     1      -2.100  50.522 -23.286  1.00  0.00    -0.002 C 
HETATM   13  C25 UNL     1      -1.043  51.190 -23.804  1.00  0.00     0.018 C 
ENDROOT
BRANCH  11  14
HETATM   14  C12 UNL     1      -4.597  50.921 -22.603  1.00  0.00     0.166 C 
BRANCH  14  15
HETATM   15  O1  UNL     1      -5.606  51.881 -23.054  1.00  0.00    -0.391 OA
HETATM   16  H19 UNL     1      -6.151  51.435 -23.723  1.00  0.00     0.210 HD
ENDBRANCH  14  15
BRANCH  14  17
HETATM   17  C13 UNL     1      -5.347  49.591 -22.177  1.00  0.00     0.111 C 
HETATM   18  C14 UNL     1      -4.618  48.300 -22.552  1.00  0.00     0.054 C 
HETATM   19  O2  UNL     1      -5.343  49.562 -20.708  1.00  0.00    -0.369 OA
HETATM   20  C15 UNL     1      -6.679  49.742 -20.223  1.00  0.00     0.197 C 
HETATM   21  C16 UNL     1      -7.555  49.612 -21.408  1.00  0.00     0.009 C 
HETATM   22  C17 UNL     1      -6.824  49.529 -22.523  1.00  0.00    -0.023 C 
BRANCH  22  23
HETATM   23  C18 UNL     1      -7.340  49.314 -23.852  1.00  0.00     0.017 C 
HETATM   24  C19 UNL     1      -8.631  49.081 -24.131  1.00  0.00     0.082 C 
BRANCH  24  25
HETATM   25  C20 UNL     1      -9.057  48.930 -25.526  1.00  0.00     0.165 C 
HETATM   26  O3  UNL     1      -8.969  47.938 -26.224  1.00  0.00    -0.647 OA
BRANCH  25  27
HETATM   27  O4  UNL     1      -9.575  50.083 -25.978  1.00  0.00    -0.773 OA
HETATM   28  H28 UNL     1      -9.836  49.880 -26.900  1.00  0.00     0.167 HD
ENDBRANCH  25  27
ENDBRANCH  24  25
ENDBRANCH  22  23
ENDBRANCH  14  17
ENDBRANCH  11  14
BRANCH  12  29
HETATM   29  C22 UNL     1      -1.915  49.435 -22.270  1.00  0.00     0.184 C 
HETATM   30  O5  UNL     1      -2.088  48.255 -22.590  1.00  0.00    -0.290 OA
BRANCH  29  31
HETATM   31  C23 UNL     1      -1.491  49.774 -20.836  1.00  0.00     0.188 C 
HETATM   32  C24 UNL     1      -1.111  48.511 -20.079  1.00  0.00     0.048 C 
BRANCH  31  33
HETATM   33  O6  UNL     1      -2.585  50.377 -20.140  1.00  0.00    -0.388 OA
HETATM   34  H33 UNL     1      -3.396  50.011 -20.551  1.00  0.00     0.210 HD
ENDBRANCH  31  33
ENDBRANCH  29  31
ENDBRANCH  12  29
TORSDOF 9
ENDMDL
MODEL 3
REMARK minimizedAffinity -8.43218327
REMARK  9 active torsions:
REMARK  status: ('A' for Active; 'I' for Inactive)
REMARK    1  A    between atoms: C11_11  and  C12_12 
REMARK    2  A    between atoms: C12_12  and  O1_13 
REMARK    3  A    between atoms: C12_12  and  C13_14 
REMARK    4  A    between atoms: C17_19  and  C18_20 
REMARK    5  A    between atoms: C19_21  and  C20_22 
REMARK    6  A    between atoms: C20_22  and  O4_24 
REMARK    7  A    between atoms: C21_25  and  C22_26 
REMARK    8  A    between atoms: C22_26  and  C23_28 
REMARK    9  A    between atoms: C23_28  and  O6_30 
ROOT
HETATM    1  C1  UNL     1       0.277  51.333 -25.983  1.00  0.00     0.048 C 
HETATM    2  C2  UNL     1      -0.175  51.720 -24.606  1.00  0.00    -0.065 C 
HETATM    3  C3  UNL     1       0.684  52.071 -23.624  1.00  0.00    -0.015 C 
HETATM    4  C4  UNL     1       0.210  52.535 -22.259  1.00  0.00     0.014 C 
HETATM    5  C5  UNL     1       1.314  53.264 -21.483  1.00  0.00     0.009 C 
HETATM    6  C6  UNL     1       0.716  53.968 -20.272  1.00  0.00     0.001 C 
HETATM    7  C7  UNL     1      -0.109  53.023 -19.404  1.00  0.00     0.005 C 
HETATM    8  C8  UNL     1      -1.163  52.200 -20.192  1.00  0.00    -0.013 C 
HETATM    9  C9  UNL     1      -1.936  51.380 -19.165  1.00  0.00     0.010 C 
HETATM   10  C10 UNL     1      -0.456  51.421 -21.348  1.00  0.00     0.008 C 
HETATM   11  C11 UNL     1      -1.279  50.419 -22.232  1.00  0.00     0.059 C 
HETATM   12  C21 UNL     1      -2.162  51.173 -23.245  1.00  0.00    -0.002 C 
HETATM   13  C25 UNL     1      -1.619  51.702 -24.366  1.00  0.00     0.018 C 
ENDROOT
BRANCH  11  14
HETATM   14  C12 UNL     1      -1.905  49.100 -21.666  1.00  0.00     0.166 C 
BRANCH  14  15
HETATM   15  O1  UNL     1      -0.777  48.208 -21.390  1.00  0.00    -0.391 OA
HETATM   16  H19 UNL     1      -0.353  48.523 -20.574  1.00  0.00     0.210 HD
ENDBRANCH  14  15
BRANCH  14  17
HETATM   17  C13 UNL     1      -2.793  49.180 -20.355  1.00  0.00     0.111 C 
HETATM   18  C14 UNL     1      -3.239  50.591 -19.972  1.00  0.00     0.054 C 
HETATM   19  O2  UNL     1      -4.059  48.503 -20.667  1.00  0.00    -0.369 OA
HETATM   20  C15 UNL     1      -4.150  47.287 -19.915  1.00  0.00     0.197 C 
HETATM   21  C16 UNL     1      -3.051  47.347 -18.926  1.00  0.00     0.009 C 
HETATM   22  C17 UNL     1      -2.271  48.405 -19.158  1.00  0.00    -0.023 C 
BRANCH  22  23
HETATM   23  C18 UNL     1      -1.155  48.821 -18.345  1.00  0.00     0.017 C 
HETATM   24  C19 UNL     1      -1.134  48.761 -17.006  1.00  0.00     0.082 C 
BRANCH  24  25
HETATM   25  C20 UNL     1       0.077  49.159 -16.279  1.00  0.00     0.165 C 
HETATM   26  O3  UNL     1       0.506  50.285 -16.116  1.00  0.00    -0.647 OA
BRANCH  25  27
HETATM   27  O4  UNL     1       0.701  48.074 -15.795  1.00  0.00    -0.773 OA
HETATM   28  H28 UNL     1       1.479  48.439 -15.324  1.00  0.00     0.167 HD
ENDBRANCH  25  27
ENDBRANCH  24  25
ENDBRANCH  22  23
ENDBRANCH  14  17
ENDBRANCH  11  14
BRANCH  12  29
HETATM   29  C22 UNL     1      -3.622  51.322 -22.940  1.00  0.00     0.184 C 
HETATM   30  O5  UNL     1      -4.015  52.259 -22.238  1.00  0.00    -0.290 OA
BRANCH  29  31
HETATM   31  C23 UNL     1      -4.642  50.328 -23.510  1.00  0.00     0.188 C 
HETATM   32  C24 UNL     1      -3.985  49.420 -24.538  1.00  0.00     0.048 C 
BRANCH  31  33
HETATM   33  O6  UNL     1      -5.688  51.040 -24.175  1.00  0.00    -0.388 OA
HETATM   34  H33 UNL     1      -5.282  51.871 -24.497  1.00  0.00     0.210 HD
ENDBRANCH  31  33
ENDBRANCH  29  31
ENDBRANCH  12  29
TORSDOF 9
ENDMDL
MODEL 4
REMARK minimizedAffinity -8.31529903
REMARK  9 active torsions:
REMARK  status: ('A' for Active; 'I' for Inactive)
REMARK    1  A    between atoms: C11_11  and  C12_12 
REMARK    2  A    between atoms: C12_12  and  O1_13 
REMARK    3  A    between atoms: C12_12  and  C13_14 
REMARK    4  A    between atoms: C17_19  and  C18_20 
REMARK    5  A    between atoms: C19_21  and  C20_22 
REMARK    6  A    between atoms: C20_22  and  O4_24 
REMARK    7  A    between atoms: C21_25  and  C22_26 
REMARK    8  A    between atoms: C22_26  and  C23_28 
REMARK    9  A    between atoms: C23_28  and  O6_30 
ROOT
HETATM    1  C1  UNL     1       0.920  53.839 -20.990  1.00  0.00     0.048 C 
HETATM    2  C2  UNL     1       0.304  52.711 -21.763  1.00  0.00    -0.065 C 
HETATM    3  C3  UNL     1      -0.050  52.819 -23.062  1.00  0.00    -0.015 C 
HETATM    4  C4  UNL     1      -0.600  51.647 -23.854  1.00  0.00     0.014 C 
HETATM    5  C5  UNL     1      -0.527  51.888 -25.367  1.00  0.00     0.009 C 
HETATM    6  C6  UNL     1      -0.799  50.587 -26.111  1.00  0.00     0.001 C 
HETATM    7  C7  UNL     1      -2.100  49.928 -25.668  1.00  0.00     0.005 C 
HETATM    8  C8  UNL     1      -2.235  49.771 -24.129  1.00  0.00    -0.013 C 
HETATM    9  C9  UNL     1      -3.545  49.032 -23.878  1.00  0.00     0.010 C 
HETATM   10  C10 UNL     1      -2.054  51.164 -23.445  1.00  0.00     0.008 C 
HETATM   11  C11 UNL     1      -2.256  51.306 -21.896  1.00  0.00     0.059 C 
HETATM   12  C21 UNL     1      -1.046  50.743 -21.127  1.00  0.00    -0.002 C 
HETATM   13  C25 UNL     1       0.099  51.458 -21.033  1.00  0.00     0.018 C 
ENDROOT
BRANCH  11  14
HETATM   14  C12 UNL     1      -3.641  51.092 -21.194  1.00  0.00     0.166 C 
BRANCH  14  15
HETATM   15  O1  UNL     1      -4.595  51.925 -21.930  1.00  0.00    -0.391 OA
HETATM   16  H19 UNL     1      -4.790  51.471 -22.766  1.00  0.00     0.210 HD
ENDBRANCH  14  15
BRANCH  14  17
HETATM   17  C13 UNL     1      -4.236  49.625 -21.116  1.00  0.00     0.111 C 
HETATM   18  C14 UNL     1      -3.494  48.590 -21.961  1.00  0.00     0.054 C 
HETATM   19  O2  UNL     1      -4.012  49.157 -19.741  1.00  0.00    -0.369 OA
HETATM   20  C15 UNL     1      -5.269  49.042 -19.064  1.00  0.00     0.197 C 
HETATM   21  C16 UNL     1      -6.302  49.184 -20.113  1.00  0.00     0.009 C 
HETATM   22  C17 UNL     1      -5.741  49.516 -21.279  1.00  0.00    -0.023 C 
BRANCH  22  23
HETATM   23  C18 UNL     1      -6.435  49.657 -22.535  1.00  0.00     0.017 C 
HETATM   24  C19 UNL     1      -7.036  48.648 -23.183  1.00  0.00     0.082 C 
BRANCH  24  25
HETATM   25  C20 UNL     1      -7.762  48.913 -24.430  1.00  0.00     0.165 C 
HETATM   26  O3  UNL     1      -8.909  49.298 -24.550  1.00  0.00    -0.647 OA
BRANCH  25  27
HETATM   27  O4  UNL     1      -6.974  48.656 -25.486  1.00  0.00    -0.773 OA
HETATM   28  H28 UNL     1      -7.537  48.871 -26.258  1.00  0.00     0.167 HD
ENDBRANCH  25  27
ENDBRANCH  24  25
ENDBRANCH  22  23
ENDBRANCH  14  17
ENDBRANCH  11  14
BRANCH  12  29
HETATM   29  C22 UNL     1      -1.168  49.381 -20.512  1.00  0.00     0.184 C 
HETATM   30  O5  UNL     1      -0.989  48.373 -21.203  1.00  0.00    -0.290 OA
BRANCH  29  31
HETATM   31  C23 UNL     1      -1.494  49.225 -19.022  1.00  0.00     0.188 C 
HETATM   32  C24 UNL     1      -0.386  49.822 -18.168  1.00  0.00     0.048 C 
BRANCH  31  33
HETATM   33  O6  UNL     1      -1.588  47.837 -18.692  1.00  0.00    -0.388 OA
HETATM   34  H33 UNL     1      -0.996  47.374 -19.320  1.00  0.00     0.210 HD
ENDBRANCH  31  33
ENDBRANCH  29  31
ENDBRANCH  12  29
TORSDOF 9
ENDMDL
MODEL 5
REMARK minimizedAffinity -8.31157112
REMARK  9 active torsions:
REMARK  status: ('A' for Active; 'I' for Inactive)
REMARK    1  A    between atoms: C11_11  and  C12_12 
REMARK    2  A    between atoms: C12_12  and  O1_13 
REMARK    3  A    between atoms: C12_12  and  C13_14 
REMARK    4  A    between atoms: C17_19  and  C18_20 
REMARK    5  A    between atoms: C19_21  and  C20_22 
REMARK    6  A    between atoms: C20_22  and  O4_24 
REMARK    7  A    between atoms: C21_25  and  C22_26 
REMARK    8  A    between atoms: C22_26  and  C23_28 
REMARK    9  A    between atoms: C23_28  and  O6_30 
ROOT
HETATM    1  C1  UNL     1      -0.500  50.957 -25.630  1.00  0.00     0.048 C 
HETATM    2  C2  UNL     1      -0.763  51.487 -24.252  1.00  0.00    -0.065 C 
HETATM    3  C3  UNL     1       0.212  51.652 -23.332  1.00  0.00    -0.015 C 
HETATM    4  C4  UNL     1      -0.055  52.263 -21.968  1.00  0.00     0.014 C 
HETATM    5  C5  UNL     1       1.236  52.728 -21.283  1.00  0.00     0.009 C 
HETATM    6  C6  UNL     1       0.897  53.596 -20.077  1.00  0.00     0.001 C 
HETATM    7  C7  UNL     1      -0.077  52.909 -19.126  1.00  0.00     0.005 C 
HETATM    8  C8  UNL     1      -1.342  52.340 -19.822  1.00  0.00    -0.013 C 
HETATM    9  C9  UNL     1      -2.227  51.767 -18.720  1.00  0.00     0.010 C 
HETATM   10  C10 UNL     1      -0.914  51.375 -20.974  1.00  0.00     0.008 C 
HETATM   11  C11 UNL     1      -2.004  50.574 -21.768  1.00  0.00     0.059 C 
HETATM   12  C21 UNL     1      -2.739  51.485 -22.770  1.00  0.00    -0.002 C 
HETATM   13  C25 UNL     1      -2.152  51.828 -23.940  1.00  0.00     0.018 C 
ENDROOT
BRANCH  11  14
HETATM   14  C12 UNL     1      -2.894  49.465 -21.110  1.00  0.00     0.166 C 
BRANCH  14  15
HETATM   15  O1  UNL     1      -4.231  50.047 -20.986  1.00  0.00    -0.391 OA
HETATM   16  H19 UNL     1      -4.633  50.041 -21.870  1.00  0.00     0.210 HD
ENDBRANCH  14  15
BRANCH  14  17
HETATM   17  C13 UNL     1      -3.039  48.068 -21.846  1.00  0.00     0.111 C 
HETATM   18  C14 UNL     1      -1.725  47.310 -22.039  1.00  0.00     0.054 C 
HETATM   19  O2  UNL     1      -3.798  47.196 -20.940  1.00  0.00    -0.369 OA
HETATM   20  C15 UNL     1      -5.089  46.930 -21.501  1.00  0.00     0.197 C 
HETATM   21  C16 UNL     1      -5.028  47.426 -22.893  1.00  0.00     0.009 C 
HETATM   22  C17 UNL     1      -3.881  48.074 -23.109  1.00  0.00    -0.023 C 
BRANCH  22  23
HETATM   23  C18 UNL     1      -3.448  48.618 -24.372  1.00  0.00     0.017 C 
HETATM   24  C19 UNL     1      -4.129  48.492 -25.521  1.00  0.00     0.082 C 
BRANCH  24  25
HETATM   25  C20 UNL     1      -3.624  49.133 -26.740  1.00  0.00     0.165 C 
HETATM   26  O3  UNL     1      -3.522  50.324 -26.962  1.00  0.00    -0.647 OA
BRANCH  25  27
HETATM   27  O4  UNL     1      -3.278  48.201 -27.642  1.00  0.00    -0.773 OA
HETATM   28  H28 UNL     1      -2.948  48.720 -28.404  1.00  0.00     0.167 HD
ENDBRANCH  25  27
ENDBRANCH  24  25
ENDBRANCH  22  23
ENDBRANCH  14  17
ENDBRANCH  11  14
BRANCH  12  29
HETATM   29  C22 UNL     1      -4.100  51.993 -22.400  1.00  0.00     0.184 C 
HETATM   30  O5  UNL     1      -4.306  52.440 -21.268  1.00  0.00    -0.290 OA
BRANCH  29  31
HETATM   31  C23 UNL     1      -5.240  51.982 -23.426  1.00  0.00     0.188 C 
HETATM   32  C24 UNL     1      -6.164  50.799 -23.185  1.00  0.00     0.048 C 
BRANCH  31  33
HETATM   33  O6  UNL     1      -4.702  51.843 -24.743  1.00  0.00    -0.388 OA
HETATM   34  H33 UNL     1      -3.865  51.344 -24.637  1.00  0.00     0.210 HD
ENDBRANCH  31  33
ENDBRANCH  29  31
ENDBRANCH  12  29
TORSDOF 9
ENDMDL
MODEL 6
REMARK minimizedAffinity -8.08576584
REMARK  9 active torsions:
REMARK  status: ('A' for Active; 'I' for Inactive)
REMARK    1  A    between atoms: C11_11  and  C12_12 
REMARK    2  A    between atoms: C12_12  and  O1_13 
REMARK    3  A    between atoms: C12_12  and  C13_14 
REMARK    4  A    between atoms: C17_19  and  C18_20 
REMARK    5  A    between atoms: C19_21  and  C20_22 
REMARK    6  A    between atoms: C20_22  and  O4_24 
REMARK    7  A    between atoms: C21_25  and  C22_26 
REMARK    8  A    between atoms: C22_26  and  C23_28 
REMARK    9  A    between atoms: C23_28  and  O6_30 
ROOT
HETATM    1  C1  UNL     1       0.828  52.622 -19.848  1.00  0.00     0.048 C 
HETATM    2  C2  UNL     1       0.243  52.233 -21.173  1.00  0.00    -0.065 C 
HETATM    3  C3  UNL     1       0.235  53.060 -22.242  1.00  0.00    -0.015 C 
HETATM    4  C4  UNL     1      -0.290  52.628 -23.599  1.00  0.00     0.014 C 
HETATM    5  C5  UNL     1       0.184  53.558 -24.723  1.00  0.00     0.009 C 
HETATM    6  C6  UNL     1      -0.106  52.921 -26.076  1.00  0.00     0.001 C 
HETATM    7  C7  UNL     1      -1.565  52.499 -26.216  1.00  0.00     0.005 C 
HETATM    8  C8  UNL     1      -2.090  51.642 -25.033  1.00  0.00    -0.013 C 
HETATM    9  C9  UNL     1      -3.523  51.252 -25.378  1.00  0.00     0.010 C 
HETATM   10  C10 UNL     1      -1.857  52.409 -23.691  1.00  0.00     0.008 C 
HETATM   11  C11 UNL     1      -2.401  51.812 -22.346  1.00  0.00     0.059 C 
HETATM   12  C21 UNL     1      -1.518  50.646 -21.863  1.00  0.00    -0.002 C 
HETATM   13  C25 UNL     1      -0.330  50.889 -21.263  1.00  0.00     0.018 C 
ENDROOT
BRANCH  11  14
HETATM   14  C12 UNL     1      -3.930  51.653 -22.041  1.00  0.00     0.166 C 
BRANCH  14  15
HETATM   15  O1  UNL     1      -4.623  52.008 -23.280  1.00  0.00    -0.391 OA
HETATM   16  H19 UNL     1      -4.524  51.260 -23.892  1.00  0.00     0.210 HD
ENDBRANCH  14  15
BRANCH  14  17
HETATM   17  C13 UNL     1      -4.469  50.238 -21.571  1.00  0.00     0.111 C 
HETATM   18  C14 UNL     1      -3.380  49.240 -21.174  1.00  0.00     0.054 C 
HETATM   19  O2  UNL     1      -5.191  50.464 -20.312  1.00  0.00    -0.369 OA
HETATM   20  C15 UNL     1      -6.592  50.245 -20.516  1.00  0.00     0.197 C 
HETATM   21  C16 UNL     1      -6.706  49.616 -21.850  1.00  0.00     0.009 C 
HETATM   22  C17 UNL     1      -5.520  49.604 -22.465  1.00  0.00    -0.023 C 
BRANCH  22  23
HETATM   23  C18 UNL     1      -5.242  48.998 -23.743  1.00  0.00     0.017 C 
HETATM   24  C19 UNL     1      -6.185  48.592 -24.606  1.00  0.00     0.082 C 
BRANCH  24  25
HETATM   25  C20 UNL     1      -5.790  48.036 -25.906  1.00  0.00     0.165 C 
HETATM   26  O3  UNL     1      -6.518  47.594 -26.773  1.00  0.00    -0.647 OA
BRANCH  25  27
HETATM   27  O4  UNL     1      -4.454  48.062 -26.031  1.00  0.00    -0.773 OA
HETATM   28  H28 UNL     1      -4.293  47.687 -26.922  1.00  0.00     0.167 HD
ENDBRANCH  25  27
ENDBRANCH  24  25
ENDBRANCH  22  23
ENDBRANCH  14  17
ENDBRANCH  11  14
BRANCH  12  29
HETATM   29  C22 UNL     1      -2.002  49.246 -22.097  1.00  0.00     0.184 C 
HETATM   30  O5  UNL     1      -2.548  48.952 -23.164  1.00  0.00    -0.290 OA
BRANCH  29  31
HETATM   31  C23 UNL     1      -1.806  48.165 -21.026  1.00  0.00     0.188 C 
HETATM   32  C24 UNL     1      -1.477  48.798 -19.683  1.00  0.00     0.048 C 
BRANCH  31  33
HETATM   33  O6  UNL     1      -0.707  47.325 -21.385  1.00  0.00    -0.388 OA
HETATM   34  H33 UNL     1      -0.104  47.888 -21.915  1.00  0.00     0.210 HD
ENDBRANCH  31  33
ENDBRANCH  29  31
ENDBRANCH  12  29
TORSDOF 9
ENDMDL
MODEL 7
REMARK minimizedAffinity -8.02655029
REMARK  9 active torsions:
REMARK  status: ('A' for Active; 'I' for Inactive)
REMARK    1  A    between atoms: C11_11  and  C12_12 
REMARK    2  A    between atoms: C12_12  and  O1_13 
REMARK    3  A    between atoms: C12_12  and  C13_14 
REMARK    4  A    between atoms: C17_19  and  C18_20 
REMARK    5  A    between atoms: C19_21  and  C20_22 
REMARK    6  A    between atoms: C20_22  and  O4_24 
REMARK    7  A    between atoms: C21_25  and  C22_26 
REMARK    8  A    between atoms: C22_26  and  C23_28 
REMARK    9  A    between atoms: C23_28  and  O6_30 
ROOT
HETATM    1  C1  UNL     1      -0.082  52.812 -22.788  1.00  0.00     0.048 C 
HETATM    2  C2  UNL     1      -1.021  51.718 -22.377  1.00  0.00    -0.065 C 
HETATM    3  C3  UNL     1      -0.598  50.486 -22.018  1.00  0.00    -0.015 C 
HETATM    4  C4  UNL     1      -1.552  49.411 -21.530  1.00  0.00     0.014 C 
HETATM    5  C5  UNL     1      -0.820  48.280 -20.797  1.00  0.00     0.009 C 
HETATM    6  C6  UNL     1      -1.827  47.398 -20.071  1.00  0.00     0.001 C 
HETATM    7  C7  UNL     1      -2.933  46.901 -20.996  1.00  0.00     0.005 C 
HETATM    8  C8  UNL     1      -3.615  48.023 -21.823  1.00  0.00    -0.013 C 
HETATM    9  C9  UNL     1      -4.733  47.360 -22.622  1.00  0.00     0.010 C 
HETATM   10  C10 UNL     1      -2.531  48.812 -22.624  1.00  0.00     0.008 C 
HETATM   11  C11 UNL     1      -2.965  49.932 -23.634  1.00  0.00     0.059 C 
HETATM   12  C21 UNL     1      -3.384  51.214 -22.889  1.00  0.00    -0.002 C 
HETATM   13  C25 UNL     1      -2.448  52.048 -22.381  1.00  0.00     0.018 C 
ENDROOT
BRANCH  11  14
HETATM   14  C12 UNL     1      -3.777  49.633 -24.940  1.00  0.00     0.166 C 
BRANCH  14  15
HETATM   15  O1  UNL     1      -4.587  50.827 -25.189  1.00  0.00    -0.391 OA
HETATM   16  H19 UNL     1      -3.995  51.509 -25.546  1.00  0.00     0.210 HD
ENDBRANCH  14  15
BRANCH  14  17
HETATM   17  C13 UNL     1      -2.982  49.299 -26.271  1.00  0.00     0.111 C 
HETATM   18  C14 UNL     1      -1.539  48.843 -26.054  1.00  0.00     0.054 C 
HETATM   19  O2  UNL     1      -3.624  48.113 -26.853  1.00  0.00    -0.369 OA
HETATM   20  C15 UNL     1      -4.288  48.476 -28.069  1.00  0.00     0.197 C 
HETATM   21  C16 UNL     1      -3.826  49.847 -28.381  1.00  0.00     0.009 C 
HETATM   22  C17 UNL     1      -3.090  50.332 -27.378  1.00  0.00    -0.023 C 
BRANCH  22  23
HETATM   23  C18 UNL     1      -2.412  51.604 -27.373  1.00  0.00     0.017 C 
HETATM   24  C19 UNL     1      -1.079  51.748 -27.418  1.00  0.00     0.082 C 
BRANCH  24  25
HETATM   25  C20 UNL     1      -0.494  53.092 -27.464  1.00  0.00     0.165 C 
HETATM   26  O3  UNL     1       0.543  53.467 -26.949  1.00  0.00    -0.647 OA
BRANCH  25  27
HETATM   27  O4  UNL     1      -1.284  53.916 -28.170  1.00  0.00    -0.773 OA
HETATM   28  H28 UNL     1      -0.810  54.773 -28.151  1.00  0.00     0.167 HD
ENDBRANCH  25  27
ENDBRANCH  24  25
ENDBRANCH  22  23
ENDBRANCH  14  17
ENDBRANCH  11  14
BRANCH  12  29
HETATM   29  C22 UNL     1      -4.848  51.493 -22.725  1.00  0.00     0.184 C 
HETATM   30  O5  UNL     1      -5.342  52.511 -23.219  1.00  0.00    -0.290 OA
BRANCH  29  31
HETATM   31  C23 UNL     1      -5.748  50.511 -21.964  1.00  0.00     0.188 C 
HETATM   32  C24 UNL     1      -7.057  50.299 -22.709  1.00  0.00     0.048 C 
BRANCH  31  33
HETATM   33  O6  UNL     1      -6.069  51.049 -20.679  1.00  0.00    -0.388 OA
HETATM   34  H33 UNL     1      -6.046  52.022 -20.785  1.00  0.00     0.210 HD
ENDBRANCH  31  33
ENDBRANCH  29  31
ENDBRANCH  12  29
TORSDOF 9
ENDMDL
MODEL 8
REMARK minimizedAffinity -8.01148033
REMARK  9 active torsions:
REMARK  status: ('A' for Active; 'I' for Inactive)
REMARK    1  A    between atoms: C11_11  and  C12_12 
REMARK    2  A    between atoms: C12_12  and  O1_13 
REMARK    3  A    between atoms: C12_12  and  C13_14 
REMARK    4  A    between atoms: C17_19  and  C18_20 
REMARK    5  A    between atoms: C19_21  and  C20_22 
REMARK    6  A    between atoms: C20_22  and  O4_24 
REMARK    7  A    between atoms: C21_25  and  C22_26 
REMARK    8  A    between atoms: C22_26  and  C23_28 
REMARK    9  A    between atoms: C23_28  and  O6_30 
ROOT
HETATM    1  C1  UNL     1       7.231  68.895 -33.404  1.00  0.00     0.048 C 
HETATM    2  C2  UNL     1       6.506  67.614 -33.690  1.00  0.00    -0.065 C 
HETATM    3  C3  UNL     1       6.162  66.735 -32.724  1.00  0.00    -0.015 C 
HETATM    4  C4  UNL     1       5.360  65.480 -33.016  1.00  0.00     0.014 C 
HETATM    5  C5  UNL     1       4.744  64.881 -31.746  1.00  0.00     0.009 C 
HETATM    6  C6  UNL     1       3.715  63.822 -32.121  1.00  0.00     0.001 C 
HETATM    7  C7  UNL     1       4.285  62.772 -33.068  1.00  0.00     0.005 C 
HETATM    8  C8  UNL     1       5.004  63.366 -34.309  1.00  0.00    -0.013 C 
HETATM    9  C9  UNL     1       5.435  62.184 -35.172  1.00  0.00     0.010 C 
HETATM   10  C10 UNL     1       6.117  64.357 -33.841  1.00  0.00     0.008 C 
HETATM   11  C11 UNL     1       7.074  65.013 -34.898  1.00  0.00     0.059 C 
HETATM   12  C21 UNL     1       6.358  66.140 -35.666  1.00  0.00    -0.002 C 
HETATM   13  C25 UNL     1       6.176  67.352 -35.092  1.00  0.00     0.018 C 
ENDROOT
BRANCH  11  14
HETATM   14  C12 UNL     1       8.103  64.188 -35.744  1.00  0.00     0.166 C 
BRANCH  14  15
HETATM   15  O1  UNL     1       8.854  65.170 -36.528  1.00  0.00    -0.391 OA
HETATM   16  H19 UNL     1       9.483  65.601 -35.927  1.00  0.00     0.210 HD
ENDBRANCH  14  15
BRANCH  14  17
HETATM   17  C13 UNL     1       9.149  63.269 -34.986  1.00  0.00     0.111 C 
HETATM   18  C14 UNL     1      10.433  63.981 -34.560  1.00  0.00     0.054 C 
HETATM   19  O2  UNL     1       8.530  62.901 -33.705  1.00  0.00    -0.369 OA
HETATM   20  C15 UNL     1       8.226  61.501 -33.705  1.00  0.00     0.197 C 
HETATM   21  C16 UNL     1       8.908  60.945 -34.894  1.00  0.00     0.009 C 
HETATM   22  C17 UNL     1       9.433  61.925 -35.633  1.00  0.00    -0.023 C 
BRANCH  22  23
HETATM   23  C18 UNL     1      10.237  61.747 -36.817  1.00  0.00     0.017 C 
HETATM   24  C19 UNL     1      11.537  62.069 -36.901  1.00  0.00     0.082 C 
BRANCH  24  25
HETATM   25  C20 UNL     1      12.274  61.794 -38.140  1.00  0.00     0.165 C 
HETATM   26  O3  UNL     1      13.284  62.343 -38.537  1.00  0.00    -0.647 OA
BRANCH  25  27
HETATM   27  O4  UNL     1      11.666  60.818 -38.832  1.00  0.00    -0.773 OA
HETATM   28  H28 UNL     1      12.231  60.702 -39.624  1.00  0.00     0.167 HD
ENDBRANCH  25  27
ENDBRANCH  24  25
ENDBRANCH  22  23
ENDBRANCH  14  17
ENDBRANCH  11  14
BRANCH  12  29
HETATM   29  C22 UNL     1       5.853  65.847 -37.047  1.00  0.00     0.184 C 
HETATM   30  O5  UNL     1       6.651  65.617 -37.961  1.00  0.00    -0.290 OA
BRANCH  29  31
HETATM   31  C23 UNL     1       4.347  65.809 -37.334  1.00  0.00     0.188 C 
HETATM   32  C24 UNL     1       3.844  67.189 -37.728  1.00  0.00     0.048 C 
BRANCH  31  33
HETATM   33  O6  UNL     1       3.641  65.417 -36.154  1.00  0.00    -0.388 OA
HETATM   34  H33 UNL     1       4.192  65.719 -35.402  1.00  0.00     0.210 HD
ENDBRANCH  31  33
ENDBRANCH  29  31
ENDBRANCH  12  29
TORSDOF 9
ENDMDL
MODEL 9
REMARK minimizedAffinity -7.82124233
REMARK  9 active torsions:
REMARK  status: ('A' for Active; 'I' for Inactive)
REMARK    1  A    between atoms: C11_11  and  C12_12 
REMARK    2  A    between atoms: C12_12  and  O1_13 
REMARK    3  A    between atoms: C12_12  and  C13_14 
REMARK    4  A    between atoms: C17_19  and  C18_20 
REMARK    5  A    between atoms: C19_21  and  C20_22 
REMARK    6  A    between atoms: C20_22  and  O4_24 
REMARK    7  A    between atoms: C21_25  and  C22_26 
REMARK    8  A    between atoms: C22_26  and  C23_28 
REMARK    9  A    between atoms: C23_28  and  O6_30 
ROOT
HETATM    1  C1  UNL     1       0.350  52.850 -20.523  1.00  0.00     0.048 C 
HETATM    2  C2  UNL     1      -0.095  51.906 -21.600  1.00  0.00    -0.065 C 
HETATM    3  C3  UNL     1      -0.437  52.319 -22.840  1.00  0.00    -0.015 C 
HETATM    4  C4  UNL     1      -0.812  51.346 -23.944  1.00  0.00     0.014 C 
HETATM    5  C5  UNL     1      -0.745  51.996 -25.332  1.00  0.00     0.009 C 
HETATM    6  C6  UNL     1      -0.826  50.923 -26.409  1.00  0.00     0.001 C 
HETATM    7  C7  UNL     1      -2.035  50.012 -26.228  1.00  0.00     0.005 C 
HETATM    8  C8  UNL     1      -2.175  49.427 -24.796  1.00  0.00    -0.013 C 
HETATM    9  C9  UNL     1      -3.378  48.490 -24.822  1.00  0.00     0.010 C 
HETATM   10  C10 UNL     1      -2.194  50.594 -23.757  1.00  0.00     0.008 C 
HETATM   11  C11 UNL     1      -2.442  50.284 -22.238  1.00  0.00     0.059 C 
HETATM   12  C21 UNL     1      -1.180  49.688 -21.585  1.00  0.00    -0.002 C 
HETATM   13  C25 UNL     1      -0.144  50.487 -21.243  1.00  0.00     0.018 C 
ENDROOT
BRANCH  11  14
HETATM   14  C12 UNL     1      -3.797  49.717 -21.694  1.00  0.00     0.166 C 
BRANCH  14  15
HETATM   15  O1  UNL     1      -3.613  49.558 -20.251  1.00  0.00    -0.391 OA
HETATM   16  H19 UNL     1      -3.663  50.444 -19.854  1.00  0.00     0.210 HD
ENDBRANCH  14  15
BRANCH  14  17
HETATM   17  C13 UNL     1      -5.122  50.556 -21.927  1.00  0.00     0.111 C 
HETATM   18  C14 UNL     1      -5.039  52.015 -21.478  1.00  0.00     0.054 C 
HETATM   19  O2  UNL     1      -5.298  50.663 -23.381  1.00  0.00    -0.369 OA
HETATM   20  C15 UNL     1      -6.443  49.900 -23.782  1.00  0.00     0.197 C 
HETATM   21  C16 UNL     1      -7.138  49.536 -22.528  1.00  0.00     0.009 C 
HETATM   22  C17 UNL     1      -6.409  49.894 -21.468  1.00  0.00    -0.023 C 
BRANCH  22  23
HETATM   23  C18 UNL     1      -6.812  49.768 -20.090  1.00  0.00     0.017 C 
HETATM   24  C19 UNL     1      -7.871  49.056 -19.676  1.00  0.00     0.082 C 
BRANCH  24  25
HETATM   25  C20 UNL     1      -8.159  48.950 -18.241  1.00  0.00     0.165 C 
HETATM   26  O3  UNL     1      -9.222  49.143 -17.684  1.00  0.00    -0.647 OA
BRANCH  25  27
HETATM   27  O4  UNL     1      -7.048  48.606 -17.572  1.00  0.00    -0.773 OA
HETATM   28  H28 UNL     1      -7.341  48.551 -16.639  1.00  0.00     0.167 HD
ENDBRANCH  25  27
ENDBRANCH  24  25
ENDBRANCH  22  23
ENDBRANCH  14  17
ENDBRANCH  11  14
BRANCH  12  29
HETATM   29  C22 UNL     1      -1.129  48.206 -21.363  1.00  0.00     0.184 C 
HETATM   30  O5  UNL     1      -0.146  47.697 -20.815  1.00  0.00    -0.290 OA
BRANCH  29  31
HETATM   31  C23 UNL     1      -2.299  47.313 -21.794  1.00  0.00     0.188 C 
HETATM   32  C24 UNL     1      -3.230  48.067 -22.730  1.00  0.00     0.048 C 
BRANCH  31  33
HETATM   33  O6  UNL     1      -3.062  46.931 -20.647  1.00  0.00    -0.388 OA
HETATM   34  H33 UNL     1      -2.952  47.659 -20.001  1.00  0.00     0.210 HD
ENDBRANCH  31  33
ENDBRANCH  29  31
ENDBRANCH  12  29
TORSDOF 9
ENDMDL
