MODEL 1
REMARK minimizedAffinity -9.24651527
REMARK  4 active torsions:
REMARK  status: ('A' for Active; 'I' for Inactive)
REMARK    1  A    between atoms: C12_13  and  C13_14 
REMARK    2  A    between atoms: C20_21  and  C21_22 
REMARK    3  A    between atoms: C21_22  and  C22_23 
REMARK    4  A    between atoms: C23_24  and  O2_25 
ROOT
HETATM    1  C1  UNL     1      -6.664  48.944 -24.359  1.00  0.00     0.015 C 
HETATM    2  C2  UNL     1      -5.812  49.690 -23.636  1.00  0.00    -0.084 C 
HETATM    3  C3  UNL     1      -6.225  50.330 -22.331  1.00  0.00     0.034 C 
HETATM    4  C4  UNL     1      -5.260  49.993 -21.192  1.00  0.00     0.010 C 
HETATM    5  C5  UNL     1      -3.781  50.224 -21.583  1.00  0.00     0.006 C 
HETATM    6  C6  UNL     1      -3.394  49.447 -22.893  1.00  0.00    -0.032 C 
HETATM    7  C7  UNL     1      -3.570  47.909 -22.742  1.00  0.00     0.016 C 
HETATM    8  C8  UNL     1      -1.900  49.688 -23.270  1.00  0.00     0.013 C 
HETATM    9  C9  UNL     1      -1.162  50.616 -22.309  1.00  0.00     0.039 C 
HETATM   10  C10 UNL     1      -1.280  50.153 -20.844  1.00  0.00     0.066 C 
HETATM   11  C11 UNL     1      -0.476  48.857 -20.646  1.00  0.00     0.047 C 
HETATM   12  O1  UNL     1      -0.587  51.144 -20.049  1.00  0.00    -0.371 OA
HETATM   13  C12 UNL     1      -1.460  51.707 -19.067  1.00  0.00     0.146 C 
HETATM   14  C17 UNL     1      -2.872  51.398 -19.528  1.00  0.00     0.048 C 
HETATM   15  C18 UNL     1      -2.771  50.110 -20.375  1.00  0.00    -0.006 C 
HETATM   16  C19 UNL     1      -3.097  48.918 -19.448  1.00  0.00     0.019 C 
HETATM   17  C20 UNL     1      -4.361  49.914 -24.063  1.00  0.00     0.027 C 
ENDROOT
BRANCH  17  18
HETATM   18  C21 UNL     1      -4.161  51.384 -24.547  1.00  0.00     0.057 C 
BRANCH  18  19
HETATM   19  C22 UNL     1      -2.979  51.549 -25.480  1.00  0.00     0.052 A 
HETATM   20  C23 UNL     1      -2.033  52.486 -25.311  1.00  0.00     0.086 A 
HETATM   21  C24 UNL     1      -0.904  52.627 -26.218  1.00  0.00     0.001 A 
HETATM   22  C25 UNL     1       0.045  53.781 -26.035  1.00  0.00     0.054 C 
HETATM   23  C26 UNL     1      -0.792  51.730 -27.217  1.00  0.00     0.061 A 
HETATM   24  C27 UNL     1       0.307  51.650 -28.233  1.00  0.00     0.077 C 
HETATM   25  O3  UNL     1      -1.766  50.719 -27.407  1.00  0.00    -0.279 OA
HETATM   26  C28 UNL     1      -2.888  50.628 -26.636  1.00  0.00     0.297 A 
HETATM   27  O4  UNL     1      -3.770  49.815 -26.896  1.00  0.00    -0.259 OA
BRANCH  20  28
HETATM   28  O2  UNL     1      -2.108  53.341 -24.226  1.00  0.00    -0.359 OA
HETATM   29  H34 UNL     1      -1.234  53.717 -24.039  1.00  0.00     0.217 HD
ENDBRANCH  20  28
ENDBRANCH  18  19
ENDBRANCH  17  18
BRANCH  13  30
HETATM   30  C13 UNL     1      -1.095  51.142 -17.723  1.00  0.00     0.007 C 
HETATM   31  C14 UNL     1       0.052  51.343 -17.042  1.00  0.00    -0.089 C 
HETATM   32  C15 UNL     1       1.180  52.219 -17.513  1.00  0.00     0.042 C 
HETATM   33  C16 UNL     1       0.286  50.681 -15.710  1.00  0.00     0.042 C 
ENDBRANCH  13  30
TORSDOF 4
ENDMDL
MODEL 2
REMARK minimizedAffinity -9.09971809
REMARK  4 active torsions:
REMARK  status: ('A' for Active; 'I' for Inactive)
REMARK    1  A    between atoms: C12_13  and  C13_14 
REMARK    2  A    between atoms: C20_21  and  C21_22 
REMARK    3  A    between atoms: C21_22  and  C22_23 
REMARK    4  A    between atoms: C23_24  and  O2_25 
ROOT
HETATM    1  C1  UNL     1      -2.973  47.886 -18.808  1.00  0.00     0.015 C 
HETATM    2  C2  UNL     1      -2.531  48.899 -19.572  1.00  0.00    -0.084 C 
HETATM    3  C3  UNL     1      -1.176  48.860 -20.238  1.00  0.00     0.034 C 
HETATM    4  C4  UNL     1      -1.263  49.143 -21.740  1.00  0.00     0.010 C 
HETATM    5  C5  UNL     1      -2.100  50.405 -22.055  1.00  0.00     0.006 C 
HETATM    6  C6  UNL     1      -3.533  50.332 -21.416  1.00  0.00    -0.032 C 
HETATM    7  C7  UNL     1      -4.355  49.121 -21.943  1.00  0.00     0.016 C 
HETATM    8  C8  UNL     1      -4.364  51.610 -21.746  1.00  0.00     0.013 C 
HETATM    9  C9  UNL     1      -3.612  52.633 -22.592  1.00  0.00     0.039 C 
HETATM   10  C10 UNL     1      -3.036  52.016 -23.881  1.00  0.00     0.066 C 
HETATM   11  C11 UNL     1      -4.184  51.659 -24.840  1.00  0.00     0.047 C 
HETATM   12  O1  UNL     1      -2.312  53.076 -24.550  1.00  0.00    -0.371 OA
HETATM   13  C12 UNL     1      -0.947  52.705 -24.757  1.00  0.00     0.146 C 
HETATM   14  C17 UNL     1      -0.669  51.561 -23.801  1.00  0.00     0.048 C 
HETATM   15  C18 UNL     1      -2.028  50.863 -23.564  1.00  0.00    -0.006 C 
HETATM   16  C19 UNL     1      -2.116  49.673 -24.545  1.00  0.00     0.019 C 
HETATM   17  C20 UNL     1      -3.378  50.142 -19.846  1.00  0.00     0.027 C 
ENDROOT
BRANCH  17  18
HETATM   18  C21 UNL     1      -2.798  51.372 -19.080  1.00  0.00     0.057 C 
BRANCH  18  19
HETATM   19  C22 UNL     1      -1.890  50.984 -17.931  1.00  0.00     0.052 A 
HETATM   20  C23 UNL     1      -2.348  50.531 -16.752  1.00  0.00     0.086 A 
HETATM   21  C24 UNL     1      -1.460  50.163 -15.660  1.00  0.00     0.001 A 
HETATM   22  C25 UNL     1      -2.052  49.784 -14.329  1.00  0.00     0.054 C 
HETATM   23  C26 UNL     1      -0.134  50.224 -15.889  1.00  0.00     0.061 A 
HETATM   24  C27 UNL     1       0.959  49.847 -14.935  1.00  0.00     0.077 C 
HETATM   25  O3  UNL     1       0.376  50.681 -17.129  1.00  0.00    -0.279 OA
HETATM   26  C28 UNL     1      -0.431  51.131 -18.132  1.00  0.00     0.297 A 
HETATM   27  O4  UNL     1       0.042  51.628 -19.150  1.00  0.00    -0.259 OA
BRANCH  20  28
HETATM   28  O2  UNL     1      -3.711  50.381 -16.564  1.00  0.00    -0.359 OA
HETATM   29  H34 UNL     1      -3.879  49.757 -15.841  1.00  0.00     0.217 HD
ENDBRANCH  20  28
ENDBRANCH  18  19
ENDBRANCH  17  18
BRANCH  13  30
HETATM   30  C13 UNL     1      -0.756  52.376 -26.211  1.00  0.00     0.007 C 
HETATM   31  C14 UNL     1       0.385  51.978 -26.811  1.00  0.00    -0.089 C 
HETATM   32  C15 UNL     1       1.690  51.759 -26.098  1.00  0.00     0.042 C 
HETATM   33  C16 UNL     1       0.427  51.713 -28.292  1.00  0.00     0.042 C 
ENDBRANCH  13  30
TORSDOF 4
ENDMDL
MODEL 3
REMARK minimizedAffinity -8.90161896
REMARK  4 active torsions:
REMARK  status: ('A' for Active; 'I' for Inactive)
REMARK    1  A    between atoms: C12_13  and  C13_14 
REMARK    2  A    between atoms: C20_21  and  C21_22 
REMARK    3  A    between atoms: C21_22  and  C22_23 
REMARK    4  A    between atoms: C23_24  and  O2_25 
ROOT
HETATM    1  C1  UNL     1      -5.272  51.582 -24.366  1.00  0.00     0.015 C 
HETATM    2  C2  UNL     1      -4.377  51.759 -23.379  1.00  0.00    -0.084 C 
HETATM    3  C3  UNL     1      -4.729  52.500 -22.110  1.00  0.00     0.034 C 
HETATM    4  C4  UNL     1      -4.391  51.689 -20.856  1.00  0.00     0.010 C 
HETATM    5  C5  UNL     1      -2.954  51.119 -20.892  1.00  0.00     0.006 C 
HETATM    6  C6  UNL     1      -2.691  50.275 -22.191  1.00  0.00    -0.032 C 
HETATM    7  C7  UNL     1      -3.648  49.054 -22.308  1.00  0.00     0.016 C 
HETATM    8  C8  UNL     1      -1.239  49.704 -22.209  1.00  0.00     0.013 C 
HETATM    9  C9  UNL     1      -0.409  50.093 -20.989  1.00  0.00     0.039 C 
HETATM   10  C10 UNL     1      -1.112  49.738 -19.666  1.00  0.00     0.066 C 
HETATM   11  C11 UNL     1      -1.149  48.210 -19.495  1.00  0.00     0.047 C 
HETATM   12  O1  UNL     1      -0.243  50.207 -18.606  1.00  0.00    -0.371 OA
HETATM   13  C12 UNL     1      -0.932  51.127 -17.757  1.00  0.00     0.146 C 
HETATM   14  C17 UNL     1      -2.136  51.610 -18.542  1.00  0.00     0.048 C 
HETATM   15  C18 UNL     1      -2.485  50.473 -19.530  1.00  0.00    -0.006 C 
HETATM   16  C19 UNL     1      -3.589  49.613 -18.876  1.00  0.00     0.019 C 
HETATM   17  C20 UNL     1      -2.957  51.198 -23.456  1.00  0.00     0.027 C 
ENDROOT
BRANCH  17  18
HETATM   18  C21 UNL     1      -1.929  52.354 -23.667  1.00  0.00     0.057 C 
BRANCH  18  19
HETATM   19  C22 UNL     1      -1.136  52.220 -24.950  1.00  0.00     0.052 A 
HETATM   20  C23 UNL     1       0.172  51.916 -24.978  1.00  0.00     0.086 A 
HETATM   21  C24 UNL     1       0.916  51.791 -26.222  1.00  0.00     0.001 A 
HETATM   22  C25 UNL     1       2.405  51.573 -26.168  1.00  0.00     0.054 C 
HETATM   23  C26 UNL     1       0.230  51.922 -27.374  1.00  0.00     0.061 A 
HETATM   24  C27 UNL     1       0.774  51.783 -28.764  1.00  0.00     0.077 C 
HETATM   25  O3  UNL     1      -1.154  52.223 -27.373  1.00  0.00    -0.279 OA
HETATM   26  C28 UNL     1      -1.854  52.450 -26.224  1.00  0.00     0.297 A 
HETATM   27  O4  UNL     1      -3.023  52.822 -26.258  1.00  0.00    -0.259 OA
BRANCH  20  28
HETATM   28  O2  UNL     1       0.843  51.689 -23.791  1.00  0.00    -0.359 OA
HETATM   29  H34 UNL     1       1.646  51.170 -23.958  1.00  0.00     0.217 HD
ENDBRANCH  20  28
ENDBRANCH  18  19
ENDBRANCH  17  18
BRANCH  13  30
HETATM   30  C13 UNL     1      -1.257  50.432 -16.463  1.00  0.00     0.007 C 
HETATM   31  C14 UNL     1      -0.427  50.233 -15.419  1.00  0.00    -0.089 C 
HETATM   32  C15 UNL     1       0.996  50.713 -15.357  1.00  0.00     0.042 C 
HETATM   33  C16 UNL     1      -0.892  49.489 -14.195  1.00  0.00     0.042 C 
ENDBRANCH  13  30
TORSDOF 4
ENDMDL
MODEL 4
REMARK minimizedAffinity -8.88636875
REMARK  4 active torsions:
REMARK  status: ('A' for Active; 'I' for Inactive)
REMARK    1  A    between atoms: C12_13  and  C13_14 
REMARK    2  A    between atoms: C20_21  and  C21_22 
REMARK    3  A    between atoms: C21_22  and  C22_23 
REMARK    4  A    between atoms: C23_24  and  O2_25 
ROOT
HETATM    1  C1  UNL     1       1.138  51.849 -21.377  1.00  0.00     0.015 C 
HETATM    2  C2  UNL     1      -0.089  51.613 -20.882  1.00  0.00    -0.084 C 
HETATM    3  C3  UNL     1      -1.332  52.161 -21.543  1.00  0.00     0.034 C 
HETATM    4  C4  UNL     1      -2.370  51.070 -21.816  1.00  0.00     0.010 C 
HETATM    5  C5  UNL     1      -2.636  50.185 -20.575  1.00  0.00     0.006 C 
HETATM    6  C6  UNL     1      -1.310  49.567 -20.001  1.00  0.00    -0.032 C 
HETATM    7  C7  UNL     1      -0.585  48.659 -21.036  1.00  0.00     0.016 C 
HETATM    8  C8  UNL     1      -1.598  48.675 -18.754  1.00  0.00     0.013 C 
HETATM    9  C9  UNL     1      -3.073  48.612 -18.368  1.00  0.00     0.039 C 
HETATM   10  C10 UNL     1      -3.968  48.191 -19.548  1.00  0.00     0.066 C 
HETATM   11  C11 UNL     1      -3.711  46.715 -19.891  1.00  0.00     0.047 C 
HETATM   12  O1  UNL     1      -5.330  48.225 -19.057  1.00  0.00    -0.371 OA
HETATM   13  C12 UNL     1      -6.132  49.106 -19.847  1.00  0.00     0.146 C 
HETATM   14  C17 UNL     1      -5.166  50.007 -20.591  1.00  0.00     0.048 C 
HETATM   15  C18 UNL     1      -3.857  49.198 -20.740  1.00  0.00    -0.006 C 
HETATM   16  C19 UNL     1      -3.883  48.523 -22.129  1.00  0.00     0.019 C 
HETATM   17  C20 UNL     1      -0.314  50.750 -19.641  1.00  0.00     0.027 C 
ENDROOT
BRANCH  17  18
HETATM   18  C21 UNL     1      -0.746  51.640 -18.434  1.00  0.00     0.057 C 
BRANCH  18  19
HETATM   19  C22 UNL     1       0.253  51.627 -17.295  1.00  0.00     0.052 A 
HETATM   20  C23 UNL     1       1.398  52.329 -17.313  1.00  0.00     0.086 A 
HETATM   21  C24 UNL     1       2.344  52.304 -16.208  1.00  0.00     0.001 A 
HETATM   22  C25 UNL     1       3.663  53.017 -16.355  1.00  0.00     0.054 C 
HETATM   23  C26 UNL     1       2.005  51.597 -15.113  1.00  0.00     0.061 A 
HETATM   24  C27 UNL     1       2.795  51.471 -13.846  1.00  0.00     0.077 C 
HETATM   25  O3  UNL     1       0.795  50.862 -15.060  1.00  0.00    -0.279 OA
HETATM   26  C28 UNL     1      -0.061  50.783 -16.120  1.00  0.00     0.297 A 
HETATM   27  O4  UNL     1      -1.042  50.047 -16.087  1.00  0.00    -0.259 OA
BRANCH  20  28
HETATM   28  O2  UNL     1       1.689  53.128 -18.404  1.00  0.00    -0.359 OA
HETATM   29  H34 UNL     1       2.335  53.807 -18.154  1.00  0.00     0.217 HD
ENDBRANCH  20  28
ENDBRANCH  18  19
ENDBRANCH  17  18
BRANCH  13  30
HETATM   30  C13 UNL     1      -7.029  48.277 -20.724  1.00  0.00     0.007 C 
HETATM   31  C14 UNL     1      -7.591  48.649 -21.892  1.00  0.00    -0.089 C 
HETATM   32  C15 UNL     1      -7.383  49.984 -22.551  1.00  0.00     0.042 C 
HETATM   33  C16 UNL     1      -8.497  47.712 -22.646  1.00  0.00     0.042 C 
ENDBRANCH  13  30
TORSDOF 4
ENDMDL
MODEL 5
REMARK minimizedAffinity -8.68045521
REMARK  4 active torsions:
REMARK  status: ('A' for Active; 'I' for Inactive)
REMARK    1  A    between atoms: C12_13  and  C13_14 
REMARK    2  A    between atoms: C20_21  and  C21_22 
REMARK    3  A    between atoms: C21_22  and  C22_23 
REMARK    4  A    between atoms: C23_24  and  O2_25 
ROOT
HETATM    1  C1  UNL     1      -3.100  48.299 -23.671  1.00  0.00     0.015 C 
HETATM    2  C2  UNL     1      -3.085  49.043 -22.552  1.00  0.00    -0.084 C 
HETATM    3  C3  UNL     1      -4.282  49.123 -21.634  1.00  0.00     0.034 C 
HETATM    4  C4  UNL     1      -3.918  48.807 -20.181  1.00  0.00     0.010 C 
HETATM    5  C5  UNL     1      -2.681  49.601 -19.698  1.00  0.00     0.006 C 
HETATM    6  C6  UNL     1      -1.444  49.391 -20.643  1.00  0.00    -0.032 C 
HETATM    7  C7  UNL     1      -1.004  47.901 -20.719  1.00  0.00     0.016 C 
HETATM    8  C8  UNL     1      -0.206  50.194 -20.139  1.00  0.00     0.013 C 
HETATM    9  C9  UNL     1      -0.468  50.999 -18.869  1.00  0.00     0.039 C 
HETATM   10  C10 UNL     1      -1.046  50.131 -17.736  1.00  0.00     0.066 C 
HETATM   11  C11 UNL     1       0.034  49.162 -17.227  1.00  0.00     0.047 C 
HETATM   12  O1  UNL     1      -1.292  51.027 -16.625  1.00  0.00    -0.371 OA
HETATM   13  C12 UNL     1      -2.666  50.979 -16.231  1.00  0.00     0.146 C 
HETATM   14  C17 UNL     1      -3.421  50.376 -17.399  1.00  0.00     0.048 C 
HETATM   15  C18 UNL     1      -2.407  49.481 -18.148  1.00  0.00    -0.006 C 
HETATM   16  C19 UNL     1      -2.590  48.038 -17.628  1.00  0.00     0.019 C 
HETATM   17  C20 UNL     1      -1.851  49.832 -22.114  1.00  0.00     0.027 C 
ENDROOT
BRANCH  17  18
HETATM   18  C21 UNL     1      -2.089  51.362 -22.309  1.00  0.00     0.057 C 
BRANCH  18  19
HETATM   19  C22 UNL     1      -1.566  51.882 -23.632  1.00  0.00     0.052 A 
HETATM   20  C23 UNL     1      -2.304  51.910 -24.755  1.00  0.00     0.086 A 
HETATM   21  C24 UNL     1      -1.784  52.416 -26.016  1.00  0.00     0.001 A 
HETATM   22  C25 UNL     1      -2.627  52.298 -27.258  1.00  0.00     0.054 C 
HETATM   23  C26 UNL     1      -0.538  52.930 -26.015  1.00  0.00     0.061 A 
HETATM   24  C27 UNL     1       0.178  53.548 -27.177  1.00  0.00     0.077 C 
HETATM   25  O3  UNL     1       0.254  52.930 -24.841  1.00  0.00    -0.279 OA
HETATM   26  C28 UNL     1      -0.168  52.368 -23.672  1.00  0.00     0.297 A 
HETATM   27  O4  UNL     1       0.582  52.279 -22.705  1.00  0.00    -0.259 OA
BRANCH  20  28
HETATM   28  O2  UNL     1      -3.614  51.468 -24.720  1.00  0.00    -0.359 OA
HETATM   29  H34 UNL     1      -4.110  51.843 -25.464  1.00  0.00     0.217 HD
ENDBRANCH  20  28
ENDBRANCH  18  19
ENDBRANCH  17  18
BRANCH  13  30
HETATM   30  C13 UNL     1      -2.767  50.207 -14.945  1.00  0.00     0.007 C 
HETATM   31  C14 UNL     1      -2.957  50.711 -13.708  1.00  0.00    -0.089 C 
HETATM   32  C15 UNL     1      -3.135  52.172 -13.402  1.00  0.00     0.042 C 
HETATM   33  C16 UNL     1      -3.008  49.807 -12.505  1.00  0.00     0.042 C 
ENDBRANCH  13  30
TORSDOF 4
ENDMDL
MODEL 6
REMARK minimizedAffinity -8.64558983
REMARK  4 active torsions:
REMARK  status: ('A' for Active; 'I' for Inactive)
REMARK    1  A    between atoms: C12_13  and  C13_14 
REMARK    2  A    between atoms: C20_21  and  C21_22 
REMARK    3  A    between atoms: C21_22  and  C22_23 
REMARK    4  A    between atoms: C23_24  and  O2_25 
ROOT
HETATM    1  C1  UNL     1      -0.440  49.831 -20.557  1.00  0.00     0.015 C 
HETATM    2  C2  UNL     1      -1.505  49.832 -21.378  1.00  0.00    -0.084 C 
HETATM    3  C3  UNL     1      -1.586  48.918 -22.577  1.00  0.00     0.034 C 
HETATM    4  C4  UNL     1      -2.883  48.105 -22.597  1.00  0.00     0.010 C 
HETATM    5  C5  UNL     1      -4.134  48.986 -22.373  1.00  0.00     0.006 C 
HETATM    6  C6  UNL     1      -4.025  49.834 -21.054  1.00  0.00    -0.032 C 
HETATM    7  C7  UNL     1      -3.887  48.942 -19.788  1.00  0.00     0.016 C 
HETATM    8  C8  UNL     1      -5.297  50.712 -20.842  1.00  0.00     0.013 C 
HETATM    9  C9  UNL     1      -6.340  50.565 -21.946  1.00  0.00     0.039 C 
HETATM   10  C10 UNL     1      -6.734  49.095 -22.185  1.00  0.00     0.066 C 
HETATM   11  C11 UNL     1      -7.534  48.572 -20.981  1.00  0.00     0.047 C 
HETATM   12  O1  UNL     1      -7.679  49.102 -23.282  1.00  0.00    -0.371 OA
HETATM   13  C12 UNL     1      -7.214  48.281 -24.356  1.00  0.00     0.146 C 
HETATM   14  C17 UNL     1      -5.726  48.094 -24.134  1.00  0.00     0.048 C 
HETATM   15  C18 UNL     1      -5.501  48.233 -22.611  1.00  0.00    -0.006 C 
HETATM   16  C19 UNL     1      -5.500  46.810 -22.011  1.00  0.00     0.019 C 
HETATM   17  C20 UNL     1      -2.718  50.732 -21.137  1.00  0.00     0.027 C 
ENDROOT
BRANCH  17  18
HETATM   18  C21 UNL     1      -2.761  51.877 -22.196  1.00  0.00     0.057 C 
BRANCH  18  19
HETATM   19  C22 UNL     1      -1.640  51.793 -23.211  1.00  0.00     0.052 A 
HETATM   20  C23 UNL     1      -1.785  51.236 -24.424  1.00  0.00     0.086 A 
HETATM   21  C24 UNL     1      -0.695  51.167 -25.386  1.00  0.00     0.001 A 
HETATM   22  C25 UNL     1      -0.900  50.415 -26.674  1.00  0.00     0.054 C 
HETATM   23  C26 UNL     1       0.472  51.750 -25.047  1.00  0.00     0.061 A 
HETATM   24  C27 UNL     1       1.705  51.846 -25.894  1.00  0.00     0.077 C 
HETATM   25  O3  UNL     1       0.646  52.361 -23.782  1.00  0.00    -0.279 OA
HETATM   26  C28 UNL     1      -0.323  52.348 -22.822  1.00  0.00     0.297 A 
HETATM   27  O4  UNL     1      -0.104  52.783 -21.695  1.00  0.00    -0.259 OA
BRANCH  20  28
HETATM   28  O2  UNL     1      -3.016  50.727 -24.796  1.00  0.00    -0.359 OA
HETATM   29  H34 UNL     1      -3.074  50.672 -25.763  1.00  0.00     0.217 HD
ENDBRANCH  20  28
ENDBRANCH  18  19
ENDBRANCH  17  18
BRANCH  13  30
HETATM   30  C13 UNL     1      -8.018  47.010 -24.368  1.00  0.00     0.007 C 
HETATM   31  C14 UNL     1      -8.264  46.215 -25.429  1.00  0.00    -0.089 C 
HETATM   32  C15 UNL     1      -7.733  46.455 -26.815  1.00  0.00     0.042 C 
HETATM   33  C16 UNL     1      -9.116  44.982 -25.289  1.00  0.00     0.042 C 
ENDBRANCH  13  30
TORSDOF 4
ENDMDL
MODEL 7
REMARK minimizedAffinity -8.61573124
REMARK  4 active torsions:
REMARK  status: ('A' for Active; 'I' for Inactive)
REMARK    1  A    between atoms: C12_13  and  C13_14 
REMARK    2  A    between atoms: C20_21  and  C21_22 
REMARK    3  A    between atoms: C21_22  and  C22_23 
REMARK    4  A    between atoms: C23_24  and  O2_25 
ROOT
HETATM    1  C1  UNL     1       4.988  65.716 -33.429  1.00  0.00     0.015 C 
HETATM    2  C2  UNL     1       4.582  65.646 -34.708  1.00  0.00    -0.084 C 
HETATM    3  C3  UNL     1       3.185  65.203 -35.076  1.00  0.00     0.034 C 
HETATM    4  C4  UNL     1       2.488  66.204 -36.000  1.00  0.00     0.010 C 
HETATM    5  C5  UNL     1       3.371  66.612 -37.202  1.00  0.00     0.006 C 
HETATM    6  C6  UNL     1       4.771  67.158 -36.741  1.00  0.00    -0.032 C 
HETATM    7  C7  UNL     1       4.647  68.421 -35.843  1.00  0.00     0.016 C 
HETATM    8  C8  UNL     1       5.647  67.568 -37.965  1.00  0.00     0.013 C 
HETATM    9  C9  UNL     1       4.968  67.343 -39.313  1.00  0.00     0.039 C 
HETATM   10  C10 UNL     1       3.585  68.016 -39.391  1.00  0.00     0.066 C 
HETATM   11  C11 UNL     1       3.756  69.544 -39.422  1.00  0.00     0.047 C 
HETATM   12  O1  UNL     1       3.042  67.677 -40.689  1.00  0.00    -0.371 OA
HETATM   13  C12 UNL     1       1.784  67.012 -40.555  1.00  0.00     0.146 C 
HETATM   14  C17 UNL     1       1.722  66.507 -39.126  1.00  0.00     0.048 C 
HETATM   15  C18 UNL     1       2.615  67.460 -38.298  1.00  0.00    -0.006 C 
HETATM   16  C19 UNL     1       1.695  68.535 -37.678  1.00  0.00     0.019 C 
HETATM   17  C20 UNL     1       5.490  66.038 -35.874  1.00  0.00     0.027 C 
ENDROOT
BRANCH  17  18
HETATM   18  C21 UNL     1       5.937  64.768 -36.663  1.00  0.00     0.057 C 
BRANCH  18  19
HETATM   19  C22 UNL     1       7.004  63.966 -35.947  1.00  0.00     0.052 A 
HETATM   20  C23 UNL     1       8.312  64.261 -36.010  1.00  0.00     0.086 A 
HETATM   21  C24 UNL     1       9.322  63.479 -35.313  1.00  0.00     0.001 A 
HETATM   22  C25 UNL     1      10.778  63.795 -35.534  1.00  0.00     0.054 C 
HETATM   23  C26 UNL     1       8.896  62.468 -34.530  1.00  0.00     0.061 A 
HETATM   24  C27 UNL     1       9.746  61.569 -33.685  1.00  0.00     0.077 C 
HETATM   25  O3  UNL     1       7.520  62.148 -34.430  1.00  0.00    -0.279 OA
HETATM   26  C28 UNL     1       6.562  62.797 -35.153  1.00  0.00     0.297 A 
HETATM   27  O4  UNL     1       5.394  62.422 -35.135  1.00  0.00    -0.259 OA
BRANCH  20  28
HETATM   28  O2  UNL     1       8.728  65.359 -36.740  1.00  0.00    -0.359 OA
HETATM   29  H34 UNL     1       9.604  65.646 -36.438  1.00  0.00     0.217 HD
ENDBRANCH  20  28
ENDBRANCH  18  19
ENDBRANCH  17  18
BRANCH  13  30
HETATM   30  C13 UNL     1       0.692  67.972 -40.935  1.00  0.00     0.007 C 
HETATM   31  C14 UNL     1       0.751  68.938 -41.875  1.00  0.00    -0.089 C 
HETATM   32  C15 UNL     1       1.944  69.204 -42.750  1.00  0.00     0.042 C 
HETATM   33  C16 UNL     1      -0.424  69.846 -42.124  1.00  0.00     0.042 C 
ENDBRANCH  13  30
TORSDOF 4
ENDMDL
MODEL 8
REMARK minimizedAffinity -8.61504078
REMARK  4 active torsions:
REMARK  status: ('A' for Active; 'I' for Inactive)
REMARK    1  A    between atoms: C12_13  and  C13_14 
REMARK    2  A    between atoms: C20_21  and  C21_22 
REMARK    3  A    between atoms: C21_22  and  C22_23 
REMARK    4  A    between atoms: C23_24  and  O2_25 
ROOT
HETATM    1  C1  UNL     1       0.110  51.799 -22.634  1.00  0.00     0.015 C 
HETATM    2  C2  UNL     1      -1.054  51.611 -21.989  1.00  0.00    -0.084 C 
HETATM    3  C3  UNL     1      -2.360  52.141 -22.532  1.00  0.00     0.034 C 
HETATM    4  C4  UNL     1      -3.432  51.052 -22.621  1.00  0.00     0.010 C 
HETATM    5  C5  UNL     1      -3.562  50.244 -21.309  1.00  0.00     0.006 C 
HETATM    6  C6  UNL     1      -2.184  49.637 -20.856  1.00  0.00    -0.032 C 
HETATM    7  C7  UNL     1      -1.592  48.661 -21.913  1.00  0.00     0.016 C 
HETATM    8  C8  UNL     1      -2.334  48.822 -19.535  1.00  0.00     0.013 C 
HETATM    9  C9  UNL     1      -3.755  48.804 -18.978  1.00  0.00     0.039 C 
HETATM   10  C10 UNL     1      -4.785  48.332 -20.022  1.00  0.00     0.066 C 
HETATM   11  C11 UNL     1      -4.583  46.835 -20.307  1.00  0.00     0.047 C 
HETATM   12  O1  UNL     1      -6.080  48.416 -19.380  1.00  0.00    -0.371 OA
HETATM   13  C12 UNL     1      -6.960  49.263 -20.122  1.00  0.00     0.146 C 
HETATM   14  C17 UNL     1      -6.078  50.105 -21.023  1.00  0.00     0.048 C 
HETATM   15  C18 UNL     1      -4.802  49.268 -21.274  1.00  0.00    -0.006 C 
HETATM   16  C19 UNL     1      -4.996  48.517 -22.610  1.00  0.00     0.019 C 
HETATM   17  C20 UNL     1      -1.142  50.823 -20.682  1.00  0.00     0.027 C 
ENDROOT
BRANCH  17  18
HETATM   18  C21 UNL     1      -1.423  51.786 -19.486  1.00  0.00     0.057 C 
BRANCH  18  19
HETATM   19  C22 UNL     1      -0.227  51.970 -18.575  1.00  0.00     0.052 A 
HETATM   20  C23 UNL     1      -0.035  51.247 -17.459  1.00  0.00     0.086 A 
HETATM   21  C24 UNL     1       1.122  51.438 -16.597  1.00  0.00     0.001 A 
HETATM   22  C25 UNL     1       1.203  50.678 -15.299  1.00  0.00     0.054 C 
HETATM   23  C26 UNL     1       2.051  52.330 -16.991  1.00  0.00     0.061 A 
HETATM   24  C27 UNL     1       3.338  52.651 -16.293  1.00  0.00     0.077 C 
HETATM   25  O3  UNL     1       1.883  53.092 -18.173  1.00  0.00    -0.279 OA
HETATM   26  C28 UNL     1       0.760  53.010 -18.944  1.00  0.00     0.297 A 
HETATM   27  O4  UNL     1       0.590  53.764 -19.897  1.00  0.00    -0.259 OA
BRANCH  20  28
HETATM   28  O2  UNL     1      -0.948  50.266 -17.117  1.00  0.00    -0.359 OA
HETATM   29  H34 UNL     1      -0.537  49.624 -16.518  1.00  0.00     0.217 HD
ENDBRANCH  20  28
ENDBRANCH  18  19
ENDBRANCH  17  18
BRANCH  13  30
HETATM   30  C13 UNL     1      -7.961  48.401 -20.840  1.00  0.00     0.007 C 
HETATM   31  C14 UNL     1      -9.144  47.962 -20.364  1.00  0.00    -0.089 C 
HETATM   32  C15 UNL     1      -9.692  48.297 -19.005  1.00  0.00     0.042 C 
HETATM   33  C16 UNL     1     -10.031  47.076 -21.198  1.00  0.00     0.042 C 
ENDBRANCH  13  30
TORSDOF 4
ENDMDL
MODEL 9
REMARK minimizedAffinity -8.49224281
REMARK  4 active torsions:
REMARK  status: ('A' for Active; 'I' for Inactive)
REMARK    1  A    between atoms: C12_13  and  C13_14 
REMARK    2  A    between atoms: C20_21  and  C21_22 
REMARK    3  A    between atoms: C21_22  and  C22_23 
REMARK    4  A    between atoms: C23_24  and  O2_25 
ROOT
HETATM    1  C1  UNL     1      -2.070  48.145 -18.933  1.00  0.00     0.015 C 
HETATM    2  C2  UNL     1      -2.067  49.136 -18.026  1.00  0.00    -0.084 C 
HETATM    3  C3  UNL     1      -3.178  49.292 -17.014  1.00  0.00     0.034 C 
HETATM    4  C4  UNL     1      -2.646  49.387 -15.582  1.00  0.00     0.010 C 
HETATM    5  C5  UNL     1      -1.501  50.419 -15.446  1.00  0.00     0.006 C 
HETATM    6  C6  UNL     1      -0.334  50.135 -16.459  1.00  0.00    -0.032 C 
HETATM    7  C7  UNL     1       0.311  48.737 -16.242  1.00  0.00     0.016 C 
HETATM    8  C8  UNL     1       0.813  51.182 -16.305  1.00  0.00     0.013 C 
HETATM    9  C9  UNL     1       0.547  52.235 -15.233  1.00  0.00     0.039 C 
HETATM   10  C10 UNL     1       0.204  51.606 -13.869  1.00  0.00     0.066 C 
HETATM   11  C11 UNL     1       1.454  50.929 -13.283  1.00  0.00     0.047 C 
HETATM   12  O1  UNL     1      -0.073  52.709 -12.973  1.00  0.00    -0.371 OA
HETATM   13  C12 UNL     1      -1.385  52.593 -12.417  1.00  0.00     0.146 C 
HETATM   14  C17 UNL     1      -2.144  51.637 -13.316  1.00  0.00     0.048 C 
HETATM   15  C18 UNL     1      -1.078  50.716 -13.954  1.00  0.00    -0.006 C 
HETATM   16  C19 UNL     1      -1.002  49.432 -13.098  1.00  0.00     0.019 C 
HETATM   17  C20 UNL     1      -0.928  50.151 -17.932  1.00  0.00     0.027 C 
ENDROOT
BRANCH  17  18
HETATM   18  C21 UNL     1      -1.403  51.547 -18.444  1.00  0.00     0.057 C 
BRANCH  18  19
HETATM   19  C22 UNL     1      -0.839  51.907 -19.803  1.00  0.00     0.052 A 
HETATM   20  C23 UNL     1       0.208  52.732 -19.970  1.00  0.00     0.086 A 
HETATM   21  C24 UNL     1       0.737  53.065 -21.283  1.00  0.00     0.001 A 
HETATM   22  C25 UNL     1       1.830  54.094 -21.396  1.00  0.00     0.054 C 
HETATM   23  C26 UNL     1       0.181  52.458 -22.350  1.00  0.00     0.061 A 
HETATM   24  C27 UNL     1       0.593  52.607 -23.783  1.00  0.00     0.077 C 
HETATM   25  O3  UNL     1      -0.912  51.569 -22.202  1.00  0.00    -0.279 OA
HETATM   26  C28 UNL     1      -1.495  51.320 -20.993  1.00  0.00     0.297 A 
HETATM   27  O4  UNL     1      -2.511  50.637 -20.910  1.00  0.00    -0.259 OA
BRANCH  20  28
HETATM   28  O2  UNL     1       0.831  53.273 -18.860  1.00  0.00    -0.359 OA
HETATM   29  H34 UNL     1       1.731  53.555 -19.089  1.00  0.00     0.217 HD
ENDBRANCH  20  28
ENDBRANCH  18  19
ENDBRANCH  17  18
BRANCH  13  30
HETATM   30  C13 UNL     1      -1.260  52.152 -10.985  1.00  0.00     0.007 C 
HETATM   31  C14 UNL     1      -2.135  52.383  -9.985  1.00  0.00    -0.089 C 
HETATM   32  C15 UNL     1      -3.439  53.114 -10.146  1.00  0.00     0.042 C 
HETATM   33  C16 UNL     1      -1.856  51.900  -8.587  1.00  0.00     0.042 C 
ENDBRANCH  13  30
TORSDOF 4
ENDMDL
