MODEL 1
REMARK minimizedAffinity -7.63998604
REMARK CNNscore 0.676731169
REMARK CNNaffinity 7.43806696
REMARK  21 active torsions:
REMARK  status: ('A' for Active; 'I' for Inactive)
REMARK    1  A    between atoms: C2_2  and  C3_3 
REMARK    2  A    between atoms: C2_2  and  C29_36 
REMARK    3  A    between atoms: C4_4  and  C5_5 
REMARK    4  A    between atoms: C6_6  and  C7_7 
REMARK    5  A    between atoms: C6_6  and  C10_12 
REMARK    6  A    between atoms: C7_7  and  O1_8 
REMARK    7  A    between atoms: O1_8  and  C8_9 
REMARK    8  A    between atoms: C8_9  and  C9_10 
REMARK    9  A    between atoms: C9_10  and  O2_11 
REMARK   10  A    between atoms: C14_16  and  O3_17 
REMARK   11  A    between atoms: C15_18  and  C16_19 
REMARK   12  A    between atoms: C16_19  and  C17_20 
REMARK   13  A    between atoms: C17_20  and  C18_21 
REMARK   14  A    between atoms: C18_21  and  O4_22 
REMARK   15  A    between atoms: C20_24  and  C22_26 
REMARK   16  A    between atoms: C25_30  and  O6_31 
REMARK   17  A    between atoms: C25_30  and  C26_32 
REMARK   18  A    between atoms: C26_32  and  C27_33 
REMARK   19  A    between atoms: C27_33  and  N1_34 
REMARK   20  A    between atoms: C29_36  and  C30_37 
REMARK   21  A    between atoms: C30_37  and  C31_38 
ROOT
HETATM    1  C10 UNL     1      -0.490   8.408  13.466  1.00  0.00     0.046 C 
HETATM    2  C11 UNL     1       0.110   7.488  14.542  1.00  0.00     0.013 C 
HETATM    3  C12 UNL     1       1.232   6.687  13.864  1.00  0.00     0.017 C 
HETATM    4  C13 UNL     1       1.605   7.419  12.533  1.00  0.00     0.025 C 
HETATM    5  C14 UNL     1       0.783   8.749  12.663  1.00  0.00     0.138 C 
HETATM    6  C15 UNL     1       1.119   6.509  11.298  1.00  0.00     0.029 C 
HETATM    7  C19 UNL     1       1.801   6.981  10.009  1.00  0.00    -0.066 C 
HETATM    8  C20 UNL     1       1.329   7.724   8.974  1.00  0.00    -0.021 C 
HETATM    9  C21 UNL     1       2.098   7.990   7.699  1.00  0.00     0.052 C 
HETATM   10  C23 UNL     1       3.261   6.537  10.040  1.00  0.00     0.038 C 
HETATM   11  C24 UNL     1       3.873   6.643  11.448  1.00  0.00     0.043 C 
HETATM   12  C25 UNL     1       3.201   7.702  12.359  1.00  0.00     0.070 C 
ENDROOT
BRANCH   5  13
HETATM   13  O3  UNL     1       1.524   9.722  13.404  1.00  0.00    -0.394 OA
HETATM   14  H19 UNL     1       2.319   9.923  12.866  1.00  0.00     0.210 HD
ENDBRANCH   5  13
BRANCH   6  15
HETATM   15  C16 UNL     1      -0.366   6.061  11.220  1.00  0.00     0.012 C 
BRANCH  15  16
HETATM   16  C17 UNL     1      -0.590   4.534  11.165  1.00  0.00     0.027 C 
BRANCH  16  17
HETATM   17  C18 UNL     1       0.603   3.671  11.553  1.00  0.00     0.164 C 
BRANCH  17  18
HETATM   18  O4  UNL     1       0.426   2.359  11.042  1.00  0.00    -0.401 OA
HETATM   19  H27 UNL     1       1.281   1.896  11.107  1.00  0.00     0.209 HD
ENDBRANCH  17  18
ENDBRANCH  16  17
ENDBRANCH  15  16
ENDBRANCH   6  15
BRANCH  12  20
HETATM   20  O6  UNL     1       3.355   9.002  11.735  1.00  0.00    -0.389 OA
HETATM   21  H36 UNL     1       3.252   8.914  10.773  1.00  0.00     0.210 HD
ENDBRANCH  12  20
BRANCH  12  22
HETATM   22  C26 UNL     1       3.985   7.804  13.704  1.00  0.00     0.068 C 
BRANCH  22  23
HETATM   23  C27 UNL     1       5.527   7.801  13.617  1.00  0.00     0.272 C 
BRANCH  23  24
HETATM   24  N1  UNL     1       6.214   7.157  14.745  1.00  0.00     0.079 N 
HETATM   25  C28 UNL     1       7.557   7.682  14.955  1.00  0.00     0.306 C 
HETATM   26  H41 UNL     1       6.289   6.157  14.540  1.00  0.00     0.315 HD
ENDBRANCH  23  24
ENDBRANCH  22  23
ENDBRANCH  12  22
BRANCH   1  27
HETATM   27  C6  UNL     1      -1.448   9.482  14.014  1.00  0.00    -0.050 C 
HETATM   28  C5  UNL     1      -2.710   9.329  14.479  1.00  0.00     0.005 C 
BRANCH  28  29
HETATM   29  C4  UNL     1      -3.533   8.143  14.602  1.00  0.00     0.001 C 
HETATM   30  C3  UNL     1      -4.382   7.738  13.644  1.00  0.00     0.006 C 
BRANCH  30  31
HETATM   31  C2  UNL     1      -5.229   6.545  13.694  1.00  0.00    -0.067 C 
HETATM   32  C1  UNL     1      -6.557   6.713  13.795  1.00  0.00     0.019 C 
BRANCH  31  33
HETATM   33  C29 UNL     1      -4.549   5.182  13.622  1.00  0.00     0.041 C 
BRANCH  33  34
HETATM   34  C30 UNL     1      -3.921   4.781  12.280  1.00  0.00     0.032 C 
BRANCH  34  35
HETATM   35  C31 UNL     1      -4.284   3.367  11.903  1.00  0.00    -0.024 C 
HETATM   36  C32 UNL     1      -5.520   2.850  11.757  1.00  0.00    -0.091 C 
HETATM   37  C33 UNL     1      -5.703   1.395  11.412  1.00  0.00     0.042 C 
HETATM   38  C34 UNL     1      -6.803   3.622  11.900  1.00  0.00     0.042 C 
ENDBRANCH  34  35
ENDBRANCH  33  34
ENDBRANCH  31  33
ENDBRANCH  30  31
ENDBRANCH  28  29
BRANCH  27  39
HETATM   39  C7  UNL     1      -0.780  10.859  14.112  1.00  0.00     0.202 C 
BRANCH  39  40
HETATM   40  O1  UNL     1      -1.704  11.932  13.912  1.00  0.00    -0.385 OA
BRANCH  40  41
HETATM   41  C8  UNL     1      -1.299  13.143  14.545  1.00  0.00     0.194 C 
BRANCH  41  42
HETATM   42  C9  UNL     1      -2.146  14.331  14.091  1.00  0.00     0.190 C 
BRANCH  42  43
HETATM   43  O2  UNL     1      -2.000  14.558  12.693  1.00  0.00    -0.399 OA
HETATM   44  H12 UNL     1      -1.070  14.788  12.525  1.00  0.00     0.209 HD
ENDBRANCH  42  43
ENDBRANCH  41  42
ENDBRANCH  40  41
ENDBRANCH  39  40
ENDBRANCH  27  39
ENDBRANCH   1  27
BRANCH   8  45
HETATM   45  C22 UNL     1      -0.018   8.384   8.952  1.00  0.00     0.265 C 
HETATM   46  O5  UNL     1      -0.728   8.398   7.950  1.00  0.00    -0.302 OA
ENDBRANCH   8  45
TORSDOF 21
ENDMDL
MODEL 2
REMARK minimizedAffinity -5.94759655
REMARK CNNscore 0.664999604
REMARK CNNaffinity 6.64152145
REMARK  21 active torsions:
REMARK  status: ('A' for Active; 'I' for Inactive)
REMARK    1  A    between atoms: C2_2  and  C3_3 
REMARK    2  A    between atoms: C2_2  and  C29_36 
REMARK    3  A    between atoms: C4_4  and  C5_5 
REMARK    4  A    between atoms: C6_6  and  C7_7 
REMARK    5  A    between atoms: C6_6  and  C10_12 
REMARK    6  A    between atoms: C7_7  and  O1_8 
REMARK    7  A    between atoms: O1_8  and  C8_9 
REMARK    8  A    between atoms: C8_9  and  C9_10 
REMARK    9  A    between atoms: C9_10  and  O2_11 
REMARK   10  A    between atoms: C14_16  and  O3_17 
REMARK   11  A    between atoms: C15_18  and  C16_19 
REMARK   12  A    between atoms: C16_19  and  C17_20 
REMARK   13  A    between atoms: C17_20  and  C18_21 
REMARK   14  A    between atoms: C18_21  and  O4_22 
REMARK   15  A    between atoms: C20_24  and  C22_26 
REMARK   16  A    between atoms: C25_30  and  O6_31 
REMARK   17  A    between atoms: C25_30  and  C26_32 
REMARK   18  A    between atoms: C26_32  and  C27_33 
REMARK   19  A    between atoms: C27_33  and  N1_34 
REMARK   20  A    between atoms: C29_36  and  C30_37 
REMARK   21  A    between atoms: C30_37  and  C31_38 
ROOT
HETATM    1  C10 UNL     1       1.401  10.965  15.599  1.00  0.00     0.046 C 
HETATM    2  C11 UNL     1       1.172   9.446  15.551  1.00  0.00     0.013 C 
HETATM    3  C12 UNL     1      -0.060   9.156  16.421  1.00  0.00     0.017 C 
HETATM    4  C13 UNL     1      -0.828  10.503  16.627  1.00  0.00     0.025 C 
HETATM    5  C14 UNL     1      -0.062  11.456  15.644  1.00  0.00     0.138 C 
HETATM    6  C15 UNL     1      -0.674  10.947  18.166  1.00  0.00     0.029 C 
HETATM    7  C19 UNL     1      -1.715  12.022  18.500  1.00  0.00    -0.066 C 
HETATM    8  C20 UNL     1      -1.589  13.368  18.639  1.00  0.00    -0.021 C 
HETATM    9  C21 UNL     1      -2.699  14.280  19.110  1.00  0.00     0.052 C 
HETATM   10  C23 UNL     1      -3.084  11.357  18.605  1.00  0.00     0.038 C 
HETATM   11  C24 UNL     1      -3.275  10.244  17.559  1.00  0.00     0.043 C 
HETATM   12  C25 UNL     1      -2.418  10.417  16.278  1.00  0.00     0.070 C 
ENDROOT
BRANCH   5  13
HETATM   13  O3  UNL     1      -0.602  11.351  14.325  1.00  0.00    -0.394 OA
HETATM   14  H19 UNL     1      -1.526  11.677  14.385  1.00  0.00     0.210 HD
ENDBRANCH   5  13
BRANCH   6  15
HETATM   15  C16 UNL     1       0.746  11.085  18.781  1.00  0.00     0.012 C 
BRANCH  15  16
HETATM   16  C17 UNL     1       0.794  11.113  20.324  1.00  0.00     0.027 C 
BRANCH  16  17
HETATM   17  C18 UNL     1       1.850  10.230  20.974  1.00  0.00     0.164 C 
BRANCH  17  18
HETATM   18  O4  UNL     1       2.691   9.679  19.973  1.00  0.00    -0.401 OA
HETATM   19  H27 UNL     1       3.476   9.307  20.414  1.00  0.00     0.209 HD
ENDBRANCH  17  18
ENDBRANCH  16  17
ENDBRANCH  15  16
ENDBRANCH   6  15
BRANCH  12  20
HETATM   20  O6  UNL     1      -2.800  11.663  15.641  1.00  0.00    -0.389 OA
HETATM   21  H36 UNL     1      -2.971  12.336  16.320  1.00  0.00     0.210 HD
ENDBRANCH  12  20
BRANCH  12  22
HETATM   22  C26 UNL     1      -2.791   9.305  15.250  1.00  0.00     0.068 C 
BRANCH  22  23
HETATM   23  C27 UNL     1      -4.111   8.541  15.493  1.00  0.00     0.272 C 
BRANCH  23  24
HETATM   24  N1  UNL     1      -3.953   7.132  15.878  1.00  0.00     0.079 N 
HETATM   25  C28 UNL     1      -2.830   6.491  15.207  1.00  0.00     0.306 C 
HETATM   26  H41 UNL     1      -4.810   6.636  15.617  1.00  0.00     0.315 HD
ENDBRANCH  23  24
ENDBRANCH  22  23
ENDBRANCH  12  22
BRANCH   1  27
HETATM   27  C6  UNL     1       2.428  11.484  14.575  1.00  0.00    -0.050 C 
HETATM   28  C5  UNL     1       3.156  10.778  13.678  1.00  0.00     0.005 C 
BRANCH  28  29
HETATM   29  C4  UNL     1       3.199   9.356  13.408  1.00  0.00     0.001 C 
HETATM   30  C3  UNL     1       2.757   8.814  12.261  1.00  0.00     0.006 C 
BRANCH  30  31
HETATM   31  C2  UNL     1       2.786   7.392  11.915  1.00  0.00    -0.067 C 
HETATM   32  C1  UNL     1       3.977   6.823  11.670  1.00  0.00     0.019 C 
BRANCH  31  33
HETATM   33  C29 UNL     1       1.459   6.642  11.860  1.00  0.00     0.041 C 
BRANCH  33  34
HETATM   34  C30 UNL     1       1.084   5.977  10.528  1.00  0.00     0.032 C 
BRANCH  34  35
HETATM   35  C31 UNL     1       1.842   6.586   9.376  1.00  0.00    -0.024 C 
HETATM   36  C32 UNL     1       1.458   7.616   8.596  1.00  0.00    -0.091 C 
HETATM   37  C33 UNL     1       2.328   8.075   7.455  1.00  0.00     0.042 C 
HETATM   38  C34 UNL     1       0.186   8.402   8.766  1.00  0.00     0.042 C 
ENDBRANCH  34  35
ENDBRANCH  33  34
ENDBRANCH  31  33
ENDBRANCH  30  31
ENDBRANCH  28  29
BRANCH  27  39
HETATM   39  C7  UNL     1       2.504  13.015  14.556  1.00  0.00     0.202 C 
BRANCH  39  40
HETATM   40  O1  UNL     1       2.926  13.528  13.289  1.00  0.00    -0.385 OA
BRANCH  40  41
HETATM   41  C8  UNL     1       4.134  14.282  13.365  1.00  0.00     0.194 C 
BRANCH  41  42
HETATM   42  C9  UNL     1       4.737  14.527  11.983  1.00  0.00     0.190 C 
BRANCH  42  43
HETATM   43  O2  UNL     1       5.516  13.411  11.561  1.00  0.00    -0.399 OA
HETATM   44  H12 UNL     1       6.256  13.313  12.184  1.00  0.00     0.209 HD
ENDBRANCH  42  43
ENDBRANCH  41  42
ENDBRANCH  40  41
ENDBRANCH  39  40
ENDBRANCH  27  39
ENDBRANCH   1  27
BRANCH   8  45
HETATM   45  C22 UNL     1      -0.334  14.135  18.345  1.00  0.00     0.265 C 
HETATM   46  O5  UNL     1      -0.067  14.557  17.224  1.00  0.00    -0.302 OA
ENDBRANCH   8  45
TORSDOF 21
ENDMDL
MODEL 3
REMARK minimizedAffinity -6.20764112
REMARK CNNscore 0.574794412
REMARK CNNaffinity 6.71452188
REMARK  21 active torsions:
REMARK  status: ('A' for Active; 'I' for Inactive)
REMARK    1  A    between atoms: C2_2  and  C3_3 
REMARK    2  A    between atoms: C2_2  and  C29_36 
REMARK    3  A    between atoms: C4_4  and  C5_5 
REMARK    4  A    between atoms: C6_6  and  C7_7 
REMARK    5  A    between atoms: C6_6  and  C10_12 
REMARK    6  A    between atoms: C7_7  and  O1_8 
REMARK    7  A    between atoms: O1_8  and  C8_9 
REMARK    8  A    between atoms: C8_9  and  C9_10 
REMARK    9  A    between atoms: C9_10  and  O2_11 
REMARK   10  A    between atoms: C14_16  and  O3_17 
REMARK   11  A    between atoms: C15_18  and  C16_19 
REMARK   12  A    between atoms: C16_19  and  C17_20 
REMARK   13  A    between atoms: C17_20  and  C18_21 
REMARK   14  A    between atoms: C18_21  and  O4_22 
REMARK   15  A    between atoms: C20_24  and  C22_26 
REMARK   16  A    between atoms: C25_30  and  O6_31 
REMARK   17  A    between atoms: C25_30  and  C26_32 
REMARK   18  A    between atoms: C26_32  and  C27_33 
REMARK   19  A    between atoms: C27_33  and  N1_34 
REMARK   20  A    between atoms: C29_36  and  C30_37 
REMARK   21  A    between atoms: C30_37  and  C31_38 
ROOT
HETATM    1  C10 UNL     1       2.238  10.726  17.074  1.00  0.00     0.046 C 
HETATM    2  C11 UNL     1       1.060  11.155  16.185  1.00  0.00     0.013 C 
HETATM    3  C12 UNL     1       1.331  10.585  14.785  1.00  0.00     0.017 C 
HETATM    4  C13 UNL     1       2.411   9.462  14.928  1.00  0.00     0.025 C 
HETATM    5  C14 UNL     1       2.524   9.327  16.487  1.00  0.00     0.138 C 
HETATM    6  C15 UNL     1       3.776   9.980  14.251  1.00  0.00     0.029 C 
HETATM    7  C19 UNL     1       4.719   8.794  14.016  1.00  0.00    -0.066 C 
HETATM    8  C20 UNL     1       5.821   8.386  14.698  1.00  0.00    -0.021 C 
HETATM    9  C21 UNL     1       6.729   7.262  14.251  1.00  0.00     0.052 C 
HETATM   10  C23 UNL     1       4.191   7.979  12.838  1.00  0.00     0.038 C 
HETATM   11  C24 UNL     1       2.655   7.896  12.827  1.00  0.00     0.043 C 
HETATM   12  C25 UNL     1       1.996   8.052  14.222  1.00  0.00     0.070 C 
ENDROOT
BRANCH   5  13
HETATM   13  O3  UNL     1       1.527   8.430  16.982  1.00  0.00    -0.394 OA
HETATM   14  H19 UNL     1       1.740   7.552  16.599  1.00  0.00     0.210 HD
ENDBRANCH   5  13
BRANCH   6  15
HETATM   15  C16 UNL     1       4.394  11.327  14.716  1.00  0.00     0.012 C 
BRANCH  15  16
HETATM   16  C17 UNL     1       5.446  11.932  13.762  1.00  0.00     0.027 C 
BRANCH  16  17
HETATM   17  C18 UNL     1       4.990  12.162  12.327  1.00  0.00     0.164 C 
BRANCH  17  18
HETATM   18  O4  UNL     1       5.682  11.276  11.461  1.00  0.00    -0.401 OA
HETATM   19  H27 UNL     1       5.225  11.283  10.600  1.00  0.00     0.209 HD
ENDBRANCH  17  18
ENDBRANCH  16  17
ENDBRANCH  15  16
ENDBRANCH   6  15
BRANCH  12  20
HETATM   20  O6  UNL     1       2.469   6.976  15.071  1.00  0.00    -0.389 OA
HETATM   21  H36 UNL     1       3.408   6.806  14.887  1.00  0.00     0.210 HD
ENDBRANCH  12  20
BRANCH  12  22
HETATM   22  C26 UNL     1       0.458   7.824  14.098  1.00  0.00     0.068 C 
BRANCH  22  23
HETATM   23  C27 UNL     1      -0.240   7.104  15.273  1.00  0.00     0.272 C 
BRANCH  23  24
HETATM   24  N1  UNL     1      -0.542   5.684  15.043  1.00  0.00     0.079 N 
HETATM   25  C28 UNL     1      -1.884   5.477  14.515  1.00  0.00     0.306 C 
HETATM   26  H41 UNL     1      -0.470   5.197  15.941  1.00  0.00     0.315 HD
ENDBRANCH  23  24
ENDBRANCH  22  23
ENDBRANCH  12  22
BRANCH   1  27
HETATM   27  C6  UNL     1       2.020  10.974  18.579  1.00  0.00    -0.050 C 
HETATM   28  C5  UNL     1       0.861  10.948  19.278  1.00  0.00     0.005 C 
BRANCH  28  29
HETATM   29  C4  UNL     1      -0.496  10.689  18.847  1.00  0.00     0.001 C 
HETATM   30  C3  UNL     1      -1.466  11.619  18.881  1.00  0.00     0.006 C 
BRANCH  30  31
HETATM   31  C2  UNL     1      -2.851  11.432  18.445  1.00  0.00    -0.067 C 
HETATM   32  C1  UNL     1      -3.796  12.217  18.986  1.00  0.00     0.019 C 
BRANCH  31  33
HETATM   33  C29 UNL     1      -3.133  10.361  17.398  1.00  0.00     0.041 C 
BRANCH  33  34
HETATM   34  C30 UNL     1      -4.097  10.728  16.260  1.00  0.00     0.032 C 
BRANCH  34  35
HETATM   35  C31 UNL     1      -3.763   9.982  14.993  1.00  0.00    -0.024 C 
HETATM   36  C32 UNL     1      -4.505   9.042  14.377  1.00  0.00    -0.091 C 
HETATM   37  C33 UNL     1      -3.998   8.366  13.129  1.00  0.00     0.042 C 
HETATM   38  C34 UNL     1      -5.867   8.584  14.824  1.00  0.00     0.042 C 
ENDBRANCH  34  35
ENDBRANCH  33  34
ENDBRANCH  31  33
ENDBRANCH  30  31
ENDBRANCH  28  29
BRANCH  27  39
HETATM   39  C7  UNL     1       3.342  11.164  19.333  1.00  0.00     0.202 C 
BRANCH  39  40
HETATM   40  O1  UNL     1       3.621  10.088  20.231  1.00  0.00    -0.385 OA
BRANCH  40  41
HETATM   41  C8  UNL     1       3.783  10.513  21.582  1.00  0.00     0.194 C 
BRANCH  41  42
HETATM   42  C9  UNL     1       3.907   9.329  22.539  1.00  0.00     0.190 C 
BRANCH  42  43
HETATM   43  O2  UNL     1       3.464   9.681  23.846  1.00  0.00    -0.399 OA
HETATM   44  H12 UNL     1       4.051  10.382  24.180  1.00  0.00     0.209 HD
ENDBRANCH  42  43
ENDBRANCH  41  42
ENDBRANCH  40  41
ENDBRANCH  39  40
ENDBRANCH  27  39
ENDBRANCH   1  27
BRANCH   8  45
HETATM   45  C22 UNL     1       6.290   8.992  15.988  1.00  0.00     0.265 C 
HETATM   46  O5  UNL     1       7.196   8.501  16.655  1.00  0.00    -0.302 OA
ENDBRANCH   8  45
TORSDOF 21
ENDMDL
MODEL 4
REMARK minimizedAffinity -8.20598412
REMARK CNNscore 0.569754839
REMARK CNNaffinity 7.53422165
REMARK  21 active torsions:
REMARK  status: ('A' for Active; 'I' for Inactive)
REMARK    1  A    between atoms: C2_2  and  C3_3 
REMARK    2  A    between atoms: C2_2  and  C29_36 
REMARK    3  A    between atoms: C4_4  and  C5_5 
REMARK    4  A    between atoms: C6_6  and  C7_7 
REMARK    5  A    between atoms: C6_6  and  C10_12 
REMARK    6  A    between atoms: C7_7  and  O1_8 
REMARK    7  A    between atoms: O1_8  and  C8_9 
REMARK    8  A    between atoms: C8_9  and  C9_10 
REMARK    9  A    between atoms: C9_10  and  O2_11 
REMARK   10  A    between atoms: C14_16  and  O3_17 
REMARK   11  A    between atoms: C15_18  and  C16_19 
REMARK   12  A    between atoms: C16_19  and  C17_20 
REMARK   13  A    between atoms: C17_20  and  C18_21 
REMARK   14  A    between atoms: C18_21  and  O4_22 
REMARK   15  A    between atoms: C20_24  and  C22_26 
REMARK   16  A    between atoms: C25_30  and  O6_31 
REMARK   17  A    between atoms: C25_30  and  C26_32 
REMARK   18  A    between atoms: C26_32  and  C27_33 
REMARK   19  A    between atoms: C27_33  and  N1_34 
REMARK   20  A    between atoms: C29_36  and  C30_37 
REMARK   21  A    between atoms: C30_37  and  C31_38 
ROOT
HETATM    1  C10 UNL     1      -1.202   8.150  13.021  1.00  0.00     0.046 C 
HETATM    2  C11 UNL     1      -0.754   7.220  14.159  1.00  0.00     0.013 C 
HETATM    3  C12 UNL     1       0.554   6.557  13.701  1.00  0.00     0.017 C 
HETATM    4  C13 UNL     1       1.124   7.398  12.511  1.00  0.00     0.025 C 
HETATM    5  C14 UNL     1       0.172   8.644  12.520  1.00  0.00     0.138 C 
HETATM    6  C15 UNL     1       0.993   6.528  11.164  1.00  0.00     0.029 C 
HETATM    7  C19 UNL     1       1.880   7.132  10.070  1.00  0.00    -0.066 C 
HETATM    8  C20 UNL     1       1.564   7.895   8.991  1.00  0.00    -0.021 C 
HETATM    9  C21 UNL     1       2.552   8.301   7.920  1.00  0.00     0.052 C 
HETATM   10  C23 UNL     1       3.336   6.809  10.391  1.00  0.00     0.038 C 
HETATM   11  C24 UNL     1       3.630   6.879  11.899  1.00  0.00     0.043 C 
HETATM   12  C25 UNL     1       2.688   7.822  12.692  1.00  0.00     0.070 C 
ENDROOT
BRANCH   5  13
HETATM   13  O3  UNL     1       0.649   9.628  13.442  1.00  0.00    -0.394 OA
HETATM   14  H19 UNL     1       1.516   9.927  13.093  1.00  0.00     0.210 HD
ENDBRANCH   5  13
BRANCH   6  15
HETATM   15  C16 UNL     1      -0.396   5.964  10.754  1.00  0.00     0.012 C 
BRANCH  15  16
HETATM   16  C17 UNL     1      -0.783   4.624  11.418  1.00  0.00     0.027 C 
BRANCH  16  17
HETATM   17  C18 UNL     1       0.341   3.609  11.575  1.00  0.00     0.164 C 
BRANCH  17  18
HETATM   18  O4  UNL     1      -0.144   2.312  11.261  1.00  0.00    -0.401 OA
HETATM   19  H27 UNL     1       0.626   1.725  11.153  1.00  0.00     0.209 HD
ENDBRANCH  17  18
ENDBRANCH  16  17
ENDBRANCH  15  16
ENDBRANCH   6  15
BRANCH  12  20
HETATM   20  O6  UNL     1       2.845   9.166  12.170  1.00  0.00    -0.389 OA
HETATM   21  H36 UNL     1       2.953   9.129  11.205  1.00  0.00     0.210 HD
ENDBRANCH  12  20
BRANCH  12  22
HETATM   22  C26 UNL     1       3.163   7.905  14.176  1.00  0.00     0.068 C 
BRANCH  22  23
HETATM   23  C27 UNL     1       4.634   8.309  14.417  1.00  0.00     0.272 C 
BRANCH  23  24
HETATM   24  N1  UNL     1       5.504   7.231  14.908  1.00  0.00     0.079 N 
HETATM   25  C28 UNL     1       6.697   7.059  14.088  1.00  0.00     0.306 C 
HETATM   26  H41 UNL     1       4.969   6.359  14.885  1.00  0.00     0.315 HD
ENDBRANCH  23  24
ENDBRANCH  22  23
ENDBRANCH  12  22
BRANCH   1  27
HETATM   27  C6  UNL     1      -2.349   9.106  13.398  1.00  0.00    -0.050 C 
HETATM   28  C5  UNL     1      -3.674   8.843  13.477  1.00  0.00     0.005 C 
BRANCH  28  29
HETATM   29  C4  UNL     1      -4.410   7.619  13.237  1.00  0.00     0.001 C 
HETATM   30  C3  UNL     1      -5.674   7.431  13.650  1.00  0.00     0.006 C 
BRANCH  30  31
HETATM   31  C2  UNL     1      -6.481   6.230  13.429  1.00  0.00    -0.067 C 
HETATM   32  C1  UNL     1      -7.767   6.386  13.078  1.00  0.00     0.019 C 
BRANCH  31  33
HETATM   33  C29 UNL     1      -5.807   4.873  13.604  1.00  0.00     0.041 C 
BRANCH  33  34
HETATM   34  C30 UNL     1      -4.630   4.549  12.672  1.00  0.00     0.032 C 
BRANCH  34  35
HETATM   35  C31 UNL     1      -4.874   3.278  11.899  1.00  0.00    -0.024 C 
HETATM   36  C32 UNL     1      -5.959   2.480  11.957  1.00  0.00    -0.091 C 
HETATM   37  C33 UNL     1      -6.021   1.217  11.137  1.00  0.00     0.042 C 
HETATM   38  C34 UNL     1      -7.183   2.743  12.791  1.00  0.00     0.042 C 
ENDBRANCH  34  35
ENDBRANCH  33  34
ENDBRANCH  31  33
ENDBRANCH  30  31
ENDBRANCH  28  29
BRANCH  27  39
HETATM   39  C7  UNL     1      -1.837  10.486  13.828  1.00  0.00     0.202 C 
BRANCH  39  40
HETATM   40  O1  UNL     1      -1.686  10.599  15.245  1.00  0.00    -0.385 OA
BRANCH  40  41
HETATM   41  C8  UNL     1      -2.679   9.881  15.972  1.00  0.00     0.194 C 
BRANCH  41  42
HETATM   42  C9  UNL     1      -2.058   8.940  17.003  1.00  0.00     0.190 C 
BRANCH  42  43
HETATM   43  O2  UNL     1      -2.712   7.675  16.998  1.00  0.00    -0.399 OA
HETATM   44  H12 UNL     1      -3.638   7.817  17.261  1.00  0.00     0.209 HD
ENDBRANCH  42  43
ENDBRANCH  41  42
ENDBRANCH  40  41
ENDBRANCH  39  40
ENDBRANCH  27  39
ENDBRANCH   1  27
BRANCH   8  45
HETATM   45  C22 UNL     1       0.195   8.441   8.712  1.00  0.00     0.265 C 
HETATM   46  O5  UNL     1      -0.417   8.188   7.678  1.00  0.00    -0.302 OA
ENDBRANCH   8  45
TORSDOF 21
ENDMDL
MODEL 5
REMARK minimizedAffinity -7.86945581
REMARK CNNscore 0.497811168
REMARK CNNaffinity 7.24278116
REMARK  21 active torsions:
REMARK  status: ('A' for Active; 'I' for Inactive)
REMARK    1  A    between atoms: C2_2  and  C3_3 
REMARK    2  A    between atoms: C2_2  and  C29_36 
REMARK    3  A    between atoms: C4_4  and  C5_5 
REMARK    4  A    between atoms: C6_6  and  C7_7 
REMARK    5  A    between atoms: C6_6  and  C10_12 
REMARK    6  A    between atoms: C7_7  and  O1_8 
REMARK    7  A    between atoms: O1_8  and  C8_9 
REMARK    8  A    between atoms: C8_9  and  C9_10 
REMARK    9  A    between atoms: C9_10  and  O2_11 
REMARK   10  A    between atoms: C14_16  and  O3_17 
REMARK   11  A    between atoms: C15_18  and  C16_19 
REMARK   12  A    between atoms: C16_19  and  C17_20 
REMARK   13  A    between atoms: C17_20  and  C18_21 
REMARK   14  A    between atoms: C18_21  and  O4_22 
REMARK   15  A    between atoms: C20_24  and  C22_26 
REMARK   16  A    between atoms: C25_30  and  O6_31 
REMARK   17  A    between atoms: C25_30  and  C26_32 
REMARK   18  A    between atoms: C26_32  and  C27_33 
REMARK   19  A    between atoms: C27_33  and  N1_34 
REMARK   20  A    between atoms: C29_36  and  C30_37 
REMARK   21  A    between atoms: C30_37  and  C31_38 
ROOT
HETATM    1  C10 UNL     1       0.226   8.499  13.377  1.00  0.00     0.046 C 
HETATM    2  C11 UNL     1       0.977   7.717  14.467  1.00  0.00     0.013 C 
HETATM    3  C12 UNL     1       2.019   6.847  13.749  1.00  0.00     0.017 C 
HETATM    4  C13 UNL     1       2.206   7.419  12.305  1.00  0.00     0.025 C 
HETATM    5  C14 UNL     1       1.380   8.750  12.383  1.00  0.00     0.138 C 
HETATM    6  C15 UNL     1       1.587   6.366  11.257  1.00  0.00     0.029 C 
HETATM    7  C19 UNL     1       2.090   6.686   9.845  1.00  0.00    -0.066 C 
HETATM    8  C20 UNL     1       1.475   7.298   8.800  1.00  0.00    -0.021 C 
HETATM    9  C21 UNL     1       2.070   7.416   7.414  1.00  0.00     0.052 C 
HETATM   10  C23 UNL     1       3.551   6.257   9.741  1.00  0.00     0.038 C 
HETATM   11  C24 UNL     1       4.334   6.532  11.036  1.00  0.00     0.043 C 
HETATM   12  C25 UNL     1       3.761   7.689  11.896  1.00  0.00     0.070 C 
ENDROOT
BRANCH   5  13
HETATM   13  O3  UNL     1       2.187   9.808  12.904  1.00  0.00    -0.394 OA
HETATM   14  H19 UNL     1       2.904   9.948  12.248  1.00  0.00     0.210 HD
ENDBRANCH   5  13
BRANCH   6  15
HETATM   15  C16 UNL     1       0.113   5.903  11.423  1.00  0.00     0.012 C 
BRANCH  15  16
HETATM   16  C17 UNL     1      -0.070   4.511  12.064  1.00  0.00     0.027 C 
BRANCH  16  17
HETATM   17  C18 UNL     1      -0.864   3.500  11.246  1.00  0.00     0.164 C 
BRANCH  17  18
HETATM   18  O4  UNL     1      -0.269   2.217  11.370  1.00  0.00    -0.401 OA
HETATM   19  H27 UNL     1      -0.904   1.560  11.031  1.00  0.00     0.209 HD
ENDBRANCH  17  18
ENDBRANCH  16  17
ENDBRANCH  15  16
ENDBRANCH   6  15
BRANCH  12  20
HETATM   20  O6  UNL     1       3.807   8.906  11.109  1.00  0.00    -0.389 OA
HETATM   21  H36 UNL     1       3.585   8.704  10.185  1.00  0.00     0.210 HD
ENDBRANCH  12  20
BRANCH  12  22
HETATM   22  C26 UNL     1       4.707   7.953  13.108  1.00  0.00     0.068 C 
BRANCH  22  23
HETATM   23  C27 UNL     1       6.052   7.195  13.124  1.00  0.00     0.272 C 
BRANCH  23  24
HETATM   24  N1  UNL     1       6.571   6.873  14.460  1.00  0.00     0.079 N 
HETATM   25  C28 UNL     1       7.657   7.756  14.866  1.00  0.00     0.306 C 
HETATM   26  H41 UNL     1       6.928   5.914  14.437  1.00  0.00     0.315 HD
ENDBRANCH  23  24
ENDBRANCH  22  23
ENDBRANCH  12  22
BRANCH   1  27
HETATM   27  C6  UNL     1      -0.677   9.625  13.914  1.00  0.00    -0.050 C 
HETATM   28  C5  UNL     1      -2.029   9.690  13.922  1.00  0.00     0.005 C 
BRANCH  28  29
HETATM   29  C4  UNL     1      -3.022   8.752  13.442  1.00  0.00     0.001 C 
HETATM   30  C3  UNL     1      -3.139   7.501  13.918  1.00  0.00     0.006 C 
BRANCH  30  31
HETATM   31  C2  UNL     1      -4.128   6.509  13.493  1.00  0.00    -0.067 C 
HETATM   32  C1  UNL     1      -5.406   6.900  13.369  1.00  0.00     0.019 C 
BRANCH  31  33
HETATM   33  C29 UNL     1      -3.642   5.091  13.210  1.00  0.00     0.041 C 
BRANCH  33  34
HETATM   34  C30 UNL     1      -4.367   4.309  12.106  1.00  0.00     0.032 C 
BRANCH  34  35
HETATM   35  C31 UNL     1      -5.686   3.766  12.592  1.00  0.00    -0.024 C 
HETATM   36  C32 UNL     1      -6.322   2.656  12.166  1.00  0.00    -0.091 C 
HETATM   37  C33 UNL     1      -7.664   2.278  12.739  1.00  0.00     0.042 C 
HETATM   38  C34 UNL     1      -5.795   1.700  11.131  1.00  0.00     0.042 C 
ENDBRANCH  34  35
ENDBRANCH  33  34
ENDBRANCH  31  33
ENDBRANCH  30  31
ENDBRANCH  28  29
BRANCH  27  39
HETATM   39  C7  UNL     1       0.126  10.732  14.608  1.00  0.00     0.202 C 
BRANCH  39  40
HETATM   40  O1  UNL     1       0.751  10.283  15.813  1.00  0.00    -0.385 OA
BRANCH  40  41
HETATM   41  C8  UNL     1       1.751  11.179  16.291  1.00  0.00     0.194 C 
BRANCH  41  42
HETATM   42  C9  UNL     1       2.908  10.434  16.957  1.00  0.00     0.190 C 
BRANCH  42  43
HETATM   43  O2  UNL     1       2.426   9.487  17.905  1.00  0.00    -0.399 OA
HETATM   44  H12 UNL     1       1.960   9.977  18.605  1.00  0.00     0.209 HD
ENDBRANCH  42  43
ENDBRANCH  41  42
ENDBRANCH  40  41
ENDBRANCH  39  40
ENDBRANCH  27  39
ENDBRANCH   1  27
BRANCH   8  45
HETATM   45  C22 UNL     1       0.122   7.943   8.874  1.00  0.00     0.265 C 
HETATM   46  O5  UNL     1      -0.063   9.022   9.428  1.00  0.00    -0.302 OA
ENDBRANCH   8  45
TORSDOF 21
ENDMDL
MODEL 6
REMARK minimizedAffinity -5.86203337
REMARK CNNscore 0.468449831
REMARK CNNaffinity 6.23633575
REMARK  21 active torsions:
REMARK  status: ('A' for Active; 'I' for Inactive)
REMARK    1  A    between atoms: C2_2  and  C3_3 
REMARK    2  A    between atoms: C2_2  and  C29_36 
REMARK    3  A    between atoms: C4_4  and  C5_5 
REMARK    4  A    between atoms: C6_6  and  C7_7 
REMARK    5  A    between atoms: C6_6  and  C10_12 
REMARK    6  A    between atoms: C7_7  and  O1_8 
REMARK    7  A    between atoms: O1_8  and  C8_9 
REMARK    8  A    between atoms: C8_9  and  C9_10 
REMARK    9  A    between atoms: C9_10  and  O2_11 
REMARK   10  A    between atoms: C14_16  and  O3_17 
REMARK   11  A    between atoms: C15_18  and  C16_19 
REMARK   12  A    between atoms: C16_19  and  C17_20 
REMARK   13  A    between atoms: C17_20  and  C18_21 
REMARK   14  A    between atoms: C18_21  and  O4_22 
REMARK   15  A    between atoms: C20_24  and  C22_26 
REMARK   16  A    between atoms: C25_30  and  O6_31 
REMARK   17  A    between atoms: C25_30  and  C26_32 
REMARK   18  A    between atoms: C26_32  and  C27_33 
REMARK   19  A    between atoms: C27_33  and  N1_34 
REMARK   20  A    between atoms: C29_36  and  C30_37 
REMARK   21  A    between atoms: C30_37  and  C31_38 
ROOT
HETATM    1  C10 UNL     1     -15.301  -2.897  13.457  1.00  0.00     0.046 C 
HETATM    2  C11 UNL     1     -16.605  -3.670  13.201  1.00  0.00     0.013 C 
HETATM    3  C12 UNL     1     -17.756  -2.670  13.381  1.00  0.00     0.017 C 
HETATM    4  C13 UNL     1     -17.152  -1.228  13.302  1.00  0.00     0.025 C 
HETATM    5  C14 UNL     1     -15.679  -1.527  12.855  1.00  0.00     0.138 C 
HETATM    6  C15 UNL     1     -17.233  -0.562  14.765  1.00  0.00     0.029 C 
HETATM    7  C19 UNL     1     -17.028   0.953  14.655  1.00  0.00    -0.066 C 
HETATM    8  C20 UNL     1     -15.944   1.725  14.931  1.00  0.00    -0.021 C 
HETATM    9  C21 UNL     1     -15.949   3.237  14.899  1.00  0.00     0.052 C 
HETATM   10  C23 UNL     1     -18.292   1.573  14.068  1.00  0.00     0.038 C 
HETATM   11  C24 UNL     1     -18.923   0.691  12.977  1.00  0.00     0.043 C 
HETATM   12  C25 UNL     1     -17.921  -0.246  12.253  1.00  0.00     0.070 C 
ENDROOT
BRANCH   5  13
HETATM   13  O3  UNL     1     -15.602  -1.635  11.432  1.00  0.00    -0.394 OA
HETATM   14  H19 UNL     1     -15.838  -0.749  11.081  1.00  0.00     0.210 HD
ENDBRANCH   5  13
BRANCH   6  15
HETATM   15  C16 UNL     1     -16.599  -1.302  15.975  1.00  0.00     0.012 C 
BRANCH  15  16
HETATM   16  C17 UNL     1     -17.582  -1.679  17.104  1.00  0.00     0.027 C 
BRANCH  16  17
HETATM   17  C18 UNL     1     -17.143  -2.813  18.020  1.00  0.00     0.164 C 
BRANCH  17  18
HETATM   18  O4  UNL     1     -16.445  -2.281  19.134  1.00  0.00    -0.401 OA
HETATM   19  H27 UNL     1     -16.370  -2.985  19.804  1.00  0.00     0.209 HD
ENDBRANCH  17  18
ENDBRANCH  16  17
ENDBRANCH  15  16
ENDBRANCH   6  15
BRANCH  12  20
HETATM   20  O6  UNL     1     -16.920   0.577  11.601  1.00  0.00    -0.389 OA
HETATM   21  H36 UNL     1     -16.701   1.333  12.170  1.00  0.00     0.210 HD
ENDBRANCH  12  20
BRANCH  12  22
HETATM   22  C26 UNL     1     -18.651  -0.991  11.093  1.00  0.00     0.068 C 
BRANCH  22  23
HETATM   23  C27 UNL     1     -20.195  -0.994  11.126  1.00  0.00     0.272 C 
BRANCH  23  24
HETATM   24  N1  UNL     1     -20.846  -0.536   9.890  1.00  0.00     0.079 N 
HETATM   25  C28 UNL     1     -20.903   0.917   9.794  1.00  0.00     0.306 C 
HETATM   26  H41 UNL     1     -21.804  -0.897   9.886  1.00  0.00     0.315 HD
ENDBRANCH  23  24
ENDBRANCH  22  23
ENDBRANCH  12  22
BRANCH   1  27
HETATM   27  C6  UNL     1     -14.023  -3.662  13.063  1.00  0.00    -0.050 C 
HETATM   28  C5  UNL     1     -13.691  -4.186  11.860  1.00  0.00     0.005 C 
BRANCH  28  29
HETATM   29  C4  UNL     1     -14.409  -4.193  10.603  1.00  0.00     0.001 C 
HETATM   30  C3  UNL     1     -14.903  -5.312  10.048  1.00  0.00     0.006 C 
BRANCH  30  31
HETATM   31  C2  UNL     1     -15.652  -5.391   8.793  1.00  0.00    -0.067 C 
HETATM   32  C1  UNL     1     -16.696  -6.234   8.729  1.00  0.00     0.019 C 
BRANCH  31  33
HETATM   33  C29 UNL     1     -15.203  -4.505   7.635  1.00  0.00     0.041 C 
BRANCH  33  34
HETATM   34  C30 UNL     1     -13.701  -4.469   7.321  1.00  0.00     0.032 C 
BRANCH  34  35
HETATM   35  C31 UNL     1     -13.236  -5.764   6.705  1.00  0.00    -0.024 C 
HETATM   36  C32 UNL     1     -12.759  -5.952   5.459  1.00  0.00    -0.091 C 
HETATM   37  C33 UNL     1     -12.373  -7.331   4.990  1.00  0.00     0.042 C 
HETATM   38  C34 UNL     1     -12.549  -4.866   4.439  1.00  0.00     0.042 C 
ENDBRANCH  34  35
ENDBRANCH  33  34
ENDBRANCH  31  33
ENDBRANCH  30  31
ENDBRANCH  28  29
BRANCH  27  39
HETATM   39  C7  UNL     1     -12.999  -3.705  14.204  1.00  0.00     0.202 C 
BRANCH  39  40
HETATM   40  O1  UNL     1     -13.568  -4.156  15.435  1.00  0.00    -0.385 OA
BRANCH  40  41
HETATM   41  C8  UNL     1     -13.719  -5.572  15.496  1.00  0.00     0.194 C 
BRANCH  41  42
HETATM   42  C9  UNL     1     -12.378  -6.278  15.691  1.00  0.00     0.190 C 
BRANCH  42  43
HETATM   43  O2  UNL     1     -12.032  -6.343  17.071  1.00  0.00    -0.399 OA
HETATM   44  H12 UNL     1     -11.926  -5.432  17.395  1.00  0.00     0.209 HD
ENDBRANCH  42  43
ENDBRANCH  41  42
ENDBRANCH  40  41
ENDBRANCH  39  40
ENDBRANCH  27  39
ENDBRANCH   1  27
BRANCH   8  45
HETATM   45  C22 UNL     1     -14.595   1.187  15.306  1.00  0.00     0.265 C 
HETATM   46  O5  UNL     1     -14.313   0.859  16.455  1.00  0.00    -0.302 OA
ENDBRANCH   8  45
TORSDOF 21
ENDMDL
MODEL 7
REMARK minimizedAffinity -7.20765495
REMARK CNNscore 0.452920258
REMARK CNNaffinity 7.06227446
REMARK  21 active torsions:
REMARK  status: ('A' for Active; 'I' for Inactive)
REMARK    1  A    between atoms: C2_2  and  C3_3 
REMARK    2  A    between atoms: C2_2  and  C29_36 
REMARK    3  A    between atoms: C4_4  and  C5_5 
REMARK    4  A    between atoms: C6_6  and  C7_7 
REMARK    5  A    between atoms: C6_6  and  C10_12 
REMARK    6  A    between atoms: C7_7  and  O1_8 
REMARK    7  A    between atoms: O1_8  and  C8_9 
REMARK    8  A    between atoms: C8_9  and  C9_10 
REMARK    9  A    between atoms: C9_10  and  O2_11 
REMARK   10  A    between atoms: C14_16  and  O3_17 
REMARK   11  A    between atoms: C15_18  and  C16_19 
REMARK   12  A    between atoms: C16_19  and  C17_20 
REMARK   13  A    between atoms: C17_20  and  C18_21 
REMARK   14  A    between atoms: C18_21  and  O4_22 
REMARK   15  A    between atoms: C20_24  and  C22_26 
REMARK   16  A    between atoms: C25_30  and  O6_31 
REMARK   17  A    between atoms: C25_30  and  C26_32 
REMARK   18  A    between atoms: C26_32  and  C27_33 
REMARK   19  A    between atoms: C27_33  and  N1_34 
REMARK   20  A    between atoms: C29_36  and  C30_37 
REMARK   21  A    between atoms: C30_37  and  C31_38 
ROOT
HETATM    1  C10 UNL     1      -0.845   8.281  13.158  1.00  0.00     0.046 C 
HETATM    2  C11 UNL     1      -0.324   7.378  14.287  1.00  0.00     0.013 C 
HETATM    3  C12 UNL     1       0.908   6.645  13.735  1.00  0.00     0.017 C 
HETATM    4  C13 UNL     1       1.392   7.416  12.463  1.00  0.00     0.025 C 
HETATM    5  C14 UNL     1       0.492   8.700  12.509  1.00  0.00     0.138 C 
HETATM    6  C15 UNL     1       1.099   6.501  11.172  1.00  0.00     0.029 C 
HETATM    7  C19 UNL     1       1.898   7.027   9.974  1.00  0.00    -0.066 C 
HETATM    8  C20 UNL     1       1.508   7.760   8.899  1.00  0.00    -0.021 C 
HETATM    9  C21 UNL     1       2.402   8.084   7.722  1.00  0.00     0.052 C 
HETATM   10  C23 UNL     1       3.366   6.658  10.169  1.00  0.00     0.038 C 
HETATM   11  C24 UNL     1       3.807   6.774  11.638  1.00  0.00     0.043 C 
HETATM   12  C25 UNL     1       2.980   7.784  12.476  1.00  0.00     0.070 C 
ENDROOT
BRANCH   5  13
HETATM   13  O3  UNL     1       1.090   9.698  13.339  1.00  0.00    -0.394 OA
HETATM   14  H19 UNL     1       1.930   9.948  12.898  1.00  0.00     0.210 HD
ENDBRANCH   5  13
BRANCH   6  15
HETATM   15  C16 UNL     1      -0.342   5.978  10.920  1.00  0.00     0.012 C 
BRANCH  15  16
HETATM   16  C17 UNL     1      -0.573   4.492  11.270  1.00  0.00     0.027 C 
BRANCH  16  17
HETATM   17  C18 UNL     1      -1.969   3.951  10.993  1.00  0.00     0.164 C 
BRANCH  17  18
HETATM   18  O4  UNL     1      -1.880   2.817  10.144  1.00  0.00    -0.401 OA
HETATM   19  H27 UNL     1      -2.742   2.364  10.161  1.00  0.00     0.209 HD
ENDBRANCH  17  18
ENDBRANCH  16  17
ENDBRANCH  15  16
ENDBRANCH   6  15
BRANCH  12  20
HETATM   20  O6  UNL     1       3.135   9.099  11.885  1.00  0.00    -0.389 OA
HETATM   21  H36 UNL     1       3.148   9.020  10.917  1.00  0.00     0.210 HD
ENDBRANCH  12  20
BRANCH  12  22
HETATM   22  C26 UNL     1       3.599   7.905  13.903  1.00  0.00     0.068 C 
BRANCH  22  23
HETATM   23  C27 UNL     1       4.792   8.872  14.068  1.00  0.00     0.272 C 
BRANCH  23  24
HETATM   24  N1  UNL     1       5.637   8.624  15.245  1.00  0.00     0.079 N 
HETATM   25  C28 UNL     1       7.042   8.455  14.898  1.00  0.00     0.306 C 
HETATM   26  H41 UNL     1       5.310   7.764  15.692  1.00  0.00     0.315 HD
ENDBRANCH  23  24
ENDBRANCH  22  23
ENDBRANCH  12  22
BRANCH   1  27
HETATM   27  C6  UNL     1      -1.915   9.296  13.602  1.00  0.00    -0.050 C 
HETATM   28  C5  UNL     1      -3.248   9.109  13.743  1.00  0.00     0.005 C 
BRANCH  28  29
HETATM   29  C4  UNL     1      -4.064   7.933  13.526  1.00  0.00     0.001 C 
HETATM   30  C3  UNL     1      -5.288   7.782  14.058  1.00  0.00     0.006 C 
BRANCH  30  31
HETATM   31  C2  UNL     1      -6.173   6.632  13.868  1.00  0.00    -0.067 C 
HETATM   32  C1  UNL     1      -5.660   5.524  13.308  1.00  0.00     0.019 C 
BRANCH  31  33
HETATM   33  C29 UNL     1      -7.623   6.760  14.323  1.00  0.00     0.041 C 
BRANCH  33  34
HETATM   34  C30 UNL     1      -8.710   6.306  13.338  1.00  0.00     0.032 C 
BRANCH  34  35
HETATM   35  C31 UNL     1     -10.066   6.270  13.994  1.00  0.00    -0.024 C 
HETATM   36  C32 UNL     1     -11.177   6.934  13.616  1.00  0.00    -0.091 C 
HETATM   37  C33 UNL     1     -12.448   6.812  14.416  1.00  0.00     0.042 C 
HETATM   38  C34 UNL     1     -11.284   7.822  12.406  1.00  0.00     0.042 C 
ENDBRANCH  34  35
ENDBRANCH  33  34
ENDBRANCH  31  33
ENDBRANCH  30  31
ENDBRANCH  28  29
BRANCH  27  39
HETATM   39  C7  UNL     1      -1.303  10.638  14.021  1.00  0.00     0.202 C 
BRANCH  39  40
HETATM   40  O1  UNL     1      -2.250  11.498  14.660  1.00  0.00    -0.385 OA
BRANCH  40  41
HETATM   41  C8  UNL     1      -1.778  12.834  14.813  1.00  0.00     0.194 C 
BRANCH  41  42
HETATM   42  C9  UNL     1      -2.772  13.853  14.258  1.00  0.00     0.190 C 
BRANCH  42  43
HETATM   43  O2  UNL     1      -2.287  14.436  13.053  1.00  0.00    -0.399 OA
HETATM   44  H12 UNL     1      -1.469  14.919  13.264  1.00  0.00     0.209 HD
ENDBRANCH  42  43
ENDBRANCH  41  42
ENDBRANCH  40  41
ENDBRANCH  39  40
ENDBRANCH  27  39
ENDBRANCH   1  27
BRANCH   8  45
HETATM   45  C22 UNL     1       0.140   8.350   8.728  1.00  0.00     0.265 C 
HETATM   46  O5  UNL     1      -0.480   8.280   7.671  1.00  0.00    -0.302 OA
ENDBRANCH   8  45
TORSDOF 21
ENDMDL
MODEL 8
REMARK minimizedAffinity -8.46794128
REMARK CNNscore 0.325938821
REMARK CNNaffinity 7.0836978
REMARK  21 active torsions:
REMARK  status: ('A' for Active; 'I' for Inactive)
REMARK    1  A    between atoms: C2_2  and  C3_3 
REMARK    2  A    between atoms: C2_2  and  C29_36 
REMARK    3  A    between atoms: C4_4  and  C5_5 
REMARK    4  A    between atoms: C6_6  and  C7_7 
REMARK    5  A    between atoms: C6_6  and  C10_12 
REMARK    6  A    between atoms: C7_7  and  O1_8 
REMARK    7  A    between atoms: O1_8  and  C8_9 
REMARK    8  A    between atoms: C8_9  and  C9_10 
REMARK    9  A    between atoms: C9_10  and  O2_11 
REMARK   10  A    between atoms: C14_16  and  O3_17 
REMARK   11  A    between atoms: C15_18  and  C16_19 
REMARK   12  A    between atoms: C16_19  and  C17_20 
REMARK   13  A    between atoms: C17_20  and  C18_21 
REMARK   14  A    between atoms: C18_21  and  O4_22 
REMARK   15  A    between atoms: C20_24  and  C22_26 
REMARK   16  A    between atoms: C25_30  and  O6_31 
REMARK   17  A    between atoms: C25_30  and  C26_32 
REMARK   18  A    between atoms: C26_32  and  C27_33 
REMARK   19  A    between atoms: C27_33  and  N1_34 
REMARK   20  A    between atoms: C29_36  and  C30_37 
REMARK   21  A    between atoms: C30_37  and  C31_38 
ROOT
HETATM    1  C10 UNL     1      -0.210   6.140  11.981  1.00  0.00     0.046 C 
HETATM    2  C11 UNL     1      -0.361   6.752  10.580  1.00  0.00     0.013 C 
HETATM    3  C12 UNL     1       0.781   7.766  10.415  1.00  0.00     0.017 C 
HETATM    4  C13 UNL     1       1.859   7.454  11.505  1.00  0.00     0.025 C 
HETATM    5  C14 UNL     1       1.328   6.101  12.095  1.00  0.00     0.138 C 
HETATM    6  C15 UNL     1       1.850   8.647  12.585  1.00  0.00     0.029 C 
HETATM    7  C19 UNL     1       3.129   8.588  13.429  1.00  0.00    -0.066 C 
HETATM    8  C20 UNL     1       3.338   8.140  14.694  1.00  0.00    -0.021 C 
HETATM    9  C21 UNL     1       4.647   8.280  15.439  1.00  0.00     0.052 C 
HETATM   10  C23 UNL     1       4.296   9.079  12.578  1.00  0.00     0.038 C 
HETATM   11  C24 UNL     1       4.187   8.616  11.115  1.00  0.00     0.043 C 
HETATM   12  C25 UNL     1       3.372   7.311  10.916  1.00  0.00     0.070 C 
ENDROOT
BRANCH   5  13
HETATM   13  O3  UNL     1       1.799   4.999  11.316  1.00  0.00    -0.394 OA
HETATM   14  H19 UNL     1       2.775   4.996  11.415  1.00  0.00     0.210 HD
ENDBRANCH   5  13
BRANCH   6  15
HETATM   15  C16 UNL     1       0.520   9.023  13.293  1.00  0.00     0.012 C 
BRANCH  15  16
HETATM   16  C17 UNL     1      -0.126   7.892  14.122  1.00  0.00     0.027 C 
BRANCH  16  17
HETATM   17  C18 UNL     1      -1.314   8.294  14.986  1.00  0.00     0.164 C 
BRANCH  17  18
HETATM   18  O4  UNL     1      -1.537   7.303  15.977  1.00  0.00    -0.401 OA
HETATM   19  H27 UNL     1      -2.143   7.677  16.642  1.00  0.00     0.209 HD
ENDBRANCH  17  18
ENDBRANCH  16  17
ENDBRANCH  15  16
ENDBRANCH   6  15
BRANCH  12  20
HETATM   20  O6  UNL     1       4.033   6.247  11.646  1.00  0.00    -0.389 OA
HETATM   21  H36 UNL     1       4.378   6.594  12.485  1.00  0.00     0.210 HD
ENDBRANCH  12  20
BRANCH  12  22
HETATM   22  C26 UNL     1       3.441   6.879   9.419  1.00  0.00     0.068 C 
BRANCH  22  23
HETATM   23  C27 UNL     1       3.335   5.367   9.122  1.00  0.00     0.272 C 
BRANCH  23  24
HETATM   24  N1  UNL     1       4.491   4.566   9.546  1.00  0.00     0.079 N 
HETATM   25  C28 UNL     1       4.585   3.298   8.832  1.00  0.00     0.306 C 
HETATM   26  H41 UNL     1       4.387   4.365  10.544  1.00  0.00     0.315 HD
ENDBRANCH  23  24
ENDBRANCH  22  23
ENDBRANCH  12  22
BRANCH   1  27
HETATM   27  C6  UNL     1      -1.101   4.909  12.234  1.00  0.00    -0.050 C 
HETATM   28  C5  UNL     1      -2.398   4.870  12.618  1.00  0.00     0.005 C 
BRANCH  28  29
HETATM   29  C4  UNL     1      -3.329   5.941  12.905  1.00  0.00     0.001 C 
HETATM   30  C3  UNL     1      -4.191   5.906  13.935  1.00  0.00     0.006 C 
BRANCH  30  31
HETATM   31  C2  UNL     1      -5.145   6.957  14.293  1.00  0.00    -0.067 C 
HETATM   32  C1  UNL     1      -5.198   8.054  13.522  1.00  0.00     0.019 C 
BRANCH  31  33
HETATM   33  C29 UNL     1      -6.026   6.736  15.519  1.00  0.00     0.041 C 
BRANCH  33  34
HETATM   34  C30 UNL     1      -7.430   6.165  15.280  1.00  0.00     0.032 C 
BRANCH  34  35
HETATM   35  C31 UNL     1      -7.368   4.758  14.741  1.00  0.00    -0.024 C 
HETATM   36  C32 UNL     1      -7.654   4.347  13.489  1.00  0.00    -0.091 C 
HETATM   37  C33 UNL     1      -7.575   2.886  13.129  1.00  0.00     0.042 C 
HETATM   38  C34 UNL     1      -8.053   5.249  12.353  1.00  0.00     0.042 C 
ENDBRANCH  34  35
ENDBRANCH  33  34
ENDBRANCH  31  33
ENDBRANCH  30  31
ENDBRANCH  28  29
BRANCH  27  39
HETATM   39  C7  UNL     1      -0.388   3.596  11.884  1.00  0.00     0.202 C 
BRANCH  39  40
HETATM   40  O1  UNL     1      -0.947   2.958  10.733  1.00  0.00    -0.385 OA
BRANCH  40  41
HETATM   41  C8  UNL     1      -1.543   1.697  11.027  1.00  0.00     0.194 C 
BRANCH  41  42
HETATM   42  C9  UNL     1      -0.690   0.535  10.519  1.00  0.00     0.190 C 
BRANCH  42  43
HETATM   43  O2  UNL     1      -0.585   0.562   9.099  1.00  0.00    -0.399 OA
HETATM   44  H12 UNL     1      -1.479   0.444   8.732  1.00  0.00     0.209 HD
ENDBRANCH  42  43
ENDBRANCH  41  42
ENDBRANCH  40  41
ENDBRANCH  39  40
ENDBRANCH  27  39
ENDBRANCH   1  27
BRANCH   8  45
HETATM   45  C22 UNL     1       2.303   7.446  15.529  1.00  0.00     0.265 C 
HETATM   46  O5  UNL     1       2.027   7.805  16.669  1.00  0.00    -0.302 OA
ENDBRANCH   8  45
TORSDOF 21
ENDMDL
MODEL 9
REMARK minimizedAffinity -7.98769569
REMARK CNNscore 0.306576043
REMARK CNNaffinity 7.1790061
REMARK  21 active torsions:
REMARK  status: ('A' for Active; 'I' for Inactive)
REMARK    1  A    between atoms: C2_2  and  C3_3 
REMARK    2  A    between atoms: C2_2  and  C29_36 
REMARK    3  A    between atoms: C4_4  and  C5_5 
REMARK    4  A    between atoms: C6_6  and  C7_7 
REMARK    5  A    between atoms: C6_6  and  C10_12 
REMARK    6  A    between atoms: C7_7  and  O1_8 
REMARK    7  A    between atoms: O1_8  and  C8_9 
REMARK    8  A    between atoms: C8_9  and  C9_10 
REMARK    9  A    between atoms: C9_10  and  O2_11 
REMARK   10  A    between atoms: C14_16  and  O3_17 
REMARK   11  A    between atoms: C15_18  and  C16_19 
REMARK   12  A    between atoms: C16_19  and  C17_20 
REMARK   13  A    between atoms: C17_20  and  C18_21 
REMARK   14  A    between atoms: C18_21  and  O4_22 
REMARK   15  A    between atoms: C20_24  and  C22_26 
REMARK   16  A    between atoms: C25_30  and  O6_31 
REMARK   17  A    between atoms: C25_30  and  C26_32 
REMARK   18  A    between atoms: C26_32  and  C27_33 
REMARK   19  A    between atoms: C27_33  and  N1_34 
REMARK   20  A    between atoms: C29_36  and  C30_37 
REMARK   21  A    between atoms: C30_37  and  C31_38 
ROOT
HETATM    1  C10 UNL     1      -0.669   7.985  13.173  1.00  0.00     0.046 C 
HETATM    2  C11 UNL     1      -0.018   7.179  14.309  1.00  0.00     0.013 C 
HETATM    3  C12 UNL     1       1.242   6.525  13.723  1.00  0.00     0.017 C 
HETATM    4  C13 UNL     1       1.596   7.274  12.396  1.00  0.00     0.025 C 
HETATM    5  C14 UNL     1       0.594   8.480  12.438  1.00  0.00     0.138 C 
HETATM    6  C15 UNL     1       1.317   6.280  11.162  1.00  0.00     0.029 C 
HETATM    7  C19 UNL     1       2.008   6.814   9.902  1.00  0.00    -0.066 C 
HETATM    8  C20 UNL     1       1.506   7.463   8.820  1.00  0.00    -0.021 C 
HETATM    9  C21 UNL     1       2.310   7.805   7.585  1.00  0.00     0.052 C 
HETATM   10  C23 UNL     1       3.510   6.575  10.034  1.00  0.00     0.038 C 
HETATM   11  C24 UNL     1       4.012   6.793  11.471  1.00  0.00     0.043 C 
HETATM   12  C25 UNL     1       3.146   7.769  12.310  1.00  0.00     0.070 C 
ENDROOT
BRANCH   5  13
HETATM   13  O3  UNL     1       1.148   9.561  13.193  1.00  0.00    -0.394 OA
HETATM   14  H19 UNL     1       1.941   9.858  12.697  1.00  0.00     0.210 HD
ENDBRANCH   5  13
BRANCH   6  15
HETATM   15  C16 UNL     1      -0.086   5.630  11.008  1.00  0.00     0.012 C 
BRANCH  15  16
HETATM   16  C17 UNL     1      -0.312   4.348  11.838  1.00  0.00     0.027 C 
BRANCH  16  17
HETATM   17  C18 UNL     1      -0.805   3.132  11.065  1.00  0.00     0.164 C 
BRANCH  17  18
HETATM   18  O4  UNL     1       0.195   2.125  11.075  1.00  0.00    -0.401 OA
HETATM   19  H27 UNL     1      -0.216   1.294  10.776  1.00  0.00     0.209 HD
ENDBRANCH  17  18
ENDBRANCH  16  17
ENDBRANCH  15  16
ENDBRANCH   6  15
BRANCH  12  20
HETATM   20  O6  UNL     1       3.161   9.064  11.658  1.00  0.00    -0.389 OA
HETATM   21  H36 UNL     1       3.133   8.943  10.694  1.00  0.00     0.210 HD
ENDBRANCH  12  20
BRANCH  12  22
HETATM   22  C26 UNL     1       3.823   8.005  13.695  1.00  0.00     0.068 C 
BRANCH  22  23
HETATM   23  C27 UNL     1       5.362   7.885  13.752  1.00  0.00     0.272 C 
BRANCH  23  24
HETATM   24  N1  UNL     1       5.901   7.369  15.018  1.00  0.00     0.079 N 
HETATM   25  C28 UNL     1       6.946   8.223  15.569  1.00  0.00     0.306 C 
HETATM   26  H41 UNL     1       6.302   6.445  14.837  1.00  0.00     0.315 HD
ENDBRANCH  23  24
ENDBRANCH  22  23
ENDBRANCH  12  22
BRANCH   1  27
HETATM   27  C6  UNL     1      -1.797   8.928  13.631  1.00  0.00    -0.050 C 
HETATM   28  C5  UNL     1      -3.135   8.741  13.559  1.00  0.00     0.005 C 
BRANCH  28  29
HETATM   29  C4  UNL     1      -3.905   7.628  13.043  1.00  0.00     0.001 C 
HETATM   30  C3  UNL     1      -3.854   6.394  13.572  1.00  0.00     0.006 C 
BRANCH  30  31
HETATM   31  C2  UNL     1      -4.616   5.231  13.114  1.00  0.00    -0.067 C 
HETATM   32  C1  UNL     1      -3.998   4.341  12.321  1.00  0.00     0.019 C 
BRANCH  31  33
HETATM   33  C29 UNL     1      -6.065   5.099  13.573  1.00  0.00     0.041 C 
BRANCH  33  34
HETATM   34  C30 UNL     1      -7.061   4.484  12.580  1.00  0.00     0.032 C 
BRANCH  34  35
HETATM   35  C31 UNL     1      -8.383   5.208  12.607  1.00  0.00    -0.024 C 
HETATM   36  C32 UNL     1      -8.790   6.136  13.496  1.00  0.00    -0.091 C 
HETATM   37  C33 UNL     1     -10.170   6.733  13.397  1.00  0.00     0.042 C 
HETATM   38  C34 UNL     1      -7.959   6.672  14.629  1.00  0.00     0.042 C 
ENDBRANCH  34  35
ENDBRANCH  33  34
ENDBRANCH  31  33
ENDBRANCH  30  31
ENDBRANCH  28  29
BRANCH  27  39
HETATM   39  C7  UNL     1      -1.256  10.174  14.345  1.00  0.00     0.202 C 
BRANCH  39  40
HETATM   40  O1  UNL     1      -0.781   9.888  15.663  1.00  0.00    -0.385 OA
BRANCH  40  41
HETATM   41  C8  UNL     1      -1.433  10.657  16.671  1.00  0.00     0.194 C 
BRANCH  41  42
HETATM   42  C9  UNL     1      -2.818  10.102  17.000  1.00  0.00     0.190 C 
BRANCH  42  43
HETATM   43  O2  UNL     1      -2.856   9.574  18.321  1.00  0.00    -0.399 OA
HETATM   44  H12 UNL     1      -2.232   8.829  18.362  1.00  0.00     0.209 HD
ENDBRANCH  42  43
ENDBRANCH  41  42
ENDBRANCH  40  41
ENDBRANCH  39  40
ENDBRANCH  27  39
ENDBRANCH   1  27
BRANCH   8  45
HETATM   45  C22 UNL     1       0.086   7.931   8.698  1.00  0.00     0.265 C 
HETATM   46  O5  UNL     1      -0.275   9.045   9.068  1.00  0.00    -0.302 OA
ENDBRANCH   8  45
TORSDOF 21
ENDMDL
