MODEL 1
REMARK minimizedAffinity -9.31694603
REMARK  6 active torsions:
REMARK  status: ('A' for Active; 'I' for Inactive)
REMARK    1  A    between atoms: C2_2  and  C30_31 
REMARK    2  A    between atoms: C3_3  and  C4_4 
REMARK    3  A    between atoms: C4_4  and  C5_5 
REMARK    4  A    between atoms: C5_5  and  C6_6 
REMARK    5  A    between atoms: C6_6  and  C8_8 
REMARK    6  A    between atoms: C30_31  and  O3_33 
ROOT
HETATM    1  C8  UNL     1      -2.206  49.904 -21.280  1.00  0.00    -0.002 C 
HETATM    2  C9  UNL     1      -1.514  51.215 -21.756  1.00  0.00     0.007 C 
HETATM    3  C10 UNL     1      -0.745  51.794 -20.551  1.00  0.00     0.015 C 
HETATM    4  C11 UNL     1      -1.254  50.989 -19.338  1.00  0.00    -0.013 C 
HETATM    5  C12 UNL     1      -2.588  51.674 -18.895  1.00  0.00     0.021 C 
HETATM    6  C13 UNL     1      -0.373  50.934 -18.092  1.00  0.00    -0.070 C 
HETATM    7  C14 UNL     1       0.381  51.985 -17.706  1.00  0.00    -0.022 C 
HETATM    8  C15 UNL     1       1.201  52.033 -16.445  1.00  0.00     0.034 C 
HETATM    9  C16 UNL     1       1.303  50.655 -15.773  1.00  0.00     0.013 C 
HETATM   10  C17 UNL     1       2.150  50.592 -14.463  1.00  0.00     0.018 C 
HETATM   11  C18 UNL     1       1.544  51.328 -13.263  1.00  0.00     0.023 C 
HETATM   12  C19 UNL     1       3.564  51.161 -14.716  1.00  0.00     0.023 C 
HETATM   13  C20 UNL     1       2.314  49.110 -14.075  1.00  0.00     0.135 C 
HETATM   14  O1  UNL     1       3.147  48.743 -13.243  1.00  0.00    -0.297 OA
HETATM   15  C21 UNL     1       1.423  48.098 -14.767  1.00  0.00     0.080 C 
HETATM   16  C22 UNL     1       0.006  48.642 -14.869  1.00  0.00     0.017 C 
HETATM   17  C23 UNL     1      -0.104  49.940 -15.723  1.00  0.00    -0.031 C 
HETATM   18  C24 UNL     1      -1.228  50.808 -15.096  1.00  0.00     0.016 C 
HETATM   19  C25 UNL     1      -0.461  49.649 -17.239  1.00  0.00     0.024 C 
HETATM   20  C26 UNL     1      -1.786  48.886 -17.480  1.00  0.00     0.010 C 
HETATM   21  C27 UNL     1      -2.152  48.646 -18.966  1.00  0.00     0.011 C 
HETATM   22  C28 UNL     1      -1.421  49.563 -19.971  1.00  0.00    -0.029 C 
HETATM   23  C29 UNL     1      -0.066  48.897 -20.374  1.00  0.00     0.016 C 
ENDROOT
BRANCH   1  24
HETATM   24  C6  UNL     1      -2.311  48.844 -22.411  1.00  0.00    -0.014 C 
HETATM   25  C7  UNL     1      -2.282  47.409 -21.876  1.00  0.00     0.010 C 
BRANCH  24  26
HETATM   26  C5  UNL     1      -3.558  49.041 -23.315  1.00  0.00     0.008 C 
BRANCH  26  27
HETATM   27  C4  UNL     1      -3.479  48.374 -24.693  1.00  0.00     0.028 C 
BRANCH  27  28
HETATM   28  C3  UNL     1      -3.087  49.372 -25.749  1.00  0.00    -0.013 C 
HETATM   29  C2  UNL     1      -3.442  49.371 -27.050  1.00  0.00     0.008 C 
HETATM   30  C1  UNL     1      -4.281  48.333 -27.734  1.00  0.00     0.055 C 
BRANCH  29  31
HETATM   31  C30 UNL     1      -2.927  50.495 -27.875  1.00  0.00     0.171 C 
HETATM   32  O2  UNL     1      -2.036  51.271 -27.579  1.00  0.00    -0.646 OA
BRANCH  31  33
HETATM   33  O3  UNL     1      -3.569  50.600 -29.050  1.00  0.00    -0.773 OA
HETATM   34  H46 UNL     1      -3.136  51.369 -29.476  1.00  0.00     0.167 HD
ENDBRANCH  31  33
ENDBRANCH  29  31
ENDBRANCH  27  28
ENDBRANCH  26  27
ENDBRANCH  24  26
ENDBRANCH   1  24
TORSDOF 6
ENDMDL
MODEL 2
REMARK minimizedAffinity -9.14189053
REMARK  6 active torsions:
REMARK  status: ('A' for Active; 'I' for Inactive)
REMARK    1  A    between atoms: C2_2  and  C30_31 
REMARK    2  A    between atoms: C3_3  and  C4_4 
REMARK    3  A    between atoms: C4_4  and  C5_5 
REMARK    4  A    between atoms: C5_5  and  C6_6 
REMARK    5  A    between atoms: C6_6  and  C8_8 
REMARK    6  A    between atoms: C30_31  and  O3_33 
ROOT
HETATM    1  C8  UNL     1      -1.069  51.846 -20.972  1.00  0.00    -0.002 C 
HETATM    2  C9  UNL     1      -0.425  50.816 -19.998  1.00  0.00     0.007 C 
HETATM    3  C10 UNL     1      -1.450  49.683 -19.783  1.00  0.00     0.015 C 
HETATM    4  C11 UNL     1      -2.765  50.225 -20.378  1.00  0.00    -0.013 C 
HETATM    5  C12 UNL     1      -3.412  51.107 -19.261  1.00  0.00     0.021 C 
HETATM    6  C13 UNL     1      -3.834  49.217 -20.794  1.00  0.00    -0.070 C 
HETATM    7  C14 UNL     1      -4.037  48.071 -20.111  1.00  0.00    -0.022 C 
HETATM    8  C15 UNL     1      -5.127  47.079 -20.409  1.00  0.00     0.034 C 
HETATM    9  C16 UNL     1      -5.824  47.375 -21.746  1.00  0.00     0.013 C 
HETATM   10  C17 UNL     1      -6.963  46.389 -22.160  1.00  0.00     0.018 C 
HETATM   11  C18 UNL     1      -8.222  46.452 -21.288  1.00  0.00     0.023 C 
HETATM   12  C19 UNL     1      -6.439  44.936 -22.148  1.00  0.00     0.023 C 
HETATM   13  C20 UNL     1      -7.374  46.718 -23.607  1.00  0.00     0.135 C 
HETATM   14  O1  UNL     1      -8.056  45.945 -24.283  1.00  0.00    -0.297 OA
HETATM   15  C21 UNL     1      -6.892  48.030 -24.194  1.00  0.00     0.080 C 
HETATM   16  C22 UNL     1      -7.025  49.138 -23.160  1.00  0.00     0.017 C 
HETATM   17  C23 UNL     1      -6.154  48.912 -21.889  1.00  0.00    -0.031 C 
HETATM   18  C24 UNL     1      -6.937  49.502 -20.685  1.00  0.00     0.016 C 
HETATM   19  C25 UNL     1      -4.739  49.620 -21.980  1.00  0.00     0.024 C 
HETATM   20  C26 UNL     1      -4.770  51.153 -22.189  1.00  0.00     0.010 C 
HETATM   21  C27 UNL     1      -3.384  51.844 -22.230  1.00  0.00     0.011 C 
HETATM   22  C28 UNL     1      -2.229  51.020 -21.620  1.00  0.00    -0.029 C 
HETATM   23  C29 UNL     1      -1.616  50.106 -22.729  1.00  0.00     0.016 C 
ENDROOT
BRANCH   1  24
HETATM   24  C6  UNL     1      -0.018  52.539 -21.882  1.00  0.00    -0.014 C 
HETATM   25  C7  UNL     1       1.421  52.279 -21.422  1.00  0.00     0.010 C 
BRANCH  24  26
HETATM   26  C5  UNL     1      -0.165  52.157 -23.380  1.00  0.00     0.008 C 
BRANCH  26  27
HETATM   27  C4  UNL     1       0.841  52.822 -24.326  1.00  0.00     0.028 C 
BRANCH  27  28
HETATM   28  C3  UNL     1       0.165  53.281 -25.589  1.00  0.00    -0.013 C 
HETATM   29  C2  UNL     1      -0.125  52.543 -26.681  1.00  0.00     0.008 C 
HETATM   30  C1  UNL     1       0.212  51.096 -26.880  1.00  0.00     0.055 C 
BRANCH  29  31
HETATM   31  C30 UNL     1      -0.819  53.248 -27.789  1.00  0.00     0.171 C 
HETATM   32  O2  UNL     1      -1.943  53.719 -27.766  1.00  0.00    -0.646 OA
BRANCH  31  33
HETATM   33  O3  UNL     1      -0.063  53.327 -28.896  1.00  0.00    -0.773 OA
HETATM   34  H46 UNL     1      -0.639  53.803 -29.530  1.00  0.00     0.167 HD
ENDBRANCH  31  33
ENDBRANCH  29  31
ENDBRANCH  27  28
ENDBRANCH  26  27
ENDBRANCH  24  26
ENDBRANCH   1  24
TORSDOF 6
ENDMDL
MODEL 3
REMARK minimizedAffinity -9.13145447
REMARK  6 active torsions:
REMARK  status: ('A' for Active; 'I' for Inactive)
REMARK    1  A    between atoms: C2_2  and  C30_31 
REMARK    2  A    between atoms: C3_3  and  C4_4 
REMARK    3  A    between atoms: C4_4  and  C5_5 
REMARK    4  A    between atoms: C5_5  and  C6_6 
REMARK    5  A    between atoms: C6_6  and  C8_8 
REMARK    6  A    between atoms: C30_31  and  O3_33 
ROOT
HETATM    1  C8  UNL     1      -1.987  50.462 -23.036  1.00  0.00    -0.002 C 
HETATM    2  C9  UNL     1      -2.336  49.774 -24.389  1.00  0.00     0.007 C 
HETATM    3  C10 UNL     1      -3.502  48.800 -24.122  1.00  0.00     0.015 C 
HETATM    4  C11 UNL     1      -3.597  48.712 -22.586  1.00  0.00    -0.013 C 
HETATM    5  C12 UNL     1      -2.531  47.655 -22.148  1.00  0.00     0.021 C 
HETATM    6  C13 UNL     1      -4.919  48.259 -21.973  1.00  0.00    -0.070 C 
HETATM    7  C14 UNL     1      -5.701  47.334 -22.569  1.00  0.00    -0.022 C 
HETATM    8  C15 UNL     1      -6.968  46.776 -21.980  1.00  0.00     0.034 C 
HETATM    9  C16 UNL     1      -7.425  47.567 -20.744  1.00  0.00     0.013 C 
HETATM   10  C17 UNL     1      -8.745  47.079 -20.066  1.00  0.00     0.018 C 
HETATM   11  C18 UNL     1      -8.652  45.714 -19.377  1.00  0.00     0.023 C 
HETATM   12  C19 UNL     1      -9.886  47.020 -21.106  1.00  0.00     0.023 C 
HETATM   13  C20 UNL     1      -9.145  48.120 -19.003  1.00  0.00     0.135 C 
HETATM   14  O1  UNL     1     -10.269  48.136 -18.499  1.00  0.00    -0.297 OA
HETATM   15  C21 UNL     1      -8.109  49.151 -18.602  1.00  0.00     0.080 C 
HETATM   16  C22 UNL     1      -6.749  48.485 -18.453  1.00  0.00     0.017 C 
HETATM   17  C23 UNL     1      -6.214  47.856 -19.773  1.00  0.00    -0.031 C 
HETATM   18  C24 UNL     1      -5.405  46.590 -19.383  1.00  0.00     0.016 C 
HETATM   19  C25 UNL     1      -5.273  48.840 -20.585  1.00  0.00     0.024 C 
HETATM   20  C26 UNL     1      -4.018  49.341 -19.831  1.00  0.00     0.010 C 
HETATM   21  C27 UNL     1      -3.080  50.264 -20.647  1.00  0.00     0.011 C 
HETATM   22  C28 UNL     1      -3.266  50.191 -22.178  1.00  0.00    -0.029 C 
HETATM   23  C29 UNL     1      -4.366  51.216 -22.605  1.00  0.00     0.016 C 
ENDROOT
BRANCH   1  24
HETATM   24  C6  UNL     1      -1.483  51.919 -23.225  1.00  0.00    -0.014 C 
HETATM   25  C7  UNL     1      -0.027  52.100 -22.782  1.00  0.00     0.010 C 
BRANCH  24  26
HETATM   26  C5  UNL     1      -1.657  52.440 -24.677  1.00  0.00     0.008 C 
BRANCH  26  27
HETATM   27  C4  UNL     1      -1.231  51.462 -25.777  1.00  0.00     0.028 C 
BRANCH  27  28
HETATM   28  C3  UNL     1       0.267  51.350 -25.845  1.00  0.00    -0.013 C 
HETATM   29  C2  UNL     1       1.056  51.538 -26.923  1.00  0.00     0.008 C 
HETATM   30  C1  UNL     1       0.590  51.862 -28.311  1.00  0.00     0.055 C 
BRANCH  29  31
HETATM   31  C30 UNL     1       2.518  51.384 -26.706  1.00  0.00     0.171 C 
HETATM   32  O2  UNL     1       3.065  50.635 -25.916  1.00  0.00    -0.646 OA
BRANCH  31  33
HETATM   33  O3  UNL     1       3.239  52.194 -27.498  1.00  0.00    -0.773 OA
HETATM   34  H46 UNL     1       4.165  51.990 -27.247  1.00  0.00     0.167 HD
ENDBRANCH  31  33
ENDBRANCH  29  31
ENDBRANCH  27  28
ENDBRANCH  26  27
ENDBRANCH  24  26
ENDBRANCH   1  24
TORSDOF 6
ENDMDL
MODEL 4
REMARK minimizedAffinity -8.95408916
REMARK  6 active torsions:
REMARK  status: ('A' for Active; 'I' for Inactive)
REMARK    1  A    between atoms: C2_2  and  C30_31 
REMARK    2  A    between atoms: C3_3  and  C4_4 
REMARK    3  A    between atoms: C4_4  and  C5_5 
REMARK    4  A    between atoms: C5_5  and  C6_6 
REMARK    5  A    between atoms: C6_6  and  C8_8 
REMARK    6  A    between atoms: C30_31  and  O3_33 
ROOT
HETATM    1  C8  UNL     1      -1.787  50.589 -21.686  1.00  0.00    -0.002 C 
HETATM    2  C9  UNL     1      -1.073  51.951 -21.928  1.00  0.00     0.007 C 
HETATM    3  C10 UNL     1      -0.430  52.379 -20.593  1.00  0.00     0.015 C 
HETATM    4  C11 UNL     1      -1.037  51.427 -19.543  1.00  0.00    -0.013 C 
HETATM    5  C12 UNL     1      -2.417  52.046 -19.147  1.00  0.00     0.021 C 
HETATM    6  C13 UNL     1      -0.275  51.221 -18.236  1.00  0.00    -0.070 C 
HETATM    7  C14 UNL     1       0.423  52.218 -17.653  1.00  0.00    -0.022 C 
HETATM    8  C15 UNL     1       1.121  52.113 -16.325  1.00  0.00     0.034 C 
HETATM    9  C16 UNL     1       1.181  50.662 -15.821  1.00  0.00     0.013 C 
HETATM   10  C17 UNL     1       1.904  50.439 -14.454  1.00  0.00     0.018 C 
HETATM   11  C18 UNL     1       1.177  51.018 -13.236  1.00  0.00     0.023 C 
HETATM   12  C19 UNL     1       3.325  51.041 -14.501  1.00  0.00     0.023 C 
HETATM   13  C20 UNL     1       2.054  48.921 -14.239  1.00  0.00     0.135 C 
HETATM   14  O1  UNL     1       2.812  48.457 -13.385  1.00  0.00    -0.297 OA
HETATM   15  C21 UNL     1       1.248  48.000 -15.132  1.00  0.00     0.080 C 
HETATM   16  C22 UNL     1      -0.162  48.547 -15.299  1.00  0.00     0.017 C 
HETATM   17  C23 UNL     1      -0.213  49.941 -15.993  1.00  0.00    -0.031 C 
HETATM   18  C24 UNL     1      -1.404  50.719 -15.373  1.00  0.00     0.016 C 
HETATM   19  C25 UNL     1      -0.422  49.839 -17.561  1.00  0.00     0.024 C 
HETATM   20  C26 UNL     1      -1.707  49.106 -18.018  1.00  0.00     0.010 C 
HETATM   21  C27 UNL     1      -1.928  49.052 -19.550  1.00  0.00     0.011 C 
HETATM   22  C28 UNL     1      -1.122  50.090 -20.360  1.00  0.00    -0.029 C 
HETATM   23  C29 UNL     1       0.275  49.485 -20.713  1.00  0.00     0.016 C 
ENDROOT
BRANCH   1  24
HETATM   24  C6  UNL     1      -1.769  49.678 -22.944  1.00  0.00    -0.014 C 
HETATM   25  C7  UNL     1      -2.708  48.474 -22.812  1.00  0.00     0.010 C 
BRANCH  24  26
HETATM   26  C5  UNL     1      -2.084  50.446 -24.255  1.00  0.00     0.008 C 
BRANCH  26  27
HETATM   27  C4  UNL     1      -0.878  50.712 -25.164  1.00  0.00     0.028 C 
BRANCH  27  28
HETATM   28  C3  UNL     1      -1.027  52.027 -25.879  1.00  0.00    -0.013 C 
HETATM   29  C2  UNL     1      -0.395  52.426 -27.003  1.00  0.00     0.008 C 
HETATM   30  C1  UNL     1       0.635  51.643 -27.760  1.00  0.00     0.055 C 
BRANCH  29  31
HETATM   31  C30 UNL     1      -0.744  53.778 -27.511  1.00  0.00     0.171 C 
HETATM   32  O2  UNL     1      -0.085  54.796 -27.396  1.00  0.00    -0.646 OA
BRANCH  31  33
HETATM   33  O3  UNL     1      -1.928  53.793 -28.146  1.00  0.00    -0.773 OA
HETATM   34  H46 UNL     1      -2.027  54.729 -28.418  1.00  0.00     0.167 HD
ENDBRANCH  31  33
ENDBRANCH  29  31
ENDBRANCH  27  28
ENDBRANCH  26  27
ENDBRANCH  24  26
ENDBRANCH   1  24
TORSDOF 6
ENDMDL
MODEL 5
REMARK minimizedAffinity -8.92734337
REMARK  6 active torsions:
REMARK  status: ('A' for Active; 'I' for Inactive)
REMARK    1  A    between atoms: C2_2  and  C30_31 
REMARK    2  A    between atoms: C3_3  and  C4_4 
REMARK    3  A    between atoms: C4_4  and  C5_5 
REMARK    4  A    between atoms: C5_5  and  C6_6 
REMARK    5  A    between atoms: C6_6  and  C8_8 
REMARK    6  A    between atoms: C30_31  and  O3_33 
ROOT
HETATM    1  C8  UNL     1      -1.743  51.324 -22.840  1.00  0.00    -0.002 C 
HETATM    2  C9  UNL     1      -2.786  52.321 -23.424  1.00  0.00     0.007 C 
HETATM    3  C10 UNL     1      -4.186  51.794 -23.051  1.00  0.00     0.015 C 
HETATM    4  C11 UNL     1      -3.943  50.361 -22.537  1.00  0.00    -0.013 C 
HETATM    5  C12 UNL     1      -3.871  49.453 -23.808  1.00  0.00     0.021 C 
HETATM    6  C13 UNL     1      -4.998  49.735 -21.628  1.00  0.00    -0.070 C 
HETATM    7  C14 UNL     1      -6.315  49.984 -21.789  1.00  0.00    -0.022 C 
HETATM    8  C15 UNL     1      -7.412  49.334 -20.991  1.00  0.00     0.034 C 
HETATM    9  C16 UNL     1      -6.863  48.553 -19.787  1.00  0.00     0.013 C 
HETATM   10  C17 UNL     1      -7.925  47.854 -18.880  1.00  0.00     0.018 C 
HETATM   11  C18 UNL     1      -8.659  46.678 -19.532  1.00  0.00     0.023 C 
HETATM   12  C19 UNL     1      -8.978  48.880 -18.407  1.00  0.00     0.023 C 
HETATM   13  C20 UNL     1      -7.203  47.324 -17.626  1.00  0.00     0.135 C 
HETATM   14  O1  UNL     1      -7.821  46.965 -16.622  1.00  0.00    -0.297 OA
HETATM   15  C21 UNL     1      -5.689  47.274 -17.654  1.00  0.00     0.080 C 
HETATM   16  C22 UNL     1      -5.214  46.759 -19.005  1.00  0.00     0.017 C 
HETATM   17  C23 UNL     1      -5.617  47.674 -20.199  1.00  0.00    -0.031 C 
HETATM   18  C24 UNL     1      -5.875  46.750 -21.419  1.00  0.00     0.016 C 
HETATM   19  C25 UNL     1      -4.491  48.724 -20.575  1.00  0.00     0.024 C 
HETATM   20  C26 UNL     1      -3.119  48.123 -20.965  1.00  0.00     0.010 C 
HETATM   21  C27 UNL     1      -2.038  49.153 -21.376  1.00  0.00     0.011 C 
HETATM   22  C28 UNL     1      -2.582  50.541 -21.776  1.00  0.00    -0.029 C 
HETATM   23  C29 UNL     1      -2.697  51.430 -20.496  1.00  0.00     0.016 C 
ENDROOT
BRANCH   1  24
HETATM   24  C6  UNL     1      -0.425  52.027 -22.412  1.00  0.00    -0.014 C 
HETATM   25  C7  UNL     1       0.245  51.342 -21.216  1.00  0.00     0.010 C 
BRANCH  24  26
HETATM   26  C5  UNL     1       0.595  52.164 -23.574  1.00  0.00     0.008 C 
BRANCH  26  27
HETATM   27  C4  UNL     1       0.736  53.574 -24.158  1.00  0.00     0.028 C 
BRANCH  27  28
HETATM   28  C3  UNL     1      -0.036  53.702 -25.442  1.00  0.00    -0.013 C 
HETATM   29  C2  UNL     1       0.183  53.046 -26.601  1.00  0.00     0.008 C 
HETATM   30  C1  UNL     1       1.288  52.068 -26.864  1.00  0.00     0.055 C 
BRANCH  29  31
HETATM   31  C30 UNL     1      -0.750  53.350 -27.717  1.00  0.00     0.171 C 
HETATM   32  O2  UNL     1      -1.922  53.670 -27.624  1.00  0.00    -0.646 OA
BRANCH  31  33
HETATM   33  O3  UNL     1      -0.162  53.229 -28.919  1.00  0.00    -0.773 OA
HETATM   34  H46 UNL     1      -0.883  53.451 -29.546  1.00  0.00     0.167 HD
ENDBRANCH  31  33
ENDBRANCH  29  31
ENDBRANCH  27  28
ENDBRANCH  26  27
ENDBRANCH  24  26
ENDBRANCH   1  24
TORSDOF 6
ENDMDL
MODEL 6
REMARK minimizedAffinity -8.92365837
REMARK  6 active torsions:
REMARK  status: ('A' for Active; 'I' for Inactive)
REMARK    1  A    between atoms: C2_2  and  C30_31 
REMARK    2  A    between atoms: C3_3  and  C4_4 
REMARK    3  A    between atoms: C4_4  and  C5_5 
REMARK    4  A    between atoms: C5_5  and  C6_6 
REMARK    5  A    between atoms: C6_6  and  C8_8 
REMARK    6  A    between atoms: C30_31  and  O3_33 
ROOT
HETATM    1  C8  UNL     1      -2.749  50.681 -23.820  1.00  0.00    -0.002 C 
HETATM    2  C9  UNL     1      -1.677  49.953 -22.957  1.00  0.00     0.007 C 
HETATM    3  C10 UNL     1      -2.369  48.750 -22.283  1.00  0.00     0.015 C 
HETATM    4  C11 UNL     1      -3.875  48.982 -22.515  1.00  0.00    -0.013 C 
HETATM    5  C12 UNL     1      -4.340  49.960 -21.388  1.00  0.00     0.021 C 
HETATM    6  C13 UNL     1      -4.807  47.775 -22.439  1.00  0.00    -0.070 C 
HETATM    7  C14 UNL     1      -4.592  46.762 -21.574  1.00  0.00    -0.022 C 
HETATM    8  C15 UNL     1      -5.514  45.589 -21.382  1.00  0.00     0.034 C 
HETATM    9  C16 UNL     1      -6.599  45.527 -22.469  1.00  0.00     0.013 C 
HETATM   10  C17 UNL     1      -7.601  44.333 -22.372  1.00  0.00     0.018 C 
HETATM   11  C18 UNL     1      -8.555  44.384 -21.174  1.00  0.00     0.023 C 
HETATM   12  C19 UNL     1      -6.829  42.995 -22.319  1.00  0.00     0.023 C 
HETATM   13  C20 UNL     1      -8.452  44.322 -23.655  1.00  0.00     0.135 C 
HETATM   14  O1  UNL     1      -9.137  43.348 -23.974  1.00  0.00    -0.297 OA
HETATM   15  C21 UNL     1      -8.410  45.553 -24.538  1.00  0.00     0.080 C 
HETATM   16  C22 UNL     1      -8.456  46.807 -23.678  1.00  0.00     0.017 C 
HETATM   17  C23 UNL     1      -7.240  46.949 -22.716  1.00  0.00    -0.031 C 
HETATM   18  C24 UNL     1      -7.753  47.641 -21.426  1.00  0.00     0.016 C 
HETATM   19  C25 UNL     1      -6.066  47.816 -23.335  1.00  0.00     0.024 C 
HETATM   20  C26 UNL     1      -6.442  49.263 -23.736  1.00  0.00     0.010 C 
HETATM   21  C27 UNL     1      -5.279  50.119 -24.296  1.00  0.00     0.011 C 
HETATM   22  C28 UNL     1      -3.866  49.594 -23.960  1.00  0.00    -0.029 C 
HETATM   23  C29 UNL     1      -3.425  48.581 -25.064  1.00  0.00     0.016 C 
ENDROOT
BRANCH   1  24
HETATM   24  C6  UNL     1      -2.143  51.328 -25.096  1.00  0.00    -0.014 C 
HETATM   25  C7  UNL     1      -3.216  51.756 -26.104  1.00  0.00     0.010 C 
BRANCH  24  26
HETATM   26  C5  UNL     1      -1.210  52.528 -24.784  1.00  0.00     0.008 C 
BRANCH  26  27
HETATM   27  C4  UNL     1       0.250  52.164 -24.494  1.00  0.00     0.028 C 
BRANCH  27  28
HETATM   28  C3  UNL     1       0.863  53.139 -23.526  1.00  0.00    -0.013 C 
HETATM   29  C2  UNL     1       0.751  53.140 -22.182  1.00  0.00     0.008 C 
HETATM   30  C1  UNL     1      -0.056  52.179 -21.363  1.00  0.00     0.055 C 
BRANCH  29  31
HETATM   31  C30 UNL     1       1.482  54.215 -21.461  1.00  0.00     0.171 C 
HETATM   32  O2  UNL     1       1.627  54.319 -20.255  1.00  0.00    -0.646 OA
BRANCH  31  33
HETATM   33  O3  UNL     1       1.999  55.129 -22.297  1.00  0.00    -0.773 OA
HETATM   34  H46 UNL     1       2.440  55.764 -21.694  1.00  0.00     0.167 HD
ENDBRANCH  31  33
ENDBRANCH  29  31
ENDBRANCH  27  28
ENDBRANCH  26  27
ENDBRANCH  24  26
ENDBRANCH   1  24
TORSDOF 6
ENDMDL
MODEL 7
REMARK minimizedAffinity -8.91728783
REMARK  6 active torsions:
REMARK  status: ('A' for Active; 'I' for Inactive)
REMARK    1  A    between atoms: C2_2  and  C30_31 
REMARK    2  A    between atoms: C3_3  and  C4_4 
REMARK    3  A    between atoms: C4_4  and  C5_5 
REMARK    4  A    between atoms: C5_5  and  C6_6 
REMARK    5  A    between atoms: C6_6  and  C8_8 
REMARK    6  A    between atoms: C30_31  and  O3_33 
ROOT
HETATM    1  C8  UNL     1      -2.039  51.193 -24.805  1.00  0.00    -0.002 C 
HETATM    2  C9  UNL     1      -2.149  52.472 -23.923  1.00  0.00     0.007 C 
HETATM    3  C10 UNL     1      -3.276  52.229 -22.898  1.00  0.00     0.015 C 
HETATM    4  C11 UNL     1      -3.996  50.961 -23.399  1.00  0.00    -0.013 C 
HETATM    5  C12 UNL     1      -5.007  51.442 -24.491  1.00  0.00     0.021 C 
HETATM    6  C13 UNL     1      -4.812  50.154 -22.393  1.00  0.00    -0.070 C 
HETATM    7  C14 UNL     1      -5.496  50.747 -21.392  1.00  0.00    -0.022 C 
HETATM    8  C15 UNL     1      -6.391  50.024 -20.421  1.00  0.00     0.034 C 
HETATM    9  C16 UNL     1      -6.235  48.499 -20.522  1.00  0.00     0.013 C 
HETATM   10  C17 UNL     1      -7.108  47.653 -19.541  1.00  0.00     0.018 C 
HETATM   11  C18 UNL     1      -8.615  47.695 -19.817  1.00  0.00     0.023 C 
HETATM   12  C19 UNL     1      -6.870  48.113 -18.086  1.00  0.00     0.023 C 
HETATM   13  C20 UNL     1      -6.649  46.186 -19.641  1.00  0.00     0.135 C 
HETATM   14  O1  UNL     1      -6.973  45.344 -18.801  1.00  0.00    -0.297 OA
HETATM   15  C21 UNL     1      -5.759  45.805 -20.807  1.00  0.00     0.080 C 
HETATM   16  C22 UNL     1      -6.263  46.469 -22.080  1.00  0.00     0.017 C 
HETATM   17  C23 UNL     1      -6.229  48.025 -22.028  1.00  0.00    -0.031 C 
HETATM   18  C24 UNL     1      -7.439  48.538 -22.854  1.00  0.00     0.016 C 
HETATM   19  C25 UNL     1      -4.896  48.630 -22.635  1.00  0.00     0.024 C 
HETATM   20  C26 UNL     1      -4.604  48.262 -24.110  1.00  0.00     0.010 C 
HETATM   21  C27 UNL     1      -3.325  48.895 -24.710  1.00  0.00     0.011 C 
HETATM   22  C28 UNL     1      -2.786  50.122 -23.943  1.00  0.00    -0.029 C 
HETATM   23  C29 UNL     1      -1.813  49.634 -22.822  1.00  0.00     0.016 C 
ENDROOT
BRANCH   1  24
HETATM   24  C6  UNL     1      -0.584  50.921 -25.277  1.00  0.00    -0.014 C 
HETATM   25  C7  UNL     1      -0.400  51.158 -26.779  1.00  0.00     0.010 C 
BRANCH  24  26
HETATM   26  C5  UNL     1       0.474  51.735 -24.485  1.00  0.00     0.008 C 
BRANCH  26  27
HETATM   27  C4  UNL     1      -0.087  52.866 -23.615  1.00  0.00     0.028 C 
BRANCH  27  28
HETATM   28  C3  UNL     1       0.116  52.569 -22.154  1.00  0.00    -0.013 C 
HETATM   29  C2  UNL     1       0.835  53.284 -21.264  1.00  0.00     0.008 C 
HETATM   30  C1  UNL     1       1.627  54.521 -21.562  1.00  0.00     0.055 C 
BRANCH  29  31
HETATM   31  C30 UNL     1       0.853  52.773 -19.869  1.00  0.00     0.171 C 
HETATM   32  O2  UNL     1       0.284  51.782 -19.445  1.00  0.00    -0.646 OA
BRANCH  31  33
HETATM   33  O3  UNL     1       1.589  53.545 -19.053  1.00  0.00    -0.773 OA
HETATM   34  H46 UNL     1       1.508  53.098 -18.185  1.00  0.00     0.167 HD
ENDBRANCH  31  33
ENDBRANCH  29  31
ENDBRANCH  27  28
ENDBRANCH  26  27
ENDBRANCH  24  26
ENDBRANCH   1  24
TORSDOF 6
ENDMDL
MODEL 8
REMARK minimizedAffinity -8.88587761
REMARK  6 active torsions:
REMARK  status: ('A' for Active; 'I' for Inactive)
REMARK    1  A    between atoms: C2_2  and  C30_31 
REMARK    2  A    between atoms: C3_3  and  C4_4 
REMARK    3  A    between atoms: C4_4  and  C5_5 
REMARK    4  A    between atoms: C5_5  and  C6_6 
REMARK    5  A    between atoms: C6_6  and  C8_8 
REMARK    6  A    between atoms: C30_31  and  O3_33 
ROOT
HETATM    1  C8  UNL     1      -2.641  50.464 -23.050  1.00  0.00    -0.002 C 
HETATM    2  C9  UNL     1      -1.674  49.611 -22.177  1.00  0.00     0.007 C 
HETATM    3  C10 UNL     1      -2.459  48.374 -21.694  1.00  0.00     0.015 C 
HETATM    4  C11 UNL     1      -3.931  48.687 -22.032  1.00  0.00    -0.013 C 
HETATM    5  C12 UNL     1      -4.466  49.564 -20.854  1.00  0.00     0.021 C 
HETATM    6  C13 UNL     1      -4.902  47.516 -22.163  1.00  0.00    -0.070 C 
HETATM    7  C14 UNL     1      -4.796  46.413 -21.392  1.00  0.00    -0.022 C 
HETATM    8  C15 UNL     1      -5.767  45.264 -21.404  1.00  0.00     0.034 C 
HETATM    9  C16 UNL     1      -6.750  45.355 -22.582  1.00  0.00     0.013 C 
HETATM   10  C17 UNL     1      -7.792  44.197 -22.697  1.00  0.00     0.018 C 
HETATM   11  C18 UNL     1      -8.849  44.164 -21.588  1.00  0.00     0.023 C 
HETATM   12  C19 UNL     1      -7.069  42.832 -22.717  1.00  0.00     0.023 C 
HETATM   13  C20 UNL     1      -8.524  44.349 -24.044  1.00  0.00     0.135 C 
HETATM   14  O1  UNL     1      -9.206  43.440 -24.521  1.00  0.00    -0.297 OA
HETATM   15  C21 UNL     1      -8.365  45.660 -24.787  1.00  0.00     0.080 C 
HETATM   16  C22 UNL     1      -8.451  46.822 -23.809  1.00  0.00     0.017 C 
HETATM   17  C23 UNL     1      -7.323  46.818 -22.735  1.00  0.00    -0.031 C 
HETATM   18  C24 UNL     1      -7.930  47.396 -21.429  1.00  0.00     0.016 C 
HETATM   19  C25 UNL     1      -6.072  47.697 -23.156  1.00  0.00     0.024 C 
HETATM   20  C26 UNL     1      -6.367  49.191 -23.436  1.00  0.00     0.010 C 
HETATM   21  C27 UNL     1      -5.133  50.052 -23.800  1.00  0.00     0.011 C 
HETATM   22  C28 UNL     1      -3.773  49.441 -23.399  1.00  0.00    -0.029 C 
HETATM   23  C29 UNL     1      -3.264  48.528 -24.560  1.00  0.00     0.016 C 
ENDROOT
BRANCH   1  24
HETATM   24  C6  UNL     1      -1.903  51.212 -24.194  1.00  0.00    -0.014 C 
HETATM   25  C7  UNL     1      -2.839  51.598 -25.344  1.00  0.00     0.010 C 
BRANCH  24  26
HETATM   26  C5  UNL     1      -1.133  52.467 -23.702  1.00  0.00     0.008 C 
BRANCH  26  27
HETATM   27  C4  UNL     1      -0.403  53.257 -24.794  1.00  0.00     0.028 C 
BRANCH  27  28
HETATM   28  C3  UNL     1       0.850  52.543 -25.223  1.00  0.00    -0.013 C 
HETATM   29  C2  UNL     1       1.189  52.159 -26.471  1.00  0.00     0.008 C 
HETATM   30  C1  UNL     1       0.352  52.329 -27.704  1.00  0.00     0.055 C 
BRANCH  29  31
HETATM   31  C30 UNL     1       2.505  51.484 -26.619  1.00  0.00     0.171 C 
HETATM   32  O2  UNL     1       2.932  50.559 -25.950  1.00  0.00    -0.646 OA
BRANCH  31  33
HETATM   33  O3  UNL     1       3.240  52.013 -27.611  1.00  0.00    -0.773 OA
HETATM   34  H46 UNL     1       4.064  51.483 -27.589  1.00  0.00     0.167 HD
ENDBRANCH  31  33
ENDBRANCH  29  31
ENDBRANCH  27  28
ENDBRANCH  26  27
ENDBRANCH  24  26
ENDBRANCH   1  24
TORSDOF 6
ENDMDL
MODEL 9
REMARK minimizedAffinity -8.73956108
REMARK  6 active torsions:
REMARK  status: ('A' for Active; 'I' for Inactive)
REMARK    1  A    between atoms: C2_2  and  C30_31 
REMARK    2  A    between atoms: C3_3  and  C4_4 
REMARK    3  A    between atoms: C4_4  and  C5_5 
REMARK    4  A    between atoms: C5_5  and  C6_6 
REMARK    5  A    between atoms: C6_6  and  C8_8 
REMARK    6  A    between atoms: C30_31  and  O3_33 
ROOT
HETATM    1  C8  UNL     1      -2.601  50.669 -22.630  1.00  0.00    -0.002 C 
HETATM    2  C9  UNL     1      -1.640  49.784 -21.782  1.00  0.00     0.007 C 
HETATM    3  C10 UNL     1      -2.414  48.509 -21.391  1.00  0.00     0.015 C 
HETATM    4  C11 UNL     1      -3.882  48.815 -21.747  1.00  0.00    -0.013 C 
HETATM    5  C12 UNL     1      -4.462  49.614 -20.534  1.00  0.00     0.021 C 
HETATM    6  C13 UNL     1      -4.828  47.637 -21.969  1.00  0.00    -0.070 C 
HETATM    7  C14 UNL     1      -4.720  46.494 -21.260  1.00  0.00    -0.022 C 
HETATM    8  C15 UNL     1      -5.669  45.331 -21.361  1.00  0.00     0.034 C 
HETATM    9  C16 UNL     1      -6.625  45.472 -22.556  1.00  0.00     0.013 C 
HETATM   10  C17 UNL     1      -7.642  44.304 -22.763  1.00  0.00     0.018 C 
HETATM   11  C18 UNL     1      -8.724  44.190 -21.685  1.00  0.00     0.023 C 
HETATM   12  C19 UNL     1      -6.893  42.956 -22.843  1.00  0.00     0.023 C 
HETATM   13  C20 UNL     1      -8.344  44.521 -24.118  1.00  0.00     0.135 C 
HETATM   14  O1  UNL     1      -8.997  43.629 -24.662  1.00  0.00    -0.297 OA
HETATM   15  C21 UNL     1      -8.191  45.875 -24.781  1.00  0.00     0.080 C 
HETATM   16  C22 UNL     1      -8.323  46.977 -23.740  1.00  0.00     0.017 C 
HETATM   17  C23 UNL     1      -7.221  46.932 -22.640  1.00  0.00    -0.031 C 
HETATM   18  C24 UNL     1      -7.870  47.423 -21.319  1.00  0.00     0.016 C 
HETATM   19  C25 UNL     1      -5.977  47.854 -22.979  1.00  0.00     0.024 C 
HETATM   20  C26 UNL     1      -6.293  49.356 -23.180  1.00  0.00     0.010 C 
HETATM   21  C27 UNL     1      -5.066  50.259 -23.464  1.00  0.00     0.011 C 
HETATM   22  C28 UNL     1      -3.705  49.649 -23.064  1.00  0.00    -0.029 C 
HETATM   23  C29 UNL     1      -3.152  48.812 -24.262  1.00  0.00     0.016 C 
ENDROOT
BRANCH   1  24
HETATM   24  C6  UNL     1      -1.850  51.494 -23.710  1.00  0.00    -0.014 C 
HETATM   25  C7  UNL     1      -2.754  52.522 -24.399  1.00  0.00     0.010 C 
BRANCH  24  26
HETATM   26  C5  UNL     1      -0.579  52.198 -23.163  1.00  0.00     0.008 C 
BRANCH  26  27
HETATM   27  C4  UNL     1       0.597  52.279 -24.142  1.00  0.00     0.028 C 
BRANCH  27  28
HETATM   28  C3  UNL     1       0.243  53.124 -25.336  1.00  0.00    -0.013 C 
HETATM   29  C2  UNL     1       0.269  52.761 -26.635  1.00  0.00     0.008 C 
HETATM   30  C1  UNL     1       0.704  51.430 -27.169  1.00  0.00     0.055 C 
BRANCH  29  31
HETATM   31  C30 UNL     1      -0.151  53.794 -27.617  1.00  0.00     0.171 C 
HETATM   32  O2  UNL     1      -0.212  54.997 -27.432  1.00  0.00    -0.646 OA
BRANCH  31  33
HETATM   33  O3  UNL     1      -0.489  53.262 -28.803  1.00  0.00    -0.773 OA
HETATM   34  H46 UNL     1      -0.743  54.044 -29.337  1.00  0.00     0.167 HD
ENDBRANCH  31  33
ENDBRANCH  29  31
ENDBRANCH  27  28
ENDBRANCH  26  27
ENDBRANCH  24  26
ENDBRANCH   1  24
TORSDOF 6
ENDMDL
