MODEL 1
REMARK minimizedAffinity -9.27792835
REMARK CNNscore 0.516994655
REMARK CNNaffinity 7.10356951
REMARK  7 active torsions:
REMARK  status: ('A' for Active; 'I' for Inactive)
REMARK    1  A    between atoms: C4_4  and  C5_5 
REMARK    2  A    between atoms: C15_15  and  C16_16 
REMARK    3  A    between atoms: C16_16  and  C18_18 
REMARK    4  A    between atoms: C18_18  and  C19_19 
REMARK    5  A    between atoms: C23_25  and  C24_26 
REMARK    6  A    between atoms: C27_29  and  O3_30 
REMARK    7  A    between atoms: C30_33  and  O4_34 
ROOT
HETATM    1  C5  UNL     1     -10.449   6.217  13.880  1.00  0.00     0.004 C 
HETATM    2  C6  UNL     1      -9.193   6.674  14.057  1.00  0.00    -0.075 C 
HETATM    3  C7  UNL     1      -8.793   7.878  14.894  1.00  0.00     0.034 C 
HETATM    4  C8  UNL     1      -7.694   7.547  15.912  1.00  0.00     0.005 C 
HETATM    5  C9  UNL     1      -6.492   6.828  15.276  1.00  0.00     0.010 C 
HETATM    6  C10 UNL     1      -6.918   5.599  14.452  1.00  0.00    -0.033 C 
HETATM    7  C11 UNL     1      -7.482   4.532  15.443  1.00  0.00     0.016 C 
HETATM    8  C12 UNL     1      -7.976   6.034  13.407  1.00  0.00     0.023 C 
HETATM    9  C13 UNL     1      -8.110   4.799  12.516  1.00  0.00     0.010 C 
HETATM   10  C14 UNL     1      -6.686   4.240  12.419  1.00  0.00     0.006 C 
HETATM   11  C15 UNL     1      -5.847   4.879  13.568  1.00  0.00    -0.002 C 
ENDROOT
BRANCH   1  12
HETATM   12  C4  UNL     1     -11.663   6.765  14.451  1.00  0.00     0.008 C 
HETATM   13  C3  UNL     1     -12.433   7.747  13.938  1.00  0.00    -0.048 C 
HETATM   14  C2  UNL     1     -13.643   8.192  14.640  1.00  0.00    -0.032 C 
HETATM   15  C26 UNL     1     -12.185   8.525  12.659  1.00  0.00     0.071 C 
HETATM   16  C1  UNL     1     -14.628   7.326  14.942  1.00  0.00     0.022 C 
HETATM   17  C30 UNL     1     -13.681   9.690  14.911  1.00  0.00     0.157 C 
HETATM   18  C28 UNL     1     -13.509  10.488  13.605  1.00  0.00     0.044 C 
HETATM   19  C27 UNL     1     -12.224  10.048  12.881  1.00  0.00     0.129 C 
HETATM   20  C29 UNL     1     -13.516  11.997  13.870  1.00  0.00     0.015 C 
BRANCH  17  21
HETATM   21  O4  UNL     1     -14.914  10.062  15.530  1.00  0.00    -0.390 OA
HETATM   22  H44 UNL     1     -14.892   9.676  16.422  1.00  0.00     0.210 HD
ENDBRANCH  17  21
BRANCH  19  23
HETATM   23  O3  UNL     1     -11.078  10.469  13.625  1.00  0.00    -0.395 OA
HETATM   24  H38 UNL     1     -10.290  10.072  13.215  1.00  0.00     0.210 HD
ENDBRANCH  19  23
ENDBRANCH   1  12
BRANCH  11  25
HETATM   25  C16 UNL     1      -4.599   5.622  12.994  1.00  0.00    -0.011 C 
HETATM   26  C17 UNL     1      -4.530   7.121  13.318  1.00  0.00     0.010 C 
BRANCH  25  27
HETATM   27  C18 UNL     1      -3.239   4.968  13.318  1.00  0.00     0.038 C 
BRANCH  27  28
HETATM   28  C19 UNL     1      -2.185   4.912  12.198  1.00  0.00     0.141 C 
HETATM   29  O1  UNL     1      -1.904   3.510  11.993  1.00  0.00    -0.311 OA
HETATM   30  C20 UNL     1      -0.605   3.328  11.649  1.00  0.00     0.289 C 
HETATM   31  O2  UNL     1      -0.107   2.281  11.282  1.00  0.00    -0.260 OA
HETATM   32  C21 UNL     1       0.085   4.626  11.817  1.00  0.00     0.014 C 
HETATM   33  C22 UNL     1       1.309   4.813  11.306  1.00  0.00     0.025 C 
HETATM   34  C23 UNL     1      -0.836   5.556  12.544  1.00  0.00     0.053 C 
BRANCH  34  35
HETATM   35  C24 UNL     1      -0.736   7.036  12.142  1.00  0.00     0.007 C 
HETATM   36  C25 UNL     1      -0.959   7.983  13.316  1.00  0.00     0.006 C 
ENDBRANCH  34  35
ENDBRANCH  27  28
ENDBRANCH  25  27
ENDBRANCH  11  25
TORSDOF 7
ENDMDL
MODEL 2
REMARK minimizedAffinity -9.33887959
REMARK CNNscore 0.489273161
REMARK CNNaffinity 6.82938385
REMARK  7 active torsions:
REMARK  status: ('A' for Active; 'I' for Inactive)
REMARK    1  A    between atoms: C4_4  and  C5_5 
REMARK    2  A    between atoms: C15_15  and  C16_16 
REMARK    3  A    between atoms: C16_16  and  C18_18 
REMARK    4  A    between atoms: C18_18  and  C19_19 
REMARK    5  A    between atoms: C23_25  and  C24_26 
REMARK    6  A    between atoms: C27_29  and  O3_30 
REMARK    7  A    between atoms: C30_33  and  O4_34 
ROOT
HETATM    1  C5  UNL     1     -10.561   6.585  13.892  1.00  0.00     0.004 C 
HETATM    2  C6  UNL     1      -9.267   6.944  14.017  1.00  0.00    -0.075 C 
HETATM    3  C7  UNL     1      -8.749   8.174  14.745  1.00  0.00     0.034 C 
HETATM    4  C8  UNL     1      -7.665   7.833  15.775  1.00  0.00     0.005 C 
HETATM    5  C9  UNL     1      -6.542   6.961  15.190  1.00  0.00     0.010 C 
HETATM    6  C10 UNL     1      -7.087   5.710  14.476  1.00  0.00    -0.033 C 
HETATM    7  C11 UNL     1      -7.724   4.782  15.560  1.00  0.00     0.016 C 
HETATM    8  C12 UNL     1      -8.122   6.147  13.410  1.00  0.00     0.023 C 
HETATM    9  C13 UNL     1      -8.379   4.860  12.627  1.00  0.00     0.010 C 
HETATM   10  C14 UNL     1      -7.010   4.172  12.563  1.00  0.00     0.006 C 
HETATM   11  C15 UNL     1      -6.098   4.828  13.645  1.00  0.00    -0.002 C 
ENDROOT
BRANCH   1  12
HETATM   12  C4  UNL     1     -11.712   7.284  14.427  1.00  0.00     0.008 C 
HETATM   13  C3  UNL     1     -11.713   8.446  15.113  1.00  0.00    -0.048 C 
HETATM   14  C2  UNL     1     -12.972   9.032  15.590  1.00  0.00    -0.032 C 
HETATM   15  C26 UNL     1     -10.504   9.272  15.508  1.00  0.00     0.071 C 
HETATM   16  C1  UNL     1     -13.969   9.323  14.734  1.00  0.00     0.022 C 
HETATM   17  C30 UNL     1     -12.989   9.321  17.085  1.00  0.00     0.157 C 
HETATM   18  C28 UNL     1     -11.807  10.225  17.481  1.00  0.00     0.044 C 
HETATM   19  C27 UNL     1     -10.481   9.599  17.013  1.00  0.00     0.129 C 
HETATM   20  C29 UNL     1     -11.797  10.499  18.989  1.00  0.00     0.015 C 
BRANCH  17  21
HETATM   21  O4  UNL     1     -14.212   9.954  17.465  1.00  0.00    -0.390 OA
HETATM   22  H44 UNL     1     -14.905   9.279  17.362  1.00  0.00     0.210 HD
ENDBRANCH  17  21
BRANCH  19  23
HETATM   23  O3  UNL     1     -10.204   8.419  17.771  1.00  0.00    -0.395 OA
HETATM   24  H38 UNL     1      -9.434   7.978  17.373  1.00  0.00     0.210 HD
ENDBRANCH  19  23
ENDBRANCH   1  12
BRANCH  11  25
HETATM   25  C16 UNL     1      -4.801   5.408  12.998  1.00  0.00    -0.011 C 
HETATM   26  C17 UNL     1      -4.522   6.885  13.313  1.00  0.00     0.010 C 
BRANCH  25  27
HETATM   27  C18 UNL     1      -3.519   4.584  13.242  1.00  0.00     0.038 C 
BRANCH  27  28
HETATM   28  C19 UNL     1      -2.410   4.651  12.178  1.00  0.00     0.141 C 
HETATM   29  O1  UNL     1      -2.031   3.281  11.919  1.00  0.00    -0.311 OA
HETATM   30  C20 UNL     1      -0.708   3.195  11.636  1.00  0.00     0.289 C 
HETATM   31  O2  UNL     1      -0.128   2.201  11.244  1.00  0.00    -0.260 OA
HETATM   32  C21 UNL     1      -0.110   4.522  11.905  1.00  0.00     0.014 C 
HETATM   33  C22 UNL     1       1.124   4.808  11.469  1.00  0.00     0.025 C 
HETATM   34  C23 UNL     1      -1.122   5.355  12.627  1.00  0.00     0.053 C 
BRANCH  34  35
HETATM   35  C24 UNL     1      -1.096   6.857  12.305  1.00  0.00     0.007 C 
HETATM   36  C25 UNL     1      -0.601   7.703  13.474  1.00  0.00     0.006 C 
ENDBRANCH  34  35
ENDBRANCH  27  28
ENDBRANCH  25  27
ENDBRANCH  11  25
TORSDOF 7
ENDMDL
MODEL 3
REMARK minimizedAffinity -9.86481762
REMARK CNNscore 0.454112768
REMARK CNNaffinity 6.81874418
REMARK  7 active torsions:
REMARK  status: ('A' for Active; 'I' for Inactive)
REMARK    1  A    between atoms: C4_4  and  C5_5 
REMARK    2  A    between atoms: C15_15  and  C16_16 
REMARK    3  A    between atoms: C16_16  and  C18_18 
REMARK    4  A    between atoms: C18_18  and  C19_19 
REMARK    5  A    between atoms: C23_25  and  C24_26 
REMARK    6  A    between atoms: C27_29  and  O3_30 
REMARK    7  A    between atoms: C30_33  and  O4_34 
ROOT
HETATM    1  C5  UNL     1      -4.696   5.794  13.406  1.00  0.00     0.004 C 
HETATM    2  C6  UNL     1      -3.960   6.906  13.203  1.00  0.00    -0.075 C 
HETATM    3  C7  UNL     1      -4.506   8.295  12.913  1.00  0.00     0.034 C 
HETATM    4  C8  UNL     1      -3.937   9.359  13.861  1.00  0.00     0.005 C 
HETATM    5  C9  UNL     1      -2.402   9.319  13.945  1.00  0.00     0.010 C 
HETATM    6  C10 UNL     1      -1.872   7.909  14.261  1.00  0.00    -0.033 C 
HETATM    7  C11 UNL     1      -2.313   7.548  15.715  1.00  0.00     0.016 C 
HETATM    8  C12 UNL     1      -2.440   6.911  13.220  1.00  0.00     0.023 C 
HETATM    9  C13 UNL     1      -1.646   5.634  13.496  1.00  0.00     0.010 C 
HETATM   10  C14 UNL     1      -0.235   6.127  13.838  1.00  0.00     0.006 C 
HETATM   11  C15 UNL     1      -0.332   7.647  14.174  1.00  0.00    -0.002 C 
ENDROOT
BRANCH   1  12
HETATM   12  C4  UNL     1      -6.142   5.695  13.400  1.00  0.00     0.008 C 
HETATM   13  C3  UNL     1      -7.023   6.619  13.837  1.00  0.00    -0.048 C 
HETATM   14  C2  UNL     1      -8.468   6.370  13.759  1.00  0.00    -0.032 C 
HETATM   15  C26 UNL     1      -6.700   7.961  14.466  1.00  0.00     0.071 C 
HETATM   16  C1  UNL     1      -9.061   6.092  12.584  1.00  0.00     0.022 C 
HETATM   17  C30 UNL     1      -9.191   6.523  15.091  1.00  0.00     0.157 C 
HETATM   18  C28 UNL     1      -8.931   7.914  15.698  1.00  0.00     0.044 C 
HETATM   19  C27 UNL     1      -7.417   8.168  15.813  1.00  0.00     0.129 C 
HETATM   20  C29 UNL     1      -9.630   8.069  17.053  1.00  0.00     0.015 C 
BRANCH  17  21
HETATM   21  O4  UNL     1     -10.598   6.337  14.928  1.00  0.00    -0.390 OA
HETATM   22  H44 UNL     1     -10.720   5.396  14.716  1.00  0.00     0.210 HD
ENDBRANCH  17  21
BRANCH  19  23
HETATM   23  O3  UNL     1      -6.853   7.312  16.810  1.00  0.00    -0.395 OA
HETATM   24  H38 UNL     1      -5.886   7.401  16.772  1.00  0.00     0.210 HD
ENDBRANCH  19  23
ENDBRANCH   1  12
BRANCH  11  25
HETATM   25  C16 UNL     1       0.607   8.480  13.246  1.00  0.00    -0.011 C 
HETATM   26  C17 UNL     1       1.491   9.506  13.968  1.00  0.00     0.010 C 
BRANCH  25  27
HETATM   27  C18 UNL     1       1.476   7.652  12.276  1.00  0.00     0.038 C 
BRANCH  27  28
HETATM   28  C19 UNL     1       1.718   8.219  10.867  1.00  0.00     0.141 C 
HETATM   29  O1  UNL     1       0.408   8.493  10.323  1.00  0.00    -0.311 OA
HETATM   30  C20 UNL     1       0.391   8.281   8.984  1.00  0.00     0.289 C 
HETATM   31  O2  UNL     1      -0.525   8.557   8.233  1.00  0.00    -0.260 OA
HETATM   32  C21 UNL     1       1.677   7.646   8.619  1.00  0.00     0.014 C 
HETATM   33  C22 UNL     1       2.048   7.560   7.335  1.00  0.00     0.025 C 
HETATM   34  C23 UNL     1       2.376   7.244   9.880  1.00  0.00     0.053 C 
BRANCH  34  35
HETATM   35  C24 UNL     1       3.910   7.341   9.847  1.00  0.00     0.007 C 
HETATM   36  C25 UNL     1       4.588   6.237  10.651  1.00  0.00     0.006 C 
ENDBRANCH  34  35
ENDBRANCH  27  28
ENDBRANCH  25  27
ENDBRANCH  11  25
TORSDOF 7
ENDMDL
MODEL 4
REMARK minimizedAffinity -8.9000845
REMARK CNNscore 0.441071153
REMARK CNNaffinity 7.00091314
REMARK  7 active torsions:
REMARK  status: ('A' for Active; 'I' for Inactive)
REMARK    1  A    between atoms: C4_4  and  C5_5 
REMARK    2  A    between atoms: C15_15  and  C16_16 
REMARK    3  A    between atoms: C16_16  and  C18_18 
REMARK    4  A    between atoms: C18_18  and  C19_19 
REMARK    5  A    between atoms: C23_25  and  C24_26 
REMARK    6  A    between atoms: C27_29  and  O3_30 
REMARK    7  A    between atoms: C30_33  and  O4_34 
ROOT
HETATM    1  C5  UNL     1     -10.236   6.344  13.849  1.00  0.00     0.004 C 
HETATM    2  C6  UNL     1      -8.980   6.687  14.202  1.00  0.00    -0.075 C 
HETATM    3  C7  UNL     1      -8.599   7.681  15.287  1.00  0.00     0.034 C 
HETATM    4  C8  UNL     1      -7.600   7.097  16.294  1.00  0.00     0.005 C 
HETATM    5  C9  UNL     1      -6.382   6.449  15.615  1.00  0.00     0.010 C 
HETATM    6  C10 UNL     1      -6.791   5.430  14.535  1.00  0.00    -0.033 C 
HETATM    7  C11 UNL     1      -7.476   4.223  15.253  1.00  0.00     0.016 C 
HETATM    8  C12 UNL     1      -7.743   6.117  13.525  1.00  0.00     0.023 C 
HETATM    9  C13 UNL     1      -7.857   5.089  12.400  1.00  0.00     0.010 C 
HETATM   10  C14 UNL     1      -6.453   4.480  12.295  1.00  0.00     0.006 C 
HETATM   11  C15 UNL     1      -5.683   4.836  13.604  1.00  0.00    -0.002 C 
ENDROOT
BRANCH   1  12
HETATM   12  C4  UNL     1     -11.468   6.839  14.431  1.00  0.00     0.008 C 
HETATM   13  C3  UNL     1     -12.250   7.831  13.958  1.00  0.00    -0.048 C 
HETATM   14  C2  UNL     1     -13.479   8.216  14.665  1.00  0.00    -0.032 C 
HETATM   15  C26 UNL     1     -12.002   8.679  12.725  1.00  0.00     0.071 C 
HETATM   16  C1  UNL     1     -14.450   7.317  14.907  1.00  0.00     0.022 C 
HETATM   17  C30 UNL     1     -13.549   9.697  15.013  1.00  0.00     0.157 C 
HETATM   18  C28 UNL     1     -13.376  10.564  13.752  1.00  0.00     0.044 C 
HETATM   19  C27 UNL     1     -12.073  10.188  13.025  1.00  0.00     0.129 C 
HETATM   20  C29 UNL     1     -13.417  12.058  14.095  1.00  0.00     0.015 C 
BRANCH  17  21
HETATM   21  O4  UNL     1     -14.798  10.013  15.632  1.00  0.00    -0.390 OA
HETATM   22  H44 UNL     1     -14.780   9.581  16.503  1.00  0.00     0.210 HD
ENDBRANCH  17  21
BRANCH  19  23
HETATM   23  O3  UNL     1     -10.945  10.591  13.806  1.00  0.00    -0.395 OA
HETATM   24  H38 UNL     1     -10.144  10.232  13.387  1.00  0.00     0.210 HD
ENDBRANCH  19  23
ENDBRANCH   1  12
BRANCH  11  25
HETATM   25  C16 UNL     1      -4.364   5.604  13.278  1.00  0.00    -0.011 C 
HETATM   26  C17 UNL     1      -4.484   7.135  13.288  1.00  0.00     0.010 C 
BRANCH  25  27
HETATM   27  C18 UNL     1      -3.135   5.184  14.114  1.00  0.00     0.038 C 
BRANCH  27  28
HETATM   28  C19 UNL     1      -1.750   5.286  13.453  1.00  0.00     0.141 C 
HETATM   29  O1  UNL     1      -1.164   6.507  13.954  1.00  0.00    -0.311 OA
HETATM   30  C20 UNL     1      -0.385   7.088  13.008  1.00  0.00     0.289 C 
HETATM   31  O2  UNL     1       0.344   8.047  13.178  1.00  0.00    -0.260 OA
HETATM   32  C21 UNL     1      -0.598   6.350  11.743  1.00  0.00     0.014 C 
HETATM   33  C22 UNL     1       0.230   6.532  10.706  1.00  0.00     0.025 C 
HETATM   34  C23 UNL     1      -1.770   5.436  11.925  1.00  0.00     0.053 C 
BRANCH  34  35
HETATM   35  C24 UNL     1      -1.690   4.099  11.172  1.00  0.00     0.007 C 
HETATM   36  C25 UNL     1      -0.615   3.171  11.729  1.00  0.00     0.006 C 
ENDBRANCH  34  35
ENDBRANCH  27  28
ENDBRANCH  25  27
ENDBRANCH  11  25
TORSDOF 7
ENDMDL
MODEL 5
REMARK minimizedAffinity -9.69343281
REMARK CNNscore 0.43511644
REMARK CNNaffinity 7.13909531
REMARK  7 active torsions:
REMARK  status: ('A' for Active; 'I' for Inactive)
REMARK    1  A    between atoms: C4_4  and  C5_5 
REMARK    2  A    between atoms: C15_15  and  C16_16 
REMARK    3  A    between atoms: C16_16  and  C18_18 
REMARK    4  A    between atoms: C18_18  and  C19_19 
REMARK    5  A    between atoms: C23_25  and  C24_26 
REMARK    6  A    between atoms: C27_29  and  O3_30 
REMARK    7  A    between atoms: C30_33  and  O4_34 
ROOT
HETATM    1  C5  UNL     1     -10.340   6.689  14.279  1.00  0.00     0.004 C 
HETATM    2  C6  UNL     1      -9.038   6.905  14.556  1.00  0.00    -0.075 C 
HETATM    3  C7  UNL     1      -8.497   7.847  15.619  1.00  0.00     0.034 C 
HETATM    4  C8  UNL     1      -7.501   7.159  16.562  1.00  0.00     0.005 C 
HETATM    5  C9  UNL     1      -6.395   6.403  15.807  1.00  0.00     0.010 C 
HETATM    6  C10 UNL     1      -6.964   5.439  14.751  1.00  0.00    -0.033 C 
HETATM    7  C11 UNL     1      -7.719   4.297  15.504  1.00  0.00     0.016 C 
HETATM    8  C12 UNL     1      -7.904   6.225  13.803  1.00  0.00     0.023 C 
HETATM    9  C13 UNL     1      -8.184   5.223  12.683  1.00  0.00     0.010 C 
HETATM   10  C14 UNL     1      -6.856   4.483  12.490  1.00  0.00     0.006 C 
HETATM   11  C15 UNL     1      -5.977   4.749  13.752  1.00  0.00    -0.002 C 
ENDROOT
BRANCH   1  12
HETATM   12  C4  UNL     1     -11.480   7.294  14.936  1.00  0.00     0.008 C 
HETATM   13  C3  UNL     1     -12.550   7.867  14.346  1.00  0.00    -0.048 C 
HETATM   14  C2  UNL     1     -13.635   8.437  15.155  1.00  0.00    -0.032 C 
HETATM   15  C26 UNL     1     -12.788   8.036  12.857  1.00  0.00     0.071 C 
HETATM   16  C1  UNL     1     -14.300   7.686  16.052  1.00  0.00     0.022 C 
HETATM   17  C30 UNL     1     -13.948   9.891  14.827  1.00  0.00     0.157 C 
HETATM   18  C28 UNL     1     -14.268  10.058  13.330  1.00  0.00     0.044 C 
HETATM   19  C27 UNL     1     -13.120   9.491  12.476  1.00  0.00     0.129 C 
HETATM   20  C29 UNL     1     -14.557  11.522  12.983  1.00  0.00     0.015 C 
BRANCH  17  21
HETATM   21  O4  UNL     1     -15.056  10.358  15.599  1.00  0.00    -0.390 OA
HETATM   22  H44 UNL     1     -14.741  10.400  16.518  1.00  0.00     0.210 HD
ENDBRANCH  17  21
BRANCH  19  23
HETATM   23  O3  UNL     1     -11.959  10.315  12.613  1.00  0.00    -0.395 OA
HETATM   24  H38 UNL     1     -11.218   9.868  12.168  1.00  0.00     0.210 HD
ENDBRANCH  19  23
ENDBRANCH   1  12
BRANCH  11  25
HETATM   25  C16 UNL     1      -4.611   5.390  13.350  1.00  0.00    -0.011 C 
HETATM   26  C17 UNL     1      -3.576   5.475  14.480  1.00  0.00     0.010 C 
BRANCH  25  27
HETATM   27  C18 UNL     1      -3.947   4.787  12.094  1.00  0.00     0.038 C 
BRANCH  27  28
HETATM   28  C19 UNL     1      -2.925   3.655  12.296  1.00  0.00     0.141 C 
HETATM   29  O1  UNL     1      -1.629   4.250  12.069  1.00  0.00    -0.311 OA
HETATM   30  C20 UNL     1      -0.783   3.355  11.502  1.00  0.00     0.289 C 
HETATM   31  O2  UNL     1       0.408   3.518  11.320  1.00  0.00    -0.260 OA
HETATM   32  C21 UNL     1      -1.579   2.160  11.141  1.00  0.00     0.014 C 
HETATM   33  C22 UNL     1      -0.968   1.017  10.805  1.00  0.00     0.025 C 
HETATM   34  C23 UNL     1      -3.029   2.500  11.290  1.00  0.00     0.053 C 
BRANCH  34  35
HETATM   35  C24 UNL     1      -3.934   1.350  11.761  1.00  0.00     0.007 C 
HETATM   36  C25 UNL     1      -5.377   1.504  11.292  1.00  0.00     0.006 C 
ENDBRANCH  34  35
ENDBRANCH  27  28
ENDBRANCH  25  27
ENDBRANCH  11  25
TORSDOF 7
ENDMDL
MODEL 6
REMARK minimizedAffinity -9.26661015
REMARK CNNscore 0.427024871
REMARK CNNaffinity 6.93500948
REMARK  7 active torsions:
REMARK  status: ('A' for Active; 'I' for Inactive)
REMARK    1  A    between atoms: C4_4  and  C5_5 
REMARK    2  A    between atoms: C15_15  and  C16_16 
REMARK    3  A    between atoms: C16_16  and  C18_18 
REMARK    4  A    between atoms: C18_18  and  C19_19 
REMARK    5  A    between atoms: C23_25  and  C24_26 
REMARK    6  A    between atoms: C27_29  and  O3_30 
REMARK    7  A    between atoms: C30_33  and  O4_34 
ROOT
HETATM    1  C5  UNL     1      -2.529   6.717  14.303  1.00  0.00     0.004 C 
HETATM    2  C6  UNL     1      -1.403   6.440  13.614  1.00  0.00    -0.075 C 
HETATM    3  C7  UNL     1      -1.147   5.187  12.791  1.00  0.00     0.034 C 
HETATM    4  C8  UNL     1      -0.691   5.507  11.362  1.00  0.00     0.005 C 
HETATM    5  C9  UNL     1       0.478   6.506  11.320  1.00  0.00     0.010 C 
HETATM    6  C10 UNL     1       0.189   7.776  12.141  1.00  0.00    -0.033 C 
HETATM    7  C11 UNL     1      -0.964   8.553  11.428  1.00  0.00     0.016 C 
HETATM    8  C12 UNL     1      -0.198   7.367  13.585  1.00  0.00     0.023 C 
HETATM    9  C13 UNL     1      -0.204   8.701  14.332  1.00  0.00     0.010 C 
HETATM   10  C14 UNL     1       0.964   9.486  13.725  1.00  0.00     0.006 C 
HETATM   11  C15 UNL     1       1.348   8.798  12.378  1.00  0.00    -0.002 C 
ENDROOT
BRANCH   1  12
HETATM   12  C4  UNL     1      -3.717   5.893  14.393  1.00  0.00     0.008 C 
HETATM   13  C3  UNL     1      -5.000   6.301  14.298  1.00  0.00    -0.048 C 
HETATM   14  C2  UNL     1      -6.102   5.337  14.407  1.00  0.00    -0.032 C 
HETATM   15  C26 UNL     1      -5.492   7.723  14.107  1.00  0.00     0.071 C 
HETATM   16  C1  UNL     1      -6.184   4.281  13.578  1.00  0.00     0.022 C 
HETATM   17  C30 UNL     1      -7.128   5.694  15.475  1.00  0.00     0.157 C 
HETATM   18  C28 UNL     1      -7.691   7.108  15.241  1.00  0.00     0.044 C 
HETATM   19  C27 UNL     1      -6.542   8.129  15.159  1.00  0.00     0.129 C 
HETATM   20  C29 UNL     1      -8.704   7.490  16.326  1.00  0.00     0.015 C 
BRANCH  17  21
HETATM   21  O4  UNL     1      -8.205   4.754  15.477  1.00  0.00    -0.390 OA
HETATM   22  H44 UNL     1      -7.829   3.919  15.801  1.00  0.00     0.210 HD
ENDBRANCH  17  21
BRANCH  19  23
HETATM   23  O3  UNL     1      -5.926   8.274  16.441  1.00  0.00    -0.395 OA
HETATM   24  H38 UNL     1      -5.131   8.824  16.333  1.00  0.00     0.210 HD
ENDBRANCH  19  23
ENDBRANCH   1  12
BRANCH  11  25
HETATM   25  C16 UNL     1       2.851   8.373  12.383  1.00  0.00    -0.011 C 
HETATM   26  C17 UNL     1       3.184   7.178  13.288  1.00  0.00     0.010 C 
BRANCH  25  27
HETATM   27  C18 UNL     1       3.474   8.147  10.990  1.00  0.00     0.038 C 
BRANCH  27  28
HETATM   28  C19 UNL     1       2.727   7.225  10.010  1.00  0.00     0.141 C 
HETATM   29  O1  UNL     1       3.215   5.891  10.278  1.00  0.00    -0.311 OA
HETATM   30  C20 UNL     1       3.254   5.158   9.137  1.00  0.00     0.289 C 
HETATM   31  O2  UNL     1       3.487   3.967   9.066  1.00  0.00    -0.260 OA
HETATM   32  C21 UNL     1       2.974   6.076   8.010  1.00  0.00     0.014 C 
HETATM   33  C22 UNL     1       2.691   5.588   6.796  1.00  0.00     0.025 C 
HETATM   34  C23 UNL     1       3.022   7.480   8.526  1.00  0.00     0.053 C 
BRANCH  34  35
HETATM   35  C24 UNL     1       2.045   8.463   7.863  1.00  0.00     0.007 C 
HETATM   36  C25 UNL     1       0.589   8.180   8.220  1.00  0.00     0.006 C 
ENDBRANCH  34  35
ENDBRANCH  27  28
ENDBRANCH  25  27
ENDBRANCH  11  25
TORSDOF 7
ENDMDL
MODEL 7
REMARK minimizedAffinity -9.7336998
REMARK CNNscore 0.42287001
REMARK CNNaffinity 6.85360479
REMARK  7 active torsions:
REMARK  status: ('A' for Active; 'I' for Inactive)
REMARK    1  A    between atoms: C4_4  and  C5_5 
REMARK    2  A    between atoms: C15_15  and  C16_16 
REMARK    3  A    between atoms: C16_16  and  C18_18 
REMARK    4  A    between atoms: C18_18  and  C19_19 
REMARK    5  A    between atoms: C23_25  and  C24_26 
REMARK    6  A    between atoms: C27_29  and  O3_30 
REMARK    7  A    between atoms: C30_33  and  O4_34 
ROOT
HETATM    1  C5  UNL     1      -3.315   6.554  13.011  1.00  0.00     0.004 C 
HETATM    2  C6  UNL     1      -2.012   6.463  13.346  1.00  0.00    -0.075 C 
HETATM    3  C7  UNL     1      -1.417   5.495  14.357  1.00  0.00     0.034 C 
HETATM    4  C8  UNL     1      -0.244   4.692  13.781  1.00  0.00     0.005 C 
HETATM    5  C9  UNL     1       0.811   5.584  13.106  1.00  0.00     0.010 C 
HETATM    6  C10 UNL     1       0.191   6.540  12.070  1.00  0.00    -0.033 C 
HETATM    7  C11 UNL     1      -0.349   5.675  10.886  1.00  0.00     0.016 C 
HETATM    8  C12 UNL     1      -0.937   7.357  12.749  1.00  0.00     0.023 C 
HETATM    9  C13 UNL     1      -1.277   8.416  11.700  1.00  0.00     0.010 C 
HETATM   10  C14 UNL     1       0.074   8.782  11.074  1.00  0.00     0.006 C 
HETATM   11  C15 UNL     1       1.089   7.658  11.446  1.00  0.00    -0.002 C 
ENDROOT
BRANCH   1  12
HETATM   12  C4  UNL     1      -4.405   5.752  13.530  1.00  0.00     0.008 C 
HETATM   13  C3  UNL     1      -5.653   6.170  13.827  1.00  0.00    -0.048 C 
HETATM   14  C2  UNL     1      -6.653   5.227  14.346  1.00  0.00    -0.032 C 
HETATM   15  C26 UNL     1      -6.192   7.583  13.714  1.00  0.00     0.071 C 
HETATM   16  C1  UNL     1      -6.988   4.123  13.656  1.00  0.00     0.022 C 
HETATM   17  C30 UNL     1      -7.285   5.664  15.662  1.00  0.00     0.157 C 
HETATM   18  C28 UNL     1      -7.904   7.067  15.532  1.00  0.00     0.044 C 
HETATM   19  C27 UNL     1      -6.852   8.067  15.020  1.00  0.00     0.129 C 
HETATM   20  C29 UNL     1      -8.518   7.529  16.858  1.00  0.00     0.015 C 
BRANCH  17  21
HETATM   21  O4  UNL     1      -8.295   4.740  16.069  1.00  0.00    -0.390 OA
HETATM   22  H44 UNL     1      -7.828   3.921  16.308  1.00  0.00     0.210 HD
ENDBRANCH  17  21
BRANCH  19  23
HETATM   23  O3  UNL     1      -5.858   8.285  16.024  1.00  0.00    -0.395 OA
HETATM   24  H38 UNL     1      -5.144   8.817  15.632  1.00  0.00     0.210 HD
ENDBRANCH  19  23
ENDBRANCH   1  12
BRANCH  11  25
HETATM   25  C16 UNL     1       2.324   8.253  12.193  1.00  0.00    -0.011 C 
HETATM   26  C17 UNL     1       2.212   8.269  13.724  1.00  0.00     0.010 C 
BRANCH  25  27
HETATM   27  C18 UNL     1       3.688   7.654  11.788  1.00  0.00     0.038 C 
BRANCH  27  28
HETATM   28  C19 UNL     1       3.898   7.282  10.310  1.00  0.00     0.141 C 
HETATM   29  O1  UNL     1       3.849   8.528   9.581  1.00  0.00    -0.311 OA
HETATM   30  C20 UNL     1       3.298   8.344   8.356  1.00  0.00     0.289 C 
HETATM   31  O2  UNL     1       3.248   9.172   7.467  1.00  0.00    -0.260 OA
HETATM   32  C21 UNL     1       2.764   6.964   8.312  1.00  0.00     0.014 C 
HETATM   33  C22 UNL     1       2.399   6.417   7.145  1.00  0.00     0.025 C 
HETATM   34  C23 UNL     1       2.797   6.404   9.700  1.00  0.00     0.053 C 
BRANCH  34  35
HETATM   35  C24 UNL     1       3.082   4.897   9.800  1.00  0.00     0.007 C 
HETATM   36  C25 UNL     1       4.514   4.540   9.414  1.00  0.00     0.006 C 
ENDBRANCH  34  35
ENDBRANCH  27  28
ENDBRANCH  25  27
ENDBRANCH  11  25
TORSDOF 7
ENDMDL
MODEL 8
REMARK minimizedAffinity -7.91144896
REMARK CNNscore 0.407450169
REMARK CNNaffinity 6.82459688
REMARK  7 active torsions:
REMARK  status: ('A' for Active; 'I' for Inactive)
REMARK    1  A    between atoms: C4_4  and  C5_5 
REMARK    2  A    between atoms: C15_15  and  C16_16 
REMARK    3  A    between atoms: C16_16  and  C18_18 
REMARK    4  A    between atoms: C18_18  and  C19_19 
REMARK    5  A    between atoms: C23_25  and  C24_26 
REMARK    6  A    between atoms: C27_29  and  O3_30 
REMARK    7  A    between atoms: C30_33  and  O4_34 
ROOT
HETATM    1  C5  UNL     1     -10.209   6.525  13.585  1.00  0.00     0.004 C 
HETATM    2  C6  UNL     1      -9.175   6.984  14.319  1.00  0.00    -0.075 C 
HETATM    3  C7  UNL     1      -9.277   7.913  15.518  1.00  0.00     0.034 C 
HETATM    4  C8  UNL     1      -8.545   7.364  16.750  1.00  0.00     0.005 C 
HETATM    5  C9  UNL     1      -7.102   6.934  16.441  1.00  0.00     0.010 C 
HETATM    6  C10 UNL     1      -7.024   5.976  15.238  1.00  0.00    -0.033 C 
HETATM    7  C11 UNL     1      -7.710   4.635  15.651  1.00  0.00     0.016 C 
HETATM    8  C12 UNL     1      -7.725   6.633  14.022  1.00  0.00     0.023 C 
HETATM    9  C13 UNL     1      -7.354   5.706  12.865  1.00  0.00     0.010 C 
HETATM   10  C14 UNL     1      -5.910   5.284  13.161  1.00  0.00     0.006 C 
HETATM   11  C15 UNL     1      -5.618   5.608  14.658  1.00  0.00    -0.002 C 
ENDROOT
BRANCH   1  12
HETATM   12  C4  UNL     1     -11.615   6.811  13.789  1.00  0.00     0.008 C 
HETATM   13  C3  UNL     1     -12.333   7.807  13.229  1.00  0.00    -0.048 C 
HETATM   14  C2  UNL     1     -13.760   7.964  13.536  1.00  0.00    -0.032 C 
HETATM   15  C26 UNL     1     -11.824   8.876  12.281  1.00  0.00     0.071 C 
HETATM   16  C1  UNL     1     -14.631   6.963  13.313  1.00  0.00     0.022 C 
HETATM   17  C30 UNL     1     -14.131   9.350  14.046  1.00  0.00     0.157 C 
HETATM   18  C28 UNL     1     -13.687  10.437  13.049  1.00  0.00     0.044 C 
HETATM   19  C27 UNL     1     -12.184  10.298  12.749  1.00  0.00     0.129 C 
HETATM   20  C29 UNL     1     -14.029  11.838  13.565  1.00  0.00     0.015 C 
BRANCH  17  21
HETATM   21  O4  UNL     1     -15.541   9.453  14.255  1.00  0.00    -0.390 OA
HETATM   22  H44 UNL     1     -15.741   8.877  15.012  1.00  0.00     0.210 HD
ENDBRANCH  17  21
BRANCH  19  23
HETATM   23  O3  UNL     1     -11.421  10.645  13.908  1.00  0.00    -0.395 OA
HETATM   24  H38 UNL     1     -10.489  10.428  13.732  1.00  0.00     0.210 HD
ENDBRANCH  19  23
ENDBRANCH   1  12
BRANCH  11  25
HETATM   25  C16 UNL     1      -4.386   6.558  14.789  1.00  0.00    -0.011 C 
HETATM   26  C17 UNL     1      -3.346   6.132  15.834  1.00  0.00     0.010 C 
BRANCH  25  27
HETATM   27  C18 UNL     1      -3.669   6.890  13.463  1.00  0.00     0.038 C 
BRANCH  27  28
HETATM   28  C19 UNL     1      -2.371   7.714  13.535  1.00  0.00     0.141 C 
HETATM   29  O1  UNL     1      -1.298   6.779  13.287  1.00  0.00    -0.311 OA
HETATM   30  C20 UNL     1      -0.194   7.117  13.997  1.00  0.00     0.289 C 
HETATM   31  O2  UNL     1       0.904   6.605  13.892  1.00  0.00    -0.260 OA
HETATM   32  C21 UNL     1      -0.578   8.207  14.922  1.00  0.00     0.014 C 
HETATM   33  C22 UNL     1       0.362   8.917  15.559  1.00  0.00     0.025 C 
HETATM   34  C23 UNL     1      -2.070   8.329  14.909  1.00  0.00     0.053 C 
BRANCH  34  35
HETATM   35  C24 UNL     1      -2.620   9.754  15.081  1.00  0.00     0.007 C 
HETATM   36  C25 UNL     1      -1.934  10.766  14.168  1.00  0.00     0.006 C 
ENDBRANCH  34  35
ENDBRANCH  27  28
ENDBRANCH  25  27
ENDBRANCH  11  25
TORSDOF 7
ENDMDL
MODEL 9
REMARK minimizedAffinity -9.32452869
REMARK CNNscore 0.401072294
REMARK CNNaffinity 6.72373724
REMARK  7 active torsions:
REMARK  status: ('A' for Active; 'I' for Inactive)
REMARK    1  A    between atoms: C4_4  and  C5_5 
REMARK    2  A    between atoms: C15_15  and  C16_16 
REMARK    3  A    between atoms: C16_16  and  C18_18 
REMARK    4  A    between atoms: C18_18  and  C19_19 
REMARK    5  A    between atoms: C23_25  and  C24_26 
REMARK    6  A    between atoms: C27_29  and  O3_30 
REMARK    7  A    between atoms: C30_33  and  O4_34 
ROOT
HETATM    1  C5  UNL     1      -0.967   5.513  13.375  1.00  0.00     0.004 C 
HETATM    2  C6  UNL     1      -0.219   6.211  12.496  1.00  0.00    -0.075 C 
HETATM    3  C7  UNL     1      -0.555   6.448  11.032  1.00  0.00     0.034 C 
HETATM    4  C8  UNL     1      -0.502   7.934  10.652  1.00  0.00     0.005 C 
HETATM    5  C9  UNL     1       0.806   8.613  11.089  1.00  0.00     0.010 C 
HETATM    6  C10 UNL     1       1.115   8.378  12.579  1.00  0.00    -0.033 C 
HETATM    7  C11 UNL     1       0.032   9.131  13.415  1.00  0.00     0.016 C 
HETATM    8  C12 UNL     1       1.109   6.855  12.863  1.00  0.00     0.023 C 
HETATM    9  C13 UNL     1       1.670   6.764  14.281  1.00  0.00     0.010 C 
HETATM   10  C14 UNL     1       2.748   7.852  14.337  1.00  0.00     0.006 C 
HETATM   11  C15 UNL     1       2.509   8.819  13.137  1.00  0.00    -0.002 C 
ENDROOT
BRANCH   1  12
HETATM   12  C4  UNL     1      -2.235   4.862  13.114  1.00  0.00     0.008 C 
HETATM   13  C3  UNL     1      -3.431   5.457  12.920  1.00  0.00    -0.048 C 
HETATM   14  C2  UNL     1      -4.632   4.653  12.660  1.00  0.00    -0.032 C 
HETATM   15  C26 UNL     1      -3.727   6.944  12.963  1.00  0.00     0.071 C 
HETATM   16  C1  UNL     1      -4.683   3.797  11.623  1.00  0.00     0.022 C 
HETATM   17  C30 UNL     1      -5.783   4.941  13.616  1.00  0.00     0.157 C 
HETATM   18  C28 UNL     1      -6.141   6.438  13.605  1.00  0.00     0.044 C 
HETATM   19  C27 UNL     1      -4.893   7.285  13.910  1.00  0.00     0.129 C 
HETATM   20  C29 UNL     1      -7.279   6.744  14.585  1.00  0.00     0.015 C 
BRANCH  17  21
HETATM   21  O4  UNL     1      -6.938   4.179  13.261  1.00  0.00    -0.390 OA
HETATM   22  H44 UNL     1      -6.716   3.252  13.454  1.00  0.00     0.210 HD
ENDBRANCH  17  21
BRANCH  19  23
HETATM   23  O3  UNL     1      -4.495   7.095  15.270  1.00  0.00    -0.395 OA
HETATM   24  H38 UNL     1      -3.639   7.538  15.399  1.00  0.00     0.210 HD
ENDBRANCH  19  23
ENDBRANCH   1  12
BRANCH  11  25
HETATM   25  C16 UNL     1       3.780   8.908  12.235  1.00  0.00    -0.011 C 
HETATM   26  C17 UNL     1       4.913   9.780  12.794  1.00  0.00     0.010 C 
BRANCH  25  27
HETATM   27  C18 UNL     1       4.359   7.551  11.779  1.00  0.00     0.038 C 
BRANCH  27  28
HETATM   28  C19 UNL     1       4.261   7.195  10.286  1.00  0.00     0.141 C 
HETATM   29  O1  UNL     1       4.225   8.457   9.583  1.00  0.00    -0.311 OA
HETATM   30  C20 UNL     1       3.449   8.366   8.475  1.00  0.00     0.289 C 
HETATM   31  O2  UNL     1       3.338   9.216   7.613  1.00  0.00    -0.260 OA
HETATM   32  C21 UNL     1       2.762   7.055   8.520  1.00  0.00     0.014 C 
HETATM   33  C22 UNL     1       2.137   6.581   7.435  1.00  0.00     0.025 C 
HETATM   34  C23 UNL     1       2.976   6.461   9.877  1.00  0.00     0.053 C 
BRANCH  34  35
HETATM   35  C24 UNL     1       3.101   4.930   9.918  1.00  0.00     0.007 C 
HETATM   36  C25 UNL     1       4.020   4.383   8.829  1.00  0.00     0.006 C 
ENDBRANCH  34  35
ENDBRANCH  27  28
ENDBRANCH  25  27
ENDBRANCH  11  25
TORSDOF 7
ENDMDL
