MODEL 1
REMARK minimizedAffinity -9.4188118
REMARK CNNscore 0.580496669
REMARK CNNaffinity 7.3864646
REMARK  11 active torsions:
REMARK  status: ('A' for Active; 'I' for Inactive)
REMARK    1  A    between atoms: C2_2  and  C4_4 
REMARK    2  A    between atoms: C5_5  and  C6_6 
REMARK    3  A    between atoms: C6_6  and  C7_7 
REMARK    4  A    between atoms: C7_7  and  C9_9 
REMARK    5  A    between atoms: C27_28  and  O2_29 
REMARK    6  A    between atoms: O2_29  and  C28_30 
REMARK    7  A    between atoms: C29_32  and  C30_33 
REMARK    8  A    between atoms: C30_33  and  O4_34 
REMARK    9  A    between atoms: C31_35  and  O5_36 
REMARK   10  A    between atoms: C32_37  and  O6_38 
REMARK   11  A    between atoms: C33_39  and  O7_40 
ROOT
HETATM    1  C9  UNL     1      -2.561   6.163  12.819  1.00  0.00    -0.002 C 
HETATM    2  C10 UNL     1      -3.516   5.617  13.928  1.00  0.00     0.006 C 
HETATM    3  C11 UNL     1      -3.748   6.755  14.946  1.00  0.00     0.011 C 
HETATM    4  C12 UNL     1      -3.240   8.016  14.234  1.00  0.00    -0.029 C 
HETATM    5  C13 UNL     1      -4.403   8.430  13.242  1.00  0.00     0.016 C 
HETATM    6  C14 UNL     1      -2.976   9.302  15.091  1.00  0.00     0.028 C 
HETATM    7  C15 UNL     1      -3.188   9.288  16.588  1.00  0.00    -0.021 C 
HETATM    8  C16 UNL     1      -2.730  10.318  17.328  1.00  0.00     0.008 C 
HETATM    9  C17 UNL     1      -1.839  11.402  16.714  1.00  0.00     0.092 C 
HETATM   10  O1  UNL     1      -2.672  12.147  15.789  1.00  0.00    -0.374 OA
HETATM   11  C18 UNL     1      -2.397  11.655  14.454  1.00  0.00     0.179 C 
HETATM   12  C19 UNL     1      -1.779  10.234  14.633  1.00  0.00    -0.004 C 
HETATM   13  C20 UNL     1      -0.991   9.812  13.366  1.00  0.00     0.014 C 
HETATM   14  C21 UNL     1      -1.458   8.570  12.579  1.00  0.00     0.011 C 
HETATM   15  C22 UNL     1      -1.974   7.453  13.493  1.00  0.00    -0.032 C 
HETATM   16  C23 UNL     1      -0.820   7.002  14.420  1.00  0.00     0.016 C 
HETATM   17  C24 UNL     1      -0.840  10.669  15.804  1.00  0.00     0.036 C 
HETATM   18  C25 UNL     1       0.014   9.677  16.610  1.00  0.00     0.011 C 
HETATM   19  C26 UNL     1       0.393  10.233  17.993  1.00  0.00     0.033 C 
HETATM   20  C27 UNL     1       0.342  11.763  18.054  1.00  0.00     0.136 C 
HETATM   21  C34 UNL     1      -1.077  12.354  17.709  1.00  0.00     0.014 C 
HETATM   22  C35 UNL     1      -1.905  12.638  18.986  1.00  0.00     0.021 C 
HETATM   23  C36 UNL     1      -0.844  13.744  17.054  1.00  0.00     0.021 C 
ENDROOT
BRANCH  20  24
HETATM   24  O2  UNL     1       0.743  12.166  19.366  1.00  0.00    -0.352 OA
BRANCH  24  25
HETATM   25  C28 UNL     1       1.966  11.561  19.804  1.00  0.00     0.292 C 
HETATM   26  O3  UNL     1       1.686  10.582  20.806  1.00  0.00    -0.348 OA
HETATM   27  C29 UNL     1       2.850   9.797  21.146  1.00  0.00     0.179 C 
HETATM   28  C31 UNL     1       4.129  10.658  21.255  1.00  0.00     0.180 C 
HETATM   29  C32 UNL     1       3.768  12.129  21.504  1.00  0.00     0.183 C 
HETATM   30  C33 UNL     1       2.870  12.673  20.381  1.00  0.00     0.204 C 
BRANCH  27  31
HETATM   31  C30 UNL     1       2.541   9.080  22.470  1.00  0.00     0.198 C 
BRANCH  31  32
HETATM   32  O4  UNL     1       1.806   7.876  22.238  1.00  0.00    -0.398 OA
HETATM   33  H44 UNL     1       1.918   7.319  23.034  1.00  0.00     0.209 HD
ENDBRANCH  31  32
ENDBRANCH  27  31
BRANCH  28  34
HETATM   34  O5  UNL     1       4.855  10.550  20.014  1.00  0.00    -0.390 OA
HETATM   35  H46 UNL     1       5.307  11.409  19.876  1.00  0.00     0.210 HD
ENDBRANCH  28  34
BRANCH  29  36
HETATM   36  O6  UNL     1       4.966  12.932  21.564  1.00  0.00    -0.390 OA
HETATM   37  H48 UNL     1       5.363  12.767  22.440  1.00  0.00     0.210 HD
ENDBRANCH  29  36
BRANCH  30  38
HETATM   38  O7  UNL     1       3.693  13.241  19.341  1.00  0.00    -0.388 OA
HETATM   39  H50 UNL     1       4.376  13.760  19.813  1.00  0.00     0.210 HD
ENDBRANCH  30  38
ENDBRANCH  24  25
ENDBRANCH  20  24
BRANCH   1  40
HETATM   40  C7  UNL     1      -1.608   5.053  12.281  1.00  0.00    -0.010 C 
HETATM   41  C8  UNL     1      -0.315   5.628  11.690  1.00  0.00     0.010 C 
BRANCH  40  42
HETATM   42  C6  UNL     1      -2.281   4.122  11.235  1.00  0.00     0.031 C 
BRANCH  42  43
HETATM   43  C5  UNL     1      -3.432   3.304  11.759  1.00  0.00    -0.026 C 
HETATM   44  C4  UNL     1      -4.661   3.323  11.220  1.00  0.00     0.002 C 
BRANCH  44  45
HETATM   45  C2  UNL     1      -5.809   2.549  11.675  1.00  0.00    -0.072 C 
HETATM   46  C1  UNL     1      -5.972   1.285  11.252  1.00  0.00     0.018 C 
HETATM   47  C3  UNL     1      -6.800   3.179  12.617  1.00  0.00     0.047 C 
ENDBRANCH  44  45
ENDBRANCH  42  43
ENDBRANCH  40  42
ENDBRANCH   1  40
TORSDOF 11
ENDMDL
MODEL 2
REMARK minimizedAffinity -9.06857014
REMARK CNNscore 0.496665061
REMARK CNNaffinity 7.04657745
REMARK  11 active torsions:
REMARK  status: ('A' for Active; 'I' for Inactive)
REMARK    1  A    between atoms: C2_2  and  C4_4 
REMARK    2  A    between atoms: C5_5  and  C6_6 
REMARK    3  A    between atoms: C6_6  and  C7_7 
REMARK    4  A    between atoms: C7_7  and  C9_9 
REMARK    5  A    between atoms: C27_28  and  O2_29 
REMARK    6  A    between atoms: O2_29  and  C28_30 
REMARK    7  A    between atoms: C29_32  and  C30_33 
REMARK    8  A    between atoms: C30_33  and  O4_34 
REMARK    9  A    between atoms: C31_35  and  O5_36 
REMARK   10  A    between atoms: C32_37  and  O6_38 
REMARK   11  A    between atoms: C33_39  and  O7_40 
ROOT
HETATM    1  C9  UNL     1      -1.012   5.882  11.951  1.00  0.00    -0.002 C 
HETATM    2  C10 UNL     1      -1.449   4.827  13.017  1.00  0.00     0.006 C 
HETATM    3  C11 UNL     1      -2.012   5.597  14.232  1.00  0.00     0.011 C 
HETATM    4  C12 UNL     1      -2.231   7.025  13.713  1.00  0.00    -0.029 C 
HETATM    5  C13 UNL     1      -3.589   6.968  12.899  1.00  0.00     0.016 C 
HETATM    6  C14 UNL     1      -2.446   8.173  14.759  1.00  0.00     0.028 C 
HETATM    7  C15 UNL     1      -2.407   7.884  16.242  1.00  0.00    -0.021 C 
HETATM    8  C16 UNL     1      -2.354   8.911  17.113  1.00  0.00     0.008 C 
HETATM    9  C17 UNL     1      -2.141  10.350  16.631  1.00  0.00     0.092 C 
HETATM   10  O1  UNL     1      -3.344  10.728  15.916  1.00  0.00    -0.374 OA
HETATM   11  C18 UNL     1      -3.078  10.584  14.497  1.00  0.00     0.179 C 
HETATM   12  C19 UNL     1      -1.872   9.601  14.380  1.00  0.00    -0.004 C 
HETATM   13  C20 UNL     1      -1.174   9.748  13.003  1.00  0.00     0.014 C 
HETATM   14  C21 UNL     1      -1.148   8.536  12.050  1.00  0.00     0.011 C 
HETATM   15  C22 UNL     1      -0.971   7.206  12.793  1.00  0.00    -0.032 C 
HETATM   16  C23 UNL     1       0.385   7.234  13.537  1.00  0.00     0.016 C 
HETATM   17  C24 UNL     1      -1.065  10.279  15.535  1.00  0.00     0.036 C 
HETATM   18  C25 UNL     1       0.249   9.708  16.089  1.00  0.00     0.011 C 
HETATM   19  C26 UNL     1       0.539  10.205  17.515  1.00  0.00     0.033 C 
HETATM   20  C27 UNL     1      -0.180  11.518  17.844  1.00  0.00     0.136 C 
HETATM   21  C34 UNL     1      -1.747  11.420  17.716  1.00  0.00     0.014 C 
HETATM   22  C35 UNL     1      -2.417  11.132  19.081  1.00  0.00     0.021 C 
HETATM   23  C36 UNL     1      -2.258  12.827  17.296  1.00  0.00     0.021 C 
ENDROOT
BRANCH  20  24
HETATM   24  O2  UNL     1       0.187  11.901  19.173  1.00  0.00    -0.352 OA
BRANCH  24  25
HETATM   25  C28 UNL     1       1.480  11.429  19.570  1.00  0.00     0.292 C 
HETATM   26  O3  UNL     1       1.344  10.506  20.652  1.00  0.00    -0.348 OA
HETATM   27  C29 UNL     1       2.588   9.843  20.968  1.00  0.00     0.179 C 
HETATM   28  C31 UNL     1       3.794  10.808  20.934  1.00  0.00     0.180 C 
HETATM   29  C32 UNL     1       3.326  12.260  21.107  1.00  0.00     0.183 C 
HETATM   30  C33 UNL     1       2.320  12.648  20.010  1.00  0.00     0.204 C 
BRANCH  27  31
HETATM   31  C30 UNL     1       2.419   9.201  22.354  1.00  0.00     0.198 C 
BRANCH  31  32
HETATM   32  O4  UNL     1       1.880   7.882  22.244  1.00  0.00    -0.398 OA
HETATM   33  H44 UNL     1       2.093   7.420  23.078  1.00  0.00     0.209 HD
ENDBRANCH  31  32
ENDBRANCH  27  31
BRANCH  28  34
HETATM   34  O5  UNL     1       4.451  10.669  19.659  1.00  0.00    -0.390 OA
HETATM   35  H46 UNL     1       4.820  11.548  19.434  1.00  0.00     0.210 HD
ENDBRANCH  28  34
BRANCH  29  36
HETATM   36  O6  UNL     1       4.453  13.158  21.034  1.00  0.00    -0.390 OA
HETATM   37  H48 UNL     1       4.915  13.089  21.891  1.00  0.00     0.210 HD
ENDBRANCH  29  36
BRANCH  30  38
HETATM   38  O7  UNL     1       3.029  13.202  18.883  1.00  0.00    -0.388 OA
HETATM   39  H50 UNL     1       3.693  13.807  19.273  1.00  0.00     0.210 HD
ENDBRANCH  30  38
ENDBRANCH  24  25
ENDBRANCH  20  24
BRANCH   1  40
HETATM   40  C7  UNL     1       0.245   5.414  11.158  1.00  0.00    -0.010 C 
HETATM   41  C8  UNL     1       0.548   3.925  11.367  1.00  0.00     0.010 C 
BRANCH  40  42
HETATM   42  C6  UNL     1       1.517   6.246  11.477  1.00  0.00     0.031 C 
BRANCH  42  43
HETATM   43  C5  UNL     1       2.166   6.901  10.285  1.00  0.00    -0.026 C 
HETATM   44  C4  UNL     1       1.599   6.953   9.069  1.00  0.00     0.002 C 
BRANCH  44  45
HETATM   45  C2  UNL     1       2.171   7.579   7.884  1.00  0.00    -0.072 C 
HETATM   46  C1  UNL     1       3.054   8.581   8.018  1.00  0.00     0.018 C 
HETATM   47  C3  UNL     1       1.761   7.092   6.520  1.00  0.00     0.047 C 
ENDBRANCH  44  45
ENDBRANCH  42  43
ENDBRANCH  40  42
ENDBRANCH   1  40
TORSDOF 11
ENDMDL
MODEL 3
REMARK minimizedAffinity -8.82416248
REMARK CNNscore 0.470743895
REMARK CNNaffinity 7.10700846
REMARK  11 active torsions:
REMARK  status: ('A' for Active; 'I' for Inactive)
REMARK    1  A    between atoms: C2_2  and  C4_4 
REMARK    2  A    between atoms: C5_5  and  C6_6 
REMARK    3  A    between atoms: C6_6  and  C7_7 
REMARK    4  A    between atoms: C7_7  and  C9_9 
REMARK    5  A    between atoms: C27_28  and  O2_29 
REMARK    6  A    between atoms: O2_29  and  C28_30 
REMARK    7  A    between atoms: C29_32  and  C30_33 
REMARK    8  A    between atoms: C30_33  and  O4_34 
REMARK    9  A    between atoms: C31_35  and  O5_36 
REMARK   10  A    between atoms: C32_37  and  O6_38 
REMARK   11  A    between atoms: C33_39  and  O7_40 
ROOT
HETATM    1  C9  UNL     1      -2.768   7.223  13.636  1.00  0.00    -0.002 C 
HETATM    2  C10 UNL     1      -3.008   8.471  12.728  1.00  0.00     0.006 C 
HETATM    3  C11 UNL     1      -1.699   8.746  11.957  1.00  0.00     0.011 C 
HETATM    4  C12 UNL     1      -0.867   7.470  12.146  1.00  0.00    -0.029 C 
HETATM    5  C13 UNL     1      -1.463   6.429  11.110  1.00  0.00     0.016 C 
HETATM    6  C14 UNL     1       0.665   7.522  11.815  1.00  0.00     0.028 C 
HETATM    7  C15 UNL     1       1.310   8.808  11.352  1.00  0.00    -0.021 C 
HETATM    8  C16 UNL     1       2.656   8.891  11.307  1.00  0.00     0.008 C 
HETATM    9  C17 UNL     1       3.539   7.783  11.891  1.00  0.00     0.092 C 
HETATM   10  O1  UNL     1       3.360   6.621  11.042  1.00  0.00    -0.374 OA
HETATM   11  C18 UNL     1       2.418   5.736  11.699  1.00  0.00     0.179 C 
HETATM   12  C19 UNL     1       1.619   6.621  12.704  1.00  0.00    -0.004 C 
HETATM   13  C20 UNL     1       0.957   5.749  13.802  1.00  0.00     0.014 C 
HETATM   14  C21 UNL     1      -0.581   5.737  13.917  1.00  0.00     0.011 C 
HETATM   15  C22 UNL     1      -1.202   7.111  13.638  1.00  0.00    -0.032 C 
HETATM   16  C23 UNL     1      -0.672   8.115  14.688  1.00  0.00     0.016 C 
HETATM   17  C24 UNL     1       2.887   7.374  13.222  1.00  0.00     0.036 C 
HETATM   18  C25 UNL     1       2.822   8.564  14.192  1.00  0.00     0.011 C 
HETATM   19  C26 UNL     1       4.080   9.444  14.112  1.00  0.00     0.033 C 
HETATM   20  C27 UNL     1       5.295   8.695  13.554  1.00  0.00     0.136 C 
HETATM   21  C34 UNL     1       5.062   8.118  12.106  1.00  0.00     0.014 C 
HETATM   22  C35 UNL     1       5.604   9.072  11.015  1.00  0.00     0.021 C 
HETATM   23  C36 UNL     1       5.920   6.828  11.987  1.00  0.00     0.021 C 
ENDROOT
BRANCH  20  24
HETATM   24  O2  UNL     1       6.407   9.594  13.556  1.00  0.00    -0.352 OA
BRANCH  24  25
HETATM   25  C28 UNL     1       7.031   9.731  14.839  1.00  0.00     0.292 C 
HETATM   26  O3  UNL     1       8.135  10.634  14.743  1.00  0.00    -0.348 OA
HETATM   27  C29 UNL     1       8.682  10.970  16.037  1.00  0.00     0.179 C 
HETATM   28  C31 UNL     1       8.779   9.742  16.971  1.00  0.00     0.180 C 
HETATM   29  C32 UNL     1       8.785   8.444  16.153  1.00  0.00     0.183 C 
HETATM   30  C33 UNL     1       7.522   8.335  15.284  1.00  0.00     0.204 C 
BRANCH  27  31
HETATM   31  C30 UNL     1      10.062  11.601  15.793  1.00  0.00     0.198 C 
BRANCH  31  32
HETATM   32  O4  UNL     1      11.028  11.088  16.713  1.00  0.00    -0.398 OA
HETATM   33  H44 UNL     1      11.908  11.260  16.324  1.00  0.00     0.209 HD
ENDBRANCH  31  32
ENDBRANCH  27  31
BRANCH  28  34
HETATM   34  O5  UNL     1       7.634   9.748  17.847  1.00  0.00    -0.390 OA
HETATM   35  H46 UNL     1       7.415   8.811  18.032  1.00  0.00     0.210 HD
ENDBRANCH  28  34
BRANCH  29  36
HETATM   36  O6  UNL     1       8.835   7.302  17.035  1.00  0.00    -0.390 OA
HETATM   37  H48 UNL     1       9.757   7.237  17.349  1.00  0.00     0.210 HD
ENDBRANCH  29  36
BRANCH  30  38
HETATM   38  O7  UNL     1       6.487   7.652  16.022  1.00  0.00    -0.388 OA
HETATM   39  H50 UNL     1       6.939   6.896  16.450  1.00  0.00     0.210 HD
ENDBRANCH  30  38
ENDBRANCH  24  25
ENDBRANCH  20  24
BRANCH   1  40
HETATM   40  C7  UNL     1      -3.551   7.329  14.980  1.00  0.00    -0.010 C 
HETATM   41  C8  UNL     1      -3.311   6.119  15.893  1.00  0.00     0.010 C 
BRANCH  40  42
HETATM   42  C6  UNL     1      -5.079   7.531  14.785  1.00  0.00     0.031 C 
BRANCH  42  43
HETATM   43  C5  UNL     1      -5.787   6.398  14.088  1.00  0.00    -0.026 C 
HETATM   44  C4  UNL     1      -7.095   6.413  13.791  1.00  0.00     0.002 C 
BRANCH  44  45
HETATM   45  C2  UNL     1      -7.832   5.355  13.111  1.00  0.00    -0.072 C 
HETATM   46  C1  UNL     1      -7.653   4.076  13.477  1.00  0.00     0.018 C 
HETATM   47  C3  UNL     1      -8.786   5.713  12.003  1.00  0.00     0.047 C 
ENDBRANCH  44  45
ENDBRANCH  42  43
ENDBRANCH  40  42
ENDBRANCH   1  40
TORSDOF 11
ENDMDL
MODEL 4
REMARK minimizedAffinity -7.23388672
REMARK CNNscore 0.468519539
REMARK CNNaffinity 6.85545921
REMARK  11 active torsions:
REMARK  status: ('A' for Active; 'I' for Inactive)
REMARK    1  A    between atoms: C2_2  and  C4_4 
REMARK    2  A    between atoms: C5_5  and  C6_6 
REMARK    3  A    between atoms: C6_6  and  C7_7 
REMARK    4  A    between atoms: C7_7  and  C9_9 
REMARK    5  A    between atoms: C27_28  and  O2_29 
REMARK    6  A    between atoms: O2_29  and  C28_30 
REMARK    7  A    between atoms: C29_32  and  C30_33 
REMARK    8  A    between atoms: C30_33  and  O4_34 
REMARK    9  A    between atoms: C31_35  and  O5_36 
REMARK   10  A    between atoms: C32_37  and  O6_38 
REMARK   11  A    between atoms: C33_39  and  O7_40 
ROOT
HETATM    1  C9  UNL     1      -1.731   5.643  12.847  1.00  0.00    -0.002 C 
HETATM    2  C10 UNL     1      -0.612   5.291  13.879  1.00  0.00     0.006 C 
HETATM    3  C11 UNL     1      -0.752   6.265  15.070  1.00  0.00     0.011 C 
HETATM    4  C12 UNL     1      -2.136   6.901  14.884  1.00  0.00    -0.029 C 
HETATM    5  C13 UNL     1      -3.164   5.822  15.422  1.00  0.00     0.016 C 
HETATM    6  C14 UNL     1      -2.473   8.203  15.691  1.00  0.00     0.028 C 
HETATM    7  C15 UNL     1      -1.446   8.832  16.604  1.00  0.00    -0.021 C 
HETATM    8  C16 UNL     1      -1.669  10.068  17.094  1.00  0.00     0.008 C 
HETATM    9  C17 UNL     1      -2.842  10.918  16.598  1.00  0.00     0.092 C 
HETATM   10  O1  UNL     1      -4.051  10.271  17.071  1.00  0.00    -0.374 OA
HETATM   11  C18 UNL     1      -4.598   9.501  15.970  1.00  0.00     0.179 C 
HETATM   12  C19 UNL     1      -3.417   9.259  14.980  1.00  0.00    -0.004 C 
HETATM   13  C20 UNL     1      -3.946   8.906  13.567  1.00  0.00     0.014 C 
HETATM   14  C21 UNL     1      -3.602   7.528  12.965  1.00  0.00     0.011 C 
HETATM   15  C22 UNL     1      -2.183   7.068  13.323  1.00  0.00    -0.032 C 
HETATM   16  C23 UNL     1      -1.174   8.087  12.742  1.00  0.00     0.016 C 
HETATM   17  C24 UNL     1      -2.893  10.729  15.073  1.00  0.00     0.036 C 
HETATM   18  C25 UNL     1      -1.585  11.198  14.416  1.00  0.00     0.011 C 
HETATM   19  C26 UNL     1      -1.026  12.466  15.084  1.00  0.00     0.033 C 
HETATM   20  C27 UNL     1      -2.099  13.271  15.825  1.00  0.00     0.136 C 
HETATM   21  C34 UNL     1      -2.822  12.450  16.959  1.00  0.00     0.014 C 
HETATM   22  C35 UNL     1      -2.187  12.709  18.346  1.00  0.00     0.021 C 
HETATM   23  C36 UNL     1      -4.273  12.999  17.063  1.00  0.00     0.021 C 
ENDROOT
BRANCH  20  24
HETATM   24  O2  UNL     1      -1.477  14.436  16.374  1.00  0.00    -0.352 OA
BRANCH  24  25
HETATM   25  C28 UNL     1      -2.238  15.635  16.186  1.00  0.00     0.292 C 
HETATM   26  O3  UNL     1      -2.411  15.880  14.789  1.00  0.00    -0.348 OA
HETATM   27  C29 UNL     1      -3.336  16.960  14.532  1.00  0.00     0.179 C 
HETATM   28  C31 UNL     1      -3.133  18.150  15.497  1.00  0.00     0.180 C 
HETATM   29  C32 UNL     1      -1.720  18.121  16.096  1.00  0.00     0.183 C 
HETATM   30  C33 UNL     1      -1.464  16.801  16.841  1.00  0.00     0.204 C 
BRANCH  27  31
HETATM   31  C30 UNL     1      -3.140  17.384  13.067  1.00  0.00     0.198 C 
BRANCH  31  32
HETATM   32  O4  UNL     1      -2.107  18.364  12.954  1.00  0.00    -0.398 OA
HETATM   33  H44 UNL     1      -1.810  18.355  12.023  1.00  0.00     0.209 HD
ENDBRANCH  31  32
ENDBRANCH  27  31
BRANCH  28  34
HETATM   34  O5  UNL     1      -4.102  18.043  16.559  1.00  0.00    -0.390 OA
HETATM   35  H46 UNL     1      -3.682  18.413  17.363  1.00  0.00     0.210 HD
ENDBRANCH  28  34
BRANCH  29  36
HETATM   36  O6  UNL     1      -1.553  19.212  17.027  1.00  0.00    -0.390 OA
HETATM   37  H48 UNL     1      -1.427  20.016  16.487  1.00  0.00     0.210 HD
ENDBRANCH  29  36
BRANCH  30  38
HETATM   38  O7  UNL     1      -1.851  16.945  18.223  1.00  0.00    -0.388 OA
HETATM   39  H50 UNL     1      -1.500  17.818  18.494  1.00  0.00     0.210 HD
ENDBRANCH  30  38
ENDBRANCH  24  25
ENDBRANCH  20  24
BRANCH   1  40
HETATM   40  C7  UNL     1      -1.254   5.416  11.380  1.00  0.00    -0.010 C 
HETATM   41  C8  UNL     1      -1.838   4.137  10.767  1.00  0.00     0.010 C 
BRANCH  40  42
HETATM   42  C6  UNL     1       0.292   5.398  11.234  1.00  0.00     0.031 C 
BRANCH  42  43
HETATM   43  C5  UNL     1       0.852   6.405  10.263  1.00  0.00    -0.026 C 
HETATM   44  C4  UNL     1       2.132   6.415   9.862  1.00  0.00     0.002 C 
BRANCH  44  45
HETATM   45  C2  UNL     1       2.728   7.354   8.920  1.00  0.00    -0.072 C 
HETATM   46  C1  UNL     1       2.253   7.435   7.667  1.00  0.00     0.018 C 
HETATM   47  C3  UNL     1       3.872   8.224   9.367  1.00  0.00     0.047 C 
ENDBRANCH  44  45
ENDBRANCH  42  43
ENDBRANCH  40  42
ENDBRANCH   1  40
TORSDOF 11
ENDMDL
MODEL 5
REMARK minimizedAffinity -7.75780058
REMARK CNNscore 0.313394576
REMARK CNNaffinity 6.59719896
REMARK  11 active torsions:
REMARK  status: ('A' for Active; 'I' for Inactive)
REMARK    1  A    between atoms: C2_2  and  C4_4 
REMARK    2  A    between atoms: C5_5  and  C6_6 
REMARK    3  A    between atoms: C6_6  and  C7_7 
REMARK    4  A    between atoms: C7_7  and  C9_9 
REMARK    5  A    between atoms: C27_28  and  O2_29 
REMARK    6  A    between atoms: O2_29  and  C28_30 
REMARK    7  A    between atoms: C29_32  and  C30_33 
REMARK    8  A    between atoms: C30_33  and  O4_34 
REMARK    9  A    between atoms: C31_35  and  O5_36 
REMARK   10  A    between atoms: C32_37  and  O6_38 
REMARK   11  A    between atoms: C33_39  and  O7_40 
ROOT
HETATM    1  C9  UNL     1      -6.194  15.402  21.857  1.00  0.00    -0.002 C 
HETATM    2  C10 UNL     1      -4.886  15.755  22.635  1.00  0.00     0.006 C 
HETATM    3  C11 UNL     1      -3.693  15.482  21.692  1.00  0.00     0.011 C 
HETATM    4  C12 UNL     1      -4.329  15.335  20.303  1.00  0.00    -0.029 C 
HETATM    5  C13 UNL     1      -4.602  16.817  19.812  1.00  0.00     0.016 C 
HETATM    6  C14 UNL     1      -3.475  14.691  19.156  1.00  0.00     0.028 C 
HETATM    7  C15 UNL     1      -2.071  14.199  19.424  1.00  0.00    -0.021 C 
HETATM    8  C16 UNL     1      -1.451  13.439  18.498  1.00  0.00     0.008 C 
HETATM    9  C17 UNL     1      -2.204  12.910  17.273  1.00  0.00     0.092 C 
HETATM   10  O1  UNL     1      -2.510  14.061  16.446  1.00  0.00    -0.374 OA
HETATM   11  C18 UNL     1      -3.889  14.432  16.699  1.00  0.00     0.179 C 
HETATM   12  C19 UNL     1      -4.256  13.821  18.086  1.00  0.00    -0.004 C 
HETATM   13  C20 UNL     1      -5.793  13.702  18.247  1.00  0.00     0.014 C 
HETATM   14  C21 UNL     1      -6.487  14.494  19.375  1.00  0.00     0.011 C 
HETATM   15  C22 UNL     1      -5.645  14.553  20.655  1.00  0.00    -0.032 C 
HETATM   16  C23 UNL     1      -5.432  13.111  21.172  1.00  0.00     0.016 C 
HETATM   17  C24 UNL     1      -3.578  12.445  17.784  1.00  0.00     0.036 C 
HETATM   18  C25 UNL     1      -3.428  11.333  18.833  1.00  0.00     0.011 C 
HETATM   19  C26 UNL     1      -2.292  10.358  18.483  1.00  0.00     0.033 C 
HETATM   20  C27 UNL     1      -1.952  10.353  16.989  1.00  0.00     0.136 C 
HETATM   21  C34 UNL     1      -1.511  11.764  16.445  1.00  0.00     0.014 C 
HETATM   22  C35 UNL     1       0.028  11.916  16.424  1.00  0.00     0.021 C 
HETATM   23  C36 UNL     1      -1.951  11.835  14.955  1.00  0.00     0.021 C 
ENDROOT
BRANCH  20  24
HETATM   24  O2  UNL     1      -0.913   9.393  16.775  1.00  0.00    -0.352 OA
BRANCH  24  25
HETATM   25  C28 UNL     1      -1.227   8.422  15.769  1.00  0.00     0.292 C 
HETATM   26  O3  UNL     1      -0.901   8.944  14.479  1.00  0.00    -0.348 OA
HETATM   27  C29 UNL     1      -1.006   7.945  13.441  1.00  0.00     0.179 C 
HETATM   28  C31 UNL     1      -2.255   7.051  13.610  1.00  0.00     0.180 C 
HETATM   29  C32 UNL     1      -3.310   7.757  14.472  1.00  0.00     0.183 C 
HETATM   30  C33 UNL     1      -2.740   8.117  15.854  1.00  0.00     0.204 C 
BRANCH  27  31
HETATM   31  C30 UNL     1      -1.025   8.690  12.097  1.00  0.00     0.198 C 
BRANCH  31  32
HETATM   32  O4  UNL     1       0.302   8.995  11.664  1.00  0.00    -0.398 OA
HETATM   33  H44 UNL     1       0.254   9.161  10.702  1.00  0.00     0.209 HD
ENDBRANCH  31  32
ENDBRANCH  27  31
BRANCH  28  34
HETATM   34  O5  UNL     1      -1.853   5.827  14.257  1.00  0.00    -0.390 OA
HETATM   35  H46 UNL     1      -2.612   5.534  14.804  1.00  0.00     0.210 HD
ENDBRANCH  28  34
BRANCH  29  36
HETATM   36  O6  UNL     1      -4.456   6.900  14.658  1.00  0.00    -0.390 OA
HETATM   37  H48 UNL     1      -4.960   6.930  13.823  1.00  0.00     0.210 HD
ENDBRANCH  29  36
BRANCH  30  38
HETATM   38  O7  UNL     1      -2.981   7.030  16.771  1.00  0.00    -0.388 OA
HETATM   39  H50 UNL     1      -3.905   6.755  16.601  1.00  0.00     0.210 HD
ENDBRANCH  30  38
ENDBRANCH  24  25
ENDBRANCH  20  24
BRANCH   1  40
HETATM   40  C7  UNL     1      -7.286  14.815  22.801  1.00  0.00    -0.010 C 
HETATM   41  C8  UNL     1      -7.179  15.362  24.230  1.00  0.00     0.010 C 
BRANCH  40  42
HETATM   42  C6  UNL     1      -7.289  13.262  22.845  1.00  0.00     0.031 C 
BRANCH  42  43
HETATM   43  C5  UNL     1      -8.523  12.645  23.450  1.00  0.00    -0.026 C 
HETATM   44  C4  UNL     1      -9.463  12.010  22.732  1.00  0.00     0.002 C 
BRANCH  44  45
HETATM   45  C2  UNL     1     -10.670  11.386  23.260  1.00  0.00    -0.072 C 
HETATM   46  C1  UNL     1     -11.374  12.003  24.223  1.00  0.00     0.018 C 
HETATM   47  C3  UNL     1     -11.111  10.053  22.718  1.00  0.00     0.047 C 
ENDBRANCH  44  45
ENDBRANCH  42  43
ENDBRANCH  40  42
ENDBRANCH   1  40
TORSDOF 11
ENDMDL
MODEL 6
REMARK minimizedAffinity -8.54543304
REMARK CNNscore 0.309518158
REMARK CNNaffinity 6.53475809
REMARK  11 active torsions:
REMARK  status: ('A' for Active; 'I' for Inactive)
REMARK    1  A    between atoms: C2_2  and  C4_4 
REMARK    2  A    between atoms: C5_5  and  C6_6 
REMARK    3  A    between atoms: C6_6  and  C7_7 
REMARK    4  A    between atoms: C7_7  and  C9_9 
REMARK    5  A    between atoms: C27_28  and  O2_29 
REMARK    6  A    between atoms: O2_29  and  C28_30 
REMARK    7  A    between atoms: C29_32  and  C30_33 
REMARK    8  A    between atoms: C30_33  and  O4_34 
REMARK    9  A    between atoms: C31_35  and  O5_36 
REMARK   10  A    between atoms: C32_37  and  O6_38 
REMARK   11  A    between atoms: C33_39  and  O7_40 
ROOT
HETATM    1  C9  UNL     1       0.172   6.564  11.240  1.00  0.00    -0.002 C 
HETATM    2  C10 UNL     1       0.292   5.281  12.122  1.00  0.00     0.006 C 
HETATM    3  C11 UNL     1      -0.439   5.559  13.454  1.00  0.00     0.011 C 
HETATM    4  C12 UNL     1      -1.263   6.825  13.181  1.00  0.00    -0.029 C 
HETATM    5  C13 UNL     1      -2.539   6.325  12.384  1.00  0.00     0.016 C 
HETATM    6  C14 UNL     1      -1.847   7.613  14.404  1.00  0.00     0.028 C 
HETATM    7  C15 UNL     1      -1.576   7.154  15.818  1.00  0.00    -0.021 C 
HETATM    8  C16 UNL     1      -1.879   7.971  16.847  1.00  0.00     0.008 C 
HETATM    9  C17 UNL     1      -2.313   9.421  16.606  1.00  0.00     0.092 C 
HETATM   10  O1  UNL     1      -3.619   9.362  15.977  1.00  0.00    -0.374 OA
HETATM   11  C18 UNL     1      -3.430   9.550  14.551  1.00  0.00     0.179 C 
HETATM   12  C19 UNL     1      -1.941   9.189  14.260  1.00  0.00    -0.004 C 
HETATM   13  C20 UNL     1      -1.475   9.811  12.918  1.00  0.00     0.014 C 
HETATM   14  C21 UNL     1      -1.030   8.874  11.777  1.00  0.00     0.011 C 
HETATM   15  C22 UNL     1      -0.266   7.647  12.288  1.00  0.00    -0.032 C 
HETATM   16  C23 UNL     1       1.014   8.129  13.011  1.00  0.00     0.016 C 
HETATM   17  C24 UNL     1      -1.393   9.965  15.501  1.00  0.00     0.036 C 
HETATM   18  C25 UNL     1       0.079   9.920  15.938  1.00  0.00     0.011 C 
HETATM   19  C26 UNL     1       0.251  10.280  17.423  1.00  0.00     0.033 C 
HETATM   20  C27 UNL     1      -0.913  11.110  17.973  1.00  0.00     0.136 C 
HETATM   21  C34 UNL     1      -2.308  10.387  17.849  1.00  0.00     0.014 C 
HETATM   22  C35 UNL     1      -2.691   9.651  19.155  1.00  0.00     0.021 C 
HETATM   23  C36 UNL     1      -3.382  11.498  17.673  1.00  0.00     0.021 C 
ENDROOT
BRANCH  20  24
HETATM   24  O2  UNL     1      -0.632  11.413  19.343  1.00  0.00    -0.352 OA
BRANCH  24  25
HETATM   25  C28 UNL     1       0.759  11.330  19.674  1.00  0.00     0.292 C 
HETATM   26  O3  UNL     1       0.961  10.304  20.648  1.00  0.00    -0.348 OA
HETATM   27  C29 UNL     1       2.361  10.033  20.878  1.00  0.00     0.179 C 
HETATM   28  C31 UNL     1       3.207  11.326  20.943  1.00  0.00     0.180 C 
HETATM   29  C32 UNL     1       2.320  12.532  21.280  1.00  0.00     0.183 C 
HETATM   30  C33 UNL     1       1.199  12.699  20.242  1.00  0.00     0.204 C 
BRANCH  27  31
HETATM   31  C30 UNL     1       2.458   9.231  22.185  1.00  0.00     0.198 C 
BRANCH  31  32
HETATM   32  O4  UNL     1       1.622   8.073  22.136  1.00  0.00    -0.398 OA
HETATM   33  H44 UNL     1       1.955   7.456  22.817  1.00  0.00     0.209 HD
ENDBRANCH  31  32
ENDBRANCH  27  31
BRANCH  28  34
HETATM   34  O5  UNL     1       3.821  11.532  19.655  1.00  0.00    -0.390 OA
HETATM   35  H46 UNL     1       3.889  12.501  19.527  1.00  0.00     0.210 HD
ENDBRANCH  28  34
BRANCH  29  36
HETATM   36  O6  UNL     1       3.110  13.740  21.300  1.00  0.00    -0.390 OA
HETATM   37  H48 UNL     1       3.606  13.730  22.140  1.00  0.00     0.210 HD
ENDBRANCH  29  36
BRANCH  30  38
HETATM   38  O7  UNL     1       1.653  13.560  19.178  1.00  0.00    -0.388 OA
HETATM   39  H50 UNL     1       2.113  14.298  19.628  1.00  0.00     0.210 HD
ENDBRANCH  30  38
ENDBRANCH  24  25
ENDBRANCH  20  24
BRANCH   1  40
HETATM   40  C7  UNL     1       1.444   6.784  10.366  1.00  0.00    -0.010 C 
HETATM   41  C8  UNL     1       1.107   7.303   8.962  1.00  0.00     0.010 C 
BRANCH  40  42
HETATM   42  C6  UNL     1       2.332   5.514  10.244  1.00  0.00     0.031 C 
BRANCH  42  43
HETATM   43  C5  UNL     1       3.816   5.767  10.304  1.00  0.00    -0.026 C 
HETATM   44  C4  UNL     1       4.391   6.599  11.187  1.00  0.00     0.002 C 
BRANCH  44  45
HETATM   45  C2  UNL     1       5.817   6.876  11.300  1.00  0.00    -0.072 C 
HETATM   46  C1  UNL     1       6.234   8.107  11.636  1.00  0.00     0.018 C 
HETATM   47  C3  UNL     1       6.808   5.773  11.037  1.00  0.00     0.047 C 
ENDBRANCH  44  45
ENDBRANCH  42  43
ENDBRANCH  40  42
ENDBRANCH   1  40
TORSDOF 11
ENDMDL
MODEL 7
REMARK minimizedAffinity -7.57214642
REMARK CNNscore 0.284142405
REMARK CNNaffinity 6.77085066
REMARK  11 active torsions:
REMARK  status: ('A' for Active; 'I' for Inactive)
REMARK    1  A    between atoms: C2_2  and  C4_4 
REMARK    2  A    between atoms: C5_5  and  C6_6 
REMARK    3  A    between atoms: C6_6  and  C7_7 
REMARK    4  A    between atoms: C7_7  and  C9_9 
REMARK    5  A    between atoms: C27_28  and  O2_29 
REMARK    6  A    between atoms: O2_29  and  C28_30 
REMARK    7  A    between atoms: C29_32  and  C30_33 
REMARK    8  A    between atoms: C30_33  and  O4_34 
REMARK    9  A    between atoms: C31_35  and  O5_36 
REMARK   10  A    between atoms: C32_37  and  O6_38 
REMARK   11  A    between atoms: C33_39  and  O7_40 
ROOT
HETATM    1  C9  UNL     1       0.799   7.143  10.185  1.00  0.00    -0.002 C 
HETATM    2  C10 UNL     1       1.050   7.987   8.895  1.00  0.00     0.006 C 
HETATM    3  C11 UNL     1       2.527   8.440   8.913  1.00  0.00     0.011 C 
HETATM    4  C12 UNL     1       3.182   7.567   9.992  1.00  0.00    -0.029 C 
HETATM    5  C13 UNL     1       3.439   6.168   9.294  1.00  0.00     0.016 C 
HETATM    6  C14 UNL     1       4.585   7.995  10.547  1.00  0.00     0.028 C 
HETATM    7  C15 UNL     1       5.259   9.255  10.052  1.00  0.00    -0.021 C 
HETATM    8  C16 UNL     1       6.338   9.727  10.708  1.00  0.00     0.008 C 
HETATM    9  C17 UNL     1       6.778   9.125  12.047  1.00  0.00     0.092 C 
HETATM   10  O1  UNL     1       7.261   7.787  11.760  1.00  0.00    -0.374 OA
HETATM   11  C18 UNL     1       6.199   6.856  12.088  1.00  0.00     0.179 C 
HETATM   12  C19 UNL     1       4.876   7.682  12.073  1.00  0.00    -0.004 C 
HETATM   13  C20 UNL     1       3.765   6.959  12.877  1.00  0.00     0.014 C 
HETATM   14  C21 UNL     1       2.485   6.512  12.142  1.00  0.00     0.011 C 
HETATM   15  C22 UNL     1       2.041   7.515  11.070  1.00  0.00    -0.032 C 
HETATM   16  C23 UNL     1       1.727   8.864  11.758  1.00  0.00     0.016 C 
HETATM   17  C24 UNL     1       5.491   8.889  12.853  1.00  0.00     0.036 C 
HETATM   18  C25 UNL     1       4.739  10.208  13.089  1.00  0.00     0.011 C 
HETATM   19  C26 UNL     1       5.698  11.377  13.367  1.00  0.00     0.033 C 
HETATM   20  C27 UNL     1       7.063  10.916  13.888  1.00  0.00     0.136 C 
HETATM   21  C34 UNL     1       7.815   9.948  12.898  1.00  0.00     0.014 C 
HETATM   22  C35 UNL     1       8.820  10.712  12.003  1.00  0.00     0.021 C 
HETATM   23  C36 UNL     1       8.681   8.992  13.766  1.00  0.00     0.021 C 
ENDROOT
BRANCH  20  24
HETATM   24  O2  UNL     1       7.855  12.080  14.142  1.00  0.00    -0.352 OA
BRANCH  24  25
HETATM   25  C28 UNL     1       8.276  12.200  15.507  1.00  0.00     0.292 C 
HETATM   26  O3  UNL     1       9.668  11.891  15.610  1.00  0.00    -0.348 OA
HETATM   27  C29 UNL     1      10.199  12.186  16.920  1.00  0.00     0.179 C 
HETATM   28  C31 UNL     1       9.237  11.765  18.054  1.00  0.00     0.180 C 
HETATM   29  C32 UNL     1       8.254  10.697  17.556  1.00  0.00     0.183 C 
HETATM   30  C33 UNL     1       7.445  11.211  16.353  1.00  0.00     0.204 C 
BRANCH  27  31
HETATM   31  C30 UNL     1      11.551  11.463  17.032  1.00  0.00     0.198 C 
BRANCH  31  32
HETATM   32  O4  UNL     1      12.043  11.507  18.373  1.00  0.00    -0.398 OA
HETATM   33  H44 UNL     1      12.701  10.789  18.456  1.00  0.00     0.209 HD
ENDBRANCH  31  32
ENDBRANCH  27  31
BRANCH  28  34
HETATM   34  O5  UNL     1       8.500  12.929  18.478  1.00  0.00    -0.390 OA
HETATM   35  H46 UNL     1       7.615  12.615  18.759  1.00  0.00     0.210 HD
ENDBRANCH  28  34
BRANCH  29  36
HETATM   36  O6  UNL     1       7.333  10.338  18.608  1.00  0.00    -0.390 OA
HETATM   37  H48 UNL     1       7.826   9.757  19.218  1.00  0.00     0.210 HD
ENDBRANCH  29  36
BRANCH  30  38
HETATM   38  O7  UNL     1       6.237  11.844  16.822  1.00  0.00    -0.388 OA
HETATM   39  H50 UNL     1       5.890  11.246  17.516  1.00  0.00     0.210 HD
ENDBRANCH  30  38
ENDBRANCH  24  25
ENDBRANCH  20  24
BRANCH   1  40
HETATM   40  C7  UNL     1      -0.646   7.344  10.733  1.00  0.00    -0.010 C 
HETATM   41  C8  UNL     1      -1.065   8.819  10.750  1.00  0.00     0.010 C 
BRANCH  40  42
HETATM   42  C6  UNL     1      -0.857   6.733  12.146  1.00  0.00     0.031 C 
BRANCH  42  43
HETATM   43  C5  UNL     1      -1.755   5.524  12.189  1.00  0.00    -0.026 C 
HETATM   44  C4  UNL     1      -3.057   5.579  12.513  1.00  0.00     0.002 C 
BRANCH  44  45
HETATM   45  C2  UNL     1      -3.976   4.449  12.562  1.00  0.00    -0.072 C 
HETATM   46  C1  UNL     1      -3.590   3.253  12.091  1.00  0.00     0.018 C 
HETATM   47  C3  UNL     1      -5.352   4.641  13.142  1.00  0.00     0.047 C 
ENDBRANCH  44  45
ENDBRANCH  42  43
ENDBRANCH  40  42
ENDBRANCH   1  40
TORSDOF 11
ENDMDL
MODEL 8
REMARK minimizedAffinity -7.84312773
REMARK CNNscore 0.270593464
REMARK CNNaffinity 7.2689414
REMARK  11 active torsions:
REMARK  status: ('A' for Active; 'I' for Inactive)
REMARK    1  A    between atoms: C2_2  and  C4_4 
REMARK    2  A    between atoms: C5_5  and  C6_6 
REMARK    3  A    between atoms: C6_6  and  C7_7 
REMARK    4  A    between atoms: C7_7  and  C9_9 
REMARK    5  A    between atoms: C27_28  and  O2_29 
REMARK    6  A    between atoms: O2_29  and  C28_30 
REMARK    7  A    between atoms: C29_32  and  C30_33 
REMARK    8  A    between atoms: C30_33  and  O4_34 
REMARK    9  A    between atoms: C31_35  and  O5_36 
REMARK   10  A    between atoms: C32_37  and  O6_38 
REMARK   11  A    between atoms: C33_39  and  O7_40 
ROOT
HETATM    1  C9  UNL     1      -9.141   6.277  14.360  1.00  0.00    -0.002 C 
HETATM    2  C10 UNL     1      -9.184   5.609  12.949  1.00  0.00     0.006 C 
HETATM    3  C11 UNL     1      -7.740   5.201  12.581  1.00  0.00     0.011 C 
HETATM    4  C12 UNL     1      -6.966   5.299  13.903  1.00  0.00    -0.029 C 
HETATM    5  C13 UNL     1      -7.325   3.974  14.694  1.00  0.00     0.016 C 
HETATM    6  C14 UNL     1      -5.399   5.315  13.850  1.00  0.00     0.028 C 
HETATM    7  C15 UNL     1      -4.671   5.266  12.526  1.00  0.00    -0.021 C 
HETATM    8  C16 UNL     1      -3.347   5.522  12.492  1.00  0.00     0.008 C 
HETATM    9  C17 UNL     1      -2.608   6.043  13.728  1.00  0.00     0.092 C 
HETATM   10  O1  UNL     1      -2.599   4.959  14.692  1.00  0.00    -0.374 OA
HETATM   11  C18 UNL     1      -3.658   5.213  15.649  1.00  0.00     0.179 C 
HETATM   12  C19 UNL     1      -4.655   6.184  14.947  1.00  0.00    -0.004 C 
HETATM   13  C20 UNL     1      -5.535   6.920  15.990  1.00  0.00     0.014 C 
HETATM   14  C21 UNL     1      -7.062   6.706  15.961  1.00  0.00     0.011 C 
HETATM   15  C22 UNL     1      -7.612   6.584  14.535  1.00  0.00    -0.032 C 
HETATM   16  C23 UNL     1      -7.320   7.903  13.780  1.00  0.00     0.016 C 
HETATM   17  C24 UNL     1      -3.528   7.097  14.364  1.00  0.00     0.036 C 
HETATM   18  C25 UNL     1      -3.802   8.251  13.387  1.00  0.00     0.011 C 
HETATM   19  C26 UNL     1      -2.557   8.616  12.561  1.00  0.00     0.033 C 
HETATM   20  C27 UNL     1      -1.250   8.186  13.235  1.00  0.00     0.136 C 
HETATM   21  C34 UNL     1      -1.167   6.636  13.505  1.00  0.00     0.014 C 
HETATM   22  C35 UNL     1      -0.406   5.898  12.378  1.00  0.00     0.021 C 
HETATM   23  C36 UNL     1      -0.301   6.443  14.781  1.00  0.00     0.021 C 
ENDROOT
BRANCH  20  24
HETATM   24  O2  UNL     1      -0.165   8.603  12.400  1.00  0.00    -0.352 OA
BRANCH  24  25
HETATM   25  C28 UNL     1       0.819   9.385  13.088  1.00  0.00     0.292 C 
HETATM   26  O3  UNL     1       1.934   8.560  13.431  1.00  0.00    -0.348 OA
HETATM   27  C29 UNL     1       3.045   9.326  13.947  1.00  0.00     0.179 C 
HETATM   28  C31 UNL     1       2.591  10.440  14.918  1.00  0.00     0.180 C 
HETATM   29  C32 UNL     1       1.203  10.121  15.490  1.00  0.00     0.183 C 
HETATM   30  C33 UNL     1       0.167   9.960  14.365  1.00  0.00     0.204 C 
BRANCH  27  31
HETATM   31  C30 UNL     1       3.997   8.334  14.635  1.00  0.00     0.198 C 
BRANCH  31  32
HETATM   32  O4  UNL     1       3.280   7.211  15.150  1.00  0.00    -0.398 OA
HETATM   33  H44 UNL     1       3.931   6.493  15.274  1.00  0.00     0.209 HD
ENDBRANCH  31  32
ENDBRANCH  27  31
BRANCH  28  34
HETATM   34  O5  UNL     1       2.532  11.681  14.188  1.00  0.00    -0.390 OA
HETATM   35  H46 UNL     1       1.807  12.208  14.586  1.00  0.00     0.210 HD
ENDBRANCH  28  34
BRANCH  29  36
HETATM   36  O6  UNL     1       0.769  11.185  16.364  1.00  0.00    -0.390 OA
HETATM   37  H48 UNL     1       1.261  11.072  17.200  1.00  0.00     0.210 HD
ENDBRANCH  29  36
BRANCH  30  38
HETATM   38  O7  UNL     1      -0.441  11.238  14.085  1.00  0.00    -0.388 OA
HETATM   39  H50 UNL     1      -0.625  11.629  14.964  1.00  0.00     0.210 HD
ENDBRANCH  30  38
ENDBRANCH  24  25
ENDBRANCH  20  24
BRANCH   1  40
HETATM   40  C7  UNL     1     -10.194   7.420  14.489  1.00  0.00    -0.010 C 
HETATM   41  C8  UNL     1     -10.812   7.801  13.138  1.00  0.00     0.010 C 
BRANCH  40  42
HETATM   42  C6  UNL     1      -9.632   8.696  15.175  1.00  0.00     0.031 C 
BRANCH  42  43
HETATM   43  C5  UNL     1     -10.231   9.992  14.695  1.00  0.00    -0.026 C 
HETATM   44  C4  UNL     1      -9.855  11.196  15.153  1.00  0.00     0.002 C 
BRANCH  44  45
HETATM   45  C2  UNL     1     -10.388  12.482  14.720  1.00  0.00    -0.072 C 
HETATM   46  C1  UNL     1      -9.549  13.462  14.347  1.00  0.00     0.018 C 
HETATM   47  C3  UNL     1     -11.878  12.695  14.700  1.00  0.00     0.047 C 
ENDBRANCH  44  45
ENDBRANCH  42  43
ENDBRANCH  40  42
ENDBRANCH   1  40
TORSDOF 11
ENDMDL
MODEL 9
REMARK minimizedAffinity -7.99226761
REMARK CNNscore 0.267344296
REMARK CNNaffinity 7.0283103
REMARK  11 active torsions:
REMARK  status: ('A' for Active; 'I' for Inactive)
REMARK    1  A    between atoms: C2_2  and  C4_4 
REMARK    2  A    between atoms: C5_5  and  C6_6 
REMARK    3  A    between atoms: C6_6  and  C7_7 
REMARK    4  A    between atoms: C7_7  and  C9_9 
REMARK    5  A    between atoms: C27_28  and  O2_29 
REMARK    6  A    between atoms: O2_29  and  C28_30 
REMARK    7  A    between atoms: C29_32  and  C30_33 
REMARK    8  A    between atoms: C30_33  and  O4_34 
REMARK    9  A    between atoms: C31_35  and  O5_36 
REMARK   10  A    between atoms: C32_37  and  O6_38 
REMARK   11  A    between atoms: C33_39  and  O7_40 
ROOT
HETATM    1  C9  UNL     1      -5.139   5.914  13.847  1.00  0.00    -0.002 C 
HETATM    2  C10 UNL     1      -4.666   7.307  13.321  1.00  0.00     0.006 C 
HETATM    3  C11 UNL     1      -5.663   8.366  13.842  1.00  0.00     0.011 C 
HETATM    4  C12 UNL     1      -6.460   7.638  14.933  1.00  0.00    -0.029 C 
HETATM    5  C13 UNL     1      -5.519   7.645  16.208  1.00  0.00     0.016 C 
HETATM    6  C14 UNL     1      -7.802   8.279  15.430  1.00  0.00     0.028 C 
HETATM    7  C15 UNL     1      -8.312   9.567  14.824  1.00  0.00    -0.021 C 
HETATM    8  C16 UNL     1      -9.572   9.967  15.092  1.00  0.00     0.008 C 
HETATM    9  C17 UNL     1     -10.552   9.056  15.837  1.00  0.00     0.092 C 
HETATM   10  O1  UNL     1     -10.061   8.946  17.198  1.00  0.00    -0.374 OA
HETATM   11  C18 UNL     1      -9.350   7.687  17.309  1.00  0.00     0.179 C 
HETATM   12  C19 UNL     1      -8.957   7.281  15.855  1.00  0.00    -0.004 C 
HETATM   13  C20 UNL     1      -8.654   5.762  15.770  1.00  0.00     0.014 C 
HETATM   14  C21 UNL     1      -7.238   5.307  15.362  1.00  0.00     0.011 C 
HETATM   15  C22 UNL     1      -6.614   6.212  14.293  1.00  0.00    -0.032 C 
HETATM   16  C23 UNL     1      -7.497   6.156  13.024  1.00  0.00     0.016 C 
HETATM   17  C24 UNL     1     -10.353   7.647  15.256  1.00  0.00     0.036 C 
HETATM   18  C25 UNL     1     -10.654   7.625  13.749  1.00  0.00     0.011 C 
HETATM   19  C26 UNL     1     -11.852   8.519  13.387  1.00  0.00     0.033 C 
HETATM   20  C27 UNL     1     -12.788   8.768  14.573  1.00  0.00     0.136 C 
HETATM   21  C34 UNL     1     -12.074   9.455  15.798  1.00  0.00     0.014 C 
HETATM   22  C35 UNL     1     -12.270  10.990  15.788  1.00  0.00     0.021 C 
HETATM   23  C36 UNL     1     -12.796   8.958  17.082  1.00  0.00     0.021 C 
ENDROOT
BRANCH  20  24
HETATM   24  O2  UNL     1     -13.876   9.577  14.115  1.00  0.00    -0.352 OA
BRANCH  24  25
HETATM   25  C28 UNL     1     -14.800   8.874  13.276  1.00  0.00     0.292 C 
HETATM   26  O3  UNL     1     -15.559   9.809  12.507  1.00  0.00    -0.348 OA
HETATM   27  C29 UNL     1     -16.366   9.162  11.498  1.00  0.00     0.179 C 
HETATM   28  C31 UNL     1     -17.043   7.875  12.022  1.00  0.00     0.180 C 
HETATM   29  C32 UNL     1     -17.131   7.900  13.554  1.00  0.00     0.183 C 
HETATM   30  C33 UNL     1     -15.735   8.044  14.183  1.00  0.00     0.204 C 
BRANCH  27  31
HETATM   31  C30 UNL     1     -17.405  10.191  11.023  1.00  0.00     0.198 C 
BRANCH  31  32
HETATM   32  O4  UNL     1     -17.871   9.875   9.710  1.00  0.00    -0.398 OA
HETATM   33  H44 UNL     1     -18.724  10.340   9.594  1.00  0.00     0.209 HD
ENDBRANCH  31  32
ENDBRANCH  27  31
BRANCH  28  34
HETATM   34  O5  UNL     1     -16.250   6.745  11.608  1.00  0.00    -0.390 OA
HETATM   35  H46 UNL     1     -16.340   6.066  12.309  1.00  0.00     0.210 HD
ENDBRANCH  28  34
BRANCH  29  36
HETATM   36  O6  UNL     1     -17.727   6.677  14.037  1.00  0.00    -0.390 OA
HETATM   37  H48 UNL     1     -18.686   6.755  13.872  1.00  0.00     0.210 HD
ENDBRANCH  29  36
BRANCH  30  38
HETATM   38  O7  UNL     1     -15.176   6.735  14.417  1.00  0.00    -0.388 OA
HETATM   39  H50 UNL     1     -15.910   6.210  14.797  1.00  0.00     0.210 HD
ENDBRANCH  30  38
ENDBRANCH  24  25
ENDBRANCH  20  24
BRANCH   1  40
HETATM   40  C7  UNL     1      -4.841   4.779  12.821  1.00  0.00    -0.010 C 
HETATM   41  C8  UNL     1      -5.857   3.633  12.905  1.00  0.00     0.010 C 
BRANCH  40  42
HETATM   42  C6  UNL     1      -3.403   4.202  12.946  1.00  0.00     0.031 C 
BRANCH  42  43
HETATM   43  C5  UNL     1      -2.329   5.020  12.277  1.00  0.00    -0.026 C 
HETATM   44  C4  UNL     1      -1.067   4.594  12.115  1.00  0.00     0.002 C 
BRANCH  44  45
HETATM   45  C2  UNL     1       0.010   5.333  11.468  1.00  0.00    -0.072 C 
HETATM   46  C1  UNL     1       1.209   4.753  11.296  1.00  0.00     0.018 C 
HETATM   47  C3  UNL     1      -0.237   6.743  11.001  1.00  0.00     0.047 C 
ENDBRANCH  44  45
ENDBRANCH  42  43
ENDBRANCH  40  42
ENDBRANCH   1  40
TORSDOF 11
ENDMDL
