MODEL 1
REMARK minimizedAffinity -9.05054092
REMARK CNNscore 0.570200145
REMARK CNNaffinity 7.39961195
REMARK  6 active torsions:
REMARK  status: ('A' for Active; 'I' for Inactive)
REMARK    1  A    between atoms: C2_2  and  C30_32 
REMARK    2  A    between atoms: C3_3  and  C4_4 
REMARK    3  A    between atoms: C4_4  and  C5_5 
REMARK    4  A    between atoms: C5_5  and  C6_6 
REMARK    5  A    between atoms: C6_6  and  C8_8 
REMARK    6  A    between atoms: C30_32  and  O3_33 
ROOT
HETATM    1  C8  UNL     1      -5.843   7.515  14.512  1.00  0.00    -0.002 C 
HETATM    2  C9  UNL     1      -5.463   8.824  15.260  1.00  0.00     0.007 C 
HETATM    3  C10 UNL     1      -3.945   9.022  15.078  1.00  0.00     0.015 C 
HETATM    4  C11 UNL     1      -3.555   8.079  13.921  1.00  0.00    -0.005 C 
HETATM    5  C12 UNL     1      -3.902   8.818  12.591  1.00  0.00     0.021 C 
HETATM    6  C13 UNL     1      -2.113   7.627  13.739  1.00  0.00    -0.000 C 
HETATM    7  C14 UNL     1      -1.810   6.437  13.161  1.00  0.00    -0.060 C 
HETATM    8  C15 UNL     1      -2.932   5.462  12.762  1.00  0.00     0.036 C 
HETATM    9  C16 UNL     1      -4.389   5.866  13.076  1.00  0.00     0.015 C 
HETATM   10  C17 UNL     1      -4.466   6.833  14.264  1.00  0.00    -0.028 C 
HETATM   11  C18 UNL     1      -3.999   6.069  15.538  1.00  0.00     0.016 C 
HETATM   12  C19 UNL     1      -0.363   5.956  12.893  1.00  0.00    -0.014 C 
HETATM   13  C20 UNL     1      -0.038   4.857  13.942  1.00  0.00     0.020 C 
HETATM   14  C21 UNL     1      -0.252   5.323  11.477  1.00  0.00     0.021 C 
HETATM   15  C22 UNL     1       1.153   5.389  10.905  1.00  0.00     0.080 C 
HETATM   16  C23 UNL     1       1.506   6.835  10.660  1.00  0.00     0.135 C 
HETATM   17  O1  UNL     1       2.116   7.157   9.641  1.00  0.00    -0.297 OA
HETATM   18  C24 UNL     1       1.076   7.865  11.723  1.00  0.00     0.018 C 
HETATM   19  C25 UNL     1      -0.065   8.700  11.124  1.00  0.00     0.023 C 
HETATM   20  C26 UNL     1       2.285   8.799  11.954  1.00  0.00     0.023 C 
HETATM   21  C27 UNL     1       0.712   7.099  13.050  1.00  0.00     0.020 C 
HETATM   22  C28 UNL     1       0.376   7.989  14.249  1.00  0.00     0.090 C 
HETATM   23  C29 UNL     1      -1.019   8.545  14.171  1.00  0.00     0.157 C 
HETATM   24  O2  UNL     1      -1.244   9.709  14.491  1.00  0.00    -0.293 OA
ENDROOT
BRANCH   1  25
HETATM   25  C6  UNL     1      -7.069   6.772  15.128  1.00  0.00    -0.014 C 
HETATM   26  C7  UNL     1      -6.774   5.830  16.298  1.00  0.00     0.010 C 
BRANCH  25  27
HETATM   27  C5  UNL     1      -7.912   6.076  14.032  1.00  0.00     0.008 C 
BRANCH  27  28
HETATM   28  C4  UNL     1      -7.692   4.558  13.908  1.00  0.00     0.028 C 
BRANCH  28  29
HETATM   29  C3  UNL     1      -6.768   4.165  12.789  1.00  0.00    -0.022 C 
HETATM   30  C2  UNL     1      -6.616   2.942  12.234  1.00  0.00    -0.064 C 
HETATM   31  C1  UNL     1      -7.411   1.734  12.657  1.00  0.00     0.045 C 
BRANCH  30  32
HETATM   32  C30 UNL     1      -5.609   2.641  11.144  1.00  0.00     0.197 C 
BRANCH  32  33
HETATM   33  O3  UNL     1      -5.335   1.251  11.033  1.00  0.00    -0.397 OA
HETATM   34  H46 UNL     1      -4.978   0.978  11.895  1.00  0.00     0.209 HD
ENDBRANCH  32  33
ENDBRANCH  30  32
ENDBRANCH  28  29
ENDBRANCH  27  28
ENDBRANCH  25  27
ENDBRANCH   1  25
TORSDOF 6
ENDMDL
MODEL 2
REMARK minimizedAffinity -7.94264841
REMARK CNNscore 0.536121249
REMARK CNNaffinity 7.14347982
REMARK  6 active torsions:
REMARK  status: ('A' for Active; 'I' for Inactive)
REMARK    1  A    between atoms: C2_2  and  C30_32 
REMARK    2  A    between atoms: C3_3  and  C4_4 
REMARK    3  A    between atoms: C4_4  and  C5_5 
REMARK    4  A    between atoms: C5_5  and  C6_6 
REMARK    5  A    between atoms: C6_6  and  C8_8 
REMARK    6  A    between atoms: C30_32  and  O3_33 
ROOT
HETATM    1  C8  UNL     1      -0.705  11.088  17.937  1.00  0.00    -0.002 C 
HETATM    2  C9  UNL     1      -2.111  11.681  18.232  1.00  0.00     0.007 C 
HETATM    3  C10 UNL     1      -3.097  11.010  17.256  1.00  0.00     0.015 C 
HETATM    4  C11 UNL     1      -2.344   9.779  16.710  1.00  0.00    -0.005 C 
HETATM    5  C12 UNL     1      -2.485   8.647  17.773  1.00  0.00     0.021 C 
HETATM    6  C13 UNL     1      -2.766   9.127  15.401  1.00  0.00    -0.000 C 
HETATM    7  C14 UNL     1      -1.876   8.469  14.617  1.00  0.00    -0.060 C 
HETATM    8  C15 UNL     1      -0.382   8.453  14.986  1.00  0.00     0.036 C 
HETATM    9  C16 UNL     1       0.063   9.235  16.241  1.00  0.00     0.015 C 
HETATM   10  C17 UNL     1      -0.893  10.391  16.557  1.00  0.00    -0.028 C 
HETATM   11  C18 UNL     1      -0.790  11.431  15.403  1.00  0.00     0.016 C 
HETATM   12  C19 UNL     1      -2.262   7.733  13.310  1.00  0.00    -0.014 C 
HETATM   13  C20 UNL     1      -1.766   8.605  12.123  1.00  0.00     0.020 C 
HETATM   14  C21 UNL     1      -1.548   6.353  13.230  1.00  0.00     0.021 C 
HETATM   15  C22 UNL     1      -2.291   5.350  12.365  1.00  0.00     0.080 C 
HETATM   16  C23 UNL     1      -3.604   5.017  13.032  1.00  0.00     0.135 C 
HETATM   17  O1  UNL     1      -4.014   3.857  13.040  1.00  0.00    -0.297 OA
HETATM   18  C24 UNL     1      -4.385   6.173  13.685  1.00  0.00     0.018 C 
HETATM   19  C25 UNL     1      -4.292   5.993  15.208  1.00  0.00     0.023 C 
HETATM   20  C26 UNL     1      -5.864   6.001  13.271  1.00  0.00     0.023 C 
HETATM   21  C27 UNL     1      -3.818   7.537  13.142  1.00  0.00     0.020 C 
HETATM   22  C28 UNL     1      -4.568   8.789  13.605  1.00  0.00     0.090 C 
HETATM   23  C29 UNL     1      -4.206   9.183  15.010  1.00  0.00     0.157 C 
HETATM   24  O2  UNL     1      -5.070   9.571  15.790  1.00  0.00    -0.293 OA
ENDROOT
BRANCH   1  25
HETATM   25  C6  UNL     1       0.469  12.066  18.249  1.00  0.00    -0.014 C 
HETATM   26  C7  UNL     1       1.783  11.810  17.507  1.00  0.00     0.010 C 
BRANCH  25  27
HETATM   27  C5  UNL     1       0.693  12.207  19.775  1.00  0.00     0.008 C 
BRANCH  27  28
HETATM   28  C4  UNL     1       2.032  11.652  20.290  1.00  0.00     0.028 C 
BRANCH  28  29
HETATM   29  C3  UNL     1       1.888  10.490  21.234  1.00  0.00    -0.022 C 
HETATM   30  C2  UNL     1       2.872   9.818  21.873  1.00  0.00    -0.064 C 
HETATM   31  C1  UNL     1       4.332  10.170  21.751  1.00  0.00     0.045 C 
BRANCH  30  32
HETATM   32  C30 UNL     1       2.620   8.618  22.761  1.00  0.00     0.197 C 
BRANCH  32  33
HETATM   33  O3  UNL     1       1.679   7.717  22.195  1.00  0.00    -0.397 OA
HETATM   34  H46 UNL     1       0.856   8.223  22.083  1.00  0.00     0.209 HD
ENDBRANCH  32  33
ENDBRANCH  30  32
ENDBRANCH  28  29
ENDBRANCH  27  28
ENDBRANCH  25  27
ENDBRANCH   1  25
TORSDOF 6
ENDMDL
MODEL 3
REMARK minimizedAffinity -6.89146948
REMARK CNNscore 0.473487437
REMARK CNNaffinity 6.82953215
REMARK  6 active torsions:
REMARK  status: ('A' for Active; 'I' for Inactive)
REMARK    1  A    between atoms: C2_2  and  C30_32 
REMARK    2  A    between atoms: C3_3  and  C4_4 
REMARK    3  A    between atoms: C4_4  and  C5_5 
REMARK    4  A    between atoms: C5_5  and  C6_6 
REMARK    5  A    between atoms: C6_6  and  C8_8 
REMARK    6  A    between atoms: C30_32  and  O3_33 
ROOT
HETATM    1  C8  UNL     1     -10.089   7.595  15.012  1.00  0.00    -0.002 C 
HETATM    2  C9  UNL     1      -9.635   9.063  14.777  1.00  0.00     0.007 C 
HETATM    3  C10 UNL     1     -10.872   9.844  14.291  1.00  0.00     0.015 C 
HETATM    4  C11 UNL     1     -12.075   8.942  14.636  1.00  0.00    -0.005 C 
HETATM    5  C12 UNL     1     -12.407   9.177  16.143  1.00  0.00     0.021 C 
HETATM    6  C13 UNL     1     -13.408   9.117  13.923  1.00  0.00    -0.000 C 
HETATM    7  C14 UNL     1     -14.264   8.078  13.754  1.00  0.00    -0.060 C 
HETATM    8  C15 UNL     1     -13.859   6.660  14.196  1.00  0.00     0.036 C 
HETATM    9  C16 UNL     1     -12.448   6.464  14.794  1.00  0.00     0.015 C 
HETATM   10  C17 UNL     1     -11.465   7.525  14.288  1.00  0.00    -0.028 C 
HETATM   11  C18 UNL     1     -11.265   7.308  12.759  1.00  0.00     0.016 C 
HETATM   12  C19 UNL     1     -15.658   8.212  13.094  1.00  0.00    -0.014 C 
HETATM   13  C20 UNL     1     -15.559   7.592  11.672  1.00  0.00     0.020 C 
HETATM   14  C21 UNL     1     -16.722   7.412  13.899  1.00  0.00     0.021 C 
HETATM   15  C22 UNL     1     -18.131   7.949  13.718  1.00  0.00     0.080 C 
HETATM   16  C23 UNL     1     -18.203   9.326  14.332  1.00  0.00     0.135 C 
HETATM   17  O1  UNL     1     -19.196   9.661  14.978  1.00  0.00    -0.297 OA
HETATM   18  C24 UNL     1     -17.003  10.269  14.114  1.00  0.00     0.018 C 
HETATM   19  C25 UNL     1     -16.269  10.401  15.456  1.00  0.00     0.023 C 
HETATM   20  C26 UNL     1     -17.585  11.653  13.746  1.00  0.00     0.023 C 
HETATM   21  C27 UNL     1     -16.129   9.708  12.931  1.00  0.00     0.020 C 
HETATM   22  C28 UNL     1     -14.956  10.595  12.506  1.00  0.00     0.090 C 
HETATM   23  C29 UNL     1     -13.786  10.479  13.444  1.00  0.00     0.157 C 
HETATM   24  O2  UNL     1     -13.147  11.475  13.769  1.00  0.00    -0.293 OA
ENDROOT
BRANCH   1  25
HETATM   25  C6  UNL     1      -8.955   6.545  14.800  1.00  0.00    -0.014 C 
HETATM   26  C7  UNL     1      -8.212   6.083  16.056  1.00  0.00     0.010 C 
BRANCH  25  27
HETATM   27  C5  UNL     1      -7.973   6.995  13.690  1.00  0.00     0.008 C 
BRANCH  27  28
HETATM   28  C4  UNL     1      -6.785   6.047  13.448  1.00  0.00     0.028 C 
BRANCH  28  29
HETATM   29  C3  UNL     1      -7.188   4.653  13.057  1.00  0.00    -0.022 C 
HETATM   30  C2  UNL     1      -6.390   3.656  12.611  1.00  0.00    -0.064 C 
HETATM   31  C1  UNL     1      -4.897   3.793  12.461  1.00  0.00     0.045 C 
BRANCH  30  32
HETATM   32  C30 UNL     1      -6.910   2.299  12.187  1.00  0.00     0.197 C 
BRANCH  32  33
HETATM   33  O3  UNL     1      -8.215   2.043  12.685  1.00  0.00    -0.397 OA
HETATM   34  H46 UNL     1      -8.145   2.080  13.655  1.00  0.00     0.209 HD
ENDBRANCH  32  33
ENDBRANCH  30  32
ENDBRANCH  28  29
ENDBRANCH  27  28
ENDBRANCH  25  27
ENDBRANCH   1  25
TORSDOF 6
ENDMDL
MODEL 4
REMARK minimizedAffinity -7.65007448
REMARK CNNscore 0.466654569
REMARK CNNaffinity 7.06295443
REMARK  6 active torsions:
REMARK  status: ('A' for Active; 'I' for Inactive)
REMARK    1  A    between atoms: C2_2  and  C30_32 
REMARK    2  A    between atoms: C3_3  and  C4_4 
REMARK    3  A    between atoms: C4_4  and  C5_5 
REMARK    4  A    between atoms: C5_5  and  C6_6 
REMARK    5  A    between atoms: C6_6  and  C8_8 
REMARK    6  A    between atoms: C30_32  and  O3_33 
ROOT
HETATM    1  C8  UNL     1      -6.647   5.051  13.104  1.00  0.00    -0.002 C 
HETATM    2  C9  UNL     1      -7.749   4.028  12.710  1.00  0.00     0.007 C 
HETATM    3  C10 UNL     1      -9.105   4.661  13.084  1.00  0.00     0.015 C 
HETATM    4  C11 UNL     1      -8.801   6.158  13.300  1.00  0.00    -0.005 C 
HETATM    5  C12 UNL     1      -8.774   6.828  11.890  1.00  0.00     0.021 C 
HETATM    6  C13 UNL     1      -9.741   7.032  14.117  1.00  0.00    -0.000 C 
HETATM    7  C14 UNL     1      -9.290   8.118  14.795  1.00  0.00    -0.060 C 
HETATM    8  C15 UNL     1      -7.785   8.437  14.834  1.00  0.00     0.036 C 
HETATM    9  C16 UNL     1      -6.820   7.468  14.117  1.00  0.00     0.015 C 
HETATM   10  C17 UNL     1      -7.401   6.052  14.028  1.00  0.00    -0.028 C 
HETATM   11  C18 UNL     1      -7.509   5.483  15.473  1.00  0.00     0.016 C 
HETATM   12  C19 UNL     1     -10.210   9.077  15.589  1.00  0.00    -0.014 C 
HETATM   13  C20 UNL     1      -9.994   8.782  17.099  1.00  0.00     0.020 C 
HETATM   14  C21 UNL     1      -9.813  10.558  15.323  1.00  0.00     0.021 C 
HETATM   15  C22 UNL     1     -10.963  11.527  15.533  1.00  0.00     0.080 C 
HETATM   16  C23 UNL     1     -12.016  11.262  14.485  1.00  0.00     0.135 C 
HETATM   17  O1  UNL     1     -12.594  12.202  13.940  1.00  0.00    -0.297 OA
HETATM   18  C24 UNL     1     -12.323   9.792  14.138  1.00  0.00     0.018 C 
HETATM   19  C25 UNL     1     -11.761   9.520  12.735  1.00  0.00     0.023 C 
HETATM   20  C26 UNL     1     -13.862   9.662  14.073  1.00  0.00     0.023 C 
HETATM   21  C27 UNL     1     -11.742   8.873  15.276  1.00  0.00     0.020 C 
HETATM   22  C28 UNL     1     -12.067   7.383  15.144  1.00  0.00     0.090 C 
HETATM   23  C29 UNL     1     -11.195   6.699  14.127  1.00  0.00     0.157 C 
HETATM   24  O2  UNL     1     -11.670   5.867  13.360  1.00  0.00    -0.293 OA
ENDROOT
BRANCH   1  25
HETATM   25  C6  UNL     1      -5.286   4.392  13.486  1.00  0.00    -0.014 C 
HETATM   26  C7  UNL     1      -4.120   5.347  13.755  1.00  0.00     0.010 C 
BRANCH  25  27
HETATM   27  C5  UNL     1      -4.895   3.285  12.476  1.00  0.00     0.008 C 
BRANCH  27  28
HETATM   28  C4  UNL     1      -3.648   3.589  11.627  1.00  0.00     0.028 C 
BRANCH  28  29
HETATM   29  C3  UNL     1      -2.876   2.365  11.218  1.00  0.00    -0.022 C 
HETATM   30  C2  UNL     1      -1.534   2.199  11.213  1.00  0.00    -0.064 C 
HETATM   31  C1  UNL     1      -0.565   3.258  11.668  1.00  0.00     0.045 C 
BRANCH  30  32
HETATM   32  C30 UNL     1      -0.853   0.938  10.723  1.00  0.00     0.197 C 
BRANCH  32  33
HETATM   33  O3  UNL     1      -0.845   0.847   9.305  1.00  0.00    -0.397 OA
HETATM   34  H46 UNL     1      -1.779   0.845   9.031  1.00  0.00     0.209 HD
ENDBRANCH  32  33
ENDBRANCH  30  32
ENDBRANCH  28  29
ENDBRANCH  27  28
ENDBRANCH  25  27
ENDBRANCH   1  25
TORSDOF 6
ENDMDL
MODEL 5
REMARK minimizedAffinity -8.57751179
REMARK CNNscore 0.459534854
REMARK CNNaffinity 6.93785429
REMARK  6 active torsions:
REMARK  status: ('A' for Active; 'I' for Inactive)
REMARK    1  A    between atoms: C2_2  and  C30_32 
REMARK    2  A    between atoms: C3_3  and  C4_4 
REMARK    3  A    between atoms: C4_4  and  C5_5 
REMARK    4  A    between atoms: C5_5  and  C6_6 
REMARK    5  A    between atoms: C6_6  and  C8_8 
REMARK    6  A    between atoms: C30_32  and  O3_33 
ROOT
HETATM    1  C8  UNL     1      -6.272   7.269  14.572  1.00  0.00    -0.002 C 
HETATM    2  C9  UNL     1      -5.922   8.570  15.347  1.00  0.00     0.007 C 
HETATM    3  C10 UNL     1      -4.415   8.824  15.143  1.00  0.00     0.015 C 
HETATM    4  C11 UNL     1      -4.015   7.924  13.955  1.00  0.00    -0.005 C 
HETATM    5  C12 UNL     1      -4.411   8.685  12.651  1.00  0.00     0.021 C 
HETATM    6  C13 UNL     1      -2.563   7.526  13.735  1.00  0.00    -0.000 C 
HETATM    7  C14 UNL     1      -2.231   6.363  13.122  1.00  0.00    -0.060 C 
HETATM    8  C15 UNL     1      -3.327   5.360  12.718  1.00  0.00     0.036 C 
HETATM    9  C16 UNL     1      -4.791   5.707  13.068  1.00  0.00     0.015 C 
HETATM   10  C17 UNL     1      -4.878   6.639  14.281  1.00  0.00    -0.028 C 
HETATM   11  C18 UNL     1      -4.361   5.861  15.527  1.00  0.00     0.016 C 
HETATM   12  C19 UNL     1      -0.774   5.938  12.815  1.00  0.00    -0.014 C 
HETATM   13  C20 UNL     1      -0.393   4.824  13.830  1.00  0.00     0.020 C 
HETATM   14  C21 UNL     1      -0.669   5.345  11.381  1.00  0.00     0.021 C 
HETATM   15  C22 UNL     1       0.722   5.473  10.786  1.00  0.00     0.080 C 
HETATM   16  C23 UNL     1       1.023   6.937  10.573  1.00  0.00     0.135 C 
HETATM   17  O1  UNL     1       1.602   7.304   9.552  1.00  0.00    -0.297 OA
HETATM   18  C24 UNL     1       0.578   7.923  11.670  1.00  0.00     0.018 C 
HETATM   19  C25 UNL     1      -0.601   8.734  11.113  1.00  0.00     0.023 C 
HETATM   20  C26 UNL     1       1.759   8.892  11.903  1.00  0.00     0.023 C 
HETATM   21  C27 UNL     1       0.265   7.112  12.982  1.00  0.00     0.020 C 
HETATM   22  C28 UNL     1      -0.078   7.960  14.210  1.00  0.00     0.090 C 
HETATM   23  C29 UNL     1      -1.492   8.470  14.172  1.00  0.00     0.157 C 
HETATM   24  O2  UNL     1      -1.750   9.617  14.526  1.00  0.00    -0.293 OA
ENDROOT
BRANCH   1  25
HETATM   25  C6  UNL     1      -7.460   6.469  15.190  1.00  0.00    -0.014 C 
HETATM   26  C7  UNL     1      -7.291   4.949  15.265  1.00  0.00     0.010 C 
BRANCH  25  27
HETATM   27  C5  UNL     1      -8.805   6.863  14.532  1.00  0.00     0.008 C 
BRANCH  27  28
HETATM   28  C4  UNL     1      -9.717   7.753  15.395  1.00  0.00     0.028 C 
BRANCH  28  29
HETATM   29  C3  UNL     1     -10.439   8.819  14.620  1.00  0.00    -0.022 C 
HETATM   30  C2  UNL     1     -11.328   8.650  13.615  1.00  0.00    -0.064 C 
HETATM   31  C1  UNL     1     -11.772   7.299  13.117  1.00  0.00     0.045 C 
BRANCH  30  32
HETATM   32  C30 UNL     1     -11.957   9.801  12.857  1.00  0.00     0.197 C 
BRANCH  32  33
HETATM   33  O3  UNL     1     -11.873   9.628  11.449  1.00  0.00    -0.397 OA
HETATM   34  H46 UNL     1     -10.925   9.576  11.241  1.00  0.00     0.209 HD
ENDBRANCH  32  33
ENDBRANCH  30  32
ENDBRANCH  28  29
ENDBRANCH  27  28
ENDBRANCH  25  27
ENDBRANCH   1  25
TORSDOF 6
ENDMDL
MODEL 6
REMARK minimizedAffinity -6.80999994
REMARK CNNscore 0.442746341
REMARK CNNaffinity 6.69126129
REMARK  6 active torsions:
REMARK  status: ('A' for Active; 'I' for Inactive)
REMARK    1  A    between atoms: C2_2  and  C30_32 
REMARK    2  A    between atoms: C3_3  and  C4_4 
REMARK    3  A    between atoms: C4_4  and  C5_5 
REMARK    4  A    between atoms: C5_5  and  C6_6 
REMARK    5  A    between atoms: C6_6  and  C8_8 
REMARK    6  A    between atoms: C30_32  and  O3_33 
ROOT
HETATM    1  C8  UNL     1       1.164  11.713  18.125  1.00  0.00    -0.002 C 
HETATM    2  C9  UNL     1      -0.002  12.717  17.901  1.00  0.00     0.007 C 
HETATM    3  C10 UNL     1      -0.909  12.116  16.809  1.00  0.00     0.015 C 
HETATM    4  C11 UNL     1      -0.494  10.633  16.716  1.00  0.00    -0.005 C 
HETATM    5  C12 UNL     1      -1.229   9.879  17.867  1.00  0.00     0.021 C 
HETATM    6  C13 UNL     1      -0.804   9.816  15.469  1.00  0.00    -0.000 C 
HETATM    7  C14 UNL     1      -0.024   8.771  15.095  1.00  0.00    -0.060 C 
HETATM    8  C15 UNL     1       1.262   8.445  15.875  1.00  0.00     0.036 C 
HETATM    9  C16 UNL     1       1.645   9.364  17.056  1.00  0.00     0.015 C 
HETATM   10  C17 UNL     1       1.071  10.775  16.886  1.00  0.00    -0.028 C 
HETATM   11  C18 UNL     1       1.761  11.431  15.654  1.00  0.00     0.016 C 
HETATM   12  C19 UNL     1      -0.327   7.867  13.875  1.00  0.00    -0.014 C 
HETATM   13  C20 UNL     1       0.676   8.252  12.752  1.00  0.00     0.020 C 
HETATM   14  C21 UNL     1      -0.101   6.371  14.235  1.00  0.00     0.021 C 
HETATM   15  C22 UNL     1      -0.917   5.423  13.374  1.00  0.00     0.080 C 
HETATM   16  C23 UNL     1      -2.380   5.631  13.681  1.00  0.00     0.135 C 
HETATM   17  O1  UNL     1      -3.135   4.663  13.764  1.00  0.00    -0.297 OA
HETATM   18  C24 UNL     1      -2.869   7.079  13.879  1.00  0.00     0.018 C 
HETATM   19  C25 UNL     1      -3.180   7.262  15.372  1.00  0.00     0.023 C 
HETATM   20  C26 UNL     1      -4.192   7.214  13.092  1.00  0.00     0.023 C 
HETATM   21  C27 UNL     1      -1.783   8.062  13.302  1.00  0.00     0.020 C 
HETATM   22  C28 UNL     1      -2.169   9.543  13.313  1.00  0.00     0.090 C 
HETATM   23  C29 UNL     1      -2.022  10.159  14.677  1.00  0.00     0.157 C 
HETATM   24  O2  UNL     1      -2.864  10.946  15.100  1.00  0.00    -0.293 OA
ENDROOT
BRANCH   1  25
HETATM   25  C6  UNL     1       2.491  12.386  18.593  1.00  0.00    -0.014 C 
HETATM   26  C7  UNL     1       3.785  11.638  18.262  1.00  0.00     0.010 C 
BRANCH  25  27
HETATM   27  C5  UNL     1       2.425  12.778  20.090  1.00  0.00     0.008 C 
BRANCH  27  28
HETATM   28  C4  UNL     1       3.379  11.997  21.010  1.00  0.00     0.028 C 
BRANCH  28  29
HETATM   29  C3  UNL     1       2.763  10.775  21.632  1.00  0.00    -0.022 C 
HETATM   30  C2  UNL     1       3.289   9.983  22.593  1.00  0.00    -0.064 C 
HETATM   31  C1  UNL     1       4.627  10.236  23.238  1.00  0.00     0.045 C 
BRANCH  30  32
HETATM   32  C30 UNL     1       2.605   8.734  23.111  1.00  0.00     0.197 C 
BRANCH  32  33
HETATM   33  O3  UNL     1       1.783   8.124  22.126  1.00  0.00    -0.397 OA
HETATM   34  H46 UNL     1       1.116   8.788  21.883  1.00  0.00     0.209 HD
ENDBRANCH  32  33
ENDBRANCH  30  32
ENDBRANCH  28  29
ENDBRANCH  27  28
ENDBRANCH  25  27
ENDBRANCH   1  25
TORSDOF 6
ENDMDL
MODEL 7
REMARK minimizedAffinity -7.11782265
REMARK CNNscore 0.431040078
REMARK CNNaffinity 7.14450312
REMARK  6 active torsions:
REMARK  status: ('A' for Active; 'I' for Inactive)
REMARK    1  A    between atoms: C2_2  and  C30_32 
REMARK    2  A    between atoms: C3_3  and  C4_4 
REMARK    3  A    between atoms: C4_4  and  C5_5 
REMARK    4  A    between atoms: C5_5  and  C6_6 
REMARK    5  A    between atoms: C6_6  and  C8_8 
REMARK    6  A    between atoms: C30_32  and  O3_33 
ROOT
HETATM    1  C8  UNL     1      -8.245   7.335  14.461  1.00  0.00    -0.002 C 
HETATM    2  C9  UNL     1      -7.624   7.935  15.754  1.00  0.00     0.007 C 
HETATM    3  C10 UNL     1      -6.147   7.494  15.791  1.00  0.00     0.015 C 
HETATM    4  C11 UNL     1      -5.840   7.007  14.360  1.00  0.00    -0.005 C 
HETATM    5  C12 UNL     1      -5.533   8.274  13.501  1.00  0.00     0.021 C 
HETATM    6  C13 UNL     1      -4.668   6.074  14.091  1.00  0.00    -0.000 C 
HETATM    7  C14 UNL     1      -4.679   5.202  13.052  1.00  0.00    -0.060 C 
HETATM    8  C15 UNL     1      -5.933   5.064  12.170  1.00  0.00     0.036 C 
HETATM    9  C16 UNL     1      -7.170   5.915  12.532  1.00  0.00     0.015 C 
HETATM   10  C17 UNL     1      -7.197   6.270  14.023  1.00  0.00    -0.028 C 
HETATM   11  C18 UNL     1      -7.390   4.952  14.829  1.00  0.00     0.016 C 
HETATM   12  C19 UNL     1      -3.490   4.277  12.695  1.00  0.00    -0.014 C 
HETATM   13  C20 UNL     1      -3.874   2.837  13.137  1.00  0.00     0.020 C 
HETATM   14  C21 UNL     1      -3.252   4.264  11.158  1.00  0.00     0.021 C 
HETATM   15  C22 UNL     1      -1.822   3.918  10.781  1.00  0.00     0.080 C 
HETATM   16  C23 UNL     1      -0.915   5.026  11.258  1.00  0.00     0.135 C 
HETATM   17  O1  UNL     1       0.013   5.411  10.549  1.00  0.00    -0.297 OA
HETATM   18  C24 UNL     1      -1.203   5.637  12.643  1.00  0.00     0.018 C 
HETATM   19  C25 UNL     1      -1.763   7.049  12.420  1.00  0.00     0.023 C 
HETATM   20  C26 UNL     1       0.157   5.768  13.364  1.00  0.00     0.023 C 
HETATM   21  C27 UNL     1      -2.154   4.664  13.437  1.00  0.00     0.020 C 
HETATM   22  C28 UNL     1      -2.444   5.068  14.885  1.00  0.00     0.090 C 
HETATM   23  C29 UNL     1      -3.468   6.165  14.975  1.00  0.00     0.157 C 
HETATM   24  O2  UNL     1      -3.330   7.082  15.779  1.00  0.00    -0.293 OA
ENDROOT
BRANCH   1  25
HETATM   25  C6  UNL     1      -9.772   7.038  14.576  1.00  0.00    -0.014 C 
HETATM   26  C7  UNL     1     -10.470   6.561  13.300  1.00  0.00     0.010 C 
BRANCH  25  27
HETATM   27  C5  UNL     1     -10.527   8.221  15.232  1.00  0.00     0.008 C 
BRANCH  27  28
HETATM   28  C4  UNL     1     -12.024   7.975  15.490  1.00  0.00     0.028 C 
BRANCH  28  29
HETATM   29  C3  UNL     1     -12.934   8.898  14.729  1.00  0.00    -0.022 C 
HETATM   30  C2  UNL     1     -13.903   8.560  13.848  1.00  0.00    -0.064 C 
HETATM   31  C1  UNL     1     -14.253   7.136  13.503  1.00  0.00     0.045 C 
BRANCH  30  32
HETATM   32  C30 UNL     1     -14.727   9.578  13.087  1.00  0.00     0.197 C 
BRANCH  32  33
HETATM   33  O3  UNL     1     -14.461   9.552  11.692  1.00  0.00    -0.397 OA
HETATM   34  H46 UNL     1     -13.515   9.757  11.596  1.00  0.00     0.209 HD
ENDBRANCH  32  33
ENDBRANCH  30  32
ENDBRANCH  28  29
ENDBRANCH  27  28
ENDBRANCH  25  27
ENDBRANCH   1  25
TORSDOF 6
ENDMDL
MODEL 8
REMARK minimizedAffinity -6.45574427
REMARK CNNscore 0.420819163
REMARK CNNaffinity 5.87678957
REMARK  6 active torsions:
REMARK  status: ('A' for Active; 'I' for Inactive)
REMARK    1  A    between atoms: C2_2  and  C30_32 
REMARK    2  A    between atoms: C3_3  and  C4_4 
REMARK    3  A    between atoms: C4_4  and  C5_5 
REMARK    4  A    between atoms: C5_5  and  C6_6 
REMARK    5  A    between atoms: C6_6  and  C8_8 
REMARK    6  A    between atoms: C30_32  and  O3_33 
ROOT
HETATM    1  C8  UNL     1     -14.316  -4.900   9.983  1.00  0.00    -0.002 C 
HETATM    2  C9  UNL     1     -14.020  -3.467   9.459  1.00  0.00     0.007 C 
HETATM    3  C10 UNL     1     -14.615  -2.481  10.484  1.00  0.00     0.015 C 
HETATM    4  C11 UNL     1     -14.875  -3.326  11.748  1.00  0.00    -0.005 C 
HETATM    5  C12 UNL     1     -13.518  -3.439  12.510  1.00  0.00     0.021 C 
HETATM    6  C13 UNL     1     -15.866  -2.860  12.804  1.00  0.00    -0.000 C 
HETATM    7  C14 UNL     1     -16.537  -3.743  13.586  1.00  0.00    -0.060 C 
HETATM    8  C15 UNL     1     -16.385  -5.257  13.352  1.00  0.00     0.036 C 
HETATM    9  C16 UNL     1     -15.484  -5.722  12.187  1.00  0.00     0.015 C 
HETATM   10  C17 UNL     1     -15.394  -4.663  11.082  1.00  0.00    -0.028 C 
HETATM   11  C18 UNL     1     -16.804  -4.516  10.439  1.00  0.00     0.016 C 
HETATM   12  C19 UNL     1     -17.507  -3.324  14.717  1.00  0.00    -0.014 C 
HETATM   13  C20 UNL     1     -18.953  -3.582  14.208  1.00  0.00     0.020 C 
HETATM   14  C21 UNL     1     -17.277  -4.196  15.985  1.00  0.00     0.021 C 
HETATM   15  C22 UNL     1     -17.703  -3.504  17.267  1.00  0.00     0.080 C 
HETATM   16  C23 UNL     1     -16.797  -2.319  17.499  1.00  0.00     0.135 C 
HETATM   17  O1  UNL     1     -16.396  -2.063  18.634  1.00  0.00    -0.297 OA
HETATM   18  C24 UNL     1     -16.411  -1.466  16.275  1.00  0.00     0.018 C 
HETATM   19  C25 UNL     1     -14.929  -1.735  15.973  1.00  0.00     0.023 C 
HETATM   20  C26 UNL     1     -16.553   0.013  16.700  1.00  0.00     0.023 C 
HETATM   21  C27 UNL     1     -17.400  -1.797  15.096  1.00  0.00     0.020 C 
HETATM   22  C28 UNL     1     -17.226  -0.944  13.837  1.00  0.00     0.090 C 
HETATM   23  C29 UNL     1     -16.059  -1.393  13.002  1.00  0.00     0.157 C 
HETATM   24  O2  UNL     1     -15.317  -0.570  12.475  1.00  0.00    -0.293 OA
ENDROOT
BRANCH   1  25
HETATM   25  C6  UNL     1     -14.464  -5.965   8.853  1.00  0.00    -0.014 C 
HETATM   26  C7  UNL     1     -13.384  -7.048   8.794  1.00  0.00     0.010 C 
BRANCH  25  27
HETATM   27  C5  UNL     1     -14.677  -5.295   7.474  1.00  0.00     0.008 C 
BRANCH  27  28
HETATM   28  C4  UNL     1     -13.396  -4.769   6.801  1.00  0.00     0.028 C 
BRANCH  28  29
HETATM   29  C3  UNL     1     -13.080  -5.431   5.490  1.00  0.00    -0.022 C 
HETATM   30  C2  UNL     1     -12.574  -4.857   4.375  1.00  0.00    -0.064 C 
HETATM   31  C1  UNL     1     -12.205  -3.399   4.287  1.00  0.00     0.045 C 
BRANCH  30  32
HETATM   32  C30 UNL     1     -12.347  -5.609   3.080  1.00  0.00     0.197 C 
BRANCH  32  33
HETATM   33  O3  UNL     1     -13.083  -5.055   2.000  1.00  0.00    -0.397 OA
HETATM   34  H46 UNL     1     -14.020  -5.113   2.254  1.00  0.00     0.209 HD
ENDBRANCH  32  33
ENDBRANCH  30  32
ENDBRANCH  28  29
ENDBRANCH  27  28
ENDBRANCH  25  27
ENDBRANCH   1  25
TORSDOF 6
ENDMDL
MODEL 9
REMARK minimizedAffinity -6.58673477
REMARK CNNscore 0.383627415
REMARK CNNaffinity 5.79515982
REMARK  6 active torsions:
REMARK  status: ('A' for Active; 'I' for Inactive)
REMARK    1  A    between atoms: C2_2  and  C30_32 
REMARK    2  A    between atoms: C3_3  and  C4_4 
REMARK    3  A    between atoms: C4_4  and  C5_5 
REMARK    4  A    between atoms: C5_5  and  C6_6 
REMARK    5  A    between atoms: C6_6  and  C8_8 
REMARK    6  A    between atoms: C30_32  and  O3_33 
ROOT
HETATM    1  C8  UNL     1     -16.850   2.400  14.871  1.00  0.00    -0.002 C 
HETATM    2  C9  UNL     1     -17.174   2.064  16.353  1.00  0.00     0.007 C 
HETATM    3  C10 UNL     1     -16.946   0.550  16.533  1.00  0.00     0.015 C 
HETATM    4  C11 UNL     1     -16.124   0.122  15.300  1.00  0.00    -0.005 C 
HETATM    5  C12 UNL     1     -14.633   0.473  15.599  1.00  0.00     0.021 C 
HETATM    6  C13 UNL     1     -16.088  -1.334  14.857  1.00  0.00    -0.000 C 
HETATM    7  C14 UNL     1     -15.892  -1.676  13.558  1.00  0.00    -0.060 C 
HETATM    8  C15 UNL     1     -15.799  -0.586  12.476  1.00  0.00     0.036 C 
HETATM    9  C16 UNL     1     -15.974   0.885  12.912  1.00  0.00     0.015 C 
HETATM   10  C17 UNL     1     -16.820   1.002  14.186  1.00  0.00    -0.028 C 
HETATM   11  C18 UNL     1     -18.264   0.529  13.851  1.00  0.00     0.016 C 
HETATM   12  C19 UNL     1     -15.784  -3.138  13.062  1.00  0.00    -0.014 C 
HETATM   13  C20 UNL     1     -17.114  -3.481  12.335  1.00  0.00     0.020 C 
HETATM   14  C21 UNL     1     -14.621  -3.283  12.039  1.00  0.00     0.021 C 
HETATM   15  C22 UNL     1     -14.059  -4.692  11.974  1.00  0.00     0.080 C 
HETATM   16  C23 UNL     1     -13.396  -5.009  13.292  1.00  0.00     0.135 C 
HETATM   17  O1  UNL     1     -12.329  -5.621  13.313  1.00  0.00    -0.297 OA
HETATM   18  C24 UNL     1     -14.102  -4.538  14.578  1.00  0.00     0.018 C 
HETATM   19  C25 UNL     1     -13.279  -3.382  15.162  1.00  0.00     0.023 C 
HETATM   20  C26 UNL     1     -14.048  -5.719  15.573  1.00  0.00     0.023 C 
HETATM   21  C27 UNL     1     -15.596  -4.180  14.231  1.00  0.00     0.020 C 
HETATM   22  C28 UNL     1     -16.474  -3.806  15.428  1.00  0.00     0.090 C 
HETATM   23  C29 UNL     1     -16.231  -2.398  15.894  1.00  0.00     0.157 C 
HETATM   24  O2  UNL     1     -16.189  -2.137  17.093  1.00  0.00    -0.293 OA
ENDROOT
BRANCH   1  25
HETATM   25  C6  UNL     1     -17.655   3.612  14.309  1.00  0.00    -0.014 C 
HETATM   26  C7  UNL     1     -17.876   3.638  12.794  1.00  0.00     0.010 C 
BRANCH  25  27
HETATM   27  C5  UNL     1     -17.084   4.955  14.827  1.00  0.00     0.008 C 
BRANCH  27  28
HETATM   28  C4  UNL     1     -15.553   5.087  14.741  1.00  0.00     0.028 C 
BRANCH  28  29
HETATM   29  C3  UNL     1     -15.087   6.214  13.861  1.00  0.00    -0.022 C 
HETATM   30  C2  UNL     1     -15.849   7.101  13.183  1.00  0.00    -0.064 C 
HETATM   31  C1  UNL     1     -17.355   7.112  13.232  1.00  0.00     0.045 C 
BRANCH  30  32
HETATM   32  C30 UNL     1     -15.275   8.168  12.273  1.00  0.00     0.197 C 
BRANCH  32  33
HETATM   33  O3  UNL     1     -15.938   8.218  11.018  1.00  0.00    -0.397 OA
HETATM   34  H46 UNL     1     -15.817   7.341  10.614  1.00  0.00     0.209 HD
ENDBRANCH  32  33
ENDBRANCH  30  32
ENDBRANCH  28  29
ENDBRANCH  27  28
ENDBRANCH  25  27
ENDBRANCH   1  25
TORSDOF 6
ENDMDL
