MODEL 1
REMARK minimizedAffinity -7.0528388
REMARK CNNscore 0.640053034
REMARK CNNaffinity 5.95433998
REMARK  10 active torsions:
REMARK  status: ('A' for Active; 'I' for Inactive)
REMARK    1  A    between atoms: C9_9  and  O1_10 
REMARK    2  A    between atoms: C11_12  and  O2_13 
REMARK    3  A    between atoms: O2_13  and  C12_14 
REMARK    4  A    between atoms: C14_16  and  O3_17 
REMARK    5  A    between atoms: C15_18  and  O4_19 
REMARK    6  A    between atoms: C16_20  and  C17_21 
REMARK    7  A    between atoms: C17_21  and  O5_22 
REMARK    8  A    between atoms: C20_26  and  C21_27 
REMARK    9  A    between atoms: C22_29  and  O8_30 
REMARK   10  A    between atoms: C25_33  and  C26_34 
ROOT
HETATM    1  C1  UNL     1       6.164  11.647  21.276  1.00  0.00     0.019 C 
HETATM    2  C2  UNL     1       5.109  12.632  21.821  1.00  0.00    -0.005 C 
HETATM    3  C3  UNL     1       3.932  11.805  22.411  1.00  0.00     0.013 C 
HETATM    4  C4  UNL     1       3.056  11.135  21.351  1.00  0.00     0.007 C 
HETATM    5  C5  UNL     1       2.472  12.188  20.394  1.00  0.00     0.011 C 
HETATM    6  C6  UNL     1       3.615  12.991  19.713  1.00  0.00     0.026 C 
HETATM    7  C7  UNL     1       3.065  13.980  18.659  1.00  0.00     0.011 C 
HETATM    8  C8  UNL     1       1.562  14.205  18.773  1.00  0.00     0.039 C 
HETATM    9  C9  UNL     1       0.741  12.905  18.641  1.00  0.00     0.074 C 
HETATM   10  C10 UNL     1      -0.668  13.186  19.218  1.00  0.00     0.071 C 
HETATM   11  C11 UNL     1      -1.625  12.010  19.008  1.00  0.00     0.127 C 
HETATM   12  C18 UNL     1      -0.958  10.658  19.276  1.00  0.00     0.033 C 
HETATM   13  C19 UNL     1       0.341  10.790  20.069  1.00  0.00     0.022 C 
HETATM   14  C20 UNL     1       1.416  11.666  19.353  1.00  0.00     0.048 C 
HETATM   15  C22 UNL     1       4.604  13.629  20.732  1.00  0.00     0.070 C 
HETATM   16  C23 UNL     1       4.024  14.808  21.531  1.00  0.00     0.040 C 
HETATM   17  C24 UNL     1       4.676  14.769  22.918  1.00  0.00     0.013 C 
HETATM   18  C25 UNL     1       5.665  13.583  22.938  1.00  0.00     0.028 C 
ENDROOT
BRANCH  11  19
HETATM   19  O2  UNL     1      -2.031  12.031  17.632  1.00  0.00    -0.356 OA
BRANCH  19  20
HETATM   20  C12 UNL     1      -1.662  10.871  16.895  1.00  0.00     0.263 C 
HETATM   21  C13 UNL     1      -2.701   9.763  17.007  1.00  0.00     0.095 C 
HETATM   22  C14 UNL     1      -3.975  10.139  16.264  1.00  0.00     0.154 C 
HETATM   23  C15 UNL     1      -3.668  10.555  14.819  1.00  0.00     0.178 C 
HETATM   24  C16 UNL     1      -2.547  11.598  14.738  1.00  0.00     0.179 C 
HETATM   25  O6  UNL     1      -1.407  11.199  15.526  1.00  0.00    -0.351 OA
BRANCH  22  26
HETATM   26  O3  UNL     1      -4.845   9.001  16.265  1.00  0.00    -0.393 OA
HETATM   27  H22 UNL     1      -4.636   8.504  15.446  1.00  0.00     0.210 HD
ENDBRANCH  22  26
BRANCH  23  28
HETATM   28  O4  UNL     1      -3.255   9.360  14.112  1.00  0.00    -0.390 OA
HETATM   29  H24 UNL     1      -2.294   9.257  14.259  1.00  0.00     0.210 HD
ENDBRANCH  23  28
BRANCH  24  30
HETATM   30  C17 UNL     1      -2.978  13.053  14.997  1.00  0.00     0.198 C 
BRANCH  30  31
HETATM   31  O5  UNL     1      -4.390  13.226  15.004  1.00  0.00    -0.398 OA
HETATM   32  H28 UNL     1      -4.562  14.151  15.270  1.00  0.00     0.209 HD
ENDBRANCH  30  31
ENDBRANCH  24  30
ENDBRANCH  19  20
ENDBRANCH  11  19
BRANCH   9  33
HETATM   33  O1  UNL     1       0.617  12.661  17.230  1.00  0.00    -0.389 OA
HETATM   34  H14 UNL     1      -0.340  12.678  17.000  1.00  0.00     0.210 HD
ENDBRANCH   9  33
BRANCH  14  35
HETATM   35  C21 UNL     1       2.057  10.737  18.303  1.00  0.00     0.244 C 
HETATM   36  O7  UNL     1       2.503   9.614  18.519  1.00  0.00    -0.306 OA
ENDBRANCH  14  35
BRANCH  15  37
HETATM   37  O8  UNL     1       5.751  14.119  20.024  1.00  0.00    -0.389 OA
HETATM   38  H34 UNL     1       5.467  14.618  19.242  1.00  0.00     0.210 HD
ENDBRANCH  15  37
BRANCH  18  39
HETATM   39  C26 UNL     1       7.110  14.017  22.843  1.00  0.00    -0.045 A 
HETATM   40  C27 UNL     1       7.615  15.207  22.511  1.00  0.00     0.087 A 
HETATM   41  C28 UNL     1       9.067  15.109  22.606  1.00  0.00     0.283 A 
HETATM   42  O9  UNL     1       9.843  16.011  22.354  1.00  0.00    -0.260 OA
HETATM   43  O10 UNL     1       9.403  13.862  23.032  1.00  0.00    -0.314 OA
HETATM   44  C29 UNL     1       8.214  13.092  23.200  1.00  0.00     0.213 A 
ENDBRANCH  18  39
TORSDOF 10
ENDMDL
MODEL 2
REMARK minimizedAffinity -7.54175282
REMARK CNNscore 0.524028659
REMARK CNNaffinity 5.84559774
REMARK  10 active torsions:
REMARK  status: ('A' for Active; 'I' for Inactive)
REMARK    1  A    between atoms: C9_9  and  O1_10 
REMARK    2  A    between atoms: C11_12  and  O2_13 
REMARK    3  A    between atoms: O2_13  and  C12_14 
REMARK    4  A    between atoms: C14_16  and  O3_17 
REMARK    5  A    between atoms: C15_18  and  O4_19 
REMARK    6  A    between atoms: C16_20  and  C17_21 
REMARK    7  A    between atoms: C17_21  and  O5_22 
REMARK    8  A    between atoms: C20_26  and  C21_27 
REMARK    9  A    between atoms: C22_29  and  O8_30 
REMARK   10  A    between atoms: C25_33  and  C26_34 
ROOT
HETATM    1  C1  UNL     1       5.025  11.096  20.948  1.00  0.00     0.019 C 
HETATM    2  C2  UNL     1       4.009  12.007  21.668  1.00  0.00    -0.005 C 
HETATM    3  C3  UNL     1       2.752  11.158  22.010  1.00  0.00     0.013 C 
HETATM    4  C4  UNL     1       1.891  10.812  20.794  1.00  0.00     0.007 C 
HETATM    5  C5  UNL     1       1.425  12.095  20.086  1.00  0.00     0.011 C 
HETATM    6  C6  UNL     1       2.651  12.945  19.648  1.00  0.00     0.026 C 
HETATM    7  C7  UNL     1       2.219  14.186  18.832  1.00  0.00     0.011 C 
HETATM    8  C8  UNL     1       0.730  14.489  18.942  1.00  0.00     0.039 C 
HETATM    9  C9  UNL     1      -0.165  13.318  18.485  1.00  0.00     0.074 C 
HETATM   10  C10 UNL     1      -1.580  13.564  19.061  1.00  0.00     0.071 C 
HETATM   11  C11 UNL     1      -2.599  12.540  18.553  1.00  0.00     0.127 C 
HETATM   12  C18 UNL     1      -2.034  11.117  18.526  1.00  0.00     0.033 C 
HETATM   13  C19 UNL     1      -0.771  10.969  19.373  1.00  0.00     0.022 C 
HETATM   14  C20 UNL     1       0.392  11.903  18.916  1.00  0.00     0.048 C 
HETATM   15  C22 UNL     1       3.625  13.260  20.820  1.00  0.00     0.070 C 
HETATM   16  C23 UNL     1       3.082  14.267  21.848  1.00  0.00     0.040 C 
HETATM   17  C24 UNL     1       3.658  13.866  23.211  1.00  0.00     0.013 C 
HETATM   18  C25 UNL     1       4.567  12.636  22.993  1.00  0.00     0.028 C 
ENDROOT
BRANCH  11  19
HETATM   19  O2  UNL     1      -2.932  12.903  17.206  1.00  0.00    -0.356 OA
BRANCH  19  20
HETATM   20  C12 UNL     1      -4.265  12.579  16.825  1.00  0.00     0.263 C 
HETATM   21  C13 UNL     1      -5.280  13.567  17.386  1.00  0.00     0.095 C 
HETATM   22  C14 UNL     1      -5.146  14.923  16.707  1.00  0.00     0.154 C 
HETATM   23  C15 UNL     1      -5.198  14.782  15.179  1.00  0.00     0.178 C 
HETATM   24  C16 UNL     1      -4.236  13.707  14.659  1.00  0.00     0.179 C 
HETATM   25  O6  UNL     1      -4.377  12.480  15.403  1.00  0.00    -0.351 OA
BRANCH  22  26
HETATM   26  O3  UNL     1      -6.225  15.754  17.152  1.00  0.00    -0.393 OA
HETATM   27  H22 UNL     1      -6.951  15.617  16.508  1.00  0.00     0.210 HD
ENDBRANCH  22  26
BRANCH  23  28
HETATM   28  O4  UNL     1      -6.554  14.410  14.833  1.00  0.00    -0.390 OA
HETATM   29  H24 UNL     1      -6.611  13.437  14.899  1.00  0.00     0.210 HD
ENDBRANCH  23  28
BRANCH  24  30
HETATM   30  C17 UNL     1      -2.770  14.152  14.505  1.00  0.00     0.198 C 
BRANCH  30  31
HETATM   31  O5  UNL     1      -2.433  14.519  13.172  1.00  0.00    -0.398 OA
HETATM   32  H28 UNL     1      -1.523  14.874  13.196  1.00  0.00     0.209 HD
ENDBRANCH  30  31
ENDBRANCH  24  30
ENDBRANCH  19  20
ENDBRANCH  11  19
BRANCH   9  33
HETATM   33  O1  UNL     1      -0.232  13.410  17.053  1.00  0.00    -0.389 OA
HETATM   34  H14 UNL     1      -1.173  13.549  16.799  1.00  0.00     0.210 HD
ENDBRANCH   9  33
BRANCH  14  35
HETATM   35  C21 UNL     1       1.025  11.192  17.704  1.00  0.00     0.244 C 
HETATM   36  O7  UNL     1       1.137   9.977  17.565  1.00  0.00    -0.306 OA
ENDBRANCH  14  35
BRANCH  15  37
HETATM   37  O8  UNL     1       4.836  13.812  20.284  1.00  0.00    -0.389 OA
HETATM   38  H34 UNL     1       4.624  14.494  19.629  1.00  0.00     0.210 HD
ENDBRANCH  15  37
BRANCH  18  39
HETATM   39  C26 UNL     1       6.040  12.972  23.050  1.00  0.00    -0.045 A 
HETATM   40  C27 UNL     1       7.092  12.153  23.129  1.00  0.00     0.087 A 
HETATM   41  C28 UNL     1       8.293  12.981  23.118  1.00  0.00     0.283 A 
HETATM   42  O9  UNL     1       9.430  12.557  23.196  1.00  0.00    -0.260 OA
HETATM   43  O10 UNL     1       7.934  14.287  22.994  1.00  0.00    -0.314 OA
HETATM   44  C29 UNL     1       6.510  14.375  22.952  1.00  0.00     0.213 A 
ENDBRANCH  18  39
TORSDOF 10
ENDMDL
MODEL 3
REMARK minimizedAffinity -6.43640709
REMARK CNNscore 0.445385128
REMARK CNNaffinity 5.50235701
REMARK  10 active torsions:
REMARK  status: ('A' for Active; 'I' for Inactive)
REMARK    1  A    between atoms: C9_9  and  O1_10 
REMARK    2  A    between atoms: C11_12  and  O2_13 
REMARK    3  A    between atoms: O2_13  and  C12_14 
REMARK    4  A    between atoms: C14_16  and  O3_17 
REMARK    5  A    between atoms: C15_18  and  O4_19 
REMARK    6  A    between atoms: C16_20  and  C17_21 
REMARK    7  A    between atoms: C17_21  and  O5_22 
REMARK    8  A    between atoms: C20_26  and  C21_27 
REMARK    9  A    between atoms: C22_29  and  O8_30 
REMARK   10  A    between atoms: C25_33  and  C26_34 
ROOT
HETATM    1  C1  UNL     1     -16.084  -5.302   7.631  1.00  0.00     0.019 C 
HETATM    2  C2  UNL     1     -15.612  -5.877   8.982  1.00  0.00    -0.005 C 
HETATM    3  C3  UNL     1     -16.849  -6.000   9.916  1.00  0.00     0.013 C 
HETATM    4  C4  UNL     1     -17.366  -4.657  10.436  1.00  0.00     0.007 C 
HETATM    5  C5  UNL     1     -16.259  -3.917  11.202  1.00  0.00     0.011 C 
HETATM    6  C6  UNL     1     -15.023  -3.694  10.284  1.00  0.00     0.026 C 
HETATM    7  C7  UNL     1     -13.936  -2.851  10.989  1.00  0.00     0.011 C 
HETATM    8  C8  UNL     1     -14.146  -2.737  12.494  1.00  0.00     0.039 C 
HETATM    9  C9  UNL     1     -15.509  -2.119  12.873  1.00  0.00     0.074 C 
HETATM   10  C10 UNL     1     -15.784  -2.475  14.354  1.00  0.00     0.071 C 
HETATM   11  C11 UNL     1     -17.044  -1.791  14.890  1.00  0.00     0.127 C 
HETATM   12  C18 UNL     1     -18.197  -1.817  13.883  1.00  0.00     0.033 C 
HETATM   13  C19 UNL     1     -17.986  -2.846  12.774  1.00  0.00     0.022 C 
HETATM   14  C20 UNL     1     -16.691  -2.597  11.939  1.00  0.00     0.048 C 
HETATM   15  C22 UNL     1     -14.495  -5.011   9.643  1.00  0.00     0.070 C 
HETATM   16  C23 UNL     1     -13.801  -5.966  10.629  1.00  0.00     0.040 C 
HETATM   17  C24 UNL     1     -14.091  -7.392  10.145  1.00  0.00     0.013 C 
HETATM   18  C25 UNL     1     -14.935  -7.287   8.855  1.00  0.00     0.028 C 
ENDROOT
BRANCH  11  19
HETATM   19  O2  UNL     1     -16.711  -0.417  15.137  1.00  0.00    -0.356 OA
BRANCH  19  20
HETATM   20  C12 UNL     1     -17.644   0.516  14.604  1.00  0.00     0.263 C 
HETATM   21  C13 UNL     1     -18.459   1.201  15.694  1.00  0.00     0.095 C 
HETATM   22  C14 UNL     1     -17.587   2.150  16.503  1.00  0.00     0.154 C 
HETATM   23  C15 UNL     1     -16.835   3.126  15.586  1.00  0.00     0.178 C 
HETATM   24  C16 UNL     1     -16.109   2.409  14.442  1.00  0.00     0.179 C 
HETATM   25  O6  UNL     1     -16.985   1.477  13.775  1.00  0.00    -0.351 OA
BRANCH  22  26
HETATM   26  O3  UNL     1     -18.434   2.884  17.396  1.00  0.00    -0.393 OA
HETATM   27  H22 UNL     1     -18.693   3.696  16.913  1.00  0.00     0.210 HD
ENDBRANCH  22  26
BRANCH  23  28
HETATM   28  O4  UNL     1     -17.820   4.030  15.030  1.00  0.00    -0.390 OA
HETATM   29  H24 UNL     1     -18.185   3.602  14.231  1.00  0.00     0.210 HD
ENDBRANCH  23  28
BRANCH  24  30
HETATM   30  C17 UNL     1     -14.745   1.797  14.805  1.00  0.00     0.198 C 
BRANCH  30  31
HETATM   31  O5  UNL     1     -14.719   1.212  16.101  1.00  0.00    -0.398 OA
HETATM   32  H28 UNL     1     -13.852   0.772  16.198  1.00  0.00     0.209 HD
ENDBRANCH  30  31
ENDBRANCH  24  30
ENDBRANCH  19  20
ENDBRANCH  11  19
BRANCH   9  33
HETATM   33  O1  UNL     1     -15.337  -0.696  12.769  1.00  0.00    -0.389 OA
HETATM   34  H14 UNL     1     -15.496  -0.303  13.658  1.00  0.00     0.210 HD
ENDBRANCH   9  33
BRANCH  14  35
HETATM   35  C21 UNL     1     -17.063  -1.481  10.944  1.00  0.00     0.244 C 
HETATM   36  O7  UNL     1     -18.203  -1.104  10.684  1.00  0.00    -0.306 OA
ENDBRANCH  14  35
BRANCH  15  37
HETATM   37  O8  UNL     1     -13.538  -4.682   8.626  1.00  0.00    -0.389 OA
HETATM   38  H34 UNL     1     -12.916  -4.018   8.962  1.00  0.00     0.210 HD
ENDBRANCH  15  37
BRANCH  18  39
HETATM   39  C26 UNL     1     -14.141  -7.579   7.604  1.00  0.00    -0.045 A 
HETATM   40  C27 UNL     1     -12.843  -7.382   7.360  1.00  0.00     0.087 A 
HETATM   41  C28 UNL     1     -12.571  -7.867   6.012  1.00  0.00     0.283 A 
HETATM   42  O9  UNL     1     -11.486  -7.822   5.463  1.00  0.00    -0.260 OA
HETATM   43  O10 UNL     1     -13.713  -8.383   5.485  1.00  0.00    -0.314 OA
HETATM   44  C29 UNL     1     -14.770  -8.234   6.431  1.00  0.00     0.213 A 
ENDBRANCH  18  39
TORSDOF 10
ENDMDL
MODEL 4
REMARK minimizedAffinity -6.57669258
REMARK CNNscore 0.443280905
REMARK CNNaffinity 5.31131411
REMARK  10 active torsions:
REMARK  status: ('A' for Active; 'I' for Inactive)
REMARK    1  A    between atoms: C9_9  and  O1_10 
REMARK    2  A    between atoms: C11_12  and  O2_13 
REMARK    3  A    between atoms: O2_13  and  C12_14 
REMARK    4  A    between atoms: C14_16  and  O3_17 
REMARK    5  A    between atoms: C15_18  and  O4_19 
REMARK    6  A    between atoms: C16_20  and  C17_21 
REMARK    7  A    between atoms: C17_21  and  O5_22 
REMARK    8  A    between atoms: C20_26  and  C21_27 
REMARK    9  A    between atoms: C22_29  and  O8_30 
REMARK   10  A    between atoms: C25_33  and  C26_34 
ROOT
HETATM    1  C1  UNL     1     -14.832  -3.380  14.098  1.00  0.00     0.019 C 
HETATM    2  C2  UNL     1     -15.852  -3.013  13.001  1.00  0.00    -0.005 C 
HETATM    3  C3  UNL     1     -16.755  -4.252  12.744  1.00  0.00     0.013 C 
HETATM    4  C4  UNL     1     -16.051  -5.386  11.996  1.00  0.00     0.007 C 
HETATM    5  C5  UNL     1     -15.522  -4.888  10.641  1.00  0.00     0.011 C 
HETATM    6  C6  UNL     1     -14.545  -3.696  10.848  1.00  0.00     0.026 C 
HETATM    7  C7  UNL     1     -13.908  -3.245   9.513  1.00  0.00     0.011 C 
HETATM    8  C8  UNL     1     -14.622  -3.803   8.288  1.00  0.00     0.039 C 
HETATM    9  C9  UNL     1     -14.674  -5.346   8.263  1.00  0.00     0.074 C 
HETATM   10  C10 UNL     1     -15.780  -5.757   7.262  1.00  0.00     0.071 C 
HETATM   11  C11 UNL     1     -15.828  -7.271   7.041  1.00  0.00     0.127 C 
HETATM   12  C18 UNL     1     -15.660  -8.058   8.344  1.00  0.00     0.033 C 
HETATM   13  C19 UNL     1     -15.895  -7.199   9.584  1.00  0.00     0.022 C 
HETATM   14  C20 UNL     1     -14.922  -5.984   9.688  1.00  0.00     0.048 C 
HETATM   15  C22 UNL     1     -15.165  -2.537  11.682  1.00  0.00     0.070 C 
HETATM   16  C23 UNL     1     -16.254  -1.735  10.950  1.00  0.00     0.040 C 
HETATM   17  C24 UNL     1     -17.265  -1.285  12.011  1.00  0.00     0.013 C 
HETATM   18  C25 UNL     1     -16.765  -1.795  13.382  1.00  0.00     0.028 C 
ENDROOT
BRANCH  11  19
HETATM   19  O2  UNL     1     -14.730  -7.610   6.181  1.00  0.00    -0.356 OA
BRANCH  19  20
HETATM   20  C12 UNL     1     -14.049  -8.806   6.546  1.00  0.00     0.263 C 
HETATM   21  C13 UNL     1     -14.389  -9.967   5.620  1.00  0.00     0.095 C 
HETATM   22  C14 UNL     1     -13.792  -9.747   4.237  1.00  0.00     0.154 C 
HETATM   23  C15 UNL     1     -12.289  -9.447   4.327  1.00  0.00     0.178 C 
HETATM   24  C16 UNL     1     -11.975  -8.343   5.343  1.00  0.00     0.179 C 
HETATM   25  O6  UNL     1     -12.637  -8.590   6.600  1.00  0.00    -0.351 OA
BRANCH  22  26
HETATM   26  O3  UNL     1     -14.001 -10.937   3.466  1.00  0.00    -0.393 OA
HETATM   27  H22 UNL     1     -13.206 -11.492   3.610  1.00  0.00     0.210 HD
ENDBRANCH  22  26
BRANCH  23  28
HETATM   28  O4  UNL     1     -11.635 -10.671   4.741  1.00  0.00    -0.390 OA
HETATM   29  H24 UNL     1     -11.663 -10.696   5.718  1.00  0.00     0.210 HD
ENDBRANCH  23  28
BRANCH  24  30
HETATM   30  C17 UNL     1     -12.167  -6.903   4.835  1.00  0.00     0.198 C 
BRANCH  30  31
HETATM   31  O5  UNL     1     -12.206  -6.810   3.416  1.00  0.00    -0.398 OA
HETATM   32  H28 UNL     1     -12.426  -5.883   3.197  1.00  0.00     0.209 HD
ENDBRANCH  30  31
ENDBRANCH  24  30
ENDBRANCH  19  20
ENDBRANCH  11  19
BRANCH   9  33
HETATM   33  O1  UNL     1     -13.404  -5.773   7.742  1.00  0.00    -0.389 OA
HETATM   34  H14 UNL     1     -13.568  -6.269   6.908  1.00  0.00     0.210 HD
ENDBRANCH   9  33
BRANCH  14  35
HETATM   35  C21 UNL     1     -13.608  -6.568  10.242  1.00  0.00     0.244 C 
HETATM   36  O7  UNL     1     -13.022  -7.555   9.804  1.00  0.00    -0.306 OA
ENDBRANCH  14  35
BRANCH  15  37
HETATM   37  O8  UNL     1     -14.127  -1.614  12.040  1.00  0.00    -0.389 OA
HETATM   38  H34 UNL     1     -13.579  -1.418  11.264  1.00  0.00     0.210 HD
ENDBRANCH  15  37
BRANCH  18  39
HETATM   39  C26 UNL     1     -16.164  -0.702  14.235  1.00  0.00    -0.045 A 
HETATM   40  C27 UNL     1     -15.590   0.445  13.861  1.00  0.00     0.087 A 
HETATM   41  C28 UNL     1     -15.210   1.161  15.074  1.00  0.00     0.283 A 
HETATM   42  O9  UNL     1     -14.645   2.237  15.097  1.00  0.00    -0.260 OA
HETATM   43  O10 UNL     1     -15.600   0.440  16.159  1.00  0.00    -0.314 OA
HETATM   44  C29 UNL     1     -16.212  -0.771  15.716  1.00  0.00     0.213 A 
ENDBRANCH  18  39
TORSDOF 10
ENDMDL
MODEL 5
REMARK minimizedAffinity -7.46964264
REMARK CNNscore 0.415823549
REMARK CNNaffinity 6.65918493
REMARK  10 active torsions:
REMARK  status: ('A' for Active; 'I' for Inactive)
REMARK    1  A    between atoms: C9_9  and  O1_10 
REMARK    2  A    between atoms: C11_12  and  O2_13 
REMARK    3  A    between atoms: O2_13  and  C12_14 
REMARK    4  A    between atoms: C14_16  and  O3_17 
REMARK    5  A    between atoms: C15_18  and  O4_19 
REMARK    6  A    between atoms: C16_20  and  C17_21 
REMARK    7  A    between atoms: C17_21  and  O5_22 
REMARK    8  A    between atoms: C20_26  and  C21_27 
REMARK    9  A    between atoms: C22_29  and  O8_30 
REMARK   10  A    between atoms: C25_33  and  C26_34 
ROOT
HETATM    1  C1  UNL     1      -2.119   4.855  11.506  1.00  0.00     0.019 C 
HETATM    2  C2  UNL     1      -2.005   5.252  12.992  1.00  0.00    -0.005 C 
HETATM    3  C3  UNL     1      -2.898   4.288  13.822  1.00  0.00     0.013 C 
HETATM    4  C4  UNL     1      -4.399   4.540  13.658  1.00  0.00     0.007 C 
HETATM    5  C5  UNL     1      -4.747   5.982  14.061  1.00  0.00     0.011 C 
HETATM    6  C6  UNL     1      -3.937   6.994  13.200  1.00  0.00     0.026 C 
HETATM    7  C7  UNL     1      -4.349   8.453  13.501  1.00  0.00     0.011 C 
HETATM    8  C8  UNL     1      -5.161   8.597  14.782  1.00  0.00     0.039 C 
HETATM    9  C9  UNL     1      -6.456   7.756  14.778  1.00  0.00     0.074 C 
HETATM   10  C10 UNL     1      -6.928   7.626  16.246  1.00  0.00     0.071 C 
HETATM   11  C11 UNL     1      -8.290   6.934  16.358  1.00  0.00     0.127 C 
HETATM   12  C18 UNL     1      -8.414   5.733  15.417  1.00  0.00     0.033 C 
HETATM   13  C19 UNL     1      -7.061   5.248  14.900  1.00  0.00     0.022 C 
HETATM   14  C20 UNL     1      -6.277   6.338  14.104  1.00  0.00     0.048 C 
HETATM   15  C22 UNL     1      -2.402   6.740  13.245  1.00  0.00     0.070 C 
HETATM   16  C23 UNL     1      -1.737   7.093  14.586  1.00  0.00     0.040 C 
HETATM   17  C24 UNL     1      -0.581   6.105  14.782  1.00  0.00     0.013 C 
HETATM   18  C25 UNL     1      -0.538   5.180  13.544  1.00  0.00     0.028 C 
ENDROOT
BRANCH  11  19
HETATM   19  O2  UNL     1      -9.287   7.893  15.976  1.00  0.00    -0.356 OA
BRANCH  19  20
HETATM   20  C12 UNL     1      -9.878   7.647  14.704  1.00  0.00     0.263 C 
HETATM   21  C13 UNL     1     -11.145   6.807  14.812  1.00  0.00     0.095 C 
HETATM   22  C14 UNL     1     -12.267   7.603  15.463  1.00  0.00     0.154 C 
HETATM   23  C15 UNL     1     -12.474   8.948  14.751  1.00  0.00     0.178 C 
HETATM   24  C16 UNL     1     -11.162   9.720  14.570  1.00  0.00     0.179 C 
HETATM   25  O6  UNL     1     -10.133   8.874  14.017  1.00  0.00    -0.351 OA
BRANCH  22  26
HETATM   26  O3  UNL     1     -13.469   6.826  15.386  1.00  0.00    -0.393 OA
HETATM   27  H22 UNL     1     -13.905   7.090  14.549  1.00  0.00     0.210 HD
ENDBRANCH  22  26
BRANCH  23  28
HETATM   28  O4  UNL     1     -13.035   8.656  13.448  1.00  0.00    -0.390 OA
HETATM   29  H24 UNL     1     -12.286   8.482  12.845  1.00  0.00     0.210 HD
ENDBRANCH  23  28
BRANCH  24  30
HETATM   30  C17 UNL     1     -10.689  10.516  15.800  1.00  0.00     0.198 C 
BRANCH  30  31
HETATM   31  O5  UNL     1     -11.275  10.069  17.017  1.00  0.00    -0.398 OA
HETATM   32  H28 UNL     1     -10.844  10.565  17.740  1.00  0.00     0.209 HD
ENDBRANCH  30  31
ENDBRANCH  24  30
ENDBRANCH  19  20
ENDBRANCH  11  19
BRANCH   9  33
HETATM   33  O1  UNL     1      -7.425   8.532  14.054  1.00  0.00    -0.389 OA
HETATM   34  H14 UNL     1      -8.172   8.734  14.662  1.00  0.00     0.210 HD
ENDBRANCH   9  33
BRANCH  14  35
HETATM   35  C21 UNL     1      -6.906   6.338  12.697  1.00  0.00     0.244 C 
HETATM   36  O7  UNL     1      -7.362   5.356  12.117  1.00  0.00    -0.306 OA
ENDBRANCH  14  35
BRANCH  15  37
HETATM   37  O8  UNL     1      -1.769   7.538  12.234  1.00  0.00    -0.389 OA
HETATM   38  H34 UNL     1      -2.116   8.443  12.265  1.00  0.00     0.210 HD
ENDBRANCH  15  37
BRANCH  18  39
HETATM   39  C26 UNL     1       0.591   5.513  12.597  1.00  0.00    -0.045 A 
HETATM   40  C27 UNL     1       0.967   4.889  11.478  1.00  0.00     0.087 A 
HETATM   41  C28 UNL     1       2.090   5.633  10.917  1.00  0.00     0.283 A 
HETATM   42  O9  UNL     1       2.690   5.328   9.904  1.00  0.00    -0.260 OA
HETATM   43  O10 UNL     1       2.341   6.717  11.699  1.00  0.00    -0.314 OA
HETATM   44  C29 UNL     1       1.435   6.715  12.801  1.00  0.00     0.213 A 
ENDBRANCH  18  39
TORSDOF 10
ENDMDL
MODEL 6
REMARK minimizedAffinity -6.47037745
REMARK CNNscore 0.359115571
REMARK CNNaffinity 5.6568141
REMARK  10 active torsions:
REMARK  status: ('A' for Active; 'I' for Inactive)
REMARK    1  A    between atoms: C9_9  and  O1_10 
REMARK    2  A    between atoms: C11_12  and  O2_13 
REMARK    3  A    between atoms: O2_13  and  C12_14 
REMARK    4  A    between atoms: C14_16  and  O3_17 
REMARK    5  A    between atoms: C15_18  and  O4_19 
REMARK    6  A    between atoms: C16_20  and  C17_21 
REMARK    7  A    between atoms: C17_21  and  O5_22 
REMARK    8  A    between atoms: C20_26  and  C21_27 
REMARK    9  A    between atoms: C22_29  and  O8_30 
REMARK   10  A    between atoms: C25_33  and  C26_34 
ROOT
HETATM    1  C1  UNL     1     -16.416  -2.415  16.436  1.00  0.00     0.019 C 
HETATM    2  C2  UNL     1     -16.209  -2.673  14.929  1.00  0.00    -0.005 C 
HETATM    3  C3  UNL     1     -17.001  -3.955  14.544  1.00  0.00     0.013 C 
HETATM    4  C4  UNL     1     -16.369  -5.249  15.061  1.00  0.00     0.007 C 
HETATM    5  C5  UNL     1     -14.933  -5.394  14.531  1.00  0.00     0.011 C 
HETATM    6  C6  UNL     1     -14.073  -4.172  14.960  1.00  0.00     0.026 C 
HETATM    7  C7  UNL     1     -12.595  -4.341  14.541  1.00  0.00     0.011 C 
HETATM    8  C8  UNL     1     -12.384  -5.453  13.520  1.00  0.00     0.039 C 
HETATM    9  C9  UNL     1     -12.872  -6.832  14.013  1.00  0.00     0.074 C 
HETATM   10  C10 UNL     1     -13.027  -7.741  12.770  1.00  0.00     0.071 C 
HETATM   11  C11 UNL     1     -13.367  -9.185  13.147  1.00  0.00     0.127 C 
HETATM   12  C18 UNL     1     -14.401  -9.268  14.274  1.00  0.00     0.033 C 
HETATM   13  C19 UNL     1     -15.151  -7.953  14.482  1.00  0.00     0.022 C 
HETATM   14  C20 UNL     1     -14.216  -6.758  14.843  1.00  0.00     0.048 C 
HETATM   15  C22 UNL     1     -14.702  -2.809  14.547  1.00  0.00     0.070 C 
HETATM   16  C23 UNL     1     -14.662  -2.520  13.036  1.00  0.00     0.040 C 
HETATM   17  C24 UNL     1     -15.920  -1.709  12.705  1.00  0.00     0.013 C 
HETATM   18  C25 UNL     1     -16.698  -1.490  14.022  1.00  0.00     0.028 C 
ENDROOT
BRANCH  11  19
HETATM   19  O2  UNL     1     -12.158  -9.799  13.617  1.00  0.00    -0.356 OA
BRANCH  19  20
HETATM   20  C12 UNL     1     -11.454 -10.538  12.626  1.00  0.00     0.263 C 
HETATM   21  C13 UNL     1     -10.532  -9.653  11.796  1.00  0.00     0.095 C 
HETATM   22  C14 UNL     1      -9.356  -9.165  12.630  1.00  0.00     0.154 C 
HETATM   23  C15 UNL     1      -8.639 -10.338  13.313  1.00  0.00     0.178 C 
HETATM   24  C16 UNL     1      -9.611 -11.264  14.054  1.00  0.00     0.179 C 
HETATM   25  O6  UNL     1     -10.730 -11.620  13.218  1.00  0.00    -0.351 OA
BRANCH  22  26
HETATM   26  O3  UNL     1      -8.445  -8.481  11.761  1.00  0.00    -0.393 OA
HETATM   27  H22 UNL     1      -7.811  -9.161  11.451  1.00  0.00     0.210 HD
ENDBRANCH  22  26
BRANCH  23  28
HETATM   28  O4  UNL     1      -7.971 -11.090  12.271  1.00  0.00    -0.390 OA
HETATM   29  H24 UNL     1      -8.620 -11.728  11.914  1.00  0.00     0.210 HD
ENDBRANCH  23  28
BRANCH  24  30
HETATM   30  C17 UNL     1     -10.034 -10.791  15.456  1.00  0.00     0.198 C 
BRANCH  30  31
HETATM   31  O5  UNL     1      -9.835  -9.397  15.661  1.00  0.00    -0.398 OA
HETATM   32  H28 UNL     1     -10.219  -9.180  16.533  1.00  0.00     0.209 HD
ENDBRANCH  30  31
ENDBRANCH  24  30
ENDBRANCH  19  20
ENDBRANCH  11  19
BRANCH   9  33
HETATM   33  O1  UNL     1     -11.811  -7.354  14.831  1.00  0.00    -0.389 OA
HETATM   34  H14 UNL     1     -11.493  -8.190  14.421  1.00  0.00     0.210 HD
ENDBRANCH   9  33
BRANCH  14  35
HETATM   35  C21 UNL     1     -13.919  -6.920  16.346  1.00  0.00     0.244 C 
HETATM   36  O7  UNL     1     -13.062  -6.306  16.977  1.00  0.00    -0.306 OA
ENDBRANCH  14  35
BRANCH  15  37
HETATM   37  O8  UNL     1     -13.989  -1.750  15.201  1.00  0.00    -0.389 OA
HETATM   38  H34 UNL     1     -13.034  -1.893  15.114  1.00  0.00     0.210 HD
ENDBRANCH  15  37
BRANCH  18  39
HETATM   39  C26 UNL     1     -16.562  -0.084  14.561  1.00  0.00    -0.045 A 
HETATM   40  C27 UNL     1     -15.660   0.853  14.263  1.00  0.00     0.087 A 
HETATM   41  C28 UNL     1     -15.994   2.045  15.033  1.00  0.00     0.283 A 
HETATM   42  O9  UNL     1     -15.363   3.085  15.014  1.00  0.00    -0.260 OA
HETATM   43  O10 UNL     1     -17.122   1.808  15.755  1.00  0.00    -0.314 OA
HETATM   44  C29 UNL     1     -17.549   0.467  15.521  1.00  0.00     0.213 A 
ENDBRANCH  18  39
TORSDOF 10
ENDMDL
MODEL 7
REMARK minimizedAffinity -7.2332015
REMARK CNNscore 0.342869043
REMARK CNNaffinity 5.61164427
REMARK  10 active torsions:
REMARK  status: ('A' for Active; 'I' for Inactive)
REMARK    1  A    between atoms: C9_9  and  O1_10 
REMARK    2  A    between atoms: C11_12  and  O2_13 
REMARK    3  A    between atoms: O2_13  and  C12_14 
REMARK    4  A    between atoms: C14_16  and  O3_17 
REMARK    5  A    between atoms: C15_18  and  O4_19 
REMARK    6  A    between atoms: C16_20  and  C17_21 
REMARK    7  A    between atoms: C17_21  and  O5_22 
REMARK    8  A    between atoms: C20_26  and  C21_27 
REMARK    9  A    between atoms: C22_29  and  O8_30 
REMARK   10  A    between atoms: C25_33  and  C26_34 
ROOT
HETATM    1  C1  UNL     1      -0.604   8.503  11.122  1.00  0.00     0.019 C 
HETATM    2  C2  UNL     1      -0.241   7.809  12.451  1.00  0.00    -0.005 C 
HETATM    3  C3  UNL     1      -1.562   7.413  13.168  1.00  0.00     0.013 C 
HETATM    4  C4  UNL     1      -2.324   8.601  13.760  1.00  0.00     0.007 C 
HETATM    5  C5  UNL     1      -1.440   9.357  14.766  1.00  0.00     0.011 C 
HETATM    6  C6  UNL     1      -0.136   9.848  14.075  1.00  0.00     0.026 C 
HETATM    7  C7  UNL     1       0.722  10.711  15.030  1.00  0.00     0.011 C 
HETATM    8  C8  UNL     1       0.300  10.593  16.489  1.00  0.00     0.039 C 
HETATM    9  C9  UNL     1      -1.173  10.985  16.731  1.00  0.00     0.074 C 
HETATM   10  C10 UNL     1      -1.590  10.400  18.101  1.00  0.00     0.071 C 
HETATM   11  C11 UNL     1      -2.993  10.849  18.520  1.00  0.00     0.127 C 
HETATM   12  C18 UNL     1      -3.987  10.824  17.356  1.00  0.00     0.033 C 
HETATM   13  C19 UNL     1      -3.491   9.989  16.177  1.00  0.00     0.022 C 
HETATM   14  C20 UNL     1      -2.144  10.502  15.580  1.00  0.00     0.048 C 
HETATM   15  C22 UNL     1       0.649   8.704  13.369  1.00  0.00     0.070 C 
HETATM   16  C23 UNL     1       1.331   7.713  14.328  1.00  0.00     0.040 C 
HETATM   17  C24 UNL     1       1.306   6.342  13.641  1.00  0.00     0.013 C 
HETATM   18  C25 UNL     1       0.634   6.521  12.261  1.00  0.00     0.028 C 
ENDROOT
BRANCH  11  19
HETATM   19  O2  UNL     1      -2.887  12.207  18.975  1.00  0.00    -0.356 OA
BRANCH  19  20
HETATM   20  C12 UNL     1      -3.904  13.070  18.477  1.00  0.00     0.263 C 
HETATM   21  C13 UNL     1      -4.996  13.326  19.508  1.00  0.00     0.095 C 
HETATM   22  C14 UNL     1      -4.471  14.185  20.649  1.00  0.00     0.154 C 
HETATM   23  C15 UNL     1      -3.809  15.464  20.118  1.00  0.00     0.178 C 
HETATM   24  C16 UNL     1      -2.788  15.176  19.012  1.00  0.00     0.179 C 
HETATM   25  O6  UNL     1      -3.341  14.299  18.010  1.00  0.00    -0.351 OA
BRANCH  22  26
HETATM   26  O3  UNL     1      -5.576  14.528  21.495  1.00  0.00    -0.393 OA
HETATM   27  H22 UNL     1      -5.922  15.378  21.151  1.00  0.00     0.210 HD
ENDBRANCH  22  26
BRANCH  23  28
HETATM   28  O4  UNL     1      -4.866  16.298  19.583  1.00  0.00    -0.390 OA
HETATM   29  H24 UNL     1      -5.010  16.019  18.657  1.00  0.00     0.210 HD
ENDBRANCH  23  28
BRANCH  24  30
HETATM   30  C17 UNL     1      -1.396  14.733  19.496  1.00  0.00     0.198 C 
BRANCH  30  31
HETATM   31  O5  UNL     1      -1.036  15.291  20.755  1.00  0.00    -0.398 OA
HETATM   32  H28 UNL     1      -0.191  14.879  21.018  1.00  0.00     0.209 HD
ENDBRANCH  30  31
ENDBRANCH  24  30
ENDBRANCH  19  20
ENDBRANCH  11  19
BRANCH   9  33
HETATM   33  O1  UNL     1      -1.187  12.420  16.823  1.00  0.00    -0.389 OA
HETATM   34  H14 UNL     1      -1.514  12.665  17.718  1.00  0.00     0.210 HD
ENDBRANCH   9  33
BRANCH  14  35
HETATM   35  C21 UNL     1      -2.530  11.691  14.680  1.00  0.00     0.244 C 
HETATM   36  O7  UNL     1      -1.744  12.459  14.131  1.00  0.00    -0.306 OA
ENDBRANCH  14  35
BRANCH  15  37
HETATM   37  O8  UNL     1       1.678   9.281  12.552  1.00  0.00    -0.389 OA
HETATM   38  H34 UNL     1       2.152   9.962  13.053  1.00  0.00     0.210 HD
ENDBRANCH  15  37
BRANCH  18  39
HETATM   39  C26 UNL     1       1.621   6.499  11.116  1.00  0.00    -0.045 A 
HETATM   40  C27 UNL     1       1.392   6.411   9.804  1.00  0.00     0.087 A 
HETATM   41  C28 UNL     1       2.683   6.469   9.128  1.00  0.00     0.283 A 
HETATM   42  O9  UNL     1       2.842   6.397   7.924  1.00  0.00    -0.260 OA
HETATM   43  O10 UNL     1       3.665   6.629  10.056  1.00  0.00    -0.314 OA
HETATM   44  C29 UNL     1       3.077   6.650  11.356  1.00  0.00     0.213 A 
ENDBRANCH  18  39
TORSDOF 10
ENDMDL
MODEL 8
REMARK minimizedAffinity -9.48505497
REMARK CNNscore 0.340942442
REMARK CNNaffinity 6.10654783
REMARK  10 active torsions:
REMARK  status: ('A' for Active; 'I' for Inactive)
REMARK    1  A    between atoms: C9_9  and  O1_10 
REMARK    2  A    between atoms: C11_12  and  O2_13 
REMARK    3  A    between atoms: O2_13  and  C12_14 
REMARK    4  A    between atoms: C14_16  and  O3_17 
REMARK    5  A    between atoms: C15_18  and  O4_19 
REMARK    6  A    between atoms: C16_20  and  C17_21 
REMARK    7  A    between atoms: C17_21  and  O5_22 
REMARK    8  A    between atoms: C20_26  and  C21_27 
REMARK    9  A    between atoms: C22_29  and  O8_30 
REMARK   10  A    between atoms: C25_33  and  C26_34 
ROOT
HETATM    1  C1  UNL     1     -12.373   6.244  14.413  1.00  0.00     0.019 C 
HETATM    2  C2  UNL     1     -11.599   7.459  13.863  1.00  0.00    -0.005 C 
HETATM    3  C3  UNL     1     -10.811   7.004  12.602  1.00  0.00     0.013 C 
HETATM    4  C4  UNL     1      -9.604   6.118  12.915  1.00  0.00     0.007 C 
HETATM    5  C5  UNL     1      -8.629   6.852  13.850  1.00  0.00     0.011 C 
HETATM    6  C6  UNL     1      -9.348   7.259  15.168  1.00  0.00     0.026 C 
HETATM    7  C7  UNL     1      -8.366   7.897  16.177  1.00  0.00     0.011 C 
HETATM    8  C8  UNL     1      -7.039   8.306  15.549  1.00  0.00     0.039 C 
HETATM    9  C9  UNL     1      -6.295   7.130  14.881  1.00  0.00     0.074 C 
HETATM   10  C10 UNL     1      -5.244   7.733  13.919  1.00  0.00     0.071 C 
HETATM   11  C11 UNL     1      -4.339   6.662  13.304  1.00  0.00     0.127 C 
HETATM   12  C18 UNL     1      -5.116   5.411  12.883  1.00  0.00     0.033 C 
HETATM   13  C19 UNL     1      -6.620   5.659  12.783  1.00  0.00     0.022 C 
HETATM   14  C20 UNL     1      -7.260   6.130  14.125  1.00  0.00     0.048 C 
HETATM   15  C22 UNL     1     -10.642   8.089  14.924  1.00  0.00     0.070 C 
HETATM   16  C23 UNL     1     -10.397   9.520  14.418  1.00  0.00     0.040 C 
HETATM   17  C24 UNL     1     -11.568   9.873  13.494  1.00  0.00     0.013 C 
HETATM   18  C25 UNL     1     -12.528   8.661  13.469  1.00  0.00     0.028 C 
ENDROOT
BRANCH  11  19
HETATM   19  O2  UNL     1      -3.396   6.271  14.313  1.00  0.00    -0.356 OA
BRANCH  19  20
HETATM   20  C12 UNL     1      -2.056   6.156  13.847  1.00  0.00     0.263 C 
HETATM   21  C13 UNL     1      -1.786   7.052  12.645  1.00  0.00     0.095 C 
HETATM   22  C14 UNL     1      -1.788   8.518  13.053  1.00  0.00     0.154 C 
HETATM   23  C15 UNL     1      -0.837   8.764  14.233  1.00  0.00     0.178 C 
HETATM   24  C16 UNL     1      -1.071   7.778  15.384  1.00  0.00     0.179 C 
HETATM   25  O6  UNL     1      -1.128   6.420  14.902  1.00  0.00    -0.351 OA
BRANCH  22  26
HETATM   26  O3  UNL     1      -1.368   9.296  11.925  1.00  0.00    -0.393 OA
HETATM   27  H22 UNL     1      -0.395   9.381  12.005  1.00  0.00     0.210 HD
ENDBRANCH  22  26
BRANCH  23  28
HETATM   28  O4  UNL     1       0.512   8.597  13.733  1.00  0.00    -0.390 OA
HETATM   29  H24 UNL     1       0.725   7.645  13.793  1.00  0.00     0.210 HD
ENDBRANCH  23  28
BRANCH  24  30
HETATM   30  C17 UNL     1      -2.233   8.131  16.329  1.00  0.00     0.198 C 
BRANCH  30  31
HETATM   31  O5  UNL     1      -2.863   6.987  16.894  1.00  0.00    -0.398 OA
HETATM   32  H28 UNL     1      -3.514   7.313  17.545  1.00  0.00     0.209 HD
ENDBRANCH  30  31
ENDBRANCH  24  30
ENDBRANCH  19  20
ENDBRANCH  11  19
BRANCH   9  33
HETATM   33  O1  UNL     1      -5.606   6.448  15.942  1.00  0.00    -0.389 OA
HETATM   34  H14 UNL     1      -4.640   6.489  15.755  1.00  0.00     0.210 HD
ENDBRANCH   9  33
BRANCH  14  35
HETATM   35  C21 UNL     1      -7.445   4.845  14.955  1.00  0.00     0.244 C 
HETATM   36  O7  UNL     1      -7.477   3.702  14.506  1.00  0.00    -0.306 OA
ENDBRANCH  14  35
BRANCH  15  37
HETATM   37  O8  UNL     1     -11.368   8.193  16.158  1.00  0.00    -0.389 OA
HETATM   38  H34 UNL     1     -10.762   8.433  16.876  1.00  0.00     0.210 HD
ENDBRANCH  15  37
BRANCH  18  39
HETATM   39  C26 UNL     1     -13.780   8.883  14.285  1.00  0.00    -0.045 A 
HETATM   40  C27 UNL     1     -14.869   8.118  14.387  1.00  0.00     0.087 A 
HETATM   41  C28 UNL     1     -15.773   8.765  15.332  1.00  0.00     0.283 A 
HETATM   42  O9  UNL     1     -16.870   8.343  15.646  1.00  0.00    -0.260 OA
HETATM   43  O10 UNL     1     -15.185   9.895  15.808  1.00  0.00    -0.314 OA
HETATM   44  C29 UNL     1     -13.911  10.054  15.186  1.00  0.00     0.213 A 
ENDBRANCH  18  39
TORSDOF 10
ENDMDL
MODEL 9
REMARK minimizedAffinity -6.67522001
REMARK CNNscore 0.336358935
REMARK CNNaffinity 5.46289873
REMARK  10 active torsions:
REMARK  status: ('A' for Active; 'I' for Inactive)
REMARK    1  A    between atoms: C9_9  and  O1_10 
REMARK    2  A    between atoms: C11_12  and  O2_13 
REMARK    3  A    between atoms: O2_13  and  C12_14 
REMARK    4  A    between atoms: C14_16  and  O3_17 
REMARK    5  A    between atoms: C15_18  and  O4_19 
REMARK    6  A    between atoms: C16_20  and  C17_21 
REMARK    7  A    between atoms: C17_21  and  O5_22 
REMARK    8  A    between atoms: C20_26  and  C21_27 
REMARK    9  A    between atoms: C22_29  and  O8_30 
REMARK   10  A    between atoms: C25_33  and  C26_34 
ROOT
HETATM    1  C1  UNL     1      13.109  15.337  18.723  1.00  0.00     0.019 C 
HETATM    2  C2  UNL     1      13.517  14.043  17.989  1.00  0.00    -0.005 C 
HETATM    3  C3  UNL     1      13.357  14.281  16.461  1.00  0.00     0.013 C 
HETATM    4  C4  UNL     1      11.900  14.329  15.993  1.00  0.00     0.007 C 
HETATM    5  C5  UNL     1      11.177  13.021  16.355  1.00  0.00     0.011 C 
HETATM    6  C6  UNL     1      11.238  12.777  17.890  1.00  0.00     0.026 C 
HETATM    7  C7  UNL     1      10.422  11.530  18.299  1.00  0.00     0.011 C 
HETATM    8  C8  UNL     1      10.054  10.638  17.119  1.00  0.00     0.039 C 
HETATM    9  C9  UNL     1       9.238  11.372  16.034  1.00  0.00     0.074 C 
HETATM   10  C10 UNL     1       9.327  10.531  14.738  1.00  0.00     0.071 C 
HETATM   11  C11 UNL     1       8.433  11.084  13.625  1.00  0.00     0.127 C 
HETATM   12  C18 UNL     1       8.487  12.612  13.537  1.00  0.00     0.033 C 
HETATM   13  C19 UNL     1       9.691  13.201  14.267  1.00  0.00     0.022 C 
HETATM   14  C20 UNL     1       9.720  12.858  15.789  1.00  0.00     0.048 C 
HETATM   15  C22 UNL     1      12.688  12.806  18.454  1.00  0.00     0.070 C 
HETATM   16  C23 UNL     1      13.551  11.595  18.059  1.00  0.00     0.040 C 
HETATM   17  C24 UNL     1      14.993  12.099  17.931  1.00  0.00     0.013 C 
HETATM   18  C25 UNL     1      14.996  13.605  18.278  1.00  0.00     0.028 C 
ENDROOT
BRANCH  11  19
HETATM   19  O2  UNL     1       7.083  10.712  13.939  1.00  0.00    -0.356 OA
BRANCH  19  20
HETATM   20  C12 UNL     1       6.454   9.904  12.950  1.00  0.00     0.263 C 
HETATM   21  C13 UNL     1       6.796   8.428  13.111  1.00  0.00     0.095 C 
HETATM   22  C14 UNL     1       6.141   7.855  14.359  1.00  0.00     0.154 C 
HETATM   23  C15 UNL     1       4.634   8.147  14.376  1.00  0.00     0.178 C 
HETATM   24  C16 UNL     1       4.323   9.625  14.110  1.00  0.00     0.179 C 
HETATM   25  O6  UNL     1       5.039  10.107  12.955  1.00  0.00    -0.351 OA
BRANCH  22  26
HETATM   26  O3  UNL     1       6.358   6.438  14.368  1.00  0.00    -0.393 OA
HETATM   27  H22 UNL     1       5.587   6.047  13.907  1.00  0.00     0.210 HD
ENDBRANCH  22  26
BRANCH  23  28
HETATM   28  O4  UNL     1       4.034   7.342  13.331  1.00  0.00    -0.390 OA
HETATM   29  H24 UNL     1       4.098   7.854  12.501  1.00  0.00     0.210 HD
ENDBRANCH  23  28
BRANCH  24  30
HETATM   30  C17 UNL     1       4.452  10.556  15.329  1.00  0.00     0.198 C 
BRANCH  30  31
HETATM   31  O5  UNL     1       4.204   9.898  16.566  1.00  0.00    -0.398 OA
HETATM   32  H28 UNL     1       4.403  10.540  17.275  1.00  0.00     0.209 HD
ENDBRANCH  30  31
ENDBRANCH  24  30
ENDBRANCH  19  20
ENDBRANCH  11  19
BRANCH   9  33
HETATM   33  O1  UNL     1       7.876  11.362  16.493  1.00  0.00    -0.389 OA
HETATM   34  H14 UNL     1       7.335  10.869  15.833  1.00  0.00     0.210 HD
ENDBRANCH   9  33
BRANCH  14  35
HETATM   35  C21 UNL     1       8.737  13.848  16.443  1.00  0.00     0.244 C 
HETATM   36  O7  UNL     1       8.318  13.784  17.596  1.00  0.00    -0.306 OA
ENDBRANCH  14  35
BRANCH  15  37
HETATM   37  O8  UNL     1      12.629  12.834  19.888  1.00  0.00    -0.389 OA
HETATM   38  H34 UNL     1      11.995  12.173  20.204  1.00  0.00     0.210 HD
ENDBRANCH  15  37
BRANCH  18  39
HETATM   39  C26 UNL     1      15.565  13.895  19.647  1.00  0.00    -0.045 A 
HETATM   40  C27 UNL     1      16.106  15.022  20.117  1.00  0.00     0.087 A 
HETATM   41  C28 UNL     1      16.465  14.788  21.511  1.00  0.00     0.283 A 
HETATM   42  O9  UNL     1      16.999  15.603  22.239  1.00  0.00    -0.260 OA
HETATM   43  O10 UNL     1      16.095  13.527  21.861  1.00  0.00    -0.314 OA
HETATM   44  C29 UNL     1      15.519  12.880  20.728  1.00  0.00     0.213 A 
ENDBRANCH  18  39
TORSDOF 10
ENDMDL
