MODEL 1
REMARK minimizedAffinity -7.67370224
REMARK CNNscore 0.695274174
REMARK CNNaffinity 7.19972038
REMARK  6 active torsions:
REMARK  status: ('A' for Active; 'I' for Inactive)
REMARK    1  A    between atoms: C2_2  and  C30_32 
REMARK    2  A    between atoms: C3_3  and  C4_4 
REMARK    3  A    between atoms: C4_4  and  C5_6 
REMARK    4  A    between atoms: C5_6  and  C6_7 
REMARK    5  A    between atoms: C6_7  and  C8_9 
REMARK    6  A    between atoms: C30_32  and  O4_34 
ROOT
HETATM    1  C8  UNL     1      -9.394   7.526  14.427  1.00  0.00    -0.001 C 
HETATM    2  C9  UNL     1      -9.524   7.991  15.875  1.00  0.00     0.007 C 
HETATM    3  C10 UNL     1     -10.794   8.844  15.926  1.00  0.00     0.015 C 
HETATM    4  C11 UNL     1     -11.523   8.716  14.550  1.00  0.00    -0.013 C 
HETATM    5  C12 UNL     1     -11.228   9.984  13.703  1.00  0.00     0.021 C 
HETATM    6  C13 UNL     1     -13.050   8.647  14.761  1.00  0.00    -0.070 C 
HETATM    7  C14 UNL     1     -13.685   9.583  15.491  1.00  0.00    -0.022 C 
HETATM    8  C15 UNL     1     -15.166   9.705  15.630  1.00  0.00     0.034 C 
HETATM    9  C16 UNL     1     -15.978   8.897  14.588  1.00  0.00     0.013 C 
HETATM   10  C17 UNL     1     -17.527   8.921  14.885  1.00  0.00     0.018 C 
HETATM   11  C18 UNL     1     -17.986  10.115  15.749  1.00  0.00     0.023 C 
HETATM   12  C19 UNL     1     -18.323   9.018  13.564  1.00  0.00     0.023 C 
HETATM   13  C20 UNL     1     -17.938   7.653  15.642  1.00  0.00     0.135 C 
HETATM   14  O2  UNL     1     -19.091   7.221  15.614  1.00  0.00    -0.297 OA
HETATM   15  C21 UNL     1     -16.896   7.000  16.520  1.00  0.00     0.080 C 
HETATM   16  C22 UNL     1     -15.588   6.693  15.791  1.00  0.00     0.017 C 
HETATM   17  C23 UNL     1     -15.372   7.453  14.449  1.00  0.00    -0.031 C 
HETATM   18  C24 UNL     1     -16.062   6.643  13.320  1.00  0.00     0.016 C 
HETATM   19  C25 UNL     1     -13.833   7.560  14.049  1.00  0.00     0.024 C 
HETATM   20  C26 UNL     1     -13.119   6.187  14.073  1.00  0.00     0.010 C 
HETATM   21  C27 UNL     1     -11.642   6.202  14.464  1.00  0.00     0.011 C 
HETATM   22  C28 UNL     1     -10.873   7.418  13.922  1.00  0.00    -0.029 C 
HETATM   23  C29 UNL     1     -10.878   7.375  12.379  1.00  0.00     0.016 C 
ENDROOT
BRANCH   1  24
HETATM   24  C6  UNL     1      -8.345   6.415  14.131  1.00  0.00    -0.007 C 
HETATM   25  C7  UNL     1      -7.978   5.686  15.438  1.00  0.00     0.011 C 
BRANCH  24  26
HETATM   26  C5  UNL     1      -8.566   5.394  13.003  1.00  0.00     0.087 C 
BRANCH  26  27
HETATM   27  C4  UNL     1      -7.719   4.135  13.002  1.00  0.00     0.150 C 
HETATM   28  O1  UNL     1      -8.206   3.037  13.259  1.00  0.00    -0.293 OA
BRANCH  27  29
HETATM   29  C3  UNL     1      -6.286   4.276  12.615  1.00  0.00     0.063 C 
HETATM   30  C2  UNL     1      -5.596   3.379  11.884  1.00  0.00     0.015 C 
HETATM   31  C1  UNL     1      -6.119   2.062  11.383  1.00  0.00     0.055 C 
BRANCH  30  32
HETATM   32  C30 UNL     1      -4.185   3.662  11.529  1.00  0.00     0.171 C 
HETATM   33  O3  UNL     1      -3.487   4.527  12.026  1.00  0.00    -0.646 OA
BRANCH  32  34
HETATM   34  O4  UNL     1      -3.693   2.864  10.565  1.00  0.00    -0.773 OA
HETATM   35  H44 UNL     1      -2.772   3.180  10.462  1.00  0.00     0.167 HD
ENDBRANCH  32  34
ENDBRANCH  30  32
ENDBRANCH  27  29
ENDBRANCH  26  27
ENDBRANCH  24  26
ENDBRANCH   1  24
TORSDOF 6
ENDMDL
MODEL 2
REMARK minimizedAffinity -9.62418842
REMARK CNNscore 0.555335939
REMARK CNNaffinity 6.92767191
REMARK  6 active torsions:
REMARK  status: ('A' for Active; 'I' for Inactive)
REMARK    1  A    between atoms: C2_2  and  C30_32 
REMARK    2  A    between atoms: C3_3  and  C4_4 
REMARK    3  A    between atoms: C4_4  and  C5_6 
REMARK    4  A    between atoms: C5_6  and  C6_7 
REMARK    5  A    between atoms: C6_7  and  C8_9 
REMARK    6  A    between atoms: C30_32  and  O4_34 
ROOT
HETATM    1  C8  UNL     1      -5.930   6.713  14.520  1.00  0.00    -0.001 C 
HETATM    2  C9  UNL     1      -6.106   7.538  13.248  1.00  0.00     0.007 C 
HETATM    3  C10 UNL     1      -4.797   8.309  13.068  1.00  0.00     0.015 C 
HETATM    4  C11 UNL     1      -3.773   7.787  14.126  1.00  0.00    -0.013 C 
HETATM    5  C12 UNL     1      -3.702   8.799  15.302  1.00  0.00     0.021 C 
HETATM    6  C13 UNL     1      -2.363   7.701  13.505  1.00  0.00    -0.070 C 
HETATM    7  C14 UNL     1      -1.821   8.764  12.881  1.00  0.00    -0.022 C 
HETATM    8  C15 UNL     1      -0.416   8.846  12.387  1.00  0.00     0.034 C 
HETATM    9  C16 UNL     1       0.527   7.752  12.946  1.00  0.00     0.013 C 
HETATM   10  C17 UNL     1       1.947   7.777  12.262  1.00  0.00     0.018 C 
HETATM   11  C18 UNL     1       2.317   9.134  11.623  1.00  0.00     0.023 C 
HETATM   12  C19 UNL     1       3.049   7.482  13.305  1.00  0.00     0.023 C 
HETATM   13  C20 UNL     1       2.010   6.736  11.139  1.00  0.00     0.135 C 
HETATM   14  O2  UNL     1       3.077   6.256  10.752  1.00  0.00    -0.297 OA
HETATM   15  C21 UNL     1       0.716   6.390  10.439  1.00  0.00     0.080 C 
HETATM   16  C22 UNL     1      -0.399   5.966  11.393  1.00  0.00     0.017 C 
HETATM   17  C23 UNL     1      -0.190   6.354  12.887  1.00  0.00    -0.031 C 
HETATM   18  C24 UNL     1       0.656   5.241  13.560  1.00  0.00     0.016 C 
HETATM   19  C25 UNL     1      -1.561   6.428  13.697  1.00  0.00     0.024 C 
HETATM   20  C26 UNL     1      -2.414   5.146  13.532  1.00  0.00     0.010 C 
HETATM   21  C27 UNL     1      -3.930   5.337  13.565  1.00  0.00     0.011 C 
HETATM   22  C28 UNL     1      -4.396   6.402  14.571  1.00  0.00    -0.029 C 
HETATM   23  C29 UNL     1      -4.018   5.953  15.998  1.00  0.00     0.016 C 
ENDROOT
BRANCH   1  24
HETATM   24  C6  UNL     1      -6.997   5.617  14.807  1.00  0.00    -0.007 C 
HETATM   25  C7  UNL     1      -7.858   6.034  16.015  1.00  0.00     0.011 C 
BRANCH  24  26
HETATM   26  C5  UNL     1      -7.896   5.070  13.685  1.00  0.00     0.087 C 
BRANCH  26  27
HETATM   27  C4  UNL     1      -7.503   3.759  13.029  1.00  0.00     0.150 C 
HETATM   28  O1  UNL     1      -8.283   2.812  12.976  1.00  0.00    -0.293 OA
BRANCH  27  29
HETATM   29  C3  UNL     1      -6.154   3.688  12.397  1.00  0.00     0.063 C 
HETATM   30  C2  UNL     1      -5.686   2.632  11.704  1.00  0.00     0.015 C 
HETATM   31  C1  UNL     1      -6.402   1.328  11.494  1.00  0.00     0.055 C 
BRANCH  30  32
HETATM   32  C30 UNL     1      -4.340   2.708  11.086  1.00  0.00     0.171 C 
HETATM   33  O3  UNL     1      -3.923   3.624  10.401  1.00  0.00    -0.646 OA
BRANCH  32  34
HETATM   34  O4  UNL     1      -3.563   1.640  11.337  1.00  0.00    -0.773 OA
HETATM   35  H44 UNL     1      -2.730   1.854  10.867  1.00  0.00     0.167 HD
ENDBRANCH  32  34
ENDBRANCH  30  32
ENDBRANCH  27  29
ENDBRANCH  26  27
ENDBRANCH  24  26
ENDBRANCH   1  24
TORSDOF 6
ENDMDL
MODEL 3
REMARK minimizedAffinity -7.82148314
REMARK CNNscore 0.541061223
REMARK CNNaffinity 6.90241766
REMARK  6 active torsions:
REMARK  status: ('A' for Active; 'I' for Inactive)
REMARK    1  A    between atoms: C2_2  and  C30_32 
REMARK    2  A    between atoms: C3_3  and  C4_4 
REMARK    3  A    between atoms: C4_4  and  C5_6 
REMARK    4  A    between atoms: C5_6  and  C6_7 
REMARK    5  A    between atoms: C6_7  and  C8_9 
REMARK    6  A    between atoms: C30_32  and  O4_34 
ROOT
HETATM    1  C8  UNL     1      -9.551   6.997  13.735  1.00  0.00    -0.001 C 
HETATM    2  C9  UNL     1      -9.094   6.987  15.191  1.00  0.00     0.007 C 
HETATM    3  C10 UNL     1      -9.946   8.042  15.901  1.00  0.00     0.015 C 
HETATM    4  C11 UNL     1     -11.045   8.533  14.905  1.00  0.00    -0.013 C 
HETATM    5  C12 UNL     1     -10.617   9.905  14.317  1.00  0.00     0.021 C 
HETATM    6  C13 UNL     1     -12.380   8.746  15.649  1.00  0.00    -0.070 C 
HETATM    7  C14 UNL     1     -12.436   9.514  16.754  1.00  0.00    -0.022 C 
HETATM    8  C15 UNL     1     -13.688   9.916  17.458  1.00  0.00     0.034 C 
HETATM    9  C16 UNL     1     -14.985   9.693  16.642  1.00  0.00     0.013 C 
HETATM   10  C17 UNL     1     -16.284   9.969  17.492  1.00  0.00     0.018 C 
HETATM   11  C18 UNL     1     -16.059  10.892  18.709  1.00  0.00     0.023 C 
HETATM   12  C19 UNL     1     -17.356  10.664  16.621  1.00  0.00     0.023 C 
HETATM   13  C20 UNL     1     -16.844   8.652  18.042  1.00  0.00     0.135 C 
HETATM   14  O2  UNL     1     -18.029   8.525  18.351  1.00  0.00    -0.297 OA
HETATM   15  C21 UNL     1     -15.861   7.533  18.299  1.00  0.00     0.080 C 
HETATM   16  C22 UNL     1     -14.996   7.191  17.085  1.00  0.00     0.017 C 
HETATM   17  C23 UNL     1     -14.948   8.273  15.967  1.00  0.00    -0.031 C 
HETATM   18  C24 UNL     1     -16.161   8.048  15.026  1.00  0.00     0.016 C 
HETATM   19  C25 UNL     1     -13.645   8.153  15.057  1.00  0.00     0.024 C 
HETATM   20  C26 UNL     1     -13.440   6.721  14.505  1.00  0.00     0.010 C 
HETATM   21  C27 UNL     1     -11.991   6.276  14.309  1.00  0.00     0.011 C 
HETATM   22  C28 UNL     1     -11.064   7.395  13.806  1.00  0.00    -0.029 C 
HETATM   23  C29 UNL     1     -11.533   7.853  12.409  1.00  0.00     0.016 C 
ENDROOT
BRANCH   1  24
HETATM   24  C6  UNL     1      -9.052   5.834  12.828  1.00  0.00    -0.007 C 
HETATM   25  C7  UNL     1      -9.232   6.218  11.346  1.00  0.00     0.011 C 
BRANCH  24  26
HETATM   26  C5  UNL     1      -7.669   5.197  13.041  1.00  0.00     0.087 C 
BRANCH  26  27
HETATM   27  C4  UNL     1      -7.515   3.712  12.767  1.00  0.00     0.150 C 
HETATM   28  O1  UNL     1      -8.332   2.897  13.187  1.00  0.00    -0.293 OA
BRANCH  27  29
HETATM   29  C3  UNL     1      -6.366   3.290  11.915  1.00  0.00     0.063 C 
HETATM   30  C2  UNL     1      -5.083   3.642  12.129  1.00  0.00     0.015 C 
HETATM   31  C1  UNL     1      -4.589   4.558  13.213  1.00  0.00     0.055 C 
BRANCH  30  32
HETATM   32  C30 UNL     1      -4.026   3.115  11.232  1.00  0.00     0.171 C 
HETATM   33  O3  UNL     1      -3.251   3.787  10.576  1.00  0.00    -0.646 OA
BRANCH  32  34
HETATM   34  O4  UNL     1      -3.974   1.773  11.179  1.00  0.00    -0.773 OA
HETATM   35  H44 UNL     1      -3.235   1.602  10.559  1.00  0.00     0.167 HD
ENDBRANCH  32  34
ENDBRANCH  30  32
ENDBRANCH  27  29
ENDBRANCH  26  27
ENDBRANCH  24  26
ENDBRANCH   1  24
TORSDOF 6
ENDMDL
MODEL 4
REMARK minimizedAffinity -8.03349781
REMARK CNNscore 0.450011164
REMARK CNNaffinity 7.40351152
REMARK  6 active torsions:
REMARK  status: ('A' for Active; 'I' for Inactive)
REMARK    1  A    between atoms: C2_2  and  C30_32 
REMARK    2  A    between atoms: C3_3  and  C4_4 
REMARK    3  A    between atoms: C4_4  and  C5_6 
REMARK    4  A    between atoms: C5_6  and  C6_7 
REMARK    5  A    between atoms: C6_7  and  C8_9 
REMARK    6  A    between atoms: C30_32  and  O4_34 
ROOT
HETATM    1  C8  UNL     1      -5.763   5.848  14.878  1.00  0.00    -0.001 C 
HETATM    2  C9  UNL     1      -6.290   5.518  16.272  1.00  0.00     0.007 C 
HETATM    3  C10 UNL     1      -7.319   6.603  16.595  1.00  0.00     0.015 C 
HETATM    4  C11 UNL     1      -7.546   7.460  15.309  1.00  0.00    -0.013 C 
HETATM    5  C12 UNL     1      -6.750   8.788  15.441  1.00  0.00     0.021 C 
HETATM    6  C13 UNL     1      -9.038   7.829  15.171  1.00  0.00    -0.070 C 
HETATM    7  C14 UNL     1      -9.699   8.411  16.190  1.00  0.00    -0.022 C 
HETATM    8  C15 UNL     1     -11.088   8.951  16.115  1.00  0.00     0.034 C 
HETATM    9  C16 UNL     1     -11.631   9.131  14.676  1.00  0.00     0.013 C 
HETATM   10  C17 UNL     1     -13.155   9.536  14.657  1.00  0.00     0.018 C 
HETATM   11  C18 UNL     1     -13.651  10.192  15.964  1.00  0.00     0.023 C 
HETATM   12  C19 UNL     1     -13.421  10.565  13.535  1.00  0.00     0.023 C 
HETATM   13  C20 UNL     1     -14.027   8.295  14.434  1.00  0.00     0.135 C 
HETATM   14  O2  UNL     1     -15.161   8.371  13.959  1.00  0.00    -0.297 OA
HETATM   15  C21 UNL     1     -13.488   6.971  14.922  1.00  0.00     0.080 C 
HETATM   16  C22 UNL     1     -12.091   6.648  14.392  1.00  0.00     0.017 C 
HETATM   17  C23 UNL     1     -11.293   7.857  13.819  1.00  0.00    -0.031 C 
HETATM   18  C24 UNL     1     -11.695   8.038  12.331  1.00  0.00     0.016 C 
HETATM   19  C25 UNL     1      -9.719   7.611  13.833  1.00  0.00     0.024 C 
HETATM   20  C26 UNL     1      -9.324   6.271  13.165  1.00  0.00     0.010 C 
HETATM   21  C27 UNL     1      -8.093   5.570  13.738  1.00  0.00     0.011 C 
HETATM   22  C28 UNL     1      -6.974   6.536  14.160  1.00  0.00    -0.029 C 
HETATM   23  C29 UNL     1      -6.460   7.293  12.917  1.00  0.00     0.016 C 
ENDROOT
BRANCH   1  24
HETATM   24  C6  UNL     1      -4.901   4.762  14.170  1.00  0.00    -0.007 C 
HETATM   25  C7  UNL     1      -5.554   4.374  12.829  1.00  0.00     0.011 C 
BRANCH  24  26
HETATM   26  C5  UNL     1      -3.386   4.948  13.983  1.00  0.00     0.087 C 
BRANCH  26  27
HETATM   27  C4  UNL     1      -2.824   4.870  12.575  1.00  0.00     0.150 C 
HETATM   28  O1  UNL     1      -2.330   5.852  12.029  1.00  0.00    -0.293 OA
BRANCH  27  29
HETATM   29  C3  UNL     1      -2.841   3.537  11.906  1.00  0.00     0.063 C 
HETATM   30  C2  UNL     1      -1.743   2.835  11.568  1.00  0.00     0.015 C 
HETATM   31  C1  UNL     1      -0.320   3.284  11.745  1.00  0.00     0.055 C 
BRANCH  30  32
HETATM   32  C30 UNL     1      -1.898   1.497  10.947  1.00  0.00     0.171 C 
HETATM   33  O3  UNL     1      -2.630   0.609  11.346  1.00  0.00    -0.646 OA
BRANCH  32  34
HETATM   34  O4  UNL     1      -1.136   1.310   9.856  1.00  0.00    -0.773 OA
HETATM   35  H44 UNL     1      -1.363   0.397   9.579  1.00  0.00     0.167 HD
ENDBRANCH  32  34
ENDBRANCH  30  32
ENDBRANCH  27  29
ENDBRANCH  26  27
ENDBRANCH  24  26
ENDBRANCH   1  24
TORSDOF 6
ENDMDL
MODEL 5
REMARK minimizedAffinity -7.72821712
REMARK CNNscore 0.407589972
REMARK CNNaffinity 6.42504835
REMARK  6 active torsions:
REMARK  status: ('A' for Active; 'I' for Inactive)
REMARK    1  A    between atoms: C2_2  and  C30_32 
REMARK    2  A    between atoms: C3_3  and  C4_4 
REMARK    3  A    between atoms: C4_4  and  C5_6 
REMARK    4  A    between atoms: C5_6  and  C6_7 
REMARK    5  A    between atoms: C6_7  and  C8_9 
REMARK    6  A    between atoms: C30_32  and  O4_34 
ROOT
HETATM    1  C8  UNL     1       1.822   7.263  10.248  1.00  0.00    -0.001 C 
HETATM    2  C9  UNL     1       0.956   8.259   9.481  1.00  0.00     0.007 C 
HETATM    3  C10 UNL     1      -0.295   8.466  10.339  1.00  0.00     0.015 C 
HETATM    4  C11 UNL     1      -0.075   7.745  11.707  1.00  0.00    -0.013 C 
HETATM    5  C12 UNL     1      -0.839   6.393  11.694  1.00  0.00     0.021 C 
HETATM    6  C13 UNL     1      -0.659   8.594  12.856  1.00  0.00    -0.070 C 
HETATM    7  C14 UNL     1      -1.932   9.032  12.808  1.00  0.00    -0.022 C 
HETATM    8  C15 UNL     1      -2.646   9.719  13.922  1.00  0.00     0.034 C 
HETATM    9  C16 UNL     1      -1.953   9.597  15.302  1.00  0.00     0.013 C 
HETATM   10  C17 UNL     1      -2.652  10.482  16.405  1.00  0.00     0.018 C 
HETATM   11  C18 UNL     1      -4.122  10.837  16.093  1.00  0.00     0.023 C 
HETATM   12  C19 UNL     1      -2.670   9.735  17.758  1.00  0.00     0.023 C 
HETATM   13  C20 UNL     1      -1.907  11.813  16.562  1.00  0.00     0.135 C 
HETATM   14  O2  UNL     1      -1.962  12.473  17.601  1.00  0.00    -0.297 OA
HETATM   15  C21 UNL     1      -1.181  12.350  15.351  1.00  0.00     0.080 C 
HETATM   16  C22 UNL     1      -0.204  11.350  14.732  1.00  0.00     0.017 C 
HETATM   17  C23 UNL     1      -0.411   9.863  15.146  1.00  0.00    -0.031 C 
HETATM   18  C24 UNL     1       0.355   9.620  16.473  1.00  0.00     0.016 C 
HETATM   19  C25 UNL     1       0.197   8.843  14.083  1.00  0.00     0.024 C 
HETATM   20  C26 UNL     1       1.672   9.161  13.736  1.00  0.00     0.010 C 
HETATM   21  C27 UNL     1       2.115   8.833  12.310  1.00  0.00     0.011 C 
HETATM   22  C28 UNL     1       1.493   7.542  11.753  1.00  0.00    -0.029 C 
HETATM   23  C29 UNL     1       1.964   6.343  12.604  1.00  0.00     0.016 C 
ENDROOT
BRANCH   1  24
HETATM   24  C6  UNL     1       3.285   7.069   9.752  1.00  0.00    -0.007 C 
HETATM   25  C7  UNL     1       3.867   8.425   9.307  1.00  0.00     0.011 C 
BRANCH  24  26
HETATM   26  C5  UNL     1       4.317   6.308  10.601  1.00  0.00     0.087 C 
BRANCH  26  27
HETATM   27  C4  UNL     1       5.380   7.112  11.326  1.00  0.00     0.150 C 
HETATM   28  O1  UNL     1       6.351   7.572  10.730  1.00  0.00    -0.293 OA
BRANCH  27  29
HETATM   29  C3  UNL     1       5.167   7.374  12.779  1.00  0.00     0.063 C 
HETATM   30  C2  UNL     1       6.152   7.610  13.668  1.00  0.00     0.015 C 
HETATM   31  C1  UNL     1       7.625   7.594  13.377  1.00  0.00     0.055 C 
BRANCH  30  32
HETATM   32  C30 UNL     1       5.801   7.902  15.079  1.00  0.00     0.171 C 
HETATM   33  O3  UNL     1       6.486   8.530  15.866  1.00  0.00    -0.646 OA
BRANCH  32  34
HETATM   34  O4  UNL     1       4.614   7.401  15.462  1.00  0.00    -0.773 OA
HETATM   35  H44 UNL     1       4.542   7.685  16.397  1.00  0.00     0.167 HD
ENDBRANCH  32  34
ENDBRANCH  30  32
ENDBRANCH  27  29
ENDBRANCH  26  27
ENDBRANCH  24  26
ENDBRANCH   1  24
TORSDOF 6
ENDMDL
MODEL 6
REMARK minimizedAffinity -8.23137093
REMARK CNNscore 0.402464509
REMARK CNNaffinity 7.01351118
REMARK  6 active torsions:
REMARK  status: ('A' for Active; 'I' for Inactive)
REMARK    1  A    between atoms: C2_2  and  C30_32 
REMARK    2  A    between atoms: C3_3  and  C4_4 
REMARK    3  A    between atoms: C4_4  and  C5_6 
REMARK    4  A    between atoms: C5_6  and  C6_7 
REMARK    5  A    between atoms: C6_7  and  C8_9 
REMARK    6  A    between atoms: C30_32  and  O4_34 
ROOT
HETATM    1  C8  UNL     1     -13.448   8.618  14.883  1.00  0.00    -0.001 C 
HETATM    2  C9  UNL     1     -13.563   7.109  15.081  1.00  0.00     0.007 C 
HETATM    3  C10 UNL     1     -12.370   6.500  14.341  1.00  0.00     0.015 C 
HETATM    4  C11 UNL     1     -11.438   7.665  13.875  1.00  0.00    -0.013 C 
HETATM    5  C12 UNL     1     -11.682   7.932  12.365  1.00  0.00     0.021 C 
HETATM    6  C13 UNL     1      -9.958   7.260  14.039  1.00  0.00    -0.070 C 
HETATM    7  C14 UNL     1      -9.497   6.111  13.509  1.00  0.00    -0.022 C 
HETATM    8  C15 UNL     1      -8.064   5.699  13.469  1.00  0.00     0.034 C 
HETATM    9  C16 UNL     1      -7.058   6.839  13.762  1.00  0.00     0.013 C 
HETATM   10  C17 UNL     1      -5.575   6.315  13.878  1.00  0.00     0.018 C 
HETATM   11  C18 UNL     1      -5.324   4.966  13.170  1.00  0.00     0.023 C 
HETATM   12  C19 UNL     1      -4.599   7.325  13.233  1.00  0.00     0.023 C 
HETATM   13  C20 UNL     1      -5.203   6.110  15.351  1.00  0.00     0.135 C 
HETATM   14  O2  UNL     1      -4.034   6.132  15.739  1.00  0.00    -0.297 OA
HETATM   15  C21 UNL     1      -6.321   5.769  16.309  1.00  0.00     0.080 C 
HETATM   16  C22 UNL     1      -7.485   6.759  16.265  1.00  0.00     0.017 C 
HETATM   17  C23 UNL     1      -7.546   7.670  15.004  1.00  0.00    -0.031 C 
HETATM   18  C24 UNL     1      -6.648   8.909  15.260  1.00  0.00     0.016 C 
HETATM   19  C25 UNL     1      -9.013   8.229  14.724  1.00  0.00     0.024 C 
HETATM   20  C26 UNL     1      -9.636   8.901  15.972  1.00  0.00     0.010 C 
HETATM   21  C27 UNL     1     -11.154   8.783  16.113  1.00  0.00     0.011 C 
HETATM   22  C28 UNL     1     -11.907   8.877  14.776  1.00  0.00    -0.029 C 
HETATM   23  C29 UNL     1     -11.671  10.272  14.157  1.00  0.00     0.016 C 
ENDROOT
BRANCH   1  24
HETATM   24  C6  UNL     1     -14.371   9.520  15.753  1.00  0.00    -0.007 C 
HETATM   25  C7  UNL     1     -13.667   9.854  17.082  1.00  0.00     0.011 C 
BRANCH  24  26
HETATM   26  C5  UNL     1     -15.023  10.785  15.171  1.00  0.00     0.087 C 
BRANCH  26  27
HETATM   27  C4  UNL     1     -16.479  10.709  14.747  1.00  0.00     0.150 C 
HETATM   28  O1  UNL     1     -17.363  11.258  15.398  1.00  0.00    -0.293 OA
BRANCH  27  29
HETATM   29  C3  UNL     1     -16.783   9.994  13.474  1.00  0.00     0.063 C 
HETATM   30  C2  UNL     1     -16.010  10.029  12.371  1.00  0.00     0.015 C 
HETATM   31  C1  UNL     1     -14.751  10.831  12.201  1.00  0.00     0.055 C 
BRANCH  30  32
HETATM   32  C30 UNL     1     -16.404   9.233  11.183  1.00  0.00     0.171 C 
HETATM   33  O3  UNL     1     -17.147   9.605  10.293  1.00  0.00    -0.646 OA
BRANCH  32  34
HETATM   34  O4  UNL     1     -15.863   8.003  11.146  1.00  0.00    -0.773 OA
HETATM   35  H44 UNL     1     -16.217   7.628  10.313  1.00  0.00     0.167 HD
ENDBRANCH  32  34
ENDBRANCH  30  32
ENDBRANCH  27  29
ENDBRANCH  26  27
ENDBRANCH  24  26
ENDBRANCH   1  24
TORSDOF 6
ENDMDL
MODEL 7
REMARK minimizedAffinity -8.72965813
REMARK CNNscore 0.33605215
REMARK CNNaffinity 6.16359091
REMARK  6 active torsions:
REMARK  status: ('A' for Active; 'I' for Inactive)
REMARK    1  A    between atoms: C2_2  and  C30_32 
REMARK    2  A    between atoms: C3_3  and  C4_4 
REMARK    3  A    between atoms: C4_4  and  C5_6 
REMARK    4  A    between atoms: C5_6  and  C6_7 
REMARK    5  A    between atoms: C6_7  and  C8_9 
REMARK    6  A    between atoms: C30_32  and  O4_34 
ROOT
HETATM    1  C8  UNL     1      -7.892   2.390  -9.405  1.00  0.00    -0.001 C 
HETATM    2  C9  UNL     1      -6.727   2.074 -10.339  1.00  0.00     0.007 C 
HETATM    3  C10 UNL     1      -6.121   3.428 -10.720  1.00  0.00     0.015 C 
HETATM    4  C11 UNL     1      -6.806   4.531  -9.851  1.00  0.00    -0.013 C 
HETATM    5  C12 UNL     1      -7.875   5.258 -10.710  1.00  0.00     0.021 C 
HETATM    6  C13 UNL     1      -5.767   5.586  -9.416  1.00  0.00    -0.070 C 
HETATM    7  C14 UNL     1      -4.981   6.192 -10.327  1.00  0.00    -0.022 C 
HETATM    8  C15 UNL     1      -4.060   7.331 -10.044  1.00  0.00     0.034 C 
HETATM    9  C16 UNL     1      -4.310   8.039  -8.689  1.00  0.00     0.013 C 
HETATM   10  C17 UNL     1      -3.206   9.116  -8.363  1.00  0.00     0.018 C 
HETATM   11  C18 UNL     1      -2.454   9.647  -9.603  1.00  0.00     0.023 C 
HETATM   12  C19 UNL     1      -3.847  10.352  -7.690  1.00  0.00     0.023 C 
HETATM   13  C20 UNL     1      -2.144   8.518  -7.433  1.00  0.00     0.135 C 
HETATM   14  O2  UNL     1      -1.446   9.221  -6.701  1.00  0.00    -0.297 OA
HETATM   15  C21 UNL     1      -1.903   7.029  -7.521  1.00  0.00     0.080 C 
HETATM   16  C22 UNL     1      -3.174   6.194  -7.360  1.00  0.00     0.017 C 
HETATM   17  C23 UNL     1      -4.513   6.963  -7.560  1.00  0.00    -0.031 C 
HETATM   18  C24 UNL     1      -4.902   7.614  -6.206  1.00  0.00     0.016 C 
HETATM   19  C25 UNL     1      -5.718   5.999  -7.957  1.00  0.00     0.024 C 
HETATM   20  C26 UNL     1      -5.861   4.802  -6.986  1.00  0.00     0.010 C 
HETATM   21  C27 UNL     1      -6.375   3.497  -7.595  1.00  0.00     0.011 C 
HETATM   22  C28 UNL     1      -7.455   3.702  -8.670  1.00  0.00    -0.029 C 
HETATM   23  C29 UNL     1      -8.695   4.358  -8.026  1.00  0.00     0.016 C 
ENDROOT
BRANCH   1  24
HETATM   24  C6  UNL     1      -8.529   1.195  -8.637  1.00  0.00    -0.007 C 
HETATM   25  C7  UNL     1      -8.206  -0.123  -9.369  1.00  0.00     0.011 C 
BRANCH  24  26
HETATM   26  C5  UNL     1      -8.319   1.021  -7.124  1.00  0.00     0.087 C 
BRANCH  26  27
HETATM   27  C4  UNL     1      -7.931  -0.353  -6.609  1.00  0.00     0.150 C 
HETATM   28  O1  UNL     1      -6.898  -0.906  -6.979  1.00  0.00    -0.293 OA
BRANCH  27  29
HETATM   29  C3  UNL     1      -8.822  -0.977  -5.588  1.00  0.00     0.063 C 
HETATM   30  C2  UNL     1     -10.051  -1.467  -5.840  1.00  0.00     0.015 C 
HETATM   31  C1  UNL     1     -10.763  -1.423  -7.162  1.00  0.00     0.055 C 
BRANCH  30  32
HETATM   32  C30 UNL     1     -10.817  -2.105  -4.743  1.00  0.00     0.171 C 
HETATM   33  O3  UNL     1     -11.238  -3.248  -4.741  1.00  0.00    -0.646 OA
BRANCH  32  34
HETATM   34  O4  UNL     1     -11.037  -1.299  -3.690  1.00  0.00    -0.773 OA
HETATM   35  H44 UNL     1     -11.540  -1.870  -3.073  1.00  0.00     0.167 HD
ENDBRANCH  32  34
ENDBRANCH  30  32
ENDBRANCH  27  29
ENDBRANCH  26  27
ENDBRANCH  24  26
ENDBRANCH   1  24
TORSDOF 6
ENDMDL
MODEL 8
REMARK minimizedAffinity -8.38776684
REMARK CNNscore 0.327290863
REMARK CNNaffinity 6.64146185
REMARK  6 active torsions:
REMARK  status: ('A' for Active; 'I' for Inactive)
REMARK    1  A    between atoms: C2_2  and  C30_32 
REMARK    2  A    between atoms: C3_3  and  C4_4 
REMARK    3  A    between atoms: C4_4  and  C5_6 
REMARK    4  A    between atoms: C5_6  and  C6_7 
REMARK    5  A    between atoms: C6_7  and  C8_9 
REMARK    6  A    between atoms: C30_32  and  O4_34 
ROOT
HETATM    1  C8  UNL     1      -4.009   5.770  13.496  1.00  0.00    -0.001 C 
HETATM    2  C9  UNL     1      -2.798   5.276  14.282  1.00  0.00     0.007 C 
HETATM    3  C10 UNL     1      -1.891   6.496  14.457  1.00  0.00     0.015 C 
HETATM    4  C11 UNL     1      -2.662   7.756  13.946  1.00  0.00    -0.013 C 
HETATM    5  C12 UNL     1      -2.148   8.121  12.527  1.00  0.00     0.021 C 
HETATM    6  C13 UNL     1      -2.377   8.962  14.865  1.00  0.00    -0.070 C 
HETATM    7  C14 UNL     1      -1.112   9.327  15.148  1.00  0.00    -0.022 C 
HETATM    8  C15 UNL     1      -0.719  10.560  15.889  1.00  0.00     0.034 C 
HETATM    9  C16 UNL     1      -1.845  11.616  16.023  1.00  0.00     0.013 C 
HETATM   10  C17 UNL     1      -1.433  12.817  16.958  1.00  0.00     0.018 C 
HETATM   11  C18 UNL     1       0.092  13.010  17.104  1.00  0.00     0.023 C 
HETATM   12  C19 UNL     1      -1.981  14.147  16.394  1.00  0.00     0.023 C 
HETATM   13  C20 UNL     1      -1.980  12.594  18.373  1.00  0.00     0.135 C 
HETATM   14  O2  UNL     1      -2.180  13.529  19.151  1.00  0.00    -0.297 OA
HETATM   15  C21 UNL     1      -2.170  11.166  18.828  1.00  0.00     0.080 C 
HETATM   16  C22 UNL     1      -3.020  10.329  17.872  1.00  0.00     0.017 C 
HETATM   17  C23 UNL     1      -3.187  10.909  16.437  1.00  0.00    -0.031 C 
HETATM   18  C24 UNL     1      -4.381  11.900  16.453  1.00  0.00     0.016 C 
HETATM   19  C25 UNL     1      -3.548   9.788  15.363  1.00  0.00     0.024 C 
HETATM   20  C26 UNL     1      -4.757   8.923  15.796  1.00  0.00     0.010 C 
HETATM   21  C27 UNL     1      -4.739   7.464  15.340  1.00  0.00     0.011 C 
HETATM   22  C28 UNL     1      -4.167   7.267  13.927  1.00  0.00    -0.029 C 
HETATM   23  C29 UNL     1      -5.068   7.995  12.907  1.00  0.00     0.016 C 
ENDROOT
BRANCH   1  24
HETATM   24  C6  UNL     1      -5.233   4.812  13.404  1.00  0.00    -0.007 C 
HETATM   25  C7  UNL     1      -6.454   5.463  14.082  1.00  0.00     0.011 C 
BRANCH  24  26
HETATM   26  C5  UNL     1      -5.649   4.181  12.065  1.00  0.00     0.087 C 
BRANCH  26  27
HETATM   27  C4  UNL     1      -5.416   2.694  11.871  1.00  0.00     0.150 C 
HETATM   28  O1  UNL     1      -6.353   1.914  11.728  1.00  0.00    -0.293 OA
BRANCH  27  29
HETATM   29  C3  UNL     1      -4.001   2.228  11.799  1.00  0.00     0.063 C 
HETATM   30  C2  UNL     1      -3.086   2.686  10.922  1.00  0.00     0.015 C 
HETATM   31  C1  UNL     1      -3.335   3.691   9.833  1.00  0.00     0.055 C 
BRANCH  30  32
HETATM   32  C30 UNL     1      -1.697   2.171  10.987  1.00  0.00     0.171 C 
HETATM   33  O3  UNL     1      -0.717   2.812  11.318  1.00  0.00    -0.646 OA
BRANCH  32  34
HETATM   34  O4  UNL     1      -1.576   0.880  10.633  1.00  0.00    -0.773 OA
HETATM   35  H44 UNL     1      -0.617   0.709  10.735  1.00  0.00     0.167 HD
ENDBRANCH  32  34
ENDBRANCH  30  32
ENDBRANCH  27  29
ENDBRANCH  26  27
ENDBRANCH  24  26
ENDBRANCH   1  24
TORSDOF 6
ENDMDL
MODEL 9
REMARK minimizedAffinity -8.38723278
REMARK CNNscore 0.31744346
REMARK CNNaffinity 6.90528107
REMARK  6 active torsions:
REMARK  status: ('A' for Active; 'I' for Inactive)
REMARK    1  A    between atoms: C2_2  and  C30_32 
REMARK    2  A    between atoms: C3_3  and  C4_4 
REMARK    3  A    between atoms: C4_4  and  C5_6 
REMARK    4  A    between atoms: C5_6  and  C6_7 
REMARK    5  A    between atoms: C6_7  and  C8_9 
REMARK    6  A    between atoms: C30_32  and  O4_34 
ROOT
HETATM    1  C8  UNL     1      -0.518   7.775  14.751  1.00  0.00    -0.001 C 
HETATM    2  C9  UNL     1      -1.218   7.898  16.101  1.00  0.00     0.007 C 
HETATM    3  C10 UNL     1      -2.698   8.121  15.781  1.00  0.00     0.015 C 
HETATM    4  C11 UNL     1      -2.901   7.930  14.244  1.00  0.00    -0.013 C 
HETATM    5  C12 UNL     1      -2.993   9.326  13.570  1.00  0.00     0.021 C 
HETATM    6  C13 UNL     1      -4.231   7.197  13.970  1.00  0.00    -0.070 C 
HETATM    7  C14 UNL     1      -5.385   7.648  14.496  1.00  0.00    -0.022 C 
HETATM    8  C15 UNL     1      -6.741   7.116  14.173  1.00  0.00     0.034 C 
HETATM    9  C16 UNL     1      -6.799   6.227  12.907  1.00  0.00     0.013 C 
HETATM   10  C17 UNL     1      -8.211   5.553  12.710  1.00  0.00     0.018 C 
HETATM   11  C18 UNL     1      -9.366   6.287  13.426  1.00  0.00     0.023 C 
HETATM   12  C19 UNL     1      -8.587   5.526  11.211  1.00  0.00     0.023 C 
HETATM   13  C20 UNL     1      -8.194   4.123  13.263  1.00  0.00     0.135 C 
HETATM   14  O2  UNL     1      -8.979   3.261  12.866  1.00  0.00    -0.297 OA
HETATM   15  C21 UNL     1      -7.244   3.829  14.400  1.00  0.00     0.080 C 
HETATM   16  C22 UNL     1      -5.797   4.221  14.103  1.00  0.00     0.017 C 
HETATM   17  C23 UNL     1      -5.598   5.212  12.918  1.00  0.00    -0.031 C 
HETATM   18  C24 UNL     1      -5.527   4.386  11.606  1.00  0.00     0.016 C 
HETATM   19  C25 UNL     1      -4.226   6.016  13.017  1.00  0.00     0.024 C 
HETATM   20  C26 UNL     1      -3.007   5.082  13.219  1.00  0.00     0.010 C 
HETATM   21  C27 UNL     1      -1.855   5.648  14.049  1.00  0.00     0.011 C 
HETATM   22  C28 UNL     1      -1.599   7.145  13.809  1.00  0.00    -0.029 C 
HETATM   23  C29 UNL     1      -1.176   7.358  12.340  1.00  0.00     0.016 C 
ENDROOT
BRANCH   1  24
HETATM   24  C6  UNL     1       0.955   7.269  14.760  1.00  0.00    -0.007 C 
HETATM   25  C7  UNL     1       1.082   6.025  13.859  1.00  0.00     0.011 C 
BRANCH  24  26
HETATM   26  C5  UNL     1       2.127   8.229  14.498  1.00  0.00     0.087 C 
BRANCH  26  27
HETATM   27  C4  UNL     1       2.548   8.468  13.059  1.00  0.00     0.150 C 
HETATM   28  O1  UNL     1       1.821   9.069  12.272  1.00  0.00    -0.293 OA
BRANCH  27  29
HETATM   29  C3  UNL     1       3.905   7.998  12.658  1.00  0.00     0.063 C 
HETATM   30  C2  UNL     1       4.146   7.054  11.728  1.00  0.00     0.015 C 
HETATM   31  C1  UNL     1       3.106   6.268  10.980  1.00  0.00     0.055 C 
BRANCH  30  32
HETATM   32  C30 UNL     1       5.547   6.709  11.388  1.00  0.00     0.171 C 
HETATM   33  O3  UNL     1       6.159   7.105  10.413  1.00  0.00    -0.646 OA
BRANCH  32  34
HETATM   34  O4  UNL     1       6.136   5.882  12.269  1.00  0.00    -0.773 OA
HETATM   35  H44 UNL     1       7.036   5.767  11.901  1.00  0.00     0.167 HD
ENDBRANCH  32  34
ENDBRANCH  30  32
ENDBRANCH  27  29
ENDBRANCH  26  27
ENDBRANCH  24  26
ENDBRANCH   1  24
TORSDOF 6
ENDMDL
