MODEL 1
REMARK minimizedAffinity -9.55137348
REMARK  6 active torsions:
REMARK  status: ('A' for Active; 'I' for Inactive)
REMARK    1  A    between atoms: C2_2  and  C30_32 
REMARK    2  A    between atoms: C3_3  and  C4_4 
REMARK    3  A    between atoms: C4_4  and  C5_6 
REMARK    4  A    between atoms: C5_6  and  C6_7 
REMARK    5  A    between atoms: C6_7  and  C8_9 
REMARK    6  A    between atoms: C30_32  and  O4_34 
ROOT
HETATM    1  C8  UNL     1      -6.278  48.867 -21.903  1.00  0.00    -0.001 C 
HETATM    2  C9  UNL     1      -7.073  49.901 -22.720  1.00  0.00     0.007 C 
HETATM    3  C10 UNL     1      -6.069  50.975 -23.180  1.00  0.00     0.015 C 
HETATM    4  C11 UNL     1      -4.698  50.617 -22.540  1.00  0.00    -0.013 C 
HETATM    5  C12 UNL     1      -4.662  51.350 -21.163  1.00  0.00     0.021 C 
HETATM    6  C13 UNL     1      -3.479  50.991 -23.421  1.00  0.00    -0.070 C 
HETATM    7  C14 UNL     1      -2.461  51.762 -23.002  1.00  0.00    -0.022 C 
HETATM    8  C15 UNL     1      -1.197  52.013 -23.755  1.00  0.00     0.034 C 
HETATM    9  C16 UNL     1      -0.945  51.147 -25.024  1.00  0.00     0.013 C 
HETATM   10  C17 UNL     1       0.190  51.818 -25.892  1.00  0.00     0.018 C 
HETATM   11  C18 UNL     1       0.775  50.887 -26.971  1.00  0.00     0.023 C 
HETATM   12  C19 UNL     1       1.389  52.236 -25.003  1.00  0.00     0.023 C 
HETATM   13  C20 UNL     1      -0.390  53.065 -26.580  1.00  0.00     0.135 C 
HETATM   14  O2  UNL     1       0.258  54.109 -26.690  1.00  0.00    -0.297 OA
HETATM   15  C21 UNL     1      -1.756  52.955 -27.230  1.00  0.00     0.080 C 
HETATM   16  C22 UNL     1      -2.787  52.244 -26.355  1.00  0.00     0.017 C 
HETATM   17  C23 UNL     1      -2.294  50.885 -25.773  1.00  0.00    -0.031 C 
HETATM   18  C24 UNL     1      -2.167  49.884 -26.948  1.00  0.00     0.016 C 
HETATM   19  C25 UNL     1      -3.388  50.308 -24.777  1.00  0.00     0.024 C 
HETATM   20  C26 UNL     1      -3.279  48.800 -24.468  1.00  0.00     0.010 C 
HETATM   21  C27 UNL     1      -4.541  48.327 -23.736  1.00  0.00     0.011 C 
HETATM   22  C28 UNL     1      -4.801  49.045 -22.384  1.00  0.00    -0.029 C 
HETATM   23  C29 UNL     1      -3.814  48.479 -21.341  1.00  0.00     0.016 C 
ENDROOT
BRANCH   1  24
HETATM   24  C6  UNL     1      -6.874  47.430 -21.834  1.00  0.00    -0.007 C 
HETATM   25  C7  UNL     1      -8.191  47.472 -21.033  1.00  0.00     0.011 C 
BRANCH  24  26
HETATM   26  C5  UNL     1      -7.151  46.744 -23.188  1.00  0.00     0.087 C 
BRANCH  26  27
HETATM   27  C4  UNL     1      -8.622  46.419 -23.410  1.00  0.00     0.150 C 
HETATM   28  O1  UNL     1      -9.136  45.364 -23.048  1.00  0.00    -0.293 OA
BRANCH  27  29
HETATM   29  C3  UNL     1      -9.407  47.445 -24.153  1.00  0.00     0.063 C 
HETATM   30  C2  UNL     1      -9.203  47.786 -25.439  1.00  0.00     0.015 C 
HETATM   31  C1  UNL     1      -8.221  47.171 -26.389  1.00  0.00     0.055 C 
BRANCH  30  32
HETATM   32  C30 UNL     1     -10.079  48.869 -25.942  1.00  0.00     0.171 C 
HETATM   33  O3  UNL     1     -11.248  48.758 -26.270  1.00  0.00    -0.646 OA
BRANCH  32  34
HETATM   34  O4  UNL     1      -9.452  50.054 -26.001  1.00  0.00    -0.773 OA
HETATM   35  H44 UNL     1     -10.139  50.672 -26.324  1.00  0.00     0.167 HD
ENDBRANCH  32  34
ENDBRANCH  30  32
ENDBRANCH  27  29
ENDBRANCH  26  27
ENDBRANCH  24  26
ENDBRANCH   1  24
TORSDOF 6
ENDMDL
MODEL 2
REMARK minimizedAffinity -9.48738098
REMARK  6 active torsions:
REMARK  status: ('A' for Active; 'I' for Inactive)
REMARK    1  A    between atoms: C2_2  and  C30_32 
REMARK    2  A    between atoms: C3_3  and  C4_4 
REMARK    3  A    between atoms: C4_4  and  C5_6 
REMARK    4  A    between atoms: C5_6  and  C6_7 
REMARK    5  A    between atoms: C6_7  and  C8_9 
REMARK    6  A    between atoms: C30_32  and  O4_34 
ROOT
HETATM    1  C8  UNL     1      -3.910  49.212 -20.978  1.00  0.00    -0.001 C 
HETATM    2  C9  UNL     1      -2.687  48.287 -21.111  1.00  0.00     0.007 C 
HETATM    3  C10 UNL     1      -2.127  48.485 -22.532  1.00  0.00     0.015 C 
HETATM    4  C11 UNL     1      -3.093  49.458 -23.267  1.00  0.00    -0.013 C 
HETATM    5  C12 UNL     1      -4.170  48.560 -23.950  1.00  0.00     0.021 C 
HETATM    6  C13 UNL     1      -2.388  50.386 -24.288  1.00  0.00    -0.070 C 
HETATM    7  C14 UNL     1      -2.744  50.483 -25.581  1.00  0.00    -0.022 C 
HETATM    8  C15 UNL     1      -2.205  51.476 -26.556  1.00  0.00     0.034 C 
HETATM    9  C16 UNL     1      -1.322  52.624 -25.982  1.00  0.00     0.013 C 
HETATM   10  C17 UNL     1      -0.526  53.304 -27.163  1.00  0.00     0.018 C 
HETATM   11  C18 UNL     1       0.096  54.664 -26.788  1.00  0.00     0.023 C 
HETATM   12  C19 UNL     1      -1.460  53.589 -28.367  1.00  0.00     0.023 C 
HETATM   13  C20 UNL     1       0.599  52.355 -27.608  1.00  0.00     0.135 C 
HETATM   14  O2  UNL     1       0.890  52.202 -28.797  1.00  0.00    -0.297 OA
HETATM   15  C21 UNL     1       1.434  51.681 -26.536  1.00  0.00     0.080 C 
HETATM   16  C22 UNL     1       0.599  51.096 -25.398  1.00  0.00     0.017 C 
HETATM   17  C23 UNL     1      -0.444  52.089 -24.803  1.00  0.00    -0.031 C 
HETATM   18  C24 UNL     1       0.334  53.200 -24.055  1.00  0.00     0.016 C 
HETATM   19  C25 UNL     1      -1.340  51.336 -23.729  1.00  0.00     0.024 C 
HETATM   20  C26 UNL     1      -2.098  52.244 -22.739  1.00  0.00     0.010 C 
HETATM   21  C27 UNL     1      -2.685  51.398 -21.603  1.00  0.00     0.011 C 
HETATM   22  C28 UNL     1      -3.687  50.308 -22.071  1.00  0.00    -0.029 C 
HETATM   23  C29 UNL     1      -5.019  51.001 -22.430  1.00  0.00     0.016 C 
ENDROOT
BRANCH   1  24
HETATM   24  C6  UNL     1      -4.289  49.660 -19.536  1.00  0.00    -0.007 C 
HETATM   25  C7  UNL     1      -5.550  48.893 -19.089  1.00  0.00     0.011 C 
BRANCH  24  26
HETATM   26  C5  UNL     1      -3.200  49.475 -18.459  1.00  0.00     0.087 C 
BRANCH  26  27
HETATM   27  C4  UNL     1      -2.748  50.784 -17.827  1.00  0.00     0.150 C 
HETATM   28  O1  UNL     1      -3.121  51.157 -16.719  1.00  0.00    -0.293 OA
BRANCH  27  29
HETATM   29  C3  UNL     1      -1.854  51.633 -18.666  1.00  0.00     0.063 C 
HETATM   30  C2  UNL     1      -0.523  51.749 -18.496  1.00  0.00     0.015 C 
HETATM   31  C1  UNL     1       0.326  51.016 -17.503  1.00  0.00     0.055 C 
BRANCH  30  32
HETATM   32  C30 UNL     1       0.142  52.692 -19.424  1.00  0.00     0.171 C 
HETATM   33  O3  UNL     1       0.662  52.410 -20.490  1.00  0.00    -0.646 OA
BRANCH  32  34
HETATM   34  O4  UNL     1       0.115  53.958 -18.980  1.00  0.00    -0.773 OA
HETATM   35  H44 UNL     1       0.562  54.468 -19.686  1.00  0.00     0.167 HD
ENDBRANCH  32  34
ENDBRANCH  30  32
ENDBRANCH  27  29
ENDBRANCH  26  27
ENDBRANCH  24  26
ENDBRANCH   1  24
TORSDOF 6
ENDMDL
MODEL 3
REMARK minimizedAffinity -9.31993103
REMARK  6 active torsions:
REMARK  status: ('A' for Active; 'I' for Inactive)
REMARK    1  A    between atoms: C2_2  and  C30_32 
REMARK    2  A    between atoms: C3_3  and  C4_4 
REMARK    3  A    between atoms: C4_4  and  C5_6 
REMARK    4  A    between atoms: C5_6  and  C6_7 
REMARK    5  A    between atoms: C6_7  and  C8_9 
REMARK    6  A    between atoms: C30_32  and  O4_34 
ROOT
HETATM    1  C8  UNL     1      -2.096  51.846 -23.210  1.00  0.00    -0.001 C 
HETATM    2  C9  UNL     1      -1.321  50.525 -23.063  1.00  0.00     0.007 C 
HETATM    3  C10 UNL     1      -2.194  49.586 -22.209  1.00  0.00     0.015 C 
HETATM    4  C11 UNL     1      -3.442  50.403 -21.771  1.00  0.00    -0.013 C 
HETATM    5  C12 UNL     1      -3.061  51.077 -20.417  1.00  0.00     0.021 C 
HETATM    6  C13 UNL     1      -4.733  49.555 -21.645  1.00  0.00    -0.070 C 
HETATM    7  C14 UNL     1      -5.489  49.502 -20.536  1.00  0.00    -0.022 C 
HETATM    8  C15 UNL     1      -6.819  48.833 -20.424  1.00  0.00     0.034 C 
HETATM    9  C16 UNL     1      -7.478  48.342 -21.746  1.00  0.00     0.013 C 
HETATM   10  C17 UNL     1      -8.633  47.324 -21.403  1.00  0.00     0.018 C 
HETATM   11  C18 UNL     1      -9.586  47.047 -22.582  1.00  0.00     0.023 C 
HETATM   12  C19 UNL     1      -9.528  47.869 -20.260  1.00  0.00     0.023 C 
HETATM   13  C20 UNL     1      -8.000  45.994 -20.959  1.00  0.00     0.135 C 
HETATM   14  O2  UNL     1      -8.463  45.331 -20.028  1.00  0.00    -0.297 OA
HETATM   15  C21 UNL     1      -6.842  45.447 -21.771  1.00  0.00     0.080 C 
HETATM   16  C22 UNL     1      -5.791  46.502 -22.114  1.00  0.00     0.017 C 
HETATM   17  C23 UNL     1      -6.383  47.807 -22.727  1.00  0.00    -0.031 C 
HETATM   18  C24 UNL     1      -6.926  47.464 -24.137  1.00  0.00     0.016 C 
HETATM   19  C25 UNL     1      -5.224  48.876 -22.916  1.00  0.00     0.024 C 
HETATM   20  C26 UNL     1      -5.529  50.024 -23.900  1.00  0.00     0.010 C 
HETATM   21  C27 UNL     1      -4.246  50.809 -24.198  1.00  0.00     0.011 C 
HETATM   22  C28 UNL     1      -3.587  51.452 -22.947  1.00  0.00    -0.029 C 
HETATM   23  C29 UNL     1      -4.417  52.691 -22.549  1.00  0.00     0.016 C 
ENDROOT
BRANCH   1  24
HETATM   24  C6  UNL     1      -1.761  52.713 -24.460  1.00  0.00    -0.007 C 
HETATM   25  C7  UNL     1      -0.269  53.098 -24.416  1.00  0.00     0.011 C 
BRANCH  24  26
HETATM   26  C5  UNL     1      -2.057  52.070 -25.831  1.00  0.00     0.087 C 
BRANCH  26  27
HETATM   27  C4  UNL     1      -1.261  50.797 -26.084  1.00  0.00     0.150 C 
HETATM   28  O1  UNL     1      -1.788  49.704 -26.269  1.00  0.00    -0.293 OA
BRANCH  27  29
HETATM   29  C3  UNL     1       0.222  50.941 -26.038  1.00  0.00     0.063 C 
HETATM   30  C2  UNL     1       0.983  51.375 -27.060  1.00  0.00     0.015 C 
HETATM   31  C1  UNL     1       0.508  51.861 -28.395  1.00  0.00     0.055 C 
BRANCH  30  32
HETATM   32  C30 UNL     1       2.440  51.385 -26.789  1.00  0.00     0.171 C 
HETATM   33  O3  UNL     1       3.020  50.737 -25.935  1.00  0.00    -0.646 OA
BRANCH  32  34
HETATM   34  O4  UNL     1       3.111  52.203 -27.614  1.00  0.00    -0.773 OA
HETATM   35  H44 UNL     1       4.047  52.099 -27.343  1.00  0.00     0.167 HD
ENDBRANCH  32  34
ENDBRANCH  30  32
ENDBRANCH  27  29
ENDBRANCH  26  27
ENDBRANCH  24  26
ENDBRANCH   1  24
TORSDOF 6
ENDMDL
MODEL 4
REMARK minimizedAffinity -9.30793858
REMARK  6 active torsions:
REMARK  status: ('A' for Active; 'I' for Inactive)
REMARK    1  A    between atoms: C2_2  and  C30_32 
REMARK    2  A    between atoms: C3_3  and  C4_4 
REMARK    3  A    between atoms: C4_4  and  C5_6 
REMARK    4  A    between atoms: C5_6  and  C6_7 
REMARK    5  A    between atoms: C6_7  and  C8_9 
REMARK    6  A    between atoms: C30_32  and  O4_34 
ROOT
HETATM    1  C8  UNL     1      -3.390  50.789 -25.229  1.00  0.00    -0.001 C 
HETATM    2  C9  UNL     1      -3.302  52.253 -24.761  1.00  0.00     0.007 C 
HETATM    3  C10 UNL     1      -3.658  52.266 -23.262  1.00  0.00     0.015 C 
HETATM    4  C11 UNL     1      -4.054  50.813 -22.878  1.00  0.00    -0.013 C 
HETATM    5  C12 UNL     1      -5.592  50.710 -23.115  1.00  0.00     0.021 C 
HETATM    6  C13 UNL     1      -3.670  50.422 -21.429  1.00  0.00    -0.070 C 
HETATM    7  C14 UNL     1      -4.543  49.944 -20.526  1.00  0.00    -0.022 C 
HETATM    8  C15 UNL     1      -4.190  49.404 -19.180  1.00  0.00     0.034 C 
HETATM    9  C16 UNL     1      -2.678  49.179 -18.881  1.00  0.00     0.013 C 
HETATM   10  C17 UNL     1      -2.476  49.012 -17.325  1.00  0.00     0.018 C 
HETATM   11  C18 UNL     1      -1.102  48.433 -16.938  1.00  0.00     0.023 C 
HETATM   12  C19 UNL     1      -3.525  48.034 -16.735  1.00  0.00     0.023 C 
HETATM   13  C20 UNL     1      -2.636  50.389 -16.659  1.00  0.00     0.135 C 
HETATM   14  O2  UNL     1      -3.225  50.527 -15.584  1.00  0.00    -0.297 OA
HETATM   15  C21 UNL     1      -1.950  51.579 -17.301  1.00  0.00     0.080 C 
HETATM   16  C22 UNL     1      -2.141  51.643 -18.816  1.00  0.00     0.017 C 
HETATM   17  C23 UNL     1      -1.824  50.306 -19.550  1.00  0.00    -0.031 C 
HETATM   18  C24 UNL     1      -0.297  50.066 -19.458  1.00  0.00     0.016 C 
HETATM   19  C25 UNL     1      -2.187  50.450 -21.090  1.00  0.00     0.024 C 
HETATM   20  C26 UNL     1      -1.534  49.414 -22.028  1.00  0.00     0.010 C 
HETATM   21  C27 UNL     1      -1.737  49.834 -23.489  1.00  0.00     0.011 C 
HETATM   22  C28 UNL     1      -3.225  49.953 -23.917  1.00  0.00    -0.029 C 
HETATM   23  C29 UNL     1      -3.788  48.528 -24.103  1.00  0.00     0.016 C 
ENDROOT
BRANCH   1  24
HETATM   24  C6  UNL     1      -2.535  50.405 -26.473  1.00  0.00    -0.007 C 
HETATM   25  C7  UNL     1      -3.005  49.034 -26.997  1.00  0.00     0.011 C 
BRANCH  24  26
HETATM   26  C5  UNL     1      -2.555  51.407 -27.645  1.00  0.00     0.087 C 
BRANCH  26  27
HETATM   27  C4  UNL     1      -1.469  52.471 -27.548  1.00  0.00     0.150 C 
HETATM   28  O1  UNL     1      -1.712  53.672 -27.488  1.00  0.00    -0.293 OA
BRANCH  27  29
HETATM   29  C3  UNL     1      -0.066  51.968 -27.585  1.00  0.00     0.063 C 
HETATM   30  C2  UNL     1       0.780  51.972 -26.539  1.00  0.00     0.015 C 
HETATM   31  C1  UNL     1       0.476  52.402 -25.136  1.00  0.00     0.055 C 
BRANCH  30  32
HETATM   32  C30 UNL     1       2.140  51.466 -26.836  1.00  0.00     0.171 C 
HETATM   33  O3  UNL     1       2.844  50.806 -26.091  1.00  0.00    -0.646 OA
BRANCH  32  34
HETATM   34  O4  UNL     1       2.556  51.801 -28.067  1.00  0.00    -0.773 OA
HETATM   35  H44 UNL     1       3.444  51.393 -28.138  1.00  0.00     0.167 HD
ENDBRANCH  32  34
ENDBRANCH  30  32
ENDBRANCH  27  29
ENDBRANCH  26  27
ENDBRANCH  24  26
ENDBRANCH   1  24
TORSDOF 6
ENDMDL
MODEL 5
REMARK minimizedAffinity -9.2721796
REMARK  6 active torsions:
REMARK  status: ('A' for Active; 'I' for Inactive)
REMARK    1  A    between atoms: C2_2  and  C30_32 
REMARK    2  A    between atoms: C3_3  and  C4_4 
REMARK    3  A    between atoms: C4_4  and  C5_6 
REMARK    4  A    between atoms: C5_6  and  C6_7 
REMARK    5  A    between atoms: C6_7  and  C8_9 
REMARK    6  A    between atoms: C30_32  and  O4_34 
ROOT
HETATM    1  C8  UNL     1      -2.562  50.224 -23.659  1.00  0.00    -0.001 C 
HETATM    2  C9  UNL     1      -1.727  49.588 -22.534  1.00  0.00     0.007 C 
HETATM    3  C10 UNL     1      -2.658  49.439 -21.315  1.00  0.00     0.015 C 
HETATM    4  C11 UNL     1      -4.017  50.087 -21.702  1.00  0.00    -0.013 C 
HETATM    5  C12 UNL     1      -3.914  51.586 -21.285  1.00  0.00     0.021 C 
HETATM    6  C13 UNL     1      -5.246  49.395 -21.059  1.00  0.00    -0.070 C 
HETATM    7  C14 UNL     1      -6.168  50.040 -20.325  1.00  0.00    -0.022 C 
HETATM    8  C15 UNL     1      -7.446  49.451 -19.826  1.00  0.00     0.034 C 
HETATM    9  C16 UNL     1      -7.841  48.048 -20.375  1.00  0.00     0.013 C 
HETATM   10  C17 UNL     1      -8.959  47.426 -19.452  1.00  0.00     0.018 C 
HETATM   11  C18 UNL     1      -9.682  46.220 -20.082  1.00  0.00     0.023 C 
HETATM   12  C19 UNL     1     -10.067  48.468 -19.150  1.00  0.00     0.023 C 
HETATM   13  C20 UNL     1      -8.312  46.978 -18.131  1.00  0.00     0.135 C 
HETATM   14  O2  UNL     1      -8.873  47.137 -17.044  1.00  0.00    -0.297 OA
HETATM   15  C21 UNL     1      -6.999  46.221 -18.197  1.00  0.00     0.080 C 
HETATM   16  C22 UNL     1      -5.986  46.850 -19.154  1.00  0.00     0.017 C 
HETATM   17  C23 UNL     1      -6.563  47.166 -20.566  1.00  0.00    -0.031 C 
HETATM   18  C24 UNL     1      -6.840  45.818 -21.277  1.00  0.00     0.016 C 
HETATM   19  C25 UNL     1      -5.470  47.935 -21.424  1.00  0.00     0.024 C 
HETATM   20  C26 UNL     1      -5.692  47.925 -22.950  1.00  0.00     0.010 C 
HETATM   21  C27 UNL     1      -4.438  48.448 -23.662  1.00  0.00     0.011 C 
HETATM   22  C28 UNL     1      -4.043  49.898 -23.274  1.00  0.00    -0.029 C 
HETATM   23  C29 UNL     1      -5.015  50.867 -23.979  1.00  0.00     0.016 C 
ENDROOT
BRANCH   1  24
HETATM   24  C6  UNL     1      -2.090  49.943 -25.117  1.00  0.00    -0.007 C 
HETATM   25  C7  UNL     1      -3.021  48.889 -25.750  1.00  0.00     0.011 C 
BRANCH  24  26
HETATM   26  C5  UNL     1      -2.028  51.164 -26.057  1.00  0.00     0.087 C 
BRANCH  26  27
HETATM   27  C4  UNL     1      -1.070  52.246 -25.578  1.00  0.00     0.150 C 
HETATM   28  O1  UNL     1      -1.446  53.343 -25.176  1.00  0.00    -0.293 OA
BRANCH  27  29
HETATM   29  C3  UNL     1       0.381  51.916 -25.678  1.00  0.00     0.063 C 
HETATM   30  C2  UNL     1       1.082  51.875 -26.826  1.00  0.00     0.015 C 
HETATM   31  C1  UNL     1       0.585  52.214 -28.198  1.00  0.00     0.055 C 
BRANCH  30  32
HETATM   32  C30 UNL     1       2.500  51.473 -26.674  1.00  0.00     0.171 C 
HETATM   33  O3  UNL     1       2.936  50.643 -25.896  1.00  0.00    -0.646 OA
BRANCH  32  34
HETATM   34  O4  UNL     1       3.313  52.126 -27.519  1.00  0.00    -0.773 OA
HETATM   35  H44 UNL     1       4.200  51.757 -27.329  1.00  0.00     0.167 HD
ENDBRANCH  32  34
ENDBRANCH  30  32
ENDBRANCH  27  29
ENDBRANCH  26  27
ENDBRANCH  24  26
ENDBRANCH   1  24
TORSDOF 6
ENDMDL
MODEL 6
REMARK minimizedAffinity -9.23502254
REMARK  6 active torsions:
REMARK  status: ('A' for Active; 'I' for Inactive)
REMARK    1  A    between atoms: C2_2  and  C30_32 
REMARK    2  A    between atoms: C3_3  and  C4_4 
REMARK    3  A    between atoms: C4_4  and  C5_6 
REMARK    4  A    between atoms: C5_6  and  C6_7 
REMARK    5  A    between atoms: C6_7  and  C8_9 
REMARK    6  A    between atoms: C30_32  and  O4_34 
ROOT
HETATM    1  C8  UNL     1      -2.938  50.436 -22.873  1.00  0.00    -0.001 C 
HETATM    2  C9  UNL     1      -3.679  51.597 -22.188  1.00  0.00     0.007 C 
HETATM    3  C10 UNL     1      -3.904  51.182 -20.721  1.00  0.00     0.015 C 
HETATM    4  C11 UNL     1      -3.379  49.726 -20.578  1.00  0.00    -0.013 C 
HETATM    5  C12 UNL     1      -4.592  48.799 -20.897  1.00  0.00     0.021 C 
HETATM    6  C13 UNL     1      -2.769  49.415 -19.188  1.00  0.00    -0.070 C 
HETATM    7  C14 UNL     1      -3.167  48.396 -18.407  1.00  0.00    -0.022 C 
HETATM    8  C15 UNL     1      -2.503  47.962 -17.142  1.00  0.00     0.034 C 
HETATM    9  C16 UNL     1      -1.121  48.600 -16.813  1.00  0.00     0.013 C 
HETATM   10  C17 UNL     1      -0.784  48.350 -15.292  1.00  0.00     0.018 C 
HETATM   11  C18 UNL     1       0.692  48.611 -14.935  1.00  0.00     0.023 C 
HETATM   12  C19 UNL     1      -1.055  46.874 -14.903  1.00  0.00     0.023 C 
HETATM   13  C20 UNL     1      -1.668  49.270 -14.435  1.00  0.00     0.135 C 
HETATM   14  O2  UNL     1      -2.176  48.886 -13.379  1.00  0.00    -0.297 OA
HETATM   15  C21 UNL     1      -1.818  50.719 -14.860  1.00  0.00     0.080 C 
HETATM   16  C22 UNL     1      -2.086  50.886 -16.355  1.00  0.00     0.017 C 
HETATM   17  C23 UNL     1      -1.099  50.098 -17.267  1.00  0.00    -0.031 C 
HETATM   18  C24 UNL     1       0.295  50.763 -17.143  1.00  0.00     0.016 C 
HETATM   19  C25 UNL     1      -1.554  50.235 -18.782  1.00  0.00     0.024 C 
HETATM   20  C26 UNL     1      -0.473  49.912 -19.834  1.00  0.00     0.010 C 
HETATM   21  C27 UNL     1      -0.952  50.352 -21.223  1.00  0.00     0.011 C 
HETATM   22  C28 UNL     1      -2.260  49.661 -21.695  1.00  0.00    -0.029 C 
HETATM   23  C29 UNL     1      -1.916  48.217 -22.118  1.00  0.00     0.016 C 
ENDROOT
BRANCH   1  24
HETATM   24  C6  UNL     1      -2.080  50.800 -24.121  1.00  0.00    -0.007 C 
HETATM   25  C7  UNL     1      -2.853  50.398 -25.393  1.00  0.00     0.011 C 
BRANCH  24  26
HETATM   26  C5  UNL     1      -1.664  52.279 -24.251  1.00  0.00     0.087 C 
BRANCH  26  27
HETATM   27  C4  UNL     1      -0.963  52.595 -25.566  1.00  0.00     0.150 C 
HETATM   28  O1  UNL     1      -1.535  53.112 -26.521  1.00  0.00    -0.293 OA
BRANCH  27  29
HETATM   29  C3  UNL     1       0.467  52.184 -25.652  1.00  0.00     0.063 C 
HETATM   30  C2  UNL     1       1.091  51.804 -26.783  1.00  0.00     0.015 C 
HETATM   31  C1  UNL     1       0.515  51.785 -28.166  1.00  0.00     0.055 C 
BRANCH  30  32
HETATM   32  C30 UNL     1       2.503  51.393 -26.606  1.00  0.00     0.171 C 
HETATM   33  O3  UNL     1       2.918  50.553 -25.827  1.00  0.00    -0.646 OA
BRANCH  32  34
HETATM   34  O4  UNL     1       3.336  52.049 -27.428  1.00  0.00    -0.773 OA
HETATM   35  H44 UNL     1       4.218  51.673 -27.224  1.00  0.00     0.167 HD
ENDBRANCH  32  34
ENDBRANCH  30  32
ENDBRANCH  27  29
ENDBRANCH  26  27
ENDBRANCH  24  26
ENDBRANCH   1  24
TORSDOF 6
ENDMDL
MODEL 7
REMARK minimizedAffinity -9.17188835
REMARK  6 active torsions:
REMARK  status: ('A' for Active; 'I' for Inactive)
REMARK    1  A    between atoms: C2_2  and  C30_32 
REMARK    2  A    between atoms: C3_3  and  C4_4 
REMARK    3  A    between atoms: C4_4  and  C5_6 
REMARK    4  A    between atoms: C5_6  and  C6_7 
REMARK    5  A    between atoms: C6_7  and  C8_9 
REMARK    6  A    between atoms: C30_32  and  O4_34 
ROOT
HETATM    1  C8  UNL     1      -2.188  51.066 -21.270  1.00  0.00    -0.001 C 
HETATM    2  C9  UNL     1      -3.320  51.609 -20.381  1.00  0.00     0.007 C 
HETATM    3  C10 UNL     1      -3.138  50.975 -18.988  1.00  0.00     0.015 C 
HETATM    4  C11 UNL     1      -1.951  49.978 -19.096  1.00  0.00    -0.013 C 
HETATM    5  C12 UNL     1      -2.576  48.608 -19.502  1.00  0.00     0.021 C 
HETATM    6  C13 UNL     1      -1.110  49.863 -17.800  1.00  0.00    -0.070 C 
HETATM    7  C14 UNL     1      -0.859  48.702 -17.171  1.00  0.00    -0.022 C 
HETATM    8  C15 UNL     1       0.074  48.524 -16.019  1.00  0.00     0.034 C 
HETATM    9  C16 UNL     1       0.989  49.731 -15.656  1.00  0.00     0.013 C 
HETATM   10  C17 UNL     1       1.580  49.516 -14.209  1.00  0.00     0.018 C 
HETATM   11  C18 UNL     1       2.765  50.444 -13.880  1.00  0.00     0.023 C 
HETATM   12  C19 UNL     1       2.120  48.072 -14.043  1.00  0.00     0.023 C 
HETATM   13  C20 UNL     1       0.463  49.761 -13.181  1.00  0.00     0.135 C 
HETATM   14  O2  UNL     1       0.337  49.057 -12.176  1.00  0.00    -0.297 OA
HETATM   15  C21 UNL     1      -0.430  50.973 -13.368  1.00  0.00     0.080 C 
HETATM   16  C22 UNL     1      -0.918  51.149 -14.805  1.00  0.00     0.017 C 
HETATM   17  C23 UNL     1       0.217  51.075 -15.871  1.00  0.00    -0.031 C 
HETATM   18  C24 UNL     1       1.104  52.334 -15.707  1.00  0.00     0.016 C 
HETATM   19  C25 UNL     1      -0.420  51.133 -17.326  1.00  0.00     0.024 C 
HETATM   20  C26 UNL     1       0.549  51.520 -18.462  1.00  0.00     0.010 C 
HETATM   21  C27 UNL     1      -0.242  51.811 -19.743  1.00  0.00     0.011 C 
HETATM   22  C28 UNL     1      -1.084  50.613 -20.259  1.00  0.00    -0.029 C 
HETATM   23  C29 UNL     1      -0.125  49.598 -20.916  1.00  0.00     0.016 C 
ENDROOT
BRANCH   1  24
HETATM   24  C6  UNL     1      -1.772  51.951 -22.483  1.00  0.00    -0.007 C 
HETATM   25  C7  UNL     1      -0.518  52.763 -22.102  1.00  0.00     0.011 C 
BRANCH  24  26
HETATM   26  C5  UNL     1      -1.486  51.204 -23.802  1.00  0.00     0.087 C 
BRANCH  26  27
HETATM   27  C4  UNL     1      -0.891  52.097 -24.883  1.00  0.00     0.150 C 
HETATM   28  O1  UNL     1      -1.538  52.957 -25.472  1.00  0.00    -0.293 OA
BRANCH  27  29
HETATM   29  C3  UNL     1       0.534  51.827 -25.232  1.00  0.00     0.063 C 
HETATM   30  C2  UNL     1       1.002  51.679 -26.485  1.00  0.00     0.015 C 
HETATM   31  C1  UNL     1       0.228  51.822 -27.760  1.00  0.00     0.055 C 
BRANCH  30  32
HETATM   32  C30 UNL     1       2.448  51.368 -26.575  1.00  0.00     0.171 C 
HETATM   33  O3  UNL     1       3.052  50.541 -25.913  1.00  0.00    -0.646 OA
BRANCH  32  34
HETATM   34  O4  UNL     1       3.076  52.103 -27.506  1.00  0.00    -0.773 OA
HETATM   35  H44 UNL     1       4.002  51.787 -27.474  1.00  0.00     0.167 HD
ENDBRANCH  32  34
ENDBRANCH  30  32
ENDBRANCH  27  29
ENDBRANCH  26  27
ENDBRANCH  24  26
ENDBRANCH   1  24
TORSDOF 6
ENDMDL
MODEL 8
REMARK minimizedAffinity -9.16278934
REMARK  6 active torsions:
REMARK  status: ('A' for Active; 'I' for Inactive)
REMARK    1  A    between atoms: C2_2  and  C30_32 
REMARK    2  A    between atoms: C3_3  and  C4_4 
REMARK    3  A    between atoms: C4_4  and  C5_6 
REMARK    4  A    between atoms: C5_6  and  C6_7 
REMARK    5  A    between atoms: C6_7  and  C8_9 
REMARK    6  A    between atoms: C30_32  and  O4_34 
ROOT
HETATM    1  C8  UNL     1      -3.551  51.046 -24.433  1.00  0.00    -0.001 C 
HETATM    2  C9  UNL     1      -4.125  51.864 -23.262  1.00  0.00     0.007 C 
HETATM    3  C10 UNL     1      -4.996  50.904 -22.429  1.00  0.00     0.015 C 
HETATM    4  C11 UNL     1      -5.009  49.541 -23.178  1.00  0.00    -0.013 C 
HETATM    5  C12 UNL     1      -6.225  49.599 -24.154  1.00  0.00     0.021 C 
HETATM    6  C13 UNL     1      -5.086  48.312 -22.238  1.00  0.00    -0.070 C 
HETATM    7  C14 UNL     1      -6.025  47.355 -22.333  1.00  0.00    -0.022 C 
HETATM    8  C15 UNL     1      -6.043  46.078 -21.560  1.00  0.00     0.034 C 
HETATM    9  C16 UNL     1      -4.766  45.730 -20.739  1.00  0.00     0.013 C 
HETATM   10  C17 UNL     1      -5.114  44.601 -19.693  1.00  0.00     0.018 C 
HETATM   11  C18 UNL     1      -3.875  43.923 -19.078  1.00  0.00     0.023 C 
HETATM   12  C19 UNL     1      -5.927  43.461 -20.361  1.00  0.00     0.023 C 
HETATM   13  C20 UNL     1      -5.950  45.221 -18.560  1.00  0.00     0.135 C 
HETATM   14  O2  UNL     1      -6.906  44.628 -18.056  1.00  0.00    -0.297 OA
HETATM   15  C21 UNL     1      -5.502  46.552 -17.988  1.00  0.00     0.080 C 
HETATM   16  C22 UNL     1      -5.126  47.576 -19.058  1.00  0.00     0.017 C 
HETATM   17  C23 UNL     1      -4.142  47.032 -20.136  1.00  0.00    -0.031 C 
HETATM   18  C24 UNL     1      -2.770  46.805 -19.454  1.00  0.00     0.016 C 
HETATM   19  C25 UNL     1      -3.932  48.131 -21.264  1.00  0.00     0.024 C 
HETATM   20  C26 UNL     1      -2.678  47.951 -22.144  1.00  0.00     0.010 C 
HETATM   21  C27 UNL     1      -2.449  49.212 -22.986  1.00  0.00     0.011 C 
HETATM   22  C28 UNL     1      -3.622  49.563 -23.941  1.00  0.00    -0.029 C 
HETATM   23  C29 UNL     1      -3.578  48.589 -25.136  1.00  0.00     0.016 C 
ENDROOT
BRANCH   1  24
HETATM   24  C6  UNL     1      -2.220  51.564 -25.055  1.00  0.00    -0.007 C 
HETATM   25  C7  UNL     1      -2.527  52.221 -26.416  1.00  0.00     0.011 C 
BRANCH  24  26
HETATM   26  C5  UNL     1      -1.417  52.567 -24.202  1.00  0.00     0.087 C 
BRANCH  26  27
HETATM   27  C4  UNL     1      -0.333  53.294 -24.986  1.00  0.00     0.150 C 
HETATM   28  O1  UNL     1      -0.460  54.443 -25.397  1.00  0.00    -0.293 OA
BRANCH  27  29
HETATM   29  C3  UNL     1       0.893  52.499 -25.283  1.00  0.00     0.063 C 
HETATM   30  C2  UNL     1       1.296  52.138 -26.516  1.00  0.00     0.015 C 
HETATM   31  C1  UNL     1       0.655  52.511 -27.818  1.00  0.00     0.055 C 
BRANCH  30  32
HETATM   32  C30 UNL     1       2.521  51.307 -26.552  1.00  0.00     0.171 C 
HETATM   33  O3  UNL     1       2.815  50.419 -25.770  1.00  0.00    -0.646 OA
BRANCH  32  34
HETATM   34  O4  UNL     1       3.326  51.620 -27.579  1.00  0.00    -0.773 OA
HETATM   35  H44 UNL     1       4.074  50.993 -27.496  1.00  0.00     0.167 HD
ENDBRANCH  32  34
ENDBRANCH  30  32
ENDBRANCH  27  29
ENDBRANCH  26  27
ENDBRANCH  24  26
ENDBRANCH   1  24
TORSDOF 6
ENDMDL
MODEL 9
REMARK minimizedAffinity -9.00788784
REMARK  6 active torsions:
REMARK  status: ('A' for Active; 'I' for Inactive)
REMARK    1  A    between atoms: C2_2  and  C30_32 
REMARK    2  A    between atoms: C3_3  and  C4_4 
REMARK    3  A    between atoms: C4_4  and  C5_6 
REMARK    4  A    between atoms: C5_6  and  C6_7 
REMARK    5  A    between atoms: C6_7  and  C8_9 
REMARK    6  A    between atoms: C30_32  and  O4_34 
ROOT
HETATM    1  C8  UNL     1      -0.495  51.053 -20.384  1.00  0.00    -0.001 C 
HETATM    2  C9  UNL     1      -0.197  49.733 -21.116  1.00  0.00     0.007 C 
HETATM    3  C10 UNL     1      -1.188  48.685 -20.572  1.00  0.00     0.015 C 
HETATM    4  C11 UNL     1      -2.001  49.376 -19.441  1.00  0.00    -0.013 C 
HETATM    5  C12 UNL     1      -1.204  49.126 -18.124  1.00  0.00     0.021 C 
HETATM    6  C13 UNL     1      -3.464  48.880 -19.330  1.00  0.00    -0.070 C 
HETATM    7  C14 UNL     1      -4.006  48.398 -18.198  1.00  0.00    -0.022 C 
HETATM    8  C15 UNL     1      -5.448  48.063 -18.002  1.00  0.00     0.034 C 
HETATM    9  C16 UNL     1      -6.436  48.505 -19.122  1.00  0.00     0.013 C 
HETATM   10  C17 UNL     1      -7.796  47.724 -18.950  1.00  0.00     0.018 C 
HETATM   11  C18 UNL     1      -8.962  48.324 -19.761  1.00  0.00     0.023 C 
HETATM   12  C19 UNL     1      -8.260  47.743 -17.471  1.00  0.00     0.023 C 
HETATM   13  C20 UNL     1      -7.586  46.267 -19.396  1.00  0.00     0.135 C 
HETATM   14  O2  UNL     1      -8.091  45.320 -18.787  1.00  0.00    -0.297 OA
HETATM   15  C21 UNL     1      -6.825  46.015 -20.683  1.00  0.00     0.080 C 
HETATM   16  C22 UNL     1      -5.549  46.848 -20.805  1.00  0.00     0.017 C 
HETATM   17  C23 UNL     1      -5.757  48.366 -20.524  1.00  0.00    -0.031 C 
HETATM   18  C24 UNL     1      -6.601  48.952 -21.684  1.00  0.00     0.016 C 
HETATM   19  C25 UNL     1      -4.350  49.105 -20.545  1.00  0.00     0.024 C 
HETATM   20  C26 UNL     1      -4.404  50.635 -20.734  1.00  0.00     0.010 C 
HETATM   21  C27 UNL     1      -2.996  51.173 -21.017  1.00  0.00     0.011 C 
HETATM   22  C28 UNL     1      -1.969  50.896 -19.886  1.00  0.00    -0.029 C 
HETATM   23  C29 UNL     1      -2.259  51.868 -18.723  1.00  0.00     0.016 C 
ENDROOT
BRANCH   1  24
HETATM   24  C6  UNL     1      -0.091  52.363 -21.123  1.00  0.00    -0.007 C 
HETATM   25  C7  UNL     1       0.660  53.282 -20.139  1.00  0.00     0.011 C 
BRANCH  24  26
HETATM   26  C5  UNL     1       0.778  52.190 -22.386  1.00  0.00     0.087 C 
BRANCH  26  27
HETATM   27  C4  UNL     1       0.024  52.470 -23.680  1.00  0.00     0.150 C 
HETATM   28  O1  UNL     1      -1.192  52.634 -23.724  1.00  0.00    -0.293 OA
BRANCH  27  29
HETATM   29  C3  UNL     1       0.850  52.478 -24.921  1.00  0.00     0.063 C 
HETATM   30  C2  UNL     1       0.640  51.687 -25.989  1.00  0.00     0.015 C 
HETATM   31  C1  UNL     1      -0.480  50.711 -26.181  1.00  0.00     0.055 C 
BRANCH  30  32
HETATM   32  C30 UNL     1       1.626  51.845 -27.083  1.00  0.00     0.171 C 
HETATM   33  O3  UNL     1       1.406  51.725 -28.276  1.00  0.00    -0.646 OA
BRANCH  32  34
HETATM   34  O4  UNL     1       2.849  52.161 -26.632  1.00  0.00    -0.773 OA
HETATM   35  H44 UNL     1       3.387  52.254 -27.446  1.00  0.00     0.167 HD
ENDBRANCH  32  34
ENDBRANCH  30  32
ENDBRANCH  27  29
ENDBRANCH  26  27
ENDBRANCH  24  26
ENDBRANCH   1  24
TORSDOF 6
ENDMDL
