MODEL 1
REMARK minimizedAffinity -7.56499767
REMARK CNNscore 0.598504663
REMARK CNNaffinity 6.3368144
REMARK  6 active torsions:
REMARK  status: ('A' for Active; 'I' for Inactive)
REMARK    1  A    between atoms: C15_17  and  C16_18 
REMARK    2  A    between atoms: C22_26  and  O5_27 
REMARK    3  A    between atoms: C23_28  and  C24_29 
REMARK    4  A    between atoms: C27_34  and  O8_35 
REMARK    5  A    between atoms: C28_36  and  O9_37 
REMARK    6  A    between atoms: C29_38  and  O10_39 
ROOT
HETATM    1  C1  UNL     1      -7.113 -11.514  23.512  1.00  0.00     0.042 C 
HETATM    2  C2  UNL     1      -7.806 -12.814  23.914  1.00  0.00     0.152 C 
HETATM    3  O1  UNL     1      -8.732 -12.484  24.967  1.00  0.00    -0.348 OA
HETATM    4  C3  UNL     1      -9.814 -13.409  25.030  1.00  0.00     0.325 C 
HETATM    5  O2  UNL     1     -10.541 -13.281  26.263  1.00  0.00    -0.347 OA
HETATM    6  C4  UNL     1     -11.215 -12.023  26.323  1.00  0.00     0.158 C 
HETATM    7  C5  UNL     1     -11.931 -11.906  27.666  1.00  0.00     0.069 C 
HETATM    8  C6  UNL     1     -12.722 -10.620  27.743  1.00  0.00    -0.065 C 
HETATM    9  C7  UNL     1     -12.528  -9.763  28.762  1.00  0.00    -0.022 C 
HETATM   10  C8  UNL     1     -13.284  -8.479  28.942  1.00  0.00     0.035 C 
HETATM   11  C9  UNL     1     -14.564  -8.424  28.086  1.00  0.00     0.030 C 
HETATM   12  C10 UNL     1     -14.237  -8.869  26.639  1.00  0.00     0.012 C 
HETATM   13  C11 UNL     1     -15.383  -8.573  25.652  1.00  0.00     0.007 C 
HETATM   14  C12 UNL     1     -16.697  -8.196  26.335  1.00  0.00     0.013 C 
HETATM   15  C13 UNL     1     -16.597  -6.985  27.295  1.00  0.00    -0.005 C 
HETATM   16  C14 UNL     1     -17.879  -6.986  28.162  1.00  0.00     0.019 C 
HETATM   17  C15 UNL     1     -16.443  -5.636  26.491  1.00  0.00     0.028 C 
HETATM   18  C20 UNL     1     -15.464  -4.813  27.328  1.00  0.00     0.013 C 
HETATM   19  C21 UNL     1     -14.436  -5.859  27.736  1.00  0.00     0.040 C 
HETATM   20  C22 UNL     1     -15.289  -7.061  28.174  1.00  0.00     0.070 C 
HETATM   21  C23 UNL     1     -13.708 -10.349  26.600  1.00  0.00     0.043 C 
HETATM   22  C25 UNL     1     -13.004 -10.610  25.240  1.00  0.00     0.056 C 
HETATM   23  C26 UNL     1     -12.239 -11.941  25.185  1.00  0.00     0.156 C 
HETATM   24  O7  UNL     1     -11.589 -12.036  23.912  1.00  0.00    -0.341 OA
HETATM   25  C27 UNL     1     -10.762 -13.215  23.796  1.00  0.00     0.242 C 
HETATM   26  C28 UNL     1      -9.908 -13.006  22.507  1.00  0.00     0.216 C 
HETATM   27  C29 UNL     1      -8.471 -13.493  22.688  1.00  0.00     0.181 C 
ENDROOT
BRANCH  17  28
HETATM   28  C16 UNL     1     -17.696  -4.920  26.083  1.00  0.00    -0.045 A 
HETATM   29  C17 UNL     1     -18.086  -3.717  26.501  1.00  0.00     0.087 A 
HETATM   30  C18 UNL     1     -19.334  -3.396  25.810  1.00  0.00     0.283 A 
HETATM   31  O3  UNL     1     -19.927  -2.341  25.914  1.00  0.00    -0.260 OA
HETATM   32  O4  UNL     1     -19.695  -4.453  25.038  1.00  0.00    -0.314 OA
HETATM   33  C19 UNL     1     -18.694  -5.472  25.137  1.00  0.00     0.213 A 
ENDBRANCH  17  28
BRANCH  20  34
HETATM   34  O5  UNL     1     -15.597  -6.814  29.554  1.00  0.00    -0.389 OA
HETATM   35  H29 UNL     1     -16.016  -7.613  29.924  1.00  0.00     0.210 HD
ENDBRANCH  20  34
BRANCH  21  36
HETATM   36  C24 UNL     1     -14.894 -11.325  26.738  1.00  0.00     0.245 C 
HETATM   37  O6  UNL     1     -15.387 -11.698  27.799  1.00  0.00    -0.306 OA
ENDBRANCH  21  36
BRANCH  25  38
HETATM   38  O8  UNL     1     -11.627 -14.345  23.605  1.00  0.00    -0.359 OA
HETATM   39  H34 UNL     1     -11.762 -14.744  24.480  1.00  0.00     0.213 HD
ENDBRANCH  25  38
BRANCH  26  40
HETATM   40  O9  UNL     1     -10.494 -13.675  21.369  1.00  0.00    -0.387 OA
HETATM   41  H36 UNL     1     -11.271 -14.157  21.737  1.00  0.00     0.210 HD
ENDBRANCH  26  40
BRANCH  27  42
HETATM   42  O10 UNL     1      -8.487 -14.910  22.908  1.00  0.00    -0.390 OA
HETATM   43  H38 UNL     1      -8.585 -15.330  22.025  1.00  0.00     0.210 HD
ENDBRANCH  27  42
TORSDOF 6
ENDMDL
MODEL 2
REMARK minimizedAffinity -6.77468586
REMARK CNNscore 0.565603793
REMARK CNNaffinity 5.69248772
REMARK  6 active torsions:
REMARK  status: ('A' for Active; 'I' for Inactive)
REMARK    1  A    between atoms: C15_17  and  C16_18 
REMARK    2  A    between atoms: C22_26  and  O5_27 
REMARK    3  A    between atoms: C23_28  and  C24_29 
REMARK    4  A    between atoms: C27_34  and  O8_35 
REMARK    5  A    between atoms: C28_36  and  O9_37 
REMARK    6  A    between atoms: C29_38  and  O10_39 
ROOT
HETATM    1  C1  UNL     1     -12.074   2.461  23.828  1.00  0.00     0.042 C 
HETATM    2  C2  UNL     1     -12.936   3.429  24.636  1.00  0.00     0.152 C 
HETATM    3  O1  UNL     1     -12.868   4.703  23.968  1.00  0.00    -0.348 OA
HETATM    4  C3  UNL     1     -14.018   5.502  24.233  1.00  0.00     0.325 C 
HETATM    5  O2  UNL     1     -13.804   6.871  23.852  1.00  0.00    -0.347 OA
HETATM    6  C4  UNL     1     -13.677   6.985  22.433  1.00  0.00     0.158 C 
HETATM    7  C5  UNL     1     -13.401   8.444  22.075  1.00  0.00     0.069 C 
HETATM    8  C6  UNL     1     -13.334   8.625  20.576  1.00  0.00    -0.065 C 
HETATM    9  C7  UNL     1     -12.255   9.193  20.007  1.00  0.00    -0.022 C 
HETATM   10  C8  UNL     1     -12.109   9.443  18.534  1.00  0.00     0.035 C 
HETATM   11  C9  UNL     1     -13.453   9.359  17.787  1.00  0.00     0.030 C 
HETATM   12  C10 UNL     1     -14.210   8.082  18.227  1.00  0.00     0.012 C 
HETATM   13  C11 UNL     1     -15.421   7.767  17.327  1.00  0.00     0.007 C 
HETATM   14  C12 UNL     1     -15.808   8.918  16.398  1.00  0.00     0.013 C 
HETATM   15  C13 UNL     1     -14.667   9.406  15.472  1.00  0.00    -0.005 C 
HETATM   16  C14 UNL     1     -15.102  10.776  14.899  1.00  0.00     0.019 C 
HETATM   17  C15 UNL     1     -14.383   8.361  14.324  1.00  0.00     0.028 C 
HETATM   18  C20 UNL     1     -12.863   8.390  14.161  1.00  0.00     0.013 C 
HETATM   19  C21 UNL     1     -12.389   8.443  15.608  1.00  0.00     0.040 C 
HETATM   20  C22 UNL     1     -13.300   9.500  16.254  1.00  0.00     0.070 C 
HETATM   21  C23 UNL     1     -14.529   8.106  19.766  1.00  0.00     0.043 C 
HETATM   22  C25 UNL     1     -14.888   6.671  20.241  1.00  0.00     0.056 C 
HETATM   23  C26 UNL     1     -14.982   6.531  21.768  1.00  0.00     0.156 C 
HETATM   24  O7  UNL     1     -15.257   5.160  22.079  1.00  0.00    -0.341 OA
HETATM   25  C27 UNL     1     -15.270   4.904  23.502  1.00  0.00     0.242 C 
HETATM   26  C28 UNL     1     -15.272   3.351  23.651  1.00  0.00     0.216 C 
HETATM   27  C29 UNL     1     -14.379   2.886  24.801  1.00  0.00     0.181 C 
ENDROOT
BRANCH  17  28
HETATM   28  C16 UNL     1     -15.165   8.494  13.051  1.00  0.00    -0.045 A 
HETATM   29  C17 UNL     1     -15.827   9.576  12.644  1.00  0.00     0.087 A 
HETATM   30  C18 UNL     1     -16.397   9.273  11.332  1.00  0.00     0.283 A 
HETATM   31  O3  UNL     1     -17.010  10.068  10.648  1.00  0.00    -0.260 OA
HETATM   32  O4  UNL     1     -16.112   7.985  11.015  1.00  0.00    -0.314 OA
HETATM   33  C19 UNL     1     -15.311   7.410  12.052  1.00  0.00     0.213 A 
ENDBRANCH  17  28
BRANCH  20  34
HETATM   34  O5  UNL     1     -12.655  10.755  15.990  1.00  0.00    -0.389 OA
HETATM   35  H29 UNL     1     -13.113  11.449  16.498  1.00  0.00     0.210 HD
ENDBRANCH  20  34
BRANCH  21  36
HETATM   36  C24 UNL     1     -15.735   9.030  20.029  1.00  0.00     0.245 C 
HETATM   37  O6  UNL     1     -15.777   9.919  20.877  1.00  0.00    -0.306 OA
ENDBRANCH  21  36
BRANCH  25  38
HETATM   38  O8  UNL     1     -16.498   5.426  24.033  1.00  0.00    -0.359 OA
HETATM   39  H34 UNL     1     -16.299   6.313  24.376  1.00  0.00     0.213 HD
ENDBRANCH  25  38
BRANCH  26  40
HETATM   40  O9  UNL     1     -16.608   2.840  23.853  1.00  0.00    -0.387 OA
HETATM   41  H36 UNL     1     -17.175   3.644  23.910  1.00  0.00     0.210 HD
ENDBRANCH  26  40
BRANCH  27  42
HETATM   42  O10 UNL     1     -14.915   3.388  26.033  1.00  0.00    -0.390 OA
HETATM   43  H38 UNL     1     -15.653   2.790  26.283  1.00  0.00     0.210 HD
ENDBRANCH  27  42
TORSDOF 6
ENDMDL
MODEL 3
REMARK minimizedAffinity -9.35259628
REMARK CNNscore 0.551773965
REMARK CNNaffinity 6.90804863
REMARK  6 active torsions:
REMARK  status: ('A' for Active; 'I' for Inactive)
REMARK    1  A    between atoms: C15_17  and  C16_18 
REMARK    2  A    between atoms: C22_26  and  O5_27 
REMARK    3  A    between atoms: C23_28  and  C24_29 
REMARK    4  A    between atoms: C27_34  and  O8_35 
REMARK    5  A    between atoms: C28_36  and  O9_37 
REMARK    6  A    between atoms: C29_38  and  O10_39 
ROOT
HETATM    1  C1  UNL     1     -17.237   5.009  17.687  1.00  0.00     0.042 C 
HETATM    2  C2  UNL     1     -17.616   5.935  16.533  1.00  0.00     0.152 C 
HETATM    3  O1  UNL     1     -16.480   6.787  16.293  1.00  0.00    -0.348 OA
HETATM    4  C3  UNL     1     -16.448   7.262  14.950  1.00  0.00     0.325 C 
HETATM    5  O2  UNL     1     -15.527   8.355  14.802  1.00  0.00    -0.347 OA
HETATM    6  C4  UNL     1     -14.183   7.911  14.997  1.00  0.00     0.158 C 
HETATM    7  C5  UNL     1     -13.243   9.109  14.883  1.00  0.00     0.069 C 
HETATM    8  C6  UNL     1     -11.801   8.674  15.008  1.00  0.00    -0.065 C 
HETATM    9  C7  UNL     1     -10.997   9.239  15.925  1.00  0.00    -0.022 C 
HETATM   10  C8  UNL     1      -9.546   8.897  16.104  1.00  0.00     0.035 C 
HETATM   11  C9  UNL     1      -8.967   8.137  14.896  1.00  0.00     0.030 C 
HETATM   12  C10 UNL     1      -9.930   6.994  14.493  1.00  0.00     0.012 C 
HETATM   13  C11 UNL     1      -9.301   6.011  13.488  1.00  0.00     0.007 C 
HETATM   14  C12 UNL     1      -8.001   6.520  12.866  1.00  0.00     0.013 C 
HETATM   15  C13 UNL     1      -6.901   6.890  13.892  1.00  0.00    -0.005 C 
HETATM   16  C14 UNL     1      -5.836   7.721  13.137  1.00  0.00     0.019 C 
HETATM   17  C15 UNL     1      -6.273   5.595  14.539  1.00  0.00     0.028 C 
HETATM   18  C20 UNL     1      -6.038   5.984  15.999  1.00  0.00     0.013 C 
HETATM   19  C21 UNL     1      -7.309   6.755  16.331  1.00  0.00     0.040 C 
HETATM   20  C22 UNL     1      -7.506   7.678  15.117  1.00  0.00     0.070 C 
HETATM   21  C23 UNL     1     -11.336   7.553  14.067  1.00  0.00     0.043 C 
HETATM   22  C25 UNL     1     -12.378   6.401  14.087  1.00  0.00     0.056 C 
HETATM   23  C26 UNL     1     -13.830   6.876  13.923  1.00  0.00     0.156 C 
HETATM   24  O7  UNL     1     -14.691   5.735  14.018  1.00  0.00    -0.341 OA
HETATM   25  C27 UNL     1     -16.092   6.090  13.971  1.00  0.00     0.242 C 
HETATM   26  C28 UNL     1     -16.867   4.803  14.390  1.00  0.00     0.216 C 
HETATM   27  C29 UNL     1     -18.061   5.122  15.289  1.00  0.00     0.181 C 
ENDROOT
BRANCH  17  28
HETATM   28  C16 UNL     1      -5.098   4.969  13.847  1.00  0.00    -0.045 A 
HETATM   29  C17 UNL     1      -5.151   4.060  12.875  1.00  0.00     0.087 A 
HETATM   30  C18 UNL     1      -3.776   3.773  12.468  1.00  0.00     0.283 A 
HETATM   31  O3  UNL     1      -3.469   3.032  11.555  1.00  0.00    -0.260 OA
HETATM   32  O4  UNL     1      -2.927   4.476  13.259  1.00  0.00    -0.314 OA
HETATM   33  C19 UNL     1      -3.686   5.284  14.165  1.00  0.00     0.213 A 
ENDBRANCH  17  28
BRANCH  20  34
HETATM   34  O5  UNL     1      -6.717   8.842  15.405  1.00  0.00    -0.389 OA
HETATM   35  H29 UNL     1      -6.917   9.522  14.736  1.00  0.00     0.210 HD
ENDBRANCH  20  34
BRANCH  21  36
HETATM   36  C24 UNL     1     -11.255   8.121  12.636  1.00  0.00     0.245 C 
HETATM   37  O6  UNL     1     -12.066   8.892  12.131  1.00  0.00    -0.306 OA
ENDBRANCH  21  36
BRANCH  25  38
HETATM   38  O8  UNL     1     -16.420   6.412  12.611  1.00  0.00    -0.359 OA
HETATM   39  H34 UNL     1     -16.357   7.377  12.529  1.00  0.00     0.213 HD
ENDBRANCH  25  38
BRANCH  26  40
HETATM   40  O9  UNL     1     -17.327   4.063  13.238  1.00  0.00    -0.387 OA
HETATM   41  H36 UNL     1     -17.076   4.623  12.466  1.00  0.00     0.210 HD
ENDBRANCH  26  40
BRANCH  27  42
HETATM   42  O10 UNL     1     -19.002   5.908  14.546  1.00  0.00    -0.390 OA
HETATM   43  H38 UNL     1     -19.511   5.282  13.986  1.00  0.00     0.210 HD
ENDBRANCH  27  42
TORSDOF 6
ENDMDL
MODEL 4
REMARK minimizedAffinity -7.8967576
REMARK CNNscore 0.550746143
REMARK CNNaffinity 6.37826395
REMARK  6 active torsions:
REMARK  status: ('A' for Active; 'I' for Inactive)
REMARK    1  A    between atoms: C15_17  and  C16_18 
REMARK    2  A    between atoms: C22_26  and  O5_27 
REMARK    3  A    between atoms: C23_28  and  C24_29 
REMARK    4  A    between atoms: C27_34  and  O8_35 
REMARK    5  A    between atoms: C28_36  and  O9_37 
REMARK    6  A    between atoms: C29_38  and  O10_39 
ROOT
HETATM    1  C1  UNL     1      -3.981  17.184  14.849  1.00  0.00     0.042 C 
HETATM    2  C2  UNL     1      -2.473  17.092  15.076  1.00  0.00     0.152 C 
HETATM    3  O1  UNL     1      -2.216  15.795  15.649  1.00  0.00    -0.348 OA
HETATM    4  C3  UNL     1      -0.891  15.349  15.377  1.00  0.00     0.325 C 
HETATM    5  O2  UNL     1      -0.531  14.235  16.212  1.00  0.00    -0.347 OA
HETATM    6  C4  UNL     1      -1.312  13.085  15.881  1.00  0.00     0.158 C 
HETATM    7  C5  UNL     1      -0.936  11.943  16.822  1.00  0.00     0.069 C 
HETATM    8  C6  UNL     1      -1.684  10.680  16.459  1.00  0.00    -0.065 C 
HETATM    9  C7  UNL     1      -2.419  10.036  17.383  1.00  0.00    -0.022 C 
HETATM   10  C8  UNL     1      -3.171   8.762  17.128  1.00  0.00     0.035 C 
HETATM   11  C9  UNL     1      -2.707   8.053  15.841  1.00  0.00     0.030 C 
HETATM   12  C10 UNL     1      -2.622   9.081  14.686  1.00  0.00     0.012 C 
HETATM   13  C11 UNL     1      -2.448   8.415  13.308  1.00  0.00     0.007 C 
HETATM   14  C12 UNL     1      -2.088   6.931  13.386  1.00  0.00     0.013 C 
HETATM   15  C13 UNL     1      -3.096   6.068  14.185  1.00  0.00    -0.005 C 
HETATM   16  C14 UNL     1      -2.402   4.718  14.481  1.00  0.00     0.019 C 
HETATM   17  C15 UNL     1      -4.435   5.866  13.376  1.00  0.00     0.028 C 
HETATM   18  C20 UNL     1      -5.529   5.930  14.441  1.00  0.00     0.013 C 
HETATM   19  C21 UNL     1      -5.052   7.080  15.318  1.00  0.00     0.040 C 
HETATM   20  C22 UNL     1      -3.551   6.801  15.506  1.00  0.00     0.070 C 
HETATM   21  C23 UNL     1      -1.578  10.212  15.002  1.00  0.00     0.043 C 
HETATM   22  C25 UNL     1      -1.823  11.420  14.055  1.00  0.00     0.056 C 
HETATM   23  C26 UNL     1      -1.021  12.674  14.433  1.00  0.00     0.156 C 
HETATM   24  O7  UNL     1      -1.378  13.726  13.528  1.00  0.00    -0.341 OA
HETATM   25  C27 UNL     1      -0.745  14.983  13.859  1.00  0.00     0.242 C 
HETATM   26  C28 UNL     1      -1.465  16.060  12.989  1.00  0.00     0.216 C 
HETATM   27  C29 UNL     1      -1.694  17.359  13.761  1.00  0.00     0.181 C 
ENDROOT
BRANCH  17  28
HETATM   28  C16 UNL     1      -4.517   4.693  12.444  1.00  0.00    -0.045 A 
HETATM   29  C17 UNL     1      -5.501   3.797  12.392  1.00  0.00     0.087 A 
HETATM   30  C18 UNL     1      -5.190   2.866  11.309  1.00  0.00     0.283 A 
HETATM   31  O3  UNL     1      -5.916   1.961  10.949  1.00  0.00    -0.260 OA
HETATM   32  O4  UNL     1      -3.985   3.194  10.778  1.00  0.00    -0.314 OA
HETATM   33  C19 UNL     1      -3.484   4.365  11.434  1.00  0.00     0.213 A 
ENDBRANCH  17  28
BRANCH  20  34
HETATM   34  O5  UNL     1      -3.478   5.907  16.627  1.00  0.00    -0.389 OA
HETATM   35  H29 UNL     1      -2.543   5.809  16.881  1.00  0.00     0.210 HD
ENDBRANCH  20  34
BRANCH  21  36
HETATM   36  C24 UNL     1      -0.151   9.679  14.764  1.00  0.00     0.245 C 
HETATM   37  O6  UNL     1       0.694   9.498  15.636  1.00  0.00    -0.306 OA
ENDBRANCH  21  36
BRANCH  25  38
HETATM   38  O8  UNL     1       0.632  14.904  13.459  1.00  0.00    -0.359 OA
HETATM   39  H34 UNL     1       1.137  14.646  14.248  1.00  0.00     0.213 HD
ENDBRANCH  25  38
BRANCH  26  40
HETATM   40  O9  UNL     1      -0.722  16.351  11.785  1.00  0.00    -0.387 OA
HETATM   41  H36 UNL     1       0.104  15.820  11.868  1.00  0.00     0.210 HD
ENDBRANCH  26  40
BRANCH  27  42
HETATM   42  O10 UNL     1      -0.421  17.928  14.096  1.00  0.00    -0.390 OA
HETATM   43  H38 UNL     1      -0.100  18.391  13.291  1.00  0.00     0.210 HD
ENDBRANCH  27  42
TORSDOF 6
ENDMDL
MODEL 5
REMARK minimizedAffinity -8.61315536
REMARK CNNscore 0.470982283
REMARK CNNaffinity 6.14581442
REMARK  6 active torsions:
REMARK  status: ('A' for Active; 'I' for Inactive)
REMARK    1  A    between atoms: C15_17  and  C16_18 
REMARK    2  A    between atoms: C22_26  and  O5_27 
REMARK    3  A    between atoms: C23_28  and  C24_29 
REMARK    4  A    between atoms: C27_34  and  O8_35 
REMARK    5  A    between atoms: C28_36  and  O9_37 
REMARK    6  A    between atoms: C29_38  and  O10_39 
ROOT
HETATM    1  C1  UNL     1       4.184  14.729  11.501  1.00  0.00     0.042 C 
HETATM    2  C2  UNL     1       5.024  14.146  12.636  1.00  0.00     0.152 C 
HETATM    3  O1  UNL     1       4.102  13.575  13.585  1.00  0.00    -0.348 OA
HETATM    4  C3  UNL     1       4.703  12.532  14.347  1.00  0.00     0.325 C 
HETATM    5  O2  UNL     1       3.909  12.198  15.497  1.00  0.00    -0.347 OA
HETATM    6  C4  UNL     1       2.671  11.607  15.099  1.00  0.00     0.158 C 
HETATM    7  C5  UNL     1       1.838  11.315  16.345  1.00  0.00     0.069 C 
HETATM    8  C6  UNL     1       0.548  10.618  15.978  1.00  0.00    -0.065 C 
HETATM    9  C7  UNL     1      -0.634  11.123  16.372  1.00  0.00    -0.022 C 
HETATM   10  C8  UNL     1      -1.964  10.488  16.083  1.00  0.00     0.035 C 
HETATM   11  C9  UNL     1      -1.831   9.017  15.645  1.00  0.00     0.030 C 
HETATM   12  C10 UNL     1      -0.728   8.897  14.566  1.00  0.00     0.012 C 
HETATM   13  C11 UNL     1      -0.725   7.523  13.868  1.00  0.00     0.007 C 
HETATM   14  C12 UNL     1      -1.583   6.475  14.577  1.00  0.00     0.013 C 
HETATM   15  C13 UNL     1      -3.063   6.884  14.773  1.00  0.00    -0.005 C 
HETATM   16  C14 UNL     1      -3.669   5.909  15.811  1.00  0.00     0.019 C 
HETATM   17  C15 UNL     1      -3.850   6.836  13.406  1.00  0.00     0.028 C 
HETATM   18  C20 UNL     1      -4.791   8.038  13.475  1.00  0.00     0.013 C 
HETATM   19  C21 UNL     1      -3.894   9.111  14.078  1.00  0.00     0.040 C 
HETATM   20  C22 UNL     1      -3.183   8.388  15.234  1.00  0.00     0.070 C 
HETATM   21  C23 UNL     1       0.670   9.350  15.122  1.00  0.00     0.043 C 
HETATM   22  C25 UNL     1       1.635   9.621  13.936  1.00  0.00     0.056 C 
HETATM   23  C26 UNL     1       2.950  10.299  14.350  1.00  0.00     0.156 C 
HETATM   24  O7  UNL     1       3.721  10.548  13.169  1.00  0.00    -0.341 OA
HETATM   25  C27 UNL     1       4.942  11.273  13.443  1.00  0.00     0.242 C 
HETATM   26  C28 UNL     1       5.488  11.721  12.052  1.00  0.00     0.216 C 
HETATM   27  C29 UNL     1       6.067  13.134  12.094  1.00  0.00     0.181 C 
ENDROOT
BRANCH  17  28
HETATM   28  C16 UNL     1      -4.496   5.539  13.018  1.00  0.00    -0.045 A 
HETATM   29  C17 UNL     1      -5.774   5.211  13.202  1.00  0.00     0.087 A 
HETATM   30  C18 UNL     1      -5.971   3.880  12.629  1.00  0.00     0.283 A 
HETATM   31  O3  UNL     1      -7.042   3.308  12.571  1.00  0.00    -0.260 OA
HETATM   32  O4  UNL     1      -4.781   3.417  12.170  1.00  0.00    -0.314 OA
HETATM   33  C19 UNL     1      -3.779   4.420  12.363  1.00  0.00     0.213 A 
ENDBRANCH  17  28
BRANCH  20  34
HETATM   34  O5  UNL     1      -4.079   8.501  16.349  1.00  0.00    -0.389 OA
HETATM   35  H29 UNL     1      -3.619   8.185  17.147  1.00  0.00     0.210 HD
ENDBRANCH  20  34
BRANCH  21  36
HETATM   36  C24 UNL     1       1.266   8.228  15.997  1.00  0.00     0.245 C 
HETATM   37  O6  UNL     1       2.013   8.397  16.957  1.00  0.00    -0.306 OA
ENDBRANCH  21  36
BRANCH  25  38
HETATM   38  O8  UNL     1       5.874  10.358  14.038  1.00  0.00    -0.359 OA
HETATM   39  H34 UNL     1       5.802  10.471  15.000  1.00  0.00     0.213 HD
ENDBRANCH  25  38
BRANCH  26  40
HETATM   40  O9  UNL     1       6.496  10.811  11.561  1.00  0.00    -0.387 OA
HETATM   41  H36 UNL     1       6.622  10.161  12.291  1.00  0.00     0.210 HD
ENDBRANCH  26  40
BRANCH  27  42
HETATM   42  O10 UNL     1       7.203  13.142  12.970  1.00  0.00    -0.390 OA
HETATM   43  H38 UNL     1       7.957  12.781  12.454  1.00  0.00     0.210 HD
ENDBRANCH  27  42
TORSDOF 6
ENDMDL
MODEL 6
REMARK minimizedAffinity -6.87273788
REMARK CNNscore 0.455406368
REMARK CNNaffinity 5.93118525
REMARK  6 active torsions:
REMARK  status: ('A' for Active; 'I' for Inactive)
REMARK    1  A    between atoms: C15_17  and  C16_18 
REMARK    2  A    between atoms: C22_26  and  O5_27 
REMARK    3  A    between atoms: C23_28  and  C24_29 
REMARK    4  A    between atoms: C27_34  and  O8_35 
REMARK    5  A    between atoms: C28_36  and  O9_37 
REMARK    6  A    between atoms: C29_38  and  O10_39 
ROOT
HETATM    1  C1  UNL     1      -7.692 -15.424  26.677  1.00  0.00     0.042 C 
HETATM    2  C2  UNL     1      -8.678 -15.385  25.512  1.00  0.00     0.152 C 
HETATM    3  O1  UNL     1      -9.953 -14.996  26.058  1.00  0.00    -0.348 OA
HETATM    4  C3  UNL     1     -10.780 -14.369  25.081  1.00  0.00     0.325 C 
HETATM    5  O2  UNL     1     -12.144 -14.287  25.524  1.00  0.00    -0.347 OA
HETATM    6  C4  UNL     1     -12.260 -13.395  26.635  1.00  0.00     0.158 C 
HETATM    7  C5  UNL     1     -13.712 -13.375  27.106  1.00  0.00     0.069 C 
HETATM    8  C6  UNL     1     -13.898 -12.386  28.234  1.00  0.00    -0.065 C 
HETATM    9  C7  UNL     1     -14.440 -12.779  29.400  1.00  0.00    -0.022 C 
HETATM   10  C8  UNL     1     -14.692 -11.867  30.566  1.00  0.00     0.035 C 
HETATM   11  C9  UNL     1     -14.644 -10.379  30.169  1.00  0.00     0.030 C 
HETATM   12  C10 UNL     1     -13.385 -10.114  29.308  1.00  0.00     0.012 C 
HETATM   13  C11 UNL     1     -13.104  -8.611  29.110  1.00  0.00     0.007 C 
HETATM   14  C12 UNL     1     -14.267  -7.711  29.527  1.00  0.00     0.013 C 
HETATM   15  C13 UNL     1     -14.730  -7.900  30.993  1.00  0.00    -0.005 C 
HETATM   16  C14 UNL     1     -16.112  -7.217  31.123  1.00  0.00     0.019 C 
HETATM   17  C15 UNL     1     -13.683  -7.285  32.001  1.00  0.00     0.028 C 
HETATM   18  C20 UNL     1     -13.674  -8.266  33.173  1.00  0.00     0.013 C 
HETATM   19  C21 UNL     1     -13.709  -9.612  32.462  1.00  0.00     0.040 C 
HETATM   20  C22 UNL     1     -14.787  -9.428  31.380  1.00  0.00     0.070 C 
HETATM   21  C23 UNL     1     -13.412 -10.954  27.979  1.00  0.00     0.043 C 
HETATM   22  C25 UNL     1     -11.985 -10.996  27.366  1.00  0.00     0.056 C 
HETATM   23  C26 UNL     1     -11.842 -11.986  26.201  1.00  0.00     0.156 C 
HETATM   24  O7  UNL     1     -10.477 -11.976  25.766  1.00  0.00    -0.341 OA
HETATM   25  C27 UNL     1     -10.216 -12.949  24.729  1.00  0.00     0.242 C 
HETATM   26  C28 UNL     1      -8.663 -13.019  24.597  1.00  0.00     0.216 C 
HETATM   27  C29 UNL     1      -8.171 -14.450  24.383  1.00  0.00     0.181 C 
ENDROOT
BRANCH  17  28
HETATM   28  C16 UNL     1     -13.840  -5.841  32.375  1.00  0.00    -0.045 A 
HETATM   29  C17 UNL     1     -14.550  -5.367  33.398  1.00  0.00     0.087 A 
HETATM   30  C18 UNL     1     -14.380  -3.915  33.413  1.00  0.00     0.283 A 
HETATM   31  O3  UNL     1     -14.844  -3.177  34.259  1.00  0.00    -0.260 OA
HETATM   32  O4  UNL     1     -13.617  -3.549  32.352  1.00  0.00    -0.314 OA
HETATM   33  C19 UNL     1     -13.211  -4.722  31.637  1.00  0.00     0.213 A 
ENDBRANCH  17  28
BRANCH  20  34
HETATM   34  O5  UNL     1     -16.026  -9.734  32.036  1.00  0.00    -0.389 OA
HETATM   35  H29 UNL     1     -16.730  -9.772  31.363  1.00  0.00     0.210 HD
ENDBRANCH  20  34
BRANCH  21  36
HETATM   36  C24 UNL     1     -14.365 -10.288  26.967  1.00  0.00     0.245 C 
HETATM   37  O6  UNL     1     -14.072  -9.355  26.223  1.00  0.00    -0.306 OA
ENDBRANCH  21  36
BRANCH  25  38
HETATM   38  O8  UNL     1     -10.766 -12.446  23.502  1.00  0.00    -0.359 OA
HETATM   39  H34 UNL     1     -11.647 -12.844  23.406  1.00  0.00     0.213 HD
ENDBRANCH  25  38
BRANCH  26  40
HETATM   40  O9  UNL     1      -8.185 -12.188  23.517  1.00  0.00    -0.387 OA
HETATM   41  H36 UNL     1      -9.002 -11.836  23.094  1.00  0.00     0.210 HD
ENDBRANCH  26  40
BRANCH  27  42
HETATM   42  O10 UNL     1      -8.682 -14.931  23.132  1.00  0.00    -0.390 OA
HETATM   43  H38 UNL     1      -8.102 -14.561  22.431  1.00  0.00     0.210 HD
ENDBRANCH  27  42
TORSDOF 6
ENDMDL
MODEL 7
REMARK minimizedAffinity -7.69434404
REMARK CNNscore 0.384747148
REMARK CNNaffinity 5.83828735
REMARK  6 active torsions:
REMARK  status: ('A' for Active; 'I' for Inactive)
REMARK    1  A    between atoms: C15_17  and  C16_18 
REMARK    2  A    between atoms: C22_26  and  O5_27 
REMARK    3  A    between atoms: C23_28  and  C24_29 
REMARK    4  A    between atoms: C27_34  and  O8_35 
REMARK    5  A    between atoms: C28_36  and  O9_37 
REMARK    6  A    between atoms: C29_38  and  O10_39 
ROOT
HETATM    1  C1  UNL     1       2.297   8.621   8.005  1.00  0.00     0.042 C 
HETATM    2  C2  UNL     1       3.044   7.579   8.835  1.00  0.00     0.152 C 
HETATM    3  O1  UNL     1       3.362   8.201  10.095  1.00  0.00    -0.348 OA
HETATM    4  C3  UNL     1       3.513   7.241  11.137  1.00  0.00     0.325 C 
HETATM    5  O2  UNL     1       4.145   7.815  12.292  1.00  0.00    -0.347 OA
HETATM    6  C4  UNL     1       3.295   8.790  12.900  1.00  0.00     0.158 C 
HETATM    7  C5  UNL     1       4.024   9.412  14.089  1.00  0.00     0.069 C 
HETATM    8  C6  UNL     1       3.132  10.397  14.810  1.00  0.00    -0.065 C 
HETATM    9  C7  UNL     1       3.542  11.661  15.016  1.00  0.00    -0.022 C 
HETATM   10  C8  UNL     1       2.743  12.701  15.746  1.00  0.00     0.035 C 
HETATM   11  C9  UNL     1       1.599  12.089  16.576  1.00  0.00     0.030 C 
HETATM   12  C10 UNL     1       0.825  11.064  15.711  1.00  0.00     0.012 C 
HETATM   13  C11 UNL     1      -0.501  10.619  16.359  1.00  0.00     0.007 C 
HETATM   14  C12 UNL     1      -0.632  11.027  17.827  1.00  0.00     0.013 C 
HETATM   15  C13 UNL     1      -0.485  12.547  18.085  1.00  0.00    -0.005 C 
HETATM   16  C14 UNL     1      -0.265  12.729  19.606  1.00  0.00     0.019 C 
HETATM   17  C15 UNL     1      -1.760  13.331  17.587  1.00  0.00     0.028 C 
HETATM   18  C20 UNL     1      -1.196  14.626  17.002  1.00  0.00     0.013 C 
HETATM   19  C21 UNL     1       0.032  14.128  16.250  1.00  0.00     0.040 C 
HETATM   20  C22 UNL     1       0.698  13.157  17.240  1.00  0.00     0.070 C 
HETATM   21  C23 UNL     1       1.755   9.884  15.251  1.00  0.00     0.043 C 
HETATM   22  C25 UNL     1       1.085   9.129  14.070  1.00  0.00     0.056 C 
HETATM   23  C26 UNL     1       2.009   8.111  13.383  1.00  0.00     0.156 C 
HETATM   24  O7  UNL     1       1.300   7.531  12.282  1.00  0.00    -0.341 OA
HETATM   25  C27 UNL     1       2.119   6.624  11.508  1.00  0.00     0.242 C 
HETATM   26  C28 UNL     1       1.311   6.333  10.206  1.00  0.00     0.216 C 
HETATM   27  C29 UNL     1       2.214   6.277   8.974  1.00  0.00     0.181 C 
ENDROOT
BRANCH  17  28
HETATM   28  C16 UNL     1      -2.894  13.507  18.554  1.00  0.00    -0.045 A 
HETATM   29  C17 UNL     1      -3.194  14.620  19.220  1.00  0.00     0.087 A 
HETATM   30  C18 UNL     1      -4.398  14.350  20.004  1.00  0.00     0.283 A 
HETATM   31  O3  UNL     1      -4.979  15.177  20.679  1.00  0.00    -0.260 OA
HETATM   32  O4  UNL     1      -4.753  13.052  19.834  1.00  0.00    -0.314 OA
HETATM   33  C19 UNL     1      -3.853  12.435  18.907  1.00  0.00     0.213 A 
ENDBRANCH  17  28
BRANCH  20  34
HETATM   34  O5  UNL     1       1.531  13.984  18.065  1.00  0.00    -0.389 OA
HETATM   35  H29 UNL     1       2.088  13.406  18.618  1.00  0.00     0.210 HD
ENDBRANCH  20  34
BRANCH  21  36
HETATM   36  C24 UNL     1       1.954   8.897  16.419  1.00  0.00     0.245 C 
HETATM   37  O6  UNL     1       2.499   9.161  17.487  1.00  0.00    -0.306 OA
ENDBRANCH  21  36
BRANCH  25  38
HETATM   38  O8  UNL     1       2.256   5.406  12.255  1.00  0.00    -0.359 OA
HETATM   39  H34 UNL     1       3.096   5.468  12.739  1.00  0.00     0.213 HD
ENDBRANCH  25  38
BRANCH  26  40
HETATM   40  O9  UNL     1       0.571   5.096  10.307  1.00  0.00    -0.387 OA
HETATM   41  H36 UNL     1       0.835   4.720  11.179  1.00  0.00     0.210 HD
ENDBRANCH  26  40
BRANCH  27  42
HETATM   42  O10 UNL     1       3.119   5.173   9.115  1.00  0.00    -0.390 OA
HETATM   43  H38 UNL     1       2.620   4.366   8.863  1.00  0.00     0.210 HD
ENDBRANCH  27  42
TORSDOF 6
ENDMDL
MODEL 8
REMARK minimizedAffinity -7.04124308
REMARK CNNscore 0.378604591
REMARK CNNaffinity 5.90768766
REMARK  6 active torsions:
REMARK  status: ('A' for Active; 'I' for Inactive)
REMARK    1  A    between atoms: C15_17  and  C16_18 
REMARK    2  A    between atoms: C22_26  and  O5_27 
REMARK    3  A    between atoms: C23_28  and  C24_29 
REMARK    4  A    between atoms: C27_34  and  O8_35 
REMARK    5  A    between atoms: C28_36  and  O9_37 
REMARK    6  A    between atoms: C29_38  and  O10_39 
ROOT
HETATM    1  C1  UNL     1     -20.916  -7.721   4.512  1.00  0.00     0.042 C 
HETATM    2  C2  UNL     1     -19.742  -8.694   4.424  1.00  0.00     0.152 C 
HETATM    3  O1  UNL     1     -18.599  -8.018   4.982  1.00  0.00    -0.348 OA
HETATM    4  C3  UNL     1     -17.638  -8.937   5.495  1.00  0.00     0.325 C 
HETATM    5  O2  UNL     1     -16.376  -8.294   5.740  1.00  0.00    -0.347 OA
HETATM    6  C4  UNL     1     -16.491  -7.350   6.807  1.00  0.00     0.158 C 
HETATM    7  C5  UNL     1     -15.146  -6.654   7.000  1.00  0.00     0.069 C 
HETATM    8  C6  UNL     1     -15.199  -5.699   8.171  1.00  0.00    -0.065 C 
HETATM    9  C7  UNL     1     -14.856  -4.409   8.011  1.00  0.00    -0.022 C 
HETATM   10  C8  UNL     1     -14.847  -3.393   9.117  1.00  0.00     0.035 C 
HETATM   11  C9  UNL     1     -14.880  -4.043  10.513  1.00  0.00     0.030 C 
HETATM   12  C10 UNL     1     -15.978  -5.135  10.549  1.00  0.00     0.012 C 
HETATM   13  C11 UNL     1     -16.275  -5.633  11.977  1.00  0.00     0.007 C 
HETATM   14  C12 UNL     1     -15.238  -5.190  13.008  1.00  0.00     0.013 C 
HETATM   15  C13 UNL     1     -15.033  -3.657  13.094  1.00  0.00    -0.005 C 
HETATM   16  C14 UNL     1     -13.722  -3.418  13.880  1.00  0.00     0.019 C 
HETATM   17  C15 UNL     1     -16.264  -2.960  13.794  1.00  0.00     0.028 C 
HETATM   18  C20 UNL     1     -16.442  -1.654  13.020  1.00  0.00     0.013 C 
HETATM   19  C21 UNL     1     -16.231  -2.105  11.580  1.00  0.00     0.040 C 
HETATM   20  C22 UNL     1     -14.988  -3.007  11.657  1.00  0.00     0.070 C 
HETATM   21  C23 UNL     1     -15.686  -6.275   9.507  1.00  0.00     0.043 C 
HETATM   22  C25 UNL     1     -16.980  -7.100   9.269  1.00  0.00     0.056 C 
HETATM   23  C26 UNL     1     -16.879  -8.085   8.095  1.00  0.00     0.156 C 
HETATM   24  O7  UNL     1     -18.146  -8.737   7.942  1.00  0.00    -0.341 OA
HETATM   25  C27 UNL     1     -18.184  -9.619   6.797  1.00  0.00     0.242 C 
HETATM   26  C28 UNL     1     -19.686  -9.994   6.603  1.00  0.00     0.216 C 
HETATM   27  C29 UNL     1     -20.078 -10.036   5.126  1.00  0.00     0.181 C 
ENDROOT
BRANCH  17  28
HETATM   28  C16 UNL     1     -16.229  -2.819  15.287  1.00  0.00    -0.045 A 
HETATM   29  C17 UNL     1     -16.341  -1.682  15.972  1.00  0.00     0.087 A 
HETATM   30  C18 UNL     1     -16.303  -2.023  17.394  1.00  0.00     0.283 A 
HETATM   31  O3  UNL     1     -16.446  -1.222  18.297  1.00  0.00    -0.260 OA
HETATM   32  O4  UNL     1     -16.104  -3.359  17.522  1.00  0.00    -0.314 OA
HETATM   33  C19 UNL     1     -16.060  -3.956  16.221  1.00  0.00     0.213 A 
ENDBRANCH  17  28
BRANCH  20  34
HETATM   34  O5  UNL     1     -13.873  -2.111  11.546  1.00  0.00    -0.389 OA
HETATM   35  H29 UNL     1     -13.061  -2.640  11.445  1.00  0.00     0.210 HD
ENDBRANCH  20  34
BRANCH  21  36
HETATM   36  C24 UNL     1     -14.595  -7.214  10.059  1.00  0.00     0.245 C 
HETATM   37  O6  UNL     1     -14.260  -7.296  11.238  1.00  0.00    -0.306 OA
ENDBRANCH  21  36
BRANCH  25  38
HETATM   38  O8  UNL     1     -17.445 -10.805   7.129  1.00  0.00    -0.359 OA
HETATM   39  H34 UNL     1     -16.548 -10.682   6.779  1.00  0.00     0.213 HD
ENDBRANCH  25  38
BRANCH  26  40
HETATM   40  O9  UNL     1     -19.997 -11.266   7.212  1.00  0.00    -0.387 OA
HETATM   41  H36 UNL     1     -19.132 -11.601   7.544  1.00  0.00     0.210 HD
ENDBRANCH  26  40
BRANCH  27  42
HETATM   42  O10 UNL     1     -19.338 -11.082   4.482  1.00  0.00    -0.390 OA
HETATM   43  H38 UNL     1     -19.799 -11.924   4.693  1.00  0.00     0.210 HD
ENDBRANCH  27  42
TORSDOF 6
ENDMDL
MODEL 9
REMARK minimizedAffinity -9.36506844
REMARK CNNscore 0.376995713
REMARK CNNaffinity 7.01843691
REMARK  6 active torsions:
REMARK  status: ('A' for Active; 'I' for Inactive)
REMARK    1  A    between atoms: C15_17  and  C16_18 
REMARK    2  A    between atoms: C22_26  and  O5_27 
REMARK    3  A    between atoms: C23_28  and  C24_29 
REMARK    4  A    between atoms: C27_34  and  O8_35 
REMARK    5  A    between atoms: C28_36  and  O9_37 
REMARK    6  A    between atoms: C29_38  and  O10_39 
ROOT
HETATM    1  C1  UNL     1      -0.808   7.293  11.203  1.00  0.00     0.042 C 
HETATM    2  C2  UNL     1      -0.799   6.006  12.026  1.00  0.00     0.152 C 
HETATM    3  O1  UNL     1      -1.836   6.139  13.018  1.00  0.00    -0.348 OA
HETATM    4  C3  UNL     1      -2.327   4.871  13.444  1.00  0.00     0.325 C 
HETATM    5  O2  UNL     1      -3.104   4.987  14.647  1.00  0.00    -0.347 OA
HETATM    6  C4  UNL     1      -4.311   5.712  14.400  1.00  0.00     0.158 C 
HETATM    7  C5  UNL     1      -5.081   5.857  15.710  1.00  0.00     0.069 C 
HETATM    8  C6  UNL     1      -6.403   6.552  15.482  1.00  0.00    -0.065 C 
HETATM    9  C7  UNL     1      -6.723   7.652  16.186  1.00  0.00    -0.022 C 
HETATM   10  C8  UNL     1      -8.022   8.393  16.053  1.00  0.00     0.035 C 
HETATM   11  C9  UNL     1      -9.104   7.561  15.338  1.00  0.00     0.030 C 
HETATM   12  C10 UNL     1      -8.505   6.926  14.059  1.00  0.00     0.012 C 
HETATM   13  C11 UNL     1      -9.579   6.319  13.136  1.00  0.00     0.007 C 
HETATM   14  C12 UNL     1     -10.952   6.191  13.797  1.00  0.00     0.013 C 
HETATM   15  C13 UNL     1     -11.523   7.520  14.350  1.00  0.00    -0.005 C 
HETATM   16  C14 UNL     1     -12.695   7.152  15.292  1.00  0.00     0.019 C 
HETATM   17  C15 UNL     1     -11.997   8.464  13.179  1.00  0.00     0.028 C 
HETATM   18  C20 UNL     1     -11.607   9.866  13.649  1.00  0.00     0.013 C 
HETATM   19  C21 UNL     1     -10.227   9.628  14.249  1.00  0.00     0.040 C 
HETATM   20  C22 UNL     1     -10.409   8.354  15.092  1.00  0.00     0.070 C 
HETATM   21  C23 UNL     1      -7.317   5.955  14.404  1.00  0.00     0.043 C 
HETATM   22  C25 UNL     1      -6.486   5.681  13.120  1.00  0.00     0.056 C 
HETATM   23  C26 UNL     1      -5.165   4.942  13.385  1.00  0.00     0.156 C 
HETATM   24  O7  UNL     1      -4.469   4.804  12.141  1.00  0.00    -0.341 OA
HETATM   25  C27 UNL     1      -3.163   4.203  12.297  1.00  0.00     0.242 C 
HETATM   26  C28 UNL     1      -2.437   4.408  10.931  1.00  0.00     0.216 C 
HETATM   27  C29 UNL     1      -0.962   4.761  11.116  1.00  0.00     0.181 C 
ENDROOT
BRANCH  17  28
HETATM   28  C16 UNL     1     -13.410   8.322  12.696  1.00  0.00    -0.045 A 
HETATM   29  C17 UNL     1     -14.055   7.177  12.478  1.00  0.00     0.087 A 
HETATM   30  C18 UNL     1     -15.417   7.513  12.065  1.00  0.00     0.283 A 
HETATM   31  O3  UNL     1     -16.291   6.698  11.850  1.00  0.00    -0.260 OA
HETATM   32  O4  UNL     1     -15.532   8.863  11.983  1.00  0.00    -0.314 OA
HETATM   33  C19 UNL     1     -14.298   9.466  12.386  1.00  0.00     0.213 A 
ENDBRANCH  17  28
BRANCH  20  34
HETATM   34  O5  UNL     1     -10.889   8.816  16.363  1.00  0.00    -0.389 OA
HETATM   35  H29 UNL     1     -10.886   8.066  16.984  1.00  0.00     0.210 HD
ENDBRANCH  20  34
BRANCH  21  36
HETATM   36  C24 UNL     1      -7.877   4.617  14.925  1.00  0.00     0.245 C 
HETATM   37  O6  UNL     1      -7.649   3.513  14.438  1.00  0.00    -0.306 OA
ENDBRANCH  21  36
BRANCH  25  38
HETATM   38  O8  UNL     1      -3.348   2.797  12.521  1.00  0.00    -0.359 OA
HETATM   39  H34 UNL     1      -3.328   2.662  13.483  1.00  0.00     0.213 HD
ENDBRANCH  25  38
BRANCH  26  40
HETATM   40  O9  UNL     1      -2.542   3.236  10.095  1.00  0.00    -0.387 OA
HETATM   41  H36 UNL     1      -3.005   2.571  10.656  1.00  0.00     0.210 HD
ENDBRANCH  26  40
BRANCH  27  42
HETATM   42  O10 UNL     1      -0.296   3.654  11.738  1.00  0.00    -0.390 OA
HETATM   43  H38 UNL     1      -0.115   3.000  11.028  1.00  0.00     0.210 HD
ENDBRANCH  27  42
TORSDOF 6
ENDMDL
