MODEL 1
REMARK minimizedAffinity -10.0065098
REMARK  4 active torsions:
REMARK  status: ('A' for Active; 'I' for Inactive)
REMARK    1  A    between atoms: C4_4  and  C5_5 
REMARK    2  A    between atoms: C5_5  and  C6_7 
REMARK    3  A    between atoms: C6_7  and  C7_8 
REMARK    4  A    between atoms: C7_8  and  C9_10 
ROOT
HETATM    1  C9  UNL     1      -3.961  50.555 -24.687  1.00  0.00    -0.002 C 
HETATM    2  C10 UNL     1      -5.338  50.259 -24.019  1.00  0.00     0.006 C 
HETATM    3  C11 UNL     1      -5.146  50.376 -22.492  1.00  0.00     0.011 C 
HETATM    4  C12 UNL     1      -3.779  51.059 -22.319  1.00  0.00    -0.032 C 
HETATM    5  C13 UNL     1      -4.054  52.593 -22.530  1.00  0.00     0.016 C 
HETATM    6  C14 UNL     1      -3.050  50.934 -20.939  1.00  0.00     0.004 C 
HETATM    7  C15 UNL     1      -3.584  49.858 -19.988  1.00  0.00     0.007 C 
HETATM    8  C16 UNL     1      -2.847  49.809 -18.633  1.00  0.00     0.007 C 
HETATM    9  C17 UNL     1      -1.677  50.812 -18.475  1.00  0.00     0.010 C 
HETATM   10  C18 UNL     1      -0.821  50.595 -17.186  1.00  0.00     0.018 C 
HETATM   11  C19 UNL     1      -0.064  49.256 -17.178  1.00  0.00     0.023 C 
HETATM   12  C20 UNL     1      -1.705  50.676 -15.928  1.00  0.00     0.023 C 
HETATM   13  C21 UNL     1       0.227  51.716 -17.091  1.00  0.00     0.135 C 
HETATM   14  O2  UNL     1       0.872  51.919 -16.060  1.00  0.00    -0.297 OA
HETATM   15  C22 UNL     1       0.435  52.594 -18.302  1.00  0.00     0.080 C 
HETATM   16  C23 UNL     1       0.471  51.743 -19.559  1.00  0.00     0.018 C 
HETATM   17  C24 UNL     1      -0.786  50.903 -19.731  1.00  0.00    -0.026 A 
HETATM   18  C25 UNL     1      -0.671  49.687 -20.617  1.00  0.00     0.021 A 
HETATM   19  C26 UNL     1      -1.513  50.863 -21.091  1.00  0.00    -0.027 A 
HETATM   20  C27 UNL     1      -0.972  51.588 -22.312  1.00  0.00     0.011 C 
HETATM   21  C28 UNL     1      -1.611  51.135 -23.642  1.00  0.00     0.011 C 
HETATM   22  C29 UNL     1      -2.962  50.400 -23.491  1.00  0.00    -0.032 C 
HETATM   23  C30 UNL     1      -2.686  48.881 -23.286  1.00  0.00     0.016 C 
ENDROOT
BRANCH   1  24
HETATM   24  C7  UNL     1      -3.746  49.732 -25.989  1.00  0.00    -0.007 C 
HETATM   25  C8  UNL     1      -4.540  48.422 -25.998  1.00  0.00     0.011 C 
BRANCH  24  26
HETATM   26  C6  UNL     1      -2.255  49.444 -26.283  1.00  0.00     0.087 C 
BRANCH  26  27
HETATM   27  C5  UNL     1      -1.496  50.619 -26.874  1.00  0.00     0.149 C 
HETATM   28  O1  UNL     1      -2.014  51.385 -27.683  1.00  0.00    -0.293 OA
BRANCH  27  29
HETATM   29  C4  UNL     1      -0.078  50.793 -26.439  1.00  0.00     0.052 C 
HETATM   30  C2  UNL     1       0.885  51.386 -27.170  1.00  0.00    -0.084 C 
HETATM   31  C1  UNL     1       0.683  52.018 -28.521  1.00  0.00     0.043 C 
HETATM   32  C3  UNL     1       2.295  51.468 -26.650  1.00  0.00     0.043 C 
ENDBRANCH  27  29
ENDBRANCH  26  27
ENDBRANCH  24  26
ENDBRANCH   1  24
TORSDOF 4
ENDMDL
MODEL 2
REMARK minimizedAffinity -9.43464947
REMARK  4 active torsions:
REMARK  status: ('A' for Active; 'I' for Inactive)
REMARK    1  A    between atoms: C4_4  and  C5_5 
REMARK    2  A    between atoms: C5_5  and  C6_7 
REMARK    3  A    between atoms: C6_7  and  C7_8 
REMARK    4  A    between atoms: C7_8  and  C9_10 
ROOT
HETATM    1  C9  UNL     1      -1.296  49.461 -18.363  1.00  0.00    -0.002 C 
HETATM    2  C10 UNL     1      -2.430  48.401 -18.501  1.00  0.00     0.006 C 
HETATM    3  C11 UNL     1      -2.773  48.281 -20.001  1.00  0.00     0.011 C 
HETATM    4  C12 UNL     1      -1.623  49.003 -20.724  1.00  0.00    -0.032 C 
HETATM    5  C13 UNL     1      -0.449  47.958 -20.780  1.00  0.00     0.016 C 
HETATM    6  C14 UNL     1      -1.851  49.480 -22.198  1.00  0.00     0.004 C 
HETATM    7  C15 UNL     1      -3.304  49.504 -22.685  1.00  0.00     0.007 C 
HETATM    8  C16 UNL     1      -3.457  49.948 -24.154  1.00  0.00     0.007 C 
HETATM    9  C17 UNL     1      -2.141  50.333 -24.874  1.00  0.00     0.010 C 
HETATM   10  C18 UNL     1      -2.349  50.978 -26.282  1.00  0.00     0.018 C 
HETATM   11  C19 UNL     1      -3.063  52.338 -26.227  1.00  0.00     0.023 C 
HETATM   12  C20 UNL     1      -3.146  50.031 -27.199  1.00  0.00     0.023 C 
HETATM   13  C21 UNL     1      -0.974  51.206 -26.932  1.00  0.00     0.135 C 
HETATM   14  O2  UNL     1      -0.857  51.480 -28.129  1.00  0.00    -0.297 OA
HETATM   15  C22 UNL     1       0.252  51.060 -26.063  1.00  0.00     0.080 C 
HETATM   16  C23 UNL     1       0.021  51.734 -24.722  1.00  0.00     0.018 C 
HETATM   17  C24 UNL     1      -1.202  51.190 -23.999  1.00  0.00    -0.026 A 
HETATM   18  C25 UNL     1      -1.818  52.079 -22.947  1.00  0.00     0.021 A 
HETATM   19  C26 UNL     1      -1.114  50.803 -22.508  1.00  0.00    -0.027 A 
HETATM   20  C27 UNL     1       0.154  51.016 -21.697  1.00  0.00     0.011 C 
HETATM   21  C28 UNL     1      -0.058  50.926 -20.170  1.00  0.00     0.011 C 
HETATM   22  C29 UNL     1      -1.353  50.201 -19.741  1.00  0.00    -0.032 C 
HETATM   23  C30 UNL     1      -2.513  51.240 -19.685  1.00  0.00     0.016 C 
ENDROOT
BRANCH   1  24
HETATM   24  C7  UNL     1      -1.403  50.273 -17.041  1.00  0.00    -0.007 C 
HETATM   25  C8  UNL     1      -2.850  50.625 -16.678  1.00  0.00     0.011 C 
BRANCH  24  26
HETATM   26  C6  UNL     1      -0.538  51.555 -17.047  1.00  0.00     0.087 C 
BRANCH  26  27
HETATM   27  C5  UNL     1       0.516  51.604 -15.954  1.00  0.00     0.149 C 
HETATM   28  O1  UNL     1       0.277  51.236 -14.807  1.00  0.00    -0.293 OA
BRANCH  27  29
HETATM   29  C4  UNL     1       1.857  52.138 -16.335  1.00  0.00     0.052 C 
HETATM   30  C2  UNL     1       2.992  51.938 -15.638  1.00  0.00    -0.084 C 
HETATM   31  C1  UNL     1       3.109  51.100 -14.394  1.00  0.00     0.043 C 
HETATM   32  C3  UNL     1       4.285  52.562 -16.091  1.00  0.00     0.043 C 
ENDBRANCH  27  29
ENDBRANCH  26  27
ENDBRANCH  24  26
ENDBRANCH   1  24
TORSDOF 4
ENDMDL
MODEL 3
REMARK minimizedAffinity -9.3269577
REMARK  4 active torsions:
REMARK  status: ('A' for Active; 'I' for Inactive)
REMARK    1  A    between atoms: C4_4  and  C5_5 
REMARK    2  A    between atoms: C5_5  and  C6_7 
REMARK    3  A    between atoms: C6_7  and  C7_8 
REMARK    4  A    between atoms: C7_8  and  C9_10 
ROOT
HETATM    1  C9  UNL     1      -3.897  49.876 -24.910  1.00  0.00    -0.002 C 
HETATM    2  C10 UNL     1      -5.266  49.587 -24.223  1.00  0.00     0.006 C 
HETATM    3  C11 UNL     1      -5.089  49.841 -22.712  1.00  0.00     0.011 C 
HETATM    4  C12 UNL     1      -3.748  50.586 -22.593  1.00  0.00    -0.032 C 
HETATM    5  C13 UNL     1      -4.078  52.086 -22.935  1.00  0.00     0.016 C 
HETATM    6  C14 UNL     1      -3.024  50.605 -21.206  1.00  0.00     0.004 C 
HETATM    7  C15 UNL     1      -3.524  49.595 -20.167  1.00  0.00     0.007 C 
HETATM    8  C16 UNL     1      -2.795  49.689 -18.811  1.00  0.00     0.007 C 
HETATM    9  C17 UNL     1      -1.663  50.744 -18.735  1.00  0.00     0.010 C 
HETATM   10  C18 UNL     1      -0.808  50.669 -17.430  1.00  0.00     0.018 C 
HETATM   11  C19 UNL     1      -0.003  49.365 -17.306  1.00  0.00     0.023 C 
HETATM   12  C20 UNL     1      -1.702  50.825 -16.186  1.00  0.00     0.023 C 
HETATM   13  C21 UNL     1       0.198  51.832 -17.428  1.00  0.00     0.135 C 
HETATM   14  O2  UNL     1       0.829  52.146 -16.415  1.00  0.00    -0.297 OA
HETATM   15  C22 UNL     1       0.381  52.611 -18.708  1.00  0.00     0.080 C 
HETATM   16  C23 UNL     1       0.457  51.658 -19.888  1.00  0.00     0.018 C 
HETATM   17  C24 UNL     1      -0.768  50.760 -19.992  1.00  0.00    -0.026 A 
HETATM   18  C25 UNL     1      -0.603  49.479 -20.771  1.00  0.00     0.021 A 
HETATM   19  C26 UNL     1      -1.485  50.578 -21.345  1.00  0.00    -0.027 A 
HETATM   20  C27 UNL     1      -0.963  51.216 -22.623  1.00  0.00     0.011 C 
HETATM   21  C28 UNL     1      -1.576  50.628 -23.911  1.00  0.00     0.011 C 
HETATM   22  C29 UNL     1      -2.900  49.860 -23.702  1.00  0.00    -0.032 C 
HETATM   23  C30 UNL     1      -2.570  48.375 -23.367  1.00  0.00     0.016 C 
ENDROOT
BRANCH   1  24
HETATM   24  C7  UNL     1      -3.644  48.954 -26.137  1.00  0.00    -0.007 C 
HETATM   25  C8  UNL     1      -3.018  49.702 -27.319  1.00  0.00     0.011 C 
BRANCH  24  26
HETATM   26  C6  UNL     1      -4.916  48.207 -26.603  1.00  0.00     0.087 C 
BRANCH  26  27
HETATM   27  C5  UNL     1      -5.085  48.144 -28.112  1.00  0.00     0.149 C 
HETATM   28  O1  UNL     1      -4.290  48.685 -28.876  1.00  0.00    -0.293 OA
BRANCH  27  29
HETATM   29  C4  UNL     1      -6.276  47.404 -28.626  1.00  0.00     0.052 C 
HETATM   30  C2  UNL     1      -6.388  46.889 -29.865  1.00  0.00    -0.084 C 
HETATM   31  C1  UNL     1      -5.313  46.925 -30.918  1.00  0.00     0.043 C 
HETATM   32  C3  UNL     1      -7.655  46.199 -30.293  1.00  0.00     0.043 C 
ENDBRANCH  27  29
ENDBRANCH  26  27
ENDBRANCH  24  26
ENDBRANCH   1  24
TORSDOF 4
ENDMDL
MODEL 4
REMARK minimizedAffinity -9.30112267
REMARK  4 active torsions:
REMARK  status: ('A' for Active; 'I' for Inactive)
REMARK    1  A    between atoms: C4_4  and  C5_5 
REMARK    2  A    between atoms: C5_5  and  C6_7 
REMARK    3  A    between atoms: C6_7  and  C7_8 
REMARK    4  A    between atoms: C7_8  and  C9_10 
ROOT
HETATM    1  C9  UNL     1      -0.060  50.904 -21.643  1.00  0.00    -0.002 C 
HETATM    2  C10 UNL     1       0.090  51.002 -20.095  1.00  0.00     0.006 C 
HETATM    3  C11 UNL     1      -1.098  50.245 -19.466  1.00  0.00     0.011 C 
HETATM    4  C12 UNL     1      -1.714  49.447 -20.627  1.00  0.00    -0.032 C 
HETATM    5  C13 UNL     1      -0.812  48.166 -20.773  1.00  0.00     0.016 C 
HETATM    6  C14 UNL     1      -3.184  48.928 -20.481  1.00  0.00     0.004 C 
HETATM    7  C15 UNL     1      -4.011  49.548 -19.349  1.00  0.00     0.007 C 
HETATM    8  C16 UNL     1      -5.436  48.970 -19.235  1.00  0.00     0.007 C 
HETATM    9  C17 UNL     1      -5.809  47.905 -20.295  1.00  0.00     0.010 C 
HETATM   10  C18 UNL     1      -7.317  47.497 -20.287  1.00  0.00     0.018 C 
HETATM   11  C19 UNL     1      -8.259  48.646 -20.683  1.00  0.00     0.023 C 
HETATM   12  C20 UNL     1      -7.729  46.968 -18.901  1.00  0.00     0.023 C 
HETATM   13  C21 UNL     1      -7.530  46.360 -21.300  1.00  0.00     0.135 C 
HETATM   14  O2  UNL     1      -8.569  45.695 -21.325  1.00  0.00    -0.297 OA
HETATM   15  C22 UNL     1      -6.410  46.053 -22.264  1.00  0.00     0.080 C 
HETATM   16  C23 UNL     1      -5.830  47.344 -22.815  1.00  0.00     0.018 C 
HETATM   17  C24 UNL     1      -5.337  48.275 -21.717  1.00  0.00    -0.026 A 
HETATM   18  C25 UNL     1      -5.216  49.737 -22.073  1.00  0.00     0.021 A 
HETATM   19  C26 UNL     1      -3.947  48.935 -21.826  1.00  0.00    -0.027 A 
HETATM   20  C27 UNL     1      -3.061  48.745 -23.046  1.00  0.00     0.011 C 
HETATM   21  C28 UNL     1      -1.901  49.759 -23.142  1.00  0.00     0.011 C 
HETATM   22  C29 UNL     1      -1.554  50.467 -21.814  1.00  0.00    -0.032 C 
HETATM   23  C30 UNL     1      -2.446  51.736 -21.674  1.00  0.00     0.016 C 
ENDROOT
BRANCH   1  24
HETATM   24  C7  UNL     1       0.466  52.175 -22.370  1.00  0.00    -0.007 C 
HETATM   25  C8  UNL     1       0.624  53.372 -21.427  1.00  0.00     0.011 C 
BRANCH  24  26
HETATM   26  C6  UNL     1      -0.401  52.577 -23.586  1.00  0.00     0.087 C 
BRANCH  26  27
HETATM   27  C5  UNL     1       0.354  53.325 -24.672  1.00  0.00     0.149 C 
HETATM   28  O1  UNL     1       1.108  54.259 -24.410  1.00  0.00    -0.293 OA
BRANCH  27  29
HETATM   29  C4  UNL     1       0.124  52.883 -26.079  1.00  0.00     0.052 C 
HETATM   30  C2  UNL     1       0.939  52.064 -26.772  1.00  0.00    -0.084 C 
HETATM   31  C1  UNL     1       2.183  51.417 -26.228  1.00  0.00     0.043 C 
HETATM   32  C3  UNL     1       0.633  51.718 -28.205  1.00  0.00     0.043 C 
ENDBRANCH  27  29
ENDBRANCH  26  27
ENDBRANCH  24  26
ENDBRANCH   1  24
TORSDOF 4
ENDMDL
MODEL 5
REMARK minimizedAffinity -9.07476616
REMARK  4 active torsions:
REMARK  status: ('A' for Active; 'I' for Inactive)
REMARK    1  A    between atoms: C4_4  and  C5_5 
REMARK    2  A    between atoms: C5_5  and  C6_7 
REMARK    3  A    between atoms: C6_7  and  C7_8 
REMARK    4  A    between atoms: C7_8  and  C9_10 
ROOT
HETATM    1  C9  UNL     1      -2.903  50.375 -21.584  1.00  0.00    -0.002 C 
HETATM    2  C10 UNL     1      -1.941  51.417 -22.231  1.00  0.00     0.006 C 
HETATM    3  C11 UNL     1      -0.779  51.652 -21.242  1.00  0.00     0.011 C 
HETATM    4  C12 UNL     1      -0.902  50.513 -20.216  1.00  0.00    -0.032 C 
HETATM    5  C13 UNL     1      -0.235  49.265 -20.901  1.00  0.00     0.016 C 
HETATM    6  C14 UNL     1      -0.195  50.678 -18.829  1.00  0.00     0.004 C 
HETATM    7  C15 UNL     1       0.269  52.094 -18.470  1.00  0.00     0.007 C 
HETATM    8  C16 UNL     1       0.990  52.183 -17.109  1.00  0.00     0.007 C 
HETATM    9  C17 UNL     1       1.087  50.854 -16.319  1.00  0.00     0.010 C 
HETATM   10  C18 UNL     1       1.628  51.015 -14.862  1.00  0.00     0.018 C 
HETATM   11  C19 UNL     1       0.691  51.829 -13.954  1.00  0.00     0.023 C 
HETATM   12  C20 UNL     1       3.017  51.680 -14.870  1.00  0.00     0.023 C 
HETATM   13  C21 UNL     1       1.783  49.622 -14.232  1.00  0.00     0.135 C 
HETATM   14  O2  UNL     1       2.408  49.447 -13.183  1.00  0.00    -0.297 OA
HETATM   15  C22 UNL     1       1.163  48.448 -14.951  1.00  0.00     0.080 C 
HETATM   16  C23 UNL     1      -0.227  48.814 -15.440  1.00  0.00     0.018 C 
HETATM   17  C24 UNL     1      -0.223  50.039 -16.343  1.00  0.00    -0.026 A 
HETATM   18  C25 UNL     1      -1.528  50.785 -16.477  1.00  0.00     0.021 A 
HETATM   19  C26 UNL     1      -0.993  50.021 -17.680  1.00  0.00    -0.027 A 
HETATM   20  C27 UNL     1      -1.833  48.827 -18.106  1.00  0.00     0.011 C 
HETATM   21  C28 UNL     1      -2.810  49.132 -19.262  1.00  0.00     0.011 C 
HETATM   22  C29 UNL     1      -2.465  50.395 -20.081  1.00  0.00    -0.032 C 
HETATM   23  C30 UNL     1      -3.131  51.629 -19.401  1.00  0.00     0.016 C 
ENDROOT
BRANCH   1  24
HETATM   24  C7  UNL     1      -4.389  50.627 -21.964  1.00  0.00    -0.007 C 
HETATM   25  C8  UNL     1      -5.365  49.832 -21.090  1.00  0.00     0.011 C 
BRANCH  24  26
HETATM   26  C6  UNL     1      -4.686  50.357 -23.458  1.00  0.00     0.087 C 
BRANCH  26  27
HETATM   27  C5  UNL     1      -4.443  48.922 -23.894  1.00  0.00     0.149 C 
HETATM   28  O1  UNL     1      -3.888  48.107 -23.160  1.00  0.00    -0.293 OA
BRANCH  27  29
HETATM   29  C4  UNL     1      -4.897  48.549 -25.266  1.00  0.00     0.052 C 
HETATM   30  C2  UNL     1      -4.110  48.533 -26.360  1.00  0.00    -0.084 C 
HETATM   31  C1  UNL     1      -2.636  48.835 -26.372  1.00  0.00     0.043 C 
HETATM   32  C3  UNL     1      -4.685  48.182 -27.707  1.00  0.00     0.043 C 
ENDBRANCH  27  29
ENDBRANCH  26  27
ENDBRANCH  24  26
ENDBRANCH   1  24
TORSDOF 4
ENDMDL
MODEL 6
REMARK minimizedAffinity -9.01412773
REMARK  4 active torsions:
REMARK  status: ('A' for Active; 'I' for Inactive)
REMARK    1  A    between atoms: C4_4  and  C5_5 
REMARK    2  A    between atoms: C5_5  and  C6_7 
REMARK    3  A    between atoms: C6_7  and  C7_8 
REMARK    4  A    between atoms: C7_8  and  C9_10 
ROOT
HETATM    1  C9  UNL     1      -1.487  49.858 -18.296  1.00  0.00    -0.002 C 
HETATM    2  C10 UNL     1      -2.562  48.739 -18.444  1.00  0.00     0.006 C 
HETATM    3  C11 UNL     1      -2.808  48.530 -19.953  1.00  0.00     0.011 C 
HETATM    4  C12 UNL     1      -1.650  49.268 -20.645  1.00  0.00    -0.032 C 
HETATM    5  C13 UNL     1      -0.430  48.279 -20.578  1.00  0.00     0.016 C 
HETATM    6  C14 UNL     1      -1.809  49.661 -22.152  1.00  0.00     0.004 C 
HETATM    7  C15 UNL     1      -3.230  49.591 -22.723  1.00  0.00     0.007 C 
HETATM    8  C16 UNL     1      -3.314  49.954 -24.220  1.00  0.00     0.007 C 
HETATM    9  C17 UNL     1      -1.975  50.365 -24.882  1.00  0.00     0.010 C 
HETATM   10  C18 UNL     1      -2.126  50.929 -26.331  1.00  0.00     0.018 C 
HETATM   11  C19 UNL     1      -2.901  52.255 -26.389  1.00  0.00     0.023 C 
HETATM   12  C20 UNL     1      -2.823  49.902 -27.242  1.00  0.00     0.023 C 
HETATM   13  C21 UNL     1      -0.726  51.189 -26.912  1.00  0.00     0.135 C 
HETATM   14  O2  UNL     1      -0.549  51.409 -28.112  1.00  0.00    -0.297 OA
HETATM   15  C22 UNL     1       0.451  51.144 -25.966  1.00  0.00     0.080 C 
HETATM   16  C23 UNL     1       0.110  51.873 -24.678  1.00  0.00     0.018 C 
HETATM   17  C24 UNL     1      -1.130  51.308 -24.000  1.00  0.00    -0.026 A 
HETATM   18  C25 UNL     1      -1.846  52.218 -23.033  1.00  0.00     0.021 A 
HETATM   19  C26 UNL     1      -1.114  51.000 -22.488  1.00  0.00    -0.027 A 
HETATM   20  C27 UNL     1       0.091  51.313 -21.617  1.00  0.00     0.011 C 
HETATM   21  C28 UNL     1      -0.208  51.289 -20.103  1.00  0.00     0.011 C 
HETATM   22  C29 UNL     1      -1.493  50.525 -19.712  1.00  0.00    -0.032 C 
HETATM   23  C30 UNL     1      -2.699  51.509 -19.777  1.00  0.00     0.016 C 
ENDROOT
BRANCH   1  24
HETATM   24  C7  UNL     1      -1.709  50.728 -17.026  1.00  0.00    -0.007 C 
HETATM   25  C8  UNL     1      -0.435  50.890 -16.190  1.00  0.00     0.011 C 
BRANCH  24  26
HETATM   26  C6  UNL     1      -2.860  50.210 -16.133  1.00  0.00     0.087 C 
BRANCH  26  27
HETATM   27  C5  UNL     1      -2.608  50.356 -14.642  1.00  0.00     0.149 C 
HETATM   28  O1  UNL     1      -2.047  49.478 -13.991  1.00  0.00    -0.293 OA
BRANCH  27  29
HETATM   29  C4  UNL     1      -3.089  51.613 -13.996  1.00  0.00     0.052 C 
HETATM   30  C2  UNL     1      -3.283  51.775 -12.673  1.00  0.00    -0.084 C 
HETATM   31  C1  UNL     1      -2.996  50.737 -11.622  1.00  0.00     0.043 C 
HETATM   32  C3  UNL     1      -3.815  53.076 -12.134  1.00  0.00     0.043 C 
ENDBRANCH  27  29
ENDBRANCH  26  27
ENDBRANCH  24  26
ENDBRANCH   1  24
TORSDOF 4
ENDMDL
MODEL 7
REMARK minimizedAffinity -8.99782467
REMARK  4 active torsions:
REMARK  status: ('A' for Active; 'I' for Inactive)
REMARK    1  A    between atoms: C4_4  and  C5_5 
REMARK    2  A    between atoms: C5_5  and  C6_7 
REMARK    3  A    between atoms: C6_7  and  C7_8 
REMARK    4  A    between atoms: C7_8  and  C9_10 
ROOT
HETATM    1  C9  UNL     1      -0.814  51.644 -22.525  1.00  0.00    -0.002 C 
HETATM    2  C10 UNL     1      -0.214  51.462 -23.952  1.00  0.00     0.006 C 
HETATM    3  C11 UNL     1      -1.323  50.869 -24.848  1.00  0.00     0.011 C 
HETATM    4  C12 UNL     1      -2.616  51.034 -24.032  1.00  0.00    -0.032 C 
HETATM    5  C13 UNL     1      -3.058  52.527 -24.257  1.00  0.00     0.016 C 
HETATM    6  C14 UNL     1      -3.854  50.153 -24.409  1.00  0.00     0.004 C 
HETATM    7  C15 UNL     1      -3.579  48.955 -25.324  1.00  0.00     0.007 C 
HETATM    8  C16 UNL     1      -4.843  48.149 -25.686  1.00  0.00     0.007 C 
HETATM    9  C17 UNL     1      -6.159  48.649 -25.040  1.00  0.00     0.010 C 
HETATM   10  C18 UNL     1      -7.377  47.694 -25.252  1.00  0.00     0.018 C 
HETATM   11  C19 UNL     1      -7.208  46.332 -24.558  1.00  0.00     0.023 C 
HETATM   12  C20 UNL     1      -7.630  47.462 -26.753  1.00  0.00     0.023 C 
HETATM   13  C21 UNL     1      -8.636  48.355 -24.666  1.00  0.00     0.135 C 
HETATM   14  O2  UNL     1      -9.768  47.928 -24.905  1.00  0.00    -0.297 OA
HETATM   15  C22 UNL     1      -8.452  49.575 -23.795  1.00  0.00     0.080 C 
HETATM   16  C23 UNL     1      -7.296  49.359 -22.835  1.00  0.00     0.018 C 
HETATM   17  C24 UNL     1      -5.996  49.028 -23.553  1.00  0.00    -0.026 A 
HETATM   18  C25 UNL     1      -4.939  48.316 -22.745  1.00  0.00     0.021 A 
HETATM   19  C26 UNL     1      -4.691  49.756 -23.171  1.00  0.00    -0.027 A 
HETATM   20  C27 UNL     1      -4.637  50.762 -22.032  1.00  0.00     0.011 C 
HETATM   21  C28 UNL     1      -3.205  51.096 -21.562  1.00  0.00     0.011 C 
HETATM   22  C29 UNL     1      -2.095  50.746 -22.576  1.00  0.00    -0.032 C 
HETATM   23  C30 UNL     1      -1.657  49.268 -22.349  1.00  0.00     0.016 C 
ENDROOT
BRANCH   1  24
HETATM   24  C7  UNL     1       0.244  51.425 -21.406  1.00  0.00    -0.007 C 
HETATM   25  C8  UNL     1      -0.061  50.201 -20.536  1.00  0.00     0.011 C 
BRANCH  24  26
HETATM   26  C6  UNL     1       0.442  52.669 -20.509  1.00  0.00     0.087 C 
BRANCH  26  27
HETATM   27  C5  UNL     1      -0.128  52.527 -19.108  1.00  0.00     0.149 C 
HETATM   28  O1  UNL     1      -1.330  52.366 -18.912  1.00  0.00    -0.293 OA
BRANCH  27  29
HETATM   29  C4  UNL     1       0.840  52.609 -17.975  1.00  0.00     0.052 C 
HETATM   30  C2  UNL     1       1.016  51.654 -17.042  1.00  0.00    -0.084 C 
HETATM   31  C1  UNL     1       0.309  50.326 -17.016  1.00  0.00     0.043 C 
HETATM   32  C3  UNL     1       1.992  51.861 -15.914  1.00  0.00     0.043 C 
ENDBRANCH  27  29
ENDBRANCH  26  27
ENDBRANCH  24  26
ENDBRANCH   1  24
TORSDOF 4
ENDMDL
MODEL 8
REMARK minimizedAffinity -8.90492344
REMARK  4 active torsions:
REMARK  status: ('A' for Active; 'I' for Inactive)
REMARK    1  A    between atoms: C4_4  and  C5_5 
REMARK    2  A    between atoms: C5_5  and  C6_7 
REMARK    3  A    between atoms: C6_7  and  C7_8 
REMARK    4  A    between atoms: C7_8  and  C9_10 
ROOT
HETATM    1  C9  UNL     1      -0.890  50.358 -22.096  1.00  0.00    -0.002 C 
HETATM    2  C10 UNL     1      -0.229  49.616 -20.895  1.00  0.00     0.006 C 
HETATM    3  C11 UNL     1      -1.346  48.855 -20.149  1.00  0.00     0.011 C 
HETATM    4  C12 UNL     1      -2.549  48.888 -21.107  1.00  0.00    -0.032 C 
HETATM    5  C13 UNL     1      -2.283  47.736 -22.144  1.00  0.00     0.016 C 
HETATM    6  C14 UNL     1      -3.977  48.624 -20.521  1.00  0.00     0.004 C 
HETATM    7  C15 UNL     1      -4.108  48.700 -18.996  1.00  0.00     0.007 C 
HETATM    8  C16 UNL     1      -5.529  48.395 -18.481  1.00  0.00     0.007 C 
HETATM    9  C17 UNL     1      -6.587  48.109 -19.576  1.00  0.00     0.010 C 
HETATM   10  C18 UNL     1      -8.051  48.016 -19.039  1.00  0.00     0.018 C 
HETATM   11  C19 UNL     1      -8.573  49.344 -18.465  1.00  0.00     0.023 C 
HETATM   12  C20 UNL     1      -8.164  46.926 -17.957  1.00  0.00     0.023 C 
HETATM   13  C21 UNL     1      -8.981  47.619 -20.197  1.00  0.00     0.135 C 
HETATM   14  O2  UNL     1     -10.142  47.248 -20.003  1.00  0.00    -0.297 OA
HETATM   15  C22 UNL     1      -8.425  47.670 -21.600  1.00  0.00     0.080 C 
HETATM   16  C23 UNL     1      -7.616  48.941 -21.791  1.00  0.00     0.018 C 
HETATM   17  C24 UNL     1      -6.491  49.075 -20.775  1.00  0.00    -0.026 A 
HETATM   18  C25 UNL     1      -5.958  50.466 -20.534  1.00  0.00     0.021 A 
HETATM   19  C26 UNL     1      -5.068  49.451 -21.238  1.00  0.00    -0.027 A 
HETATM   20  C27 UNL     1      -4.755  49.772 -22.691  1.00  0.00     0.011 C 
HETATM   21  C28 UNL     1      -3.398  50.479 -22.896  1.00  0.00     0.011 C 
HETATM   22  C29 UNL     1      -2.409  50.330 -21.719  1.00  0.00    -0.032 C 
HETATM   23  C30 UNL     1      -2.674  51.474 -20.695  1.00  0.00     0.016 C 
ENDROOT
BRANCH   1  24
HETATM   24  C7  UNL     1      -0.193  51.712 -22.411  1.00  0.00    -0.007 C 
HETATM   25  C8  UNL     1      -0.098  52.627 -21.186  1.00  0.00     0.011 C 
BRANCH  24  26
HETATM   26  C6  UNL     1      -0.854  52.474 -23.583  1.00  0.00     0.087 C 
BRANCH  26  27
HETATM   27  C5  UNL     1       0.130  53.091 -24.563  1.00  0.00     0.149 C 
HETATM   28  O1  UNL     1       1.012  53.863 -24.195  1.00  0.00    -0.293 OA
BRANCH  27  29
HETATM   29  C4  UNL     1      -0.033  52.727 -26.002  1.00  0.00     0.052 C 
HETATM   30  C2  UNL     1       0.847  52.003 -26.718  1.00  0.00    -0.084 C 
HETATM   31  C1  UNL     1       2.111  51.393 -26.177  1.00  0.00     0.043 C 
HETATM   32  C3  UNL     1       0.601  51.732 -28.179  1.00  0.00     0.043 C 
ENDBRANCH  27  29
ENDBRANCH  26  27
ENDBRANCH  24  26
ENDBRANCH   1  24
TORSDOF 4
ENDMDL
MODEL 9
REMARK minimizedAffinity -8.76583385
REMARK  4 active torsions:
REMARK  status: ('A' for Active; 'I' for Inactive)
REMARK    1  A    between atoms: C4_4  and  C5_5 
REMARK    2  A    between atoms: C5_5  and  C6_7 
REMARK    3  A    between atoms: C6_7  and  C7_8 
REMARK    4  A    between atoms: C7_8  and  C9_10 
ROOT
HETATM    1  C9  UNL     1      -6.451  48.365 -20.366  1.00  0.00    -0.002 C 
HETATM    2  C10 UNL     1      -6.446  47.092 -21.265  1.00  0.00     0.006 C 
HETATM    3  C11 UNL     1      -5.303  47.252 -22.289  1.00  0.00     0.011 C 
HETATM    4  C12 UNL     1      -4.465  48.429 -21.761  1.00  0.00    -0.032 C 
HETATM    5  C13 UNL     1      -3.547  47.812 -20.642  1.00  0.00     0.016 C 
HETATM    6  C14 UNL     1      -3.505  49.168 -22.752  1.00  0.00     0.004 C 
HETATM    7  C15 UNL     1      -3.730  48.892 -24.243  1.00  0.00     0.007 C 
HETATM    8  C16 UNL     1      -2.731  49.621 -25.165  1.00  0.00     0.007 C 
HETATM    9  C17 UNL     1      -1.706  50.533 -24.446  1.00  0.00     0.010 C 
HETATM   10  C18 UNL     1      -0.852  51.417 -25.411  1.00  0.00     0.018 C 
HETATM   11  C19 UNL     1      -1.684  52.458 -26.177  1.00  0.00     0.023 C 
HETATM   12  C20 UNL     1      -0.095  50.538 -26.424  1.00  0.00     0.023 C 
HETATM   13  C21 UNL     1       0.196  52.183 -24.587  1.00  0.00     0.135 C 
HETATM   14  O2  UNL     1       1.145  52.765 -25.119  1.00  0.00    -0.297 OA
HETATM   15  C22 UNL     1       0.050  52.185 -23.084  1.00  0.00     0.080 C 
HETATM   16  C23 UNL     1      -1.403  52.414 -22.705  1.00  0.00     0.018 C 
HETATM   17  C24 UNL     1      -2.335  51.380 -23.321  1.00  0.00    -0.026 A 
HETATM   18  C25 UNL     1      -3.788  51.768 -23.444  1.00  0.00     0.021 A 
HETATM   19  C26 UNL     1      -3.401  50.680 -22.452  1.00  0.00    -0.027 A 
HETATM   20  C27 UNL     1      -3.609  51.042 -20.990  1.00  0.00     0.011 C 
HETATM   21  C28 UNL     1      -4.937  50.522 -20.400  1.00  0.00     0.011 C 
HETATM   22  C29 UNL     1      -5.591  49.373 -21.200  1.00  0.00    -0.032 C 
HETATM   23  C30 UNL     1      -6.502  49.988 -22.304  1.00  0.00     0.016 C 
ENDROOT
BRANCH   1  24
HETATM   24  C7  UNL     1      -7.884  48.760 -19.909  1.00  0.00    -0.007 C 
HETATM   25  C8  UNL     1      -8.009  48.868 -18.385  1.00  0.00     0.011 C 
BRANCH  24  26
HETATM   26  C6  UNL     1      -8.977  47.813 -20.458  1.00  0.00     0.087 C 
BRANCH  26  27
HETATM   27  C5  UNL     1      -9.971  47.333 -19.414  1.00  0.00     0.149 C 
HETATM   28  O1  UNL     1      -9.751  46.346 -18.716  1.00  0.00    -0.293 OA
BRANCH  27  29
HETATM   29  C4  UNL     1     -11.240  48.108 -19.285  1.00  0.00     0.052 C 
HETATM   30  C2  UNL     1     -12.344  47.908 -20.029  1.00  0.00    -0.084 C 
HETATM   31  C1  UNL     1     -12.502  46.838 -21.075  1.00  0.00     0.043 C 
HETATM   32  C3  UNL     1     -13.558  48.780 -19.844  1.00  0.00     0.043 C 
ENDBRANCH  27  29
ENDBRANCH  26  27
ENDBRANCH  24  26
ENDBRANCH   1  24
TORSDOF 4
ENDMDL
