MODEL 1
REMARK minimizedAffinity -9.04357815
REMARK CNNscore 0.463179827
REMARK CNNaffinity 7.17456293
REMARK  8 active torsions:
REMARK  status: ('A' for Active; 'I' for Inactive)
REMARK    1  A    between atoms: C2_2  and  C3_3 
REMARK    2  A    between atoms: C2_2  and  C9_11 
REMARK    3  A    between atoms: C3_3  and  C4_4 
REMARK    4  A    between atoms: C4_4  and  C5_5 
REMARK    5  A    between atoms: C6_6  and  C7_7 
REMARK    6  A    between atoms: C6_6  and  C8_9 
REMARK    7  A    between atoms: C7_7  and  O1_8 
REMARK    8  A    between atoms: C8_9  and  O2_10 
ROOT
HETATM    1  C9  UNL     1      -6.419   6.673  15.339  1.00  0.00     0.018 C 
HETATM    2  C10 UNL     1      -6.479   8.208  15.535  1.00  0.00     0.010 C 
HETATM    3  C11 UNL     1      -5.017   8.692  15.441  1.00  0.00     0.011 C 
HETATM    4  C12 UNL     1      -4.371   7.757  14.391  1.00  0.00    -0.032 C 
HETATM    5  C13 UNL     1      -4.913   8.214  13.000  1.00  0.00     0.016 C 
HETATM    6  C14 UNL     1      -4.973   6.401  14.852  1.00  0.00     0.002 C 
HETATM    7  C15 UNL     1      -4.649   5.260  13.904  1.00  0.00     0.006 C 
HETATM    8  C16 UNL     1      -3.120   5.107  13.779  1.00  0.00     0.006 C 
HETATM    9  C17 UNL     1      -2.394   6.430  13.401  1.00  0.00     0.003 C 
HETATM   10  C18 UNL     1      -0.856   6.258  13.035  1.00  0.00    -0.035 C 
HETATM   11  C19 UNL     1      -0.042   5.624  14.185  1.00  0.00     0.016 C 
HETATM   12  C20 UNL     1      -0.752   5.272  11.818  1.00  0.00     0.017 C 
HETATM   13  C21 UNL     1       0.384   5.542  10.838  1.00  0.00     0.080 C 
HETATM   14  C22 UNL     1       1.536   6.272  11.478  1.00  0.00     0.135 C 
HETATM   15  O3  UNL     1       2.680   5.824  11.406  1.00  0.00    -0.297 OA
HETATM   16  C23 UNL     1       1.220   7.627  12.124  1.00  0.00     0.017 C 
HETATM   17  C24 UNL     1       2.232   7.896  13.253  1.00  0.00     0.023 C 
HETATM   18  C25 UNL     1       1.448   8.695  11.033  1.00  0.00     0.023 C 
HETATM   19  C26 UNL     1      -0.284   7.651  12.582  1.00  0.00     0.009 C 
HETATM   20  C27 UNL     1      -0.593   8.779  13.586  1.00  0.00     0.007 C 
HETATM   21  C28 UNL     1      -2.096   8.920  13.847  1.00  0.00     0.011 C 
HETATM   22  C29 UNL     1      -2.768   7.626  14.376  1.00  0.00    -0.032 C 
HETATM   23  C30 UNL     1      -2.229   7.392  15.817  1.00  0.00     0.016 C 
ENDROOT
BRANCH   1  24
HETATM   24  C2  UNL     1      -7.584   5.991  14.624  1.00  0.00    -0.084 C 
HETATM   25  C1  UNL     1      -8.608   6.757  14.199  1.00  0.00     0.014 C 
BRANCH  24  26
HETATM   26  C3  UNL     1      -7.546   4.480  14.441  1.00  0.00     0.037 C 
BRANCH  26  27
HETATM   27  C4  UNL     1      -7.926   3.868  13.077  1.00  0.00     0.032 C 
BRANCH  27  28
HETATM   28  C5  UNL     1      -6.813   3.970  12.063  1.00  0.00    -0.019 C 
HETATM   29  C6  UNL     1      -6.074   2.969  11.540  1.00  0.00    -0.037 C 
BRANCH  29  30
HETATM   30  C7  UNL     1      -4.965   3.268  10.565  1.00  0.00     0.200 C 
BRANCH  30  31
HETATM   31  O1  UNL     1      -5.473   3.105   9.245  1.00  0.00    -0.397 OA
HETATM   32  H10 UNL     1      -4.707   3.160   8.647  1.00  0.00     0.209 HD
ENDBRANCH  30  31
ENDBRANCH  29  30
BRANCH  29  33
HETATM   33  C8  UNL     1      -6.260   1.504  11.840  1.00  0.00     0.200 C 
BRANCH  33  34
HETATM   34  O2  UNL     1      -7.512   1.302  12.477  1.00  0.00    -0.397 OA
HETATM   35  H13 UNL     1      -7.623   2.061  13.087  1.00  0.00     0.209 HD
ENDBRANCH  33  34
ENDBRANCH  29  33
ENDBRANCH  27  28
ENDBRANCH  26  27
ENDBRANCH  24  26
ENDBRANCH   1  24
TORSDOF 8
ENDMDL
MODEL 2
REMARK minimizedAffinity -6.53082514
REMARK CNNscore 0.44325459
REMARK CNNaffinity 6.78133631
REMARK  8 active torsions:
REMARK  status: ('A' for Active; 'I' for Inactive)
REMARK    1  A    between atoms: C2_2  and  C3_3 
REMARK    2  A    between atoms: C2_2  and  C9_11 
REMARK    3  A    between atoms: C3_3  and  C4_4 
REMARK    4  A    between atoms: C4_4  and  C5_5 
REMARK    5  A    between atoms: C6_6  and  C7_7 
REMARK    6  A    between atoms: C6_6  and  C8_9 
REMARK    7  A    between atoms: C7_7  and  O1_8 
REMARK    8  A    between atoms: C8_9  and  O2_10 
ROOT
HETATM    1  C9  UNL     1      -2.186   9.901  16.045  1.00  0.00     0.018 C 
HETATM    2  C10 UNL     1      -0.906   9.239  15.477  1.00  0.00     0.010 C 
HETATM    3  C11 UNL     1      -1.319   7.801  15.102  1.00  0.00     0.011 C 
HETATM    4  C12 UNL     1      -2.780   7.938  14.609  1.00  0.00    -0.032 C 
HETATM    5  C13 UNL     1      -2.708   8.592  13.194  1.00  0.00     0.016 C 
HETATM    6  C14 UNL     1      -3.325   8.910  15.692  1.00  0.00     0.002 C 
HETATM    7  C15 UNL     1      -4.737   9.385  15.400  1.00  0.00     0.006 C 
HETATM    8  C16 UNL     1      -5.683   8.171  15.302  1.00  0.00     0.006 C 
HETATM    9  C17 UNL     1      -5.194   7.083  14.303  1.00  0.00     0.003 C 
HETATM   10  C18 UNL     1      -6.253   5.937  14.004  1.00  0.00    -0.035 C 
HETATM   11  C19 UNL     1      -6.695   5.190  15.283  1.00  0.00     0.016 C 
HETATM   12  C20 UNL     1      -7.542   6.607  13.412  1.00  0.00     0.017 C 
HETATM   13  C21 UNL     1      -8.306   5.787  12.377  1.00  0.00     0.080 C 
HETATM   14  C22 UNL     1      -8.081   4.306  12.538  1.00  0.00     0.135 C 
HETATM   15  O3  UNL     1      -9.035   3.534  12.646  1.00  0.00    -0.297 OA
HETATM   16  C23 UNL     1      -6.629   3.816  12.462  1.00  0.00     0.017 C 
HETATM   17  C24 UNL     1      -6.491   2.518  13.279  1.00  0.00     0.023 C 
HETATM   18  C25 UNL     1      -6.364   3.463  10.983  1.00  0.00     0.023 C 
HETATM   19  C26 UNL     1      -5.662   4.972  12.912  1.00  0.00     0.009 C 
HETATM   20  C27 UNL     1      -4.245   4.475  13.259  1.00  0.00     0.007 C 
HETATM   21  C28 UNL     1      -3.267   5.634  13.479  1.00  0.00     0.011 C 
HETATM   22  C29 UNL     1      -3.702   6.621  14.594  1.00  0.00    -0.032 C 
HETATM   23  C30 UNL     1      -3.582   5.859  15.946  1.00  0.00     0.016 C 
ENDROOT
BRANCH   1  24
HETATM   24  C2  UNL     1      -2.397  11.393  15.795  1.00  0.00    -0.084 C 
HETATM   25  C1  UNL     1      -2.084  11.888  14.582  1.00  0.00     0.014 C 
BRANCH  24  26
HETATM   26  C3  UNL     1      -2.931  12.256  16.931  1.00  0.00     0.037 C 
BRANCH  26  27
HETATM   27  C4  UNL     1      -4.412  12.690  16.927  1.00  0.00     0.032 C 
BRANCH  27  28
HETATM   28  C5  UNL     1      -4.579  14.190  16.914  1.00  0.00    -0.019 C 
HETATM   29  C6  UNL     1      -4.724  14.998  15.843  1.00  0.00    -0.037 C 
BRANCH  29  30
HETATM   30  C7  UNL     1      -4.834  16.490  16.023  1.00  0.00     0.200 C 
BRANCH  30  31
HETATM   31  O1  UNL     1      -5.391  17.044  14.836  1.00  0.00    -0.397 OA
HETATM   32  H10 UNL     1      -5.315  18.011  14.922  1.00  0.00     0.209 HD
ENDBRANCH  30  31
ENDBRANCH  29  30
BRANCH  29  33
HETATM   33  C8  UNL     1      -4.800  14.536  14.411  1.00  0.00     0.200 C 
BRANCH  33  34
HETATM   34  O2  UNL     1      -3.635  14.947  13.712  1.00  0.00    -0.397 OA
HETATM   35  H13 UNL     1      -3.431  15.846  14.046  1.00  0.00     0.209 HD
ENDBRANCH  33  34
ENDBRANCH  29  33
ENDBRANCH  27  28
ENDBRANCH  26  27
ENDBRANCH  24  26
ENDBRANCH   1  24
TORSDOF 8
ENDMDL
MODEL 3
REMARK minimizedAffinity -6.5827775
REMARK CNNscore 0.430929601
REMARK CNNaffinity 5.62617254
REMARK  8 active torsions:
REMARK  status: ('A' for Active; 'I' for Inactive)
REMARK    1  A    between atoms: C2_2  and  C3_3 
REMARK    2  A    between atoms: C2_2  and  C9_11 
REMARK    3  A    between atoms: C3_3  and  C4_4 
REMARK    4  A    between atoms: C4_4  and  C5_5 
REMARK    5  A    between atoms: C6_6  and  C7_7 
REMARK    6  A    between atoms: C6_6  and  C8_9 
REMARK    7  A    between atoms: C7_7  and  O1_8 
REMARK    8  A    between atoms: C8_9  and  O2_10 
ROOT
HETATM    1  C9  UNL     1      -3.850 -11.717   4.754  1.00  0.00     0.018 C 
HETATM    2  C10 UNL     1      -2.539 -11.857   3.942  1.00  0.00     0.010 C 
HETATM    3  C11 UNL     1      -2.979 -11.968   2.467  1.00  0.00     0.011 C 
HETATM    4  C12 UNL     1      -4.224 -11.054   2.369  1.00  0.00    -0.032 C 
HETATM    5  C13 UNL     1      -3.696  -9.586   2.399  1.00  0.00     0.016 C 
HETATM    6  C14 UNL     1      -4.943 -11.459   3.686  1.00  0.00     0.002 C 
HETATM    7  C15 UNL     1      -6.163 -10.604   3.979  1.00  0.00     0.006 C 
HETATM    8  C16 UNL     1      -7.165 -10.713   2.812  1.00  0.00     0.006 C 
HETATM    9  C17 UNL     1      -6.535 -10.410   1.422  1.00  0.00     0.003 C 
HETATM   10  C18 UNL     1      -7.583 -10.283   0.235  1.00  0.00    -0.035 C 
HETATM   11  C19 UNL     1      -8.437 -11.559   0.060  1.00  0.00     0.016 C 
HETATM   12  C20 UNL     1      -8.582  -9.124   0.588  1.00  0.00     0.017 C 
HETATM   13  C21 UNL     1      -9.110  -8.317  -0.593  1.00  0.00     0.080 C 
HETATM   14  C22 UNL     1      -9.094  -9.100  -1.879  1.00  0.00     0.135 C 
HETATM   15  O3  UNL     1     -10.115  -9.214  -2.558  1.00  0.00    -0.297 OA
HETATM   16  C23 UNL     1      -7.737  -9.653  -2.333  1.00  0.00     0.017 C 
HETATM   17  C24 UNL     1      -7.965 -10.912  -3.190  1.00  0.00     0.023 C 
HETATM   18  C25 UNL     1      -7.111  -8.578  -3.248  1.00  0.00     0.023 C 
HETATM   19  C26 UNL     1      -6.817  -9.881  -1.078  1.00  0.00     0.009 C 
HETATM   20  C27 UNL     1      -5.610 -10.794  -1.369  1.00  0.00     0.007 C 
HETATM   21  C28 UNL     1      -4.617 -10.823  -0.203  1.00  0.00     0.011 C 
HETATM   22  C29 UNL     1      -5.238 -11.283   1.142  1.00  0.00    -0.032 C 
HETATM   23  C30 UNL     1      -5.576 -12.795   0.991  1.00  0.00     0.016 C 
ENDROOT
BRANCH   1  24
HETATM   24  C2  UNL     1      -3.828 -10.856   6.015  1.00  0.00    -0.084 C 
HETATM   25  C1  UNL     1      -3.077  -9.737   6.011  1.00  0.00     0.014 C 
BRANCH  24  26
HETATM   26  C3  UNL     1      -4.635 -11.309   7.225  1.00  0.00     0.037 C 
BRANCH  26  27
HETATM   27  C4  UNL     1      -4.463 -10.576   8.572  1.00  0.00     0.032 C 
BRANCH  27  28
HETATM   28  C5  UNL     1      -5.571  -9.588   8.842  1.00  0.00    -0.019 C 
HETATM   29  C6  UNL     1      -5.989  -9.118  10.037  1.00  0.00    -0.037 C 
BRANCH  29  30
HETATM   30  C7  UNL     1      -7.151  -8.161  10.117  1.00  0.00     0.200 C 
BRANCH  30  31
HETATM   31  O1  UNL     1      -7.750  -8.077   8.829  1.00  0.00    -0.397 OA
HETATM   32  H10 UNL     1      -8.397  -7.350   8.874  1.00  0.00     0.209 HD
ENDBRANCH  30  31
ENDBRANCH  29  30
BRANCH  29  33
HETATM   33  C8  UNL     1      -5.373  -9.461  11.369  1.00  0.00     0.200 C 
BRANCH  33  34
HETATM   34  O2  UNL     1      -5.870  -8.583  12.366  1.00  0.00    -0.397 OA
HETATM   35  H13 UNL     1      -5.927  -7.703  11.938  1.00  0.00     0.209 HD
ENDBRANCH  33  34
ENDBRANCH  29  33
ENDBRANCH  27  28
ENDBRANCH  26  27
ENDBRANCH  24  26
ENDBRANCH   1  24
TORSDOF 8
ENDMDL
MODEL 4
REMARK minimizedAffinity -7.06603813
REMARK CNNscore 0.364692122
REMARK CNNaffinity 6.50970984
REMARK  8 active torsions:
REMARK  status: ('A' for Active; 'I' for Inactive)
REMARK    1  A    between atoms: C2_2  and  C3_3 
REMARK    2  A    between atoms: C2_2  and  C9_11 
REMARK    3  A    between atoms: C3_3  and  C4_4 
REMARK    4  A    between atoms: C4_4  and  C5_5 
REMARK    5  A    between atoms: C6_6  and  C7_7 
REMARK    6  A    between atoms: C6_6  and  C8_9 
REMARK    7  A    between atoms: C7_7  and  O1_8 
REMARK    8  A    between atoms: C8_9  and  O2_10 
ROOT
HETATM    1  C9  UNL     1       0.491  12.680  17.526  1.00  0.00     0.018 C 
HETATM    2  C10 UNL     1      -0.705  13.369  18.229  1.00  0.00     0.010 C 
HETATM    3  C11 UNL     1      -1.965  12.811  17.536  1.00  0.00     0.011 C 
HETATM    4  C12 UNL     1      -1.601  11.344  17.202  1.00  0.00    -0.032 C 
HETATM    5  C13 UNL     1      -1.647  10.560  18.550  1.00  0.00     0.016 C 
HETATM    6  C14 UNL     1      -0.153  11.553  16.679  1.00  0.00     0.002 C 
HETATM    7  C15 UNL     1       0.569  10.246  16.404  1.00  0.00     0.006 C 
HETATM    8  C16 UNL     1      -0.221   9.426  15.364  1.00  0.00     0.006 C 
HETATM    9  C17 UNL     1      -1.717   9.222  15.740  1.00  0.00     0.003 C 
HETATM   10  C18 UNL     1      -2.496   8.191  14.816  1.00  0.00    -0.035 C 
HETATM   11  C19 UNL     1      -2.471   8.597  13.325  1.00  0.00     0.016 C 
HETATM   12  C20 UNL     1      -1.769   6.804  14.912  1.00  0.00     0.017 C 
HETATM   13  C21 UNL     1      -2.664   5.573  14.812  1.00  0.00     0.080 C 
HETATM   14  C22 UNL     1      -3.936   5.847  14.053  1.00  0.00     0.135 C 
HETATM   15  O3  UNL     1      -4.259   5.144  13.095  1.00  0.00    -0.297 OA
HETATM   16  C23 UNL     1      -4.834   6.967  14.594  1.00  0.00     0.017 C 
HETATM   17  C24 UNL     1      -5.653   7.562  13.433  1.00  0.00     0.023 C 
HETATM   18  C25 UNL     1      -5.829   6.297  15.566  1.00  0.00     0.023 C 
HETATM   19  C26 UNL     1      -3.956   8.014  15.372  1.00  0.00     0.009 C 
HETATM   20  C27 UNL     1      -4.676   9.358  15.600  1.00  0.00     0.007 C 
HETATM   21  C28 UNL     1      -3.892  10.276  16.544  1.00  0.00     0.011 C 
HETATM   22  C29 UNL     1      -2.452  10.593  16.062  1.00  0.00    -0.032 C 
HETATM   23  C30 UNL     1      -2.584  11.493  14.800  1.00  0.00     0.016 C 
ENDROOT
BRANCH   1  24
HETATM   24  C2  UNL     1       1.732  12.364  18.360  1.00  0.00    -0.084 C 
HETATM   25  C1  UNL     1       2.938  12.703  17.863  1.00  0.00     0.014 C 
BRANCH  24  26
HETATM   26  C3  UNL     1       1.553  11.663  19.700  1.00  0.00     0.037 C 
BRANCH  26  27
HETATM   27  C4  UNL     1       2.331  10.362  19.989  1.00  0.00     0.032 C 
BRANCH  27  28
HETATM   28  C5  UNL     1       3.282  10.499  21.152  1.00  0.00    -0.019 C 
HETATM   29  C6  UNL     1       3.313   9.768  22.287  1.00  0.00    -0.037 C 
BRANCH  29  30
HETATM   30  C7  UNL     1       4.315  10.081  23.369  1.00  0.00     0.200 C 
BRANCH  30  31
HETATM   31  O1  UNL     1       5.188  11.097  22.890  1.00  0.00    -0.397 OA
HETATM   32  H10 UNL     1       5.905  11.174  23.544  1.00  0.00     0.209 HD
ENDBRANCH  30  31
ENDBRANCH  29  30
BRANCH  29  33
HETATM   33  C8  UNL     1       2.406   8.605  22.596  1.00  0.00     0.200 C 
BRANCH  33  34
HETATM   34  O2  UNL     1       2.314   8.430  24.001  1.00  0.00    -0.397 OA
HETATM   35  H13 UNL     1       3.215   8.601  24.347  1.00  0.00     0.209 HD
ENDBRANCH  33  34
ENDBRANCH  29  33
ENDBRANCH  27  28
ENDBRANCH  26  27
ENDBRANCH  24  26
ENDBRANCH   1  24
TORSDOF 8
ENDMDL
MODEL 5
REMARK minimizedAffinity -6.74142599
REMARK CNNscore 0.317191333
REMARK CNNaffinity 6.96764183
REMARK  8 active torsions:
REMARK  status: ('A' for Active; 'I' for Inactive)
REMARK    1  A    between atoms: C2_2  and  C3_3 
REMARK    2  A    between atoms: C2_2  and  C9_11 
REMARK    3  A    between atoms: C3_3  and  C4_4 
REMARK    4  A    between atoms: C4_4  and  C5_5 
REMARK    5  A    between atoms: C6_6  and  C7_7 
REMARK    6  A    between atoms: C6_6  and  C8_9 
REMARK    7  A    between atoms: C7_7  and  O1_8 
REMARK    8  A    between atoms: C8_9  and  O2_10 
ROOT
HETATM    1  C9  UNL     1     -10.526   7.092  14.836  1.00  0.00     0.018 C 
HETATM    2  C10 UNL     1     -11.934   6.694  14.329  1.00  0.00     0.010 C 
HETATM    3  C11 UNL     1     -12.816   7.941  14.546  1.00  0.00     0.011 C 
HETATM    4  C12 UNL     1     -11.866   9.134  14.282  1.00  0.00    -0.032 C 
HETATM    5  C13 UNL     1     -11.657   9.198  12.737  1.00  0.00     0.016 C 
HETATM    6  C14 UNL     1     -10.606   8.627  15.037  1.00  0.00     0.002 C 
HETATM    7  C15 UNL     1      -9.397   9.525  14.835  1.00  0.00     0.006 C 
HETATM    8  C16 UNL     1      -9.725  10.952  15.318  1.00  0.00     0.006 C 
HETATM    9  C17 UNL     1     -11.023  11.537  14.690  1.00  0.00     0.003 C 
HETATM   10  C18 UNL     1     -11.261  13.081  14.983  1.00  0.00    -0.035 C 
HETATM   11  C19 UNL     1     -11.326  13.394  16.495  1.00  0.00     0.016 C 
HETATM   12  C20 UNL     1     -10.035  13.879  14.415  1.00  0.00     0.017 C 
HETATM   13  C21 UNL     1     -10.340  15.269  13.867  1.00  0.00     0.080 C 
HETATM   14  C22 UNL     1     -11.570  15.876  14.489  1.00  0.00     0.135 C 
HETATM   15  O3  UNL     1     -11.525  16.990  15.011  1.00  0.00    -0.297 OA
HETATM   16  C23 UNL     1     -12.876  15.083  14.350  1.00  0.00     0.017 C 
HETATM   17  C24 UNL     1     -13.804  15.427  15.530  1.00  0.00     0.023 C 
HETATM   18  C25 UNL     1     -13.559  15.588  13.061  1.00  0.00     0.023 C 
HETATM   19  C26 UNL     1     -12.547  13.551  14.209  1.00  0.00     0.009 C 
HETATM   20  C27 UNL     1     -13.765  12.644  14.469  1.00  0.00     0.007 C 
HETATM   21  C28 UNL     1     -13.479  11.181  14.113  1.00  0.00     0.011 C 
HETATM   22  C29 UNL     1     -12.272  10.573  14.874  1.00  0.00    -0.032 C 
HETATM   23  C30 UNL     1     -12.695  10.447  16.366  1.00  0.00     0.016 C 
ENDROOT
BRANCH   1  24
HETATM   24  C2  UNL     1      -9.311   6.500  14.124  1.00  0.00    -0.084 C 
HETATM   25  C1  UNL     1      -9.413   6.222  12.810  1.00  0.00     0.014 C 
BRANCH  24  26
HETATM   26  C3  UNL     1      -8.050   6.230  14.934  1.00  0.00     0.037 C 
BRANCH  26  27
HETATM   27  C4  UNL     1      -7.517   4.786  15.056  1.00  0.00     0.032 C 
BRANCH  27  28
HETATM   28  C5  UNL     1      -6.473   4.461  14.016  1.00  0.00    -0.019 C 
HETATM   29  C6  UNL     1      -6.601   3.660  12.937  1.00  0.00    -0.037 C 
BRANCH  29  30
HETATM   30  C7  UNL     1      -5.426   3.416  12.025  1.00  0.00     0.200 C 
BRANCH  30  31
HETATM   31  O1  UNL     1      -5.835   2.519  10.998  1.00  0.00    -0.397 OA
HETATM   32  H10 UNL     1      -5.027   2.268  10.516  1.00  0.00     0.209 HD
ENDBRANCH  30  31
ENDBRANCH  29  30
BRANCH  29  33
HETATM   33  C8  UNL     1      -7.867   2.956  12.523  1.00  0.00     0.200 C 
BRANCH  33  34
HETATM   34  O2  UNL     1      -7.751   1.567  12.792  1.00  0.00    -0.397 OA
HETATM   35  H13 UNL     1      -6.828   1.331  12.564  1.00  0.00     0.209 HD
ENDBRANCH  33  34
ENDBRANCH  29  33
ENDBRANCH  27  28
ENDBRANCH  26  27
ENDBRANCH  24  26
ENDBRANCH   1  24
TORSDOF 8
ENDMDL
MODEL 6
REMARK minimizedAffinity -6.89925098
REMARK CNNscore 0.305420727
REMARK CNNaffinity 6.78007364
REMARK  8 active torsions:
REMARK  status: ('A' for Active; 'I' for Inactive)
REMARK    1  A    between atoms: C2_2  and  C3_3 
REMARK    2  A    between atoms: C2_2  and  C9_11 
REMARK    3  A    between atoms: C3_3  and  C4_4 
REMARK    4  A    between atoms: C4_4  and  C5_5 
REMARK    5  A    between atoms: C6_6  and  C7_7 
REMARK    6  A    between atoms: C6_6  and  C8_9 
REMARK    7  A    between atoms: C7_7  and  O1_8 
REMARK    8  A    between atoms: C8_9  and  O2_10 
ROOT
HETATM    1  C9  UNL     1     -10.629   7.590  14.899  1.00  0.00     0.018 C 
HETATM    2  C10 UNL     1     -11.544   6.666  14.056  1.00  0.00     0.010 C 
HETATM    3  C11 UNL     1     -12.830   7.481  13.805  1.00  0.00     0.011 C 
HETATM    4  C12 UNL     1     -12.338   8.941  13.665  1.00  0.00    -0.032 C 
HETATM    5  C13 UNL     1     -11.657   9.045  12.264  1.00  0.00     0.016 C 
HETATM    6  C14 UNL     1     -11.314   8.979  14.833  1.00  0.00     0.002 C 
HETATM    7  C15 UNL     1     -10.514  10.269  14.874  1.00  0.00     0.006 C 
HETATM    8  C16 UNL     1     -11.471  11.469  15.014  1.00  0.00     0.006 C 
HETATM    9  C17 UNL     1     -12.599  11.492  13.942  1.00  0.00     0.003 C 
HETATM   10  C18 UNL     1     -13.455  12.830  13.912  1.00  0.00    -0.035 C 
HETATM   11  C19 UNL     1     -14.134  13.129  15.268  1.00  0.00     0.016 C 
HETATM   12  C20 UNL     1     -12.479  14.027  13.629  1.00  0.00     0.017 C 
HETATM   13  C21 UNL     1     -13.056  15.178  12.811  1.00  0.00     0.080 C 
HETATM   14  C22 UNL     1     -14.554  15.276  12.933  1.00  0.00     0.135 C 
HETATM   15  O3  UNL     1     -15.088  16.333  13.269  1.00  0.00    -0.297 OA
HETATM   16  C23 UNL     1     -15.362  14.037  12.525  1.00  0.00     0.017 C 
HETATM   17  C24 UNL     1     -16.692  14.024  13.303  1.00  0.00     0.023 C 
HETATM   18  C25 UNL     1     -15.702  14.210  11.030  1.00  0.00     0.023 C 
HETATM   19  C26 UNL     1     -14.482  12.749  12.724  1.00  0.00     0.009 C 
HETATM   20  C27 UNL     1     -15.307  11.448  12.736  1.00  0.00     0.007 C 
HETATM   21  C28 UNL     1     -14.416  10.202  12.708  1.00  0.00     0.011 C 
HETATM   22  C29 UNL     1     -13.405  10.125  13.882  1.00  0.00    -0.032 C 
HETATM   23  C30 UNL     1     -14.232   9.880  15.177  1.00  0.00     0.016 C 
ENDROOT
BRANCH   1  24
HETATM   24  C2  UNL     1      -9.119   7.496  14.688  1.00  0.00    -0.084 C 
HETATM   25  C1  UNL     1      -8.331   8.396  15.308  1.00  0.00     0.014 C 
BRANCH  24  26
HETATM   26  C3  UNL     1      -8.576   6.408  13.772  1.00  0.00     0.037 C 
BRANCH  26  27
HETATM   27  C4  UNL     1      -7.524   5.415  14.310  1.00  0.00     0.032 C 
BRANCH  27  28
HETATM   28  C5  UNL     1      -7.572   4.079  13.611  1.00  0.00    -0.019 C 
HETATM   29  C6  UNL     1      -6.598   3.487  12.888  1.00  0.00    -0.037 C 
BRANCH  29  30
HETATM   30  C7  UNL     1      -6.845   2.159  12.218  1.00  0.00     0.200 C 
BRANCH  30  31
HETATM   31  O1  UNL     1      -8.146   1.710  12.581  1.00  0.00    -0.397 OA
HETATM   32  H10 UNL     1      -8.220   0.795  12.258  1.00  0.00     0.209 HD
ENDBRANCH  30  31
ENDBRANCH  29  30
BRANCH  29  33
HETATM   33  C8  UNL     1      -5.213   4.041  12.679  1.00  0.00     0.200 C 
BRANCH  33  34
HETATM   34  O2  UNL     1      -4.754   3.705  11.379  1.00  0.00    -0.397 OA
HETATM   35  H13 UNL     1      -5.068   2.790  11.217  1.00  0.00     0.209 HD
ENDBRANCH  33  34
ENDBRANCH  29  33
ENDBRANCH  27  28
ENDBRANCH  26  27
ENDBRANCH  24  26
ENDBRANCH   1  24
TORSDOF 8
ENDMDL
MODEL 7
REMARK minimizedAffinity -6.56976795
REMARK CNNscore 0.285507381
REMARK CNNaffinity 6.45238638
REMARK  8 active torsions:
REMARK  status: ('A' for Active; 'I' for Inactive)
REMARK    1  A    between atoms: C2_2  and  C3_3 
REMARK    2  A    between atoms: C2_2  and  C9_11 
REMARK    3  A    between atoms: C3_3  and  C4_4 
REMARK    4  A    between atoms: C4_4  and  C5_5 
REMARK    5  A    between atoms: C6_6  and  C7_7 
REMARK    6  A    between atoms: C6_6  and  C8_9 
REMARK    7  A    between atoms: C7_7  and  O1_8 
REMARK    8  A    between atoms: C8_9  and  O2_10 
ROOT
HETATM    1  C9  UNL     1     -15.180   2.802  26.242  1.00  0.00     0.018 C 
HETATM    2  C10 UNL     1     -15.142   2.056  24.886  1.00  0.00     0.010 C 
HETATM    3  C11 UNL     1     -15.134   3.161  23.809  1.00  0.00     0.011 C 
HETATM    4  C12 UNL     1     -14.306   4.305  24.441  1.00  0.00    -0.032 C 
HETATM    5  C13 UNL     1     -12.814   3.849  24.392  1.00  0.00     0.016 C 
HETATM    6  C14 UNL     1     -14.893   4.282  25.879  1.00  0.00     0.002 C 
HETATM    7  C15 UNL     1     -14.161   5.212  26.830  1.00  0.00     0.006 C 
HETATM    8  C16 UNL     1     -14.222   6.656  26.293  1.00  0.00     0.006 C 
HETATM    9  C17 UNL     1     -13.735   6.791  24.821  1.00  0.00     0.003 C 
HETATM   10  C18 UNL     1     -13.563   8.289  24.317  1.00  0.00    -0.035 C 
HETATM   11  C19 UNL     1     -14.873   9.103  24.422  1.00  0.00     0.016 C 
HETATM   12  C20 UNL     1     -12.521   9.001  25.250  1.00  0.00     0.017 C 
HETATM   13  C21 UNL     1     -11.638  10.050  24.584  1.00  0.00     0.080 C 
HETATM   14  C22 UNL     1     -12.283  10.656  23.365  1.00  0.00     0.135 C 
HETATM   15  O3  UNL     1     -12.400  11.877  23.259  1.00  0.00    -0.297 OA
HETATM   16  C23 UNL     1     -12.688   9.689  22.246  1.00  0.00     0.017 C 
HETATM   17  C24 UNL     1     -13.867  10.292  21.459  1.00  0.00     0.023 C 
HETATM   18  C25 UNL     1     -11.484   9.605  21.284  1.00  0.00     0.023 C 
HETATM   19  C26 UNL     1     -12.976   8.269  22.859  1.00  0.00     0.009 C 
HETATM   20  C27 UNL     1     -13.767   7.348  21.909  1.00  0.00     0.007 C 
HETATM   21  C28 UNL     1     -13.843   5.911  22.433  1.00  0.00     0.011 C 
HETATM   22  C29 UNL     1     -14.481   5.788  23.842  1.00  0.00    -0.032 C 
HETATM   23  C30 UNL     1     -15.989   6.137  23.689  1.00  0.00     0.016 C 
ENDROOT
BRANCH   1  24
HETATM   24  C2  UNL     1     -14.451   2.176  27.430  1.00  0.00    -0.084 C 
HETATM   25  C1  UNL     1     -15.184   1.539  28.364  1.00  0.00     0.014 C 
BRANCH  24  26
HETATM   26  C3  UNL     1     -12.937   2.316  27.516  1.00  0.00     0.037 C 
BRANCH  26  27
HETATM   27  C4  UNL     1     -12.277   2.626  28.876  1.00  0.00     0.032 C 
BRANCH  27  28
HETATM   28  C5  UNL     1     -12.885   3.827  29.557  1.00  0.00    -0.019 C 
HETATM   29  C6  UNL     1     -13.516   3.872  30.750  1.00  0.00    -0.037 C 
BRANCH  29  30
HETATM   30  C7  UNL     1     -14.103   5.165  31.254  1.00  0.00     0.200 C 
BRANCH  30  31
HETATM   31  O1  UNL     1     -13.118   5.829  32.038  1.00  0.00    -0.397 OA
HETATM   32  H10 UNL     1     -13.568   6.579  32.466  1.00  0.00     0.209 HD
ENDBRANCH  30  31
ENDBRANCH  29  30
BRANCH  29  33
HETATM   33  C8  UNL     1     -13.693   2.702  31.683  1.00  0.00     0.200 C 
BRANCH  33  34
HETATM   34  O2  UNL     1     -12.694   2.739  32.691  1.00  0.00    -0.397 OA
HETATM   35  H13 UNL     1     -11.875   3.031  32.239  1.00  0.00     0.209 HD
ENDBRANCH  33  34
ENDBRANCH  29  33
ENDBRANCH  27  28
ENDBRANCH  26  27
ENDBRANCH  24  26
ENDBRANCH   1  24
TORSDOF 8
ENDMDL
MODEL 8
REMARK minimizedAffinity -7.23364782
REMARK CNNscore 0.255776793
REMARK CNNaffinity 6.4536109
REMARK  8 active torsions:
REMARK  status: ('A' for Active; 'I' for Inactive)
REMARK    1  A    between atoms: C2_2  and  C3_3 
REMARK    2  A    between atoms: C2_2  and  C9_11 
REMARK    3  A    between atoms: C3_3  and  C4_4 
REMARK    4  A    between atoms: C4_4  and  C5_5 
REMARK    5  A    between atoms: C6_6  and  C7_7 
REMARK    6  A    between atoms: C6_6  and  C8_9 
REMARK    7  A    between atoms: C7_7  and  O1_8 
REMARK    8  A    between atoms: C8_9  and  O2_10 
ROOT
HETATM    1  C9  UNL     1      -3.755   5.206  13.074  1.00  0.00     0.018 C 
HETATM    2  C10 UNL     1      -2.854   4.391  14.036  1.00  0.00     0.010 C 
HETATM    3  C11 UNL     1      -1.943   5.430  14.723  1.00  0.00     0.011 C 
HETATM    4  C12 UNL     1      -2.837   6.684  14.874  1.00  0.00    -0.032 C 
HETATM    5  C13 UNL     1      -3.837   6.375  16.031  1.00  0.00     0.016 C 
HETATM    6  C14 UNL     1      -3.516   6.683  13.477  1.00  0.00     0.002 C 
HETATM    7  C15 UNL     1      -4.606   7.733  13.352  1.00  0.00     0.006 C 
HETATM    8  C16 UNL     1      -4.012   9.131  13.614  1.00  0.00     0.006 C 
HETATM    9  C17 UNL     1      -3.229   9.231  14.955  1.00  0.00     0.003 C 
HETATM   10  C18 UNL     1      -2.808  10.708  15.366  1.00  0.00    -0.035 C 
HETATM   11  C19 UNL     1      -1.931  11.393  14.294  1.00  0.00     0.016 C 
HETATM   12  C20 UNL     1      -4.114  11.570  15.490  1.00  0.00     0.017 C 
HETATM   13  C21 UNL     1      -4.093  12.662  16.554  1.00  0.00     0.080 C 
HETATM   14  C22 UNL     1      -2.697  13.133  16.868  1.00  0.00     0.135 C 
HETATM   15  O3  UNL     1      -2.409  14.328  16.809  1.00  0.00    -0.297 OA
HETATM   16  C23 UNL     1      -1.702  12.069  17.350  1.00  0.00     0.017 C 
HETATM   17  C24 UNL     1      -0.273  12.508  16.979  1.00  0.00     0.023 C 
HETATM   18  C25 UNL     1      -1.796  12.050  18.891  1.00  0.00     0.023 C 
HETATM   19  C26 UNL     1      -2.118  10.664  16.778  1.00  0.00     0.009 C 
HETATM   20  C27 UNL     1      -0.989   9.618  16.859  1.00  0.00     0.007 C 
HETATM   21  C28 UNL     1      -1.482   8.212  16.503  1.00  0.00     0.011 C 
HETATM   22  C29 UNL     1      -2.117   8.106  15.092  1.00  0.00    -0.032 C 
HETATM   23  C30 UNL     1      -0.967   8.296  14.061  1.00  0.00     0.016 C 
ENDROOT
BRANCH   1  24
HETATM   24  C2  UNL     1      -5.185   4.721  12.844  1.00  0.00    -0.084 C 
HETATM   25  C1  UNL     1      -6.110   4.990  13.786  1.00  0.00     0.014 C 
BRANCH  24  26
HETATM   26  C3  UNL     1      -5.497   3.940  11.574  1.00  0.00     0.037 C 
BRANCH  26  27
HETATM   27  C4  UNL     1      -4.394   3.083  10.918  1.00  0.00     0.032 C 
BRANCH  27  28
HETATM   28  C5  UNL     1      -3.060   3.787  10.871  1.00  0.00    -0.019 C 
HETATM   29  C6  UNL     1      -1.829   3.236  10.941  1.00  0.00    -0.037 C 
BRANCH  29  30
HETATM   30  C7  UNL     1      -0.601   4.109  10.923  1.00  0.00     0.200 C 
BRANCH  30  31
HETATM   31  O1  UNL     1       0.101   3.919  12.147  1.00  0.00    -0.397 OA
HETATM   32  H10 UNL     1       0.801   4.594  12.169  1.00  0.00     0.209 HD
ENDBRANCH  30  31
ENDBRANCH  29  30
BRANCH  29  33
HETATM   33  C8  UNL     1      -1.543   1.759  11.029  1.00  0.00     0.200 C 
BRANCH  33  34
HETATM   34  O2  UNL     1      -0.152   1.531  10.862  1.00  0.00    -0.397 OA
HETATM   35  H13 UNL     1       0.137   2.161  10.169  1.00  0.00     0.209 HD
ENDBRANCH  33  34
ENDBRANCH  29  33
ENDBRANCH  27  28
ENDBRANCH  26  27
ENDBRANCH  24  26
ENDBRANCH   1  24
TORSDOF 8
ENDMDL
MODEL 9
REMARK minimizedAffinity -7.51686716
REMARK CNNscore 0.251296371
REMARK CNNaffinity 6.8751092
REMARK  8 active torsions:
REMARK  status: ('A' for Active; 'I' for Inactive)
REMARK    1  A    between atoms: C2_2  and  C3_3 
REMARK    2  A    between atoms: C2_2  and  C9_11 
REMARK    3  A    between atoms: C3_3  and  C4_4 
REMARK    4  A    between atoms: C4_4  and  C5_5 
REMARK    5  A    between atoms: C6_6  and  C7_7 
REMARK    6  A    between atoms: C6_6  and  C8_9 
REMARK    7  A    between atoms: C7_7  and  O1_8 
REMARK    8  A    between atoms: C8_9  and  O2_10 
ROOT
HETATM    1  C9  UNL     1      -3.192   5.698  14.801  1.00  0.00     0.018 C 
HETATM    2  C10 UNL     1      -3.381   4.758  13.584  1.00  0.00     0.010 C 
HETATM    3  C11 UNL     1      -4.907   4.610  13.413  1.00  0.00     0.011 C 
HETATM    4  C12 UNL     1      -5.474   5.993  13.812  1.00  0.00    -0.032 C 
HETATM    5  C13 UNL     1      -5.147   6.961  12.633  1.00  0.00     0.016 C 
HETATM    6  C14 UNL     1      -4.607   6.270  15.072  1.00  0.00     0.002 C 
HETATM    7  C15 UNL     1      -4.813   7.665  15.634  1.00  0.00     0.006 C 
HETATM    8  C16 UNL     1      -6.297   7.864  15.999  1.00  0.00     0.006 C 
HETATM    9  C17 UNL     1      -7.273   7.533  14.833  1.00  0.00     0.003 C 
HETATM   10  C18 UNL     1      -8.784   7.949  15.097  1.00  0.00    -0.035 C 
HETATM   11  C19 UNL     1      -9.370   7.281  16.361  1.00  0.00     0.016 C 
HETATM   12  C20 UNL     1      -8.826   9.497  15.352  1.00  0.00     0.017 C 
HETATM   13  C21 UNL     1     -10.075  10.220  14.860  1.00  0.00     0.080 C 
HETATM   14  C22 UNL     1     -11.273   9.311  14.782  1.00  0.00     0.135 C 
HETATM   15  O3  UNL     1     -12.325   9.608  15.350  1.00  0.00    -0.297 OA
HETATM   16  C23 UNL     1     -11.139   8.069  13.891  1.00  0.00     0.017 C 
HETATM   17  C24 UNL     1     -12.077   6.966  14.418  1.00  0.00     0.023 C 
HETATM   18  C25 UNL     1     -11.646   8.478  12.492  1.00  0.00     0.023 C 
HETATM   19  C26 UNL     1      -9.627   7.647  13.804  1.00  0.00     0.009 C 
HETATM   20  C27 UNL     1      -9.428   6.209  13.284  1.00  0.00     0.007 C 
HETATM   21  C28 UNL     1      -7.955   5.899  13.001  1.00  0.00     0.011 C 
HETATM   22  C29 UNL     1      -7.025   6.086  14.228  1.00  0.00    -0.032 C 
HETATM   23  C30 UNL     1      -7.383   4.962  15.243  1.00  0.00     0.016 C 
ENDROOT
BRANCH   1  24
HETATM   24  C2  UNL     1      -1.997   6.649  14.798  1.00  0.00    -0.084 C 
HETATM   25  C1  UNL     1      -0.761   6.120  14.708  1.00  0.00     0.014 C 
BRANCH  24  26
HETATM   26  C3  UNL     1      -2.252   8.145  14.918  1.00  0.00     0.037 C 
BRANCH  26  27
HETATM   27  C4  UNL     1      -1.573   8.945  16.049  1.00  0.00     0.032 C 
BRANCH  27  28
HETATM   28  C5  UNL     1      -0.186   9.413  15.680  1.00  0.00    -0.019 C 
HETATM   29  C6  UNL     1       0.189  10.637  15.253  1.00  0.00    -0.037 C 
BRANCH  29  30
HETATM   30  C7  UNL     1       1.624  10.911  14.884  1.00  0.00     0.200 C 
BRANCH  30  31
HETATM   31  O1  UNL     1       1.849  10.421  13.567  1.00  0.00    -0.397 OA
HETATM   32  H10 UNL     1       2.809  10.477  13.414  1.00  0.00     0.209 HD
ENDBRANCH  30  31
ENDBRANCH  29  30
BRANCH  29  33
HETATM   33  C8  UNL     1      -0.727  11.825  15.110  1.00  0.00     0.200 C 
BRANCH  33  34
HETATM   34  O2  UNL     1      -1.413  11.754  13.869  1.00  0.00    -0.397 OA
HETATM   35  H13 UNL     1      -0.756  11.417  13.224  1.00  0.00     0.209 HD
ENDBRANCH  33  34
ENDBRANCH  29  33
ENDBRANCH  27  28
ENDBRANCH  26  27
ENDBRANCH  24  26
ENDBRANCH   1  24
TORSDOF 8
ENDMDL
