MODEL 1
REMARK minimizedAffinity -8.16604424
REMARK  10 active torsions:
REMARK  status: ('A' for Active; 'I' for Inactive)
REMARK    1  A    between atoms: O1_1  and  C1_2 
REMARK    2  A    between atoms: C1_2  and  C2_3 
REMARK    3  A    between atoms: C3_5  and  C4_6 
REMARK    4  A    between atoms: C4_6  and  O2_7 
REMARK    5  A    between atoms: C4_6  and  C5_8 
REMARK    6  A    between atoms: C5_8  and  C6_9 
REMARK    7  A    between atoms: C6_9  and  C7_10 
REMARK    8  A    between atoms: C7_10  and  C8_11 
REMARK    9  A    between atoms: C17_22  and  O5_23 
REMARK   10  A    between atoms: C18_24  and  O6_25 
ROOT
HETATM    1  C4  UNL     1      -2.265  51.249 -26.929  1.00  0.00     0.154 C 
ENDROOT
BRANCH   1   2
HETATM    2  C3  UNL     1      -1.125  51.055 -25.894  1.00  0.00     0.280 C 
HETATM    3  N1  UNL     1       0.167  50.617 -26.480  1.00  0.00     0.102 N 
HETATM    4  C2  UNL     1       1.111  51.754 -26.341  1.00  0.00     0.275 C 
HETATM    5  H5  UNL     1       0.078  50.351 -27.460  1.00  0.00     0.317 HD
HETATM    6  C18 UNL     1       0.690  52.416 -25.033  1.00  0.00     0.184 C 
HETATM    7  C17 UNL     1      -0.834  52.359 -25.121  1.00  0.00     0.184 C 
BRANCH   4   8
HETATM    8  C1  UNL     1       2.558  51.250 -26.304  1.00  0.00     0.202 C 
BRANCH   8   9
HETATM    9  O1  UNL     1       3.232  51.603 -27.515  1.00  0.00    -0.399 OA
HETATM   10  H1  UNL     1       2.892  52.493 -27.736  1.00  0.00     0.209 HD
ENDBRANCH   8   9
ENDBRANCH   4   8
BRANCH   6  11
HETATM   11  O6  UNL     1       1.146  53.761 -24.941  1.00  0.00    -0.391 OA
HETATM   12  H33 UNL     1       0.647  54.168 -24.206  1.00  0.00     0.210 HD
ENDBRANCH   6  11
BRANCH   7  13
HETATM   13  O5  UNL     1      -1.406  52.363 -23.811  1.00  0.00    -0.391 OA
HETATM   14  H31 UNL     1      -1.047  51.599 -23.324  1.00  0.00     0.210 HD
ENDBRANCH   7  13
ENDBRANCH   1   2
BRANCH   1  15
HETATM   15  O2  UNL     1      -1.786  52.000 -28.053  1.00  0.00    -0.393 OA
HETATM   16  H8  UNL     1      -1.143  51.452 -28.534  1.00  0.00     0.210 HD
ENDBRANCH   1  15
BRANCH   1  17
HETATM   17  C5  UNL     1      -2.895  49.951 -27.463  1.00  0.00     0.034 C 
BRANCH  17  18
HETATM   18  C6  UNL     1      -2.907  48.813 -26.444  1.00  0.00     0.005 C 
BRANCH  18  19
HETATM   19  C7  UNL     1      -4.282  48.550 -25.819  1.00  0.00     0.032 C 
BRANCH  19  20
HETATM   20  C8  UNL     1      -4.354  48.726 -24.295  1.00  0.00     0.125 C 
HETATM   21  C9  UNL     1      -5.585  48.075 -23.655  1.00  0.00     0.032 C 
HETATM   22  C10 UNL     1      -5.330  47.659 -22.206  1.00  0.00     0.008 C 
HETATM   23  C11 UNL     1      -4.267  48.548 -21.576  1.00  0.00     0.068 C 
HETATM   24  C12 UNL     1      -2.937  48.494 -22.374  1.00  0.00     0.164 C 
HETATM   25  C13 UNL     1      -1.964  47.423 -21.830  1.00  0.00     0.068 C 
HETATM   26  O3  UNL     1      -2.295  49.771 -22.374  1.00  0.00    -0.355 OA
HETATM   27  O4  UNL     1      -3.187  48.111 -23.740  1.00  0.00    -0.350 OA
HETATM   28  C14 UNL     1      -0.864  47.991 -20.935  1.00  0.00     0.007 C 
HETATM   29  C15 UNL     1      -1.359  49.194 -20.157  1.00  0.00     0.026 C 
HETATM   30  C16 UNL     1      -1.908  50.264 -21.094  1.00  0.00     0.171 C 
ENDBRANCH  19  20
ENDBRANCH  18  19
ENDBRANCH  17  18
ENDBRANCH   1  17
TORSDOF 10
ENDMDL
MODEL 2
REMARK minimizedAffinity -8.14592266
REMARK  10 active torsions:
REMARK  status: ('A' for Active; 'I' for Inactive)
REMARK    1  A    between atoms: O1_1  and  C1_2 
REMARK    2  A    between atoms: C1_2  and  C2_3 
REMARK    3  A    between atoms: C3_5  and  C4_6 
REMARK    4  A    between atoms: C4_6  and  O2_7 
REMARK    5  A    between atoms: C4_6  and  C5_8 
REMARK    6  A    between atoms: C5_8  and  C6_9 
REMARK    7  A    between atoms: C6_9  and  C7_10 
REMARK    8  A    between atoms: C7_10  and  C8_11 
REMARK    9  A    between atoms: C17_22  and  O5_23 
REMARK   10  A    between atoms: C18_24  and  O6_25 
ROOT
HETATM    1  C4  UNL     1      -2.104  52.344 -25.236  1.00  0.00     0.154 C 
ENDROOT
BRANCH   1   2
HETATM    2  C3  UNL     1      -0.747  52.900 -25.743  1.00  0.00     0.280 C 
HETATM    3  N1  UNL     1       0.441  52.153 -25.256  1.00  0.00     0.102 N 
HETATM    4  C2  UNL     1       1.023  51.458 -26.431  1.00  0.00     0.275 C 
HETATM    5  H5  UNL     1       0.204  51.479 -24.531  1.00  0.00     0.317 HD
HETATM    6  C18 UNL     1       0.750  52.412 -27.589  1.00  0.00     0.184 C 
HETATM    7  C17 UNL     1      -0.670  52.887 -27.284  1.00  0.00     0.184 C 
BRANCH   4   8
HETATM    8  C1  UNL     1       2.521  51.206 -26.220  1.00  0.00     0.202 C 
BRANCH   8   9
HETATM    9  O1  UNL     1       3.246  51.533 -27.409  1.00  0.00    -0.399 OA
HETATM   10  H1  UNL     1       2.795  52.326 -27.762  1.00  0.00     0.209 HD
ENDBRANCH   8   9
ENDBRANCH   4   8
BRANCH   6  11
HETATM   11  O6  UNL     1       0.808  51.756 -28.851  1.00  0.00    -0.391 OA
HETATM   12  H33 UNL     1       0.401  52.367 -29.495  1.00  0.00     0.210 HD
ENDBRANCH   6  11
BRANCH   7  13
HETATM   13  O5  UNL     1      -0.893  54.177 -27.858  1.00  0.00    -0.391 OA
HETATM   14  H31 UNL     1      -0.226  54.787 -27.496  1.00  0.00     0.210 HD
ENDBRANCH   7  13
ENDBRANCH   1   2
BRANCH   1  15
HETATM   15  O2  UNL     1      -3.176  52.853 -26.041  1.00  0.00    -0.393 OA
HETATM   16  H8  UNL     1      -3.099  52.468 -26.930  1.00  0.00     0.210 HD
ENDBRANCH   1  15
BRANCH   1  17
HETATM   17  C5  UNL     1      -2.219  50.811 -25.213  1.00  0.00     0.034 C 
BRANCH  17  18
HETATM   18  C6  UNL     1      -3.423  50.299 -24.422  1.00  0.00     0.005 C 
BRANCH  18  19
HETATM   19  C7  UNL     1      -3.221  48.909 -23.809  1.00  0.00     0.032 C 
BRANCH  19  20
HETATM   20  C8  UNL     1      -2.680  48.899 -22.371  1.00  0.00     0.125 C 
HETATM   21  C9  UNL     1      -2.021  47.576 -21.968  1.00  0.00     0.032 C 
HETATM   22  C10 UNL     1      -0.945  47.770 -20.899  1.00  0.00     0.008 C 
HETATM   23  C11 UNL     1      -1.251  48.997 -20.052  1.00  0.00     0.068 C 
HETATM   24  C12 UNL     1      -1.354  50.277 -20.924  1.00  0.00     0.164 C 
HETATM   25  C13 UNL     1      -0.008  51.030 -21.028  1.00  0.00     0.068 C 
HETATM   26  O3  UNL     1      -2.359  51.156 -20.416  1.00  0.00    -0.355 OA
HETATM   27  O4  UNL     1      -1.695  49.933 -22.281  1.00  0.00    -0.350 OA
HETATM   28  C14 UNL     1       0.094  52.235 -20.096  1.00  0.00     0.007 C 
HETATM   29  C15 UNL     1      -0.674  52.000 -18.811  1.00  0.00     0.026 C 
HETATM   30  C16 UNL     1      -2.132  51.655 -19.100  1.00  0.00     0.171 C 
ENDBRANCH  19  20
ENDBRANCH  18  19
ENDBRANCH  17  18
ENDBRANCH   1  17
TORSDOF 10
ENDMDL
MODEL 3
REMARK minimizedAffinity -8.1080246
REMARK  10 active torsions:
REMARK  status: ('A' for Active; 'I' for Inactive)
REMARK    1  A    between atoms: O1_1  and  C1_2 
REMARK    2  A    between atoms: C1_2  and  C2_3 
REMARK    3  A    between atoms: C3_5  and  C4_6 
REMARK    4  A    between atoms: C4_6  and  O2_7 
REMARK    5  A    between atoms: C4_6  and  C5_8 
REMARK    6  A    between atoms: C5_8  and  C6_9 
REMARK    7  A    between atoms: C6_9  and  C7_10 
REMARK    8  A    between atoms: C7_10  and  C8_11 
REMARK    9  A    between atoms: C17_22  and  O5_23 
REMARK   10  A    between atoms: C18_24  and  O6_25 
ROOT
HETATM    1  C4  UNL     1      -2.613  51.060 -27.229  1.00  0.00     0.154 C 
ENDROOT
BRANCH   1   2
HETATM    2  C3  UNL     1      -1.531  52.168 -27.325  1.00  0.00     0.280 C 
HETATM    3  N1  UNL     1      -1.455  53.053 -26.135  1.00  0.00     0.102 N 
HETATM    4  C2  UNL     1      -0.167  52.756 -25.460  1.00  0.00     0.275 C 
HETATM    5  H5  UNL     1      -2.231  52.906 -25.492  1.00  0.00     0.317 HD
HETATM    6  C18 UNL     1       0.775  52.412 -26.610  1.00  0.00     0.184 C 
HETATM    7  C17 UNL     1      -0.122  51.569 -27.516  1.00  0.00     0.184 C 
BRANCH   4   8
HETATM    8  C1  UNL     1       0.312  53.970 -24.654  1.00  0.00     0.202 C 
BRANCH   8   9
HETATM    9  O1  UNL     1       0.225  55.153 -25.453  1.00  0.00    -0.399 OA
HETATM   10  H1  UNL     1      -0.596  55.040 -25.973  1.00  0.00     0.209 HD
ENDBRANCH   8   9
ENDBRANCH   4   8
BRANCH   6  11
HETATM   11  O6  UNL     1       1.905  51.665 -26.174  1.00  0.00    -0.391 OA
HETATM   12  H33 UNL     1       2.316  51.297 -26.980  1.00  0.00     0.210 HD
ENDBRANCH   6  11
BRANCH   7  13
HETATM   13  O5  UNL     1       0.331  51.645 -28.869  1.00  0.00    -0.391 OA
HETATM   14  H31 UNL     1       0.329  52.583 -29.134  1.00  0.00     0.210 HD
ENDBRANCH   7  13
ENDBRANCH   1   2
BRANCH   1  15
HETATM   15  O2  UNL     1      -3.077  50.711 -28.541  1.00  0.00    -0.393 OA
HETATM   16  H8  UNL     1      -2.352  50.269 -29.013  1.00  0.00     0.210 HD
ENDBRANCH   1  15
BRANCH   1  17
HETATM   17  C5  UNL     1      -2.168  49.766 -26.527  1.00  0.00     0.034 C 
BRANCH  17  18
HETATM   18  C6  UNL     1      -3.079  48.572 -26.810  1.00  0.00     0.005 C 
BRANCH  18  19
HETATM   19  C7  UNL     1      -4.227  48.413 -25.807  1.00  0.00     0.032 C 
BRANCH  19  20
HETATM   20  C8  UNL     1      -4.049  49.166 -24.481  1.00  0.00     0.125 C 
HETATM   21  C9  UNL     1      -5.357  49.388 -23.715  1.00  0.00     0.032 C 
HETATM   22  C10 UNL     1      -5.132  49.487 -22.206  1.00  0.00     0.008 C 
HETATM   23  C11 UNL     1      -3.735  50.013 -21.909  1.00  0.00     0.068 C 
HETATM   24  C12 UNL     1      -2.643  49.109 -22.538  1.00  0.00     0.164 C 
HETATM   25  C13 UNL     1      -2.138  48.024 -21.561  1.00  0.00     0.068 C 
HETATM   26  O3  UNL     1      -1.539  49.893 -22.998  1.00  0.00    -0.355 OA
HETATM   27  O4  UNL     1      -3.181  48.380 -23.659  1.00  0.00    -0.350 OA
HETATM   28  C14 UNL     1      -0.809  48.370 -20.893  1.00  0.00     0.007 C 
HETATM   29  C15 UNL     1      -0.677  49.864 -20.678  1.00  0.00     0.026 C 
HETATM   30  C16 UNL     1      -0.843  50.622 -21.991  1.00  0.00     0.171 C 
ENDBRANCH  19  20
ENDBRANCH  18  19
ENDBRANCH  17  18
ENDBRANCH   1  17
TORSDOF 10
ENDMDL
MODEL 4
REMARK minimizedAffinity -8.05430508
REMARK  10 active torsions:
REMARK  status: ('A' for Active; 'I' for Inactive)
REMARK    1  A    between atoms: O1_1  and  C1_2 
REMARK    2  A    between atoms: C1_2  and  C2_3 
REMARK    3  A    between atoms: C3_5  and  C4_6 
REMARK    4  A    between atoms: C4_6  and  O2_7 
REMARK    5  A    between atoms: C4_6  and  C5_8 
REMARK    6  A    between atoms: C5_8  and  C6_9 
REMARK    7  A    between atoms: C6_9  and  C7_10 
REMARK    8  A    between atoms: C7_10  and  C8_11 
REMARK    9  A    between atoms: C17_22  and  O5_23 
REMARK   10  A    between atoms: C18_24  and  O6_25 
ROOT
HETATM    1  C4  UNL     1      -3.002  50.405 -27.216  1.00  0.00     0.154 C 
ENDROOT
BRANCH   1   2
HETATM    2  C3  UNL     1      -1.784  51.033 -26.490  1.00  0.00     0.280 C 
HETATM    3  N1  UNL     1      -0.470  50.696 -27.095  1.00  0.00     0.102 N 
HETATM    4  C2  UNL     1       0.062  51.945 -27.694  1.00  0.00     0.275 C 
HETATM    5  H5  UNL     1      -0.545  49.970 -27.805  1.00  0.00     0.317 HD
HETATM    6  C18 UNL     1      -0.445  53.040 -26.760  1.00  0.00     0.184 C 
HETATM    7  C17 UNL     1      -1.871  52.574 -26.467  1.00  0.00     0.184 C 
BRANCH   4   8
HETATM    8  C1  UNL     1       1.593  51.899 -27.764  1.00  0.00     0.202 C 
BRANCH   8   9
HETATM    9  O1  UNL     1       2.153  52.231 -26.491  1.00  0.00    -0.399 OA
HETATM   10  H1  UNL     1       1.550  51.816 -25.841  1.00  0.00     0.209 HD
ENDBRANCH   8   9
ENDBRANCH   4   8
BRANCH   6  11
HETATM   11  O6  UNL     1      -0.445  54.320 -27.382  1.00  0.00    -0.391 OA
HETATM   12  H33 UNL     1      -0.989  54.899 -26.814  1.00  0.00     0.210 HD
ENDBRANCH   6  11
BRANCH   7  13
HETATM   13  O5  UNL     1      -2.307  53.082 -25.204  1.00  0.00    -0.391 OA
HETATM   14  H31 UNL     1      -1.682  52.773 -24.524  1.00  0.00     0.210 HD
ENDBRANCH   7  13
ENDBRANCH   1   2
BRANCH   1  15
HETATM   15  O2  UNL     1      -2.896  50.617 -28.630  1.00  0.00    -0.393 OA
HETATM   16  H8  UNL     1      -2.149  50.092 -28.962  1.00  0.00     0.210 HD
ENDBRANCH   1  15
BRANCH   1  17
HETATM   17  C5  UNL     1      -3.203  48.898 -26.979  1.00  0.00     0.034 C 
BRANCH  17  18
HETATM   18  C6  UNL     1      -4.321  48.579 -25.986  1.00  0.00     0.005 C 
BRANCH  18  19
HETATM   19  C7  UNL     1      -3.840  48.411 -24.540  1.00  0.00     0.032 C 
BRANCH  19  20
HETATM   20  C8  UNL     1      -3.559  49.719 -23.787  1.00  0.00     0.125 C 
HETATM   21  C9  UNL     1      -4.781  50.289 -23.058  1.00  0.00     0.032 C 
HETATM   22  C10 UNL     1      -4.389  51.117 -21.834  1.00  0.00     0.008 C 
HETATM   23  C11 UNL     1      -3.004  51.721 -22.022  1.00  0.00     0.068 C 
HETATM   24  C12 UNL     1      -1.935  50.625 -22.271  1.00  0.00     0.164 C 
HETATM   25  C13 UNL     1      -1.250  50.161 -20.966  1.00  0.00     0.068 C 
HETATM   26  O3  UNL     1      -0.947  51.082 -23.197  1.00  0.00    -0.355 OA
HETATM   27  O4  UNL     1      -2.551  49.439 -22.811  1.00  0.00    -0.350 OA
HETATM   28  C14 UNL     1       0.123  50.791 -20.736  1.00  0.00     0.007 C 
HETATM   29  C15 UNL     1       0.179  52.197 -21.296  1.00  0.00     0.026 C 
HETATM   30  C16 UNL     1      -0.188  52.212 -22.777  1.00  0.00     0.171 C 
ENDBRANCH  19  20
ENDBRANCH  18  19
ENDBRANCH  17  18
ENDBRANCH   1  17
TORSDOF 10
ENDMDL
MODEL 5
REMARK minimizedAffinity -8.02222633
REMARK  10 active torsions:
REMARK  status: ('A' for Active; 'I' for Inactive)
REMARK    1  A    between atoms: O1_1  and  C1_2 
REMARK    2  A    between atoms: C1_2  and  C2_3 
REMARK    3  A    between atoms: C3_5  and  C4_6 
REMARK    4  A    between atoms: C4_6  and  O2_7 
REMARK    5  A    between atoms: C4_6  and  C5_8 
REMARK    6  A    between atoms: C5_8  and  C6_9 
REMARK    7  A    between atoms: C6_9  and  C7_10 
REMARK    8  A    between atoms: C7_10  and  C8_11 
REMARK    9  A    between atoms: C17_22  and  O5_23 
REMARK   10  A    between atoms: C18_24  and  O6_25 
ROOT
HETATM    1  C4  UNL     1       3.155  66.217 -35.841  1.00  0.00     0.154 C 
ENDROOT
BRANCH   1   2
HETATM    2  C3  UNL     1       2.604  67.329 -36.773  1.00  0.00     0.280 C 
HETATM    3  N1  UNL     1       3.298  67.429 -38.083  1.00  0.00     0.102 N 
HETATM    4  C2  UNL     1       2.332  66.982 -39.117  1.00  0.00     0.275 C 
HETATM    5  H5  UNL     1       4.141  66.859 -38.119  1.00  0.00     0.317 HD
HETATM    6  C18 UNL     1       0.982  67.440 -38.575  1.00  0.00     0.184 C 
HETATM    7  C17 UNL     1       1.108  67.115 -37.087  1.00  0.00     0.184 C 
BRANCH   4   8
HETATM    8  C1  UNL     1       2.664  67.615 -40.473  1.00  0.00     0.202 C 
BRANCH   8   9
HETATM    9  O1  UNL     1       1.956  66.940 -41.517  1.00  0.00    -0.399 OA
HETATM   10  H1  UNL     1       1.083  66.732 -41.128  1.00  0.00     0.209 HD
ENDBRANCH   8   9
ENDBRANCH   4   8
BRANCH   6  11
HETATM   11  O6  UNL     1      -0.103  66.729 -39.161  1.00  0.00    -0.391 OA
HETATM   12  H33 UNL     1      -0.883  66.913 -38.603  1.00  0.00     0.210 HD
ENDBRANCH   6  11
BRANCH   7  13
HETATM   13  O5  UNL     1       0.257  67.970 -36.320  1.00  0.00    -0.391 OA
HETATM   14  H31 UNL     1       0.509  68.892 -36.508  1.00  0.00     0.210 HD
ENDBRANCH   7  13
ENDBRANCH   1   2
BRANCH   1  15
HETATM   15  O2  UNL     1       2.165  65.197 -35.653  1.00  0.00    -0.393 OA
HETATM   16  H8  UNL     1       2.041  64.733 -36.498  1.00  0.00     0.210 HD
ENDBRANCH   1  15
BRANCH   1  17
HETATM   17  C5  UNL     1       4.448  65.536 -36.323  1.00  0.00     0.034 C 
BRANCH  17  18
HETATM   18  C6  UNL     1       5.411  65.183 -35.190  1.00  0.00     0.005 C 
BRANCH  18  19
HETATM   19  C7  UNL     1       5.068  63.877 -34.465  1.00  0.00     0.032 C 
BRANCH  19  20
HETATM   20  C8  UNL     1       6.264  62.960 -34.165  1.00  0.00     0.125 C 
HETATM   21  C9  UNL     1       6.011  61.487 -34.502  1.00  0.00     0.032 C 
HETATM   22  C10 UNL     1       7.303  60.747 -34.853  1.00  0.00     0.008 C 
HETATM   23  C11 UNL     1       8.493  61.392 -34.157  1.00  0.00     0.068 C 
HETATM   24  C12 UNL     1       8.632  62.888 -34.540  1.00  0.00     0.164 C 
HETATM   25  C13 UNL     1       9.576  63.105 -35.744  1.00  0.00     0.068 C 
HETATM   26  O3  UNL     1       9.091  63.656 -33.425  1.00  0.00    -0.355 OA
HETATM   27  O4  UNL     1       7.360  63.417 -34.963  1.00  0.00    -0.350 OA
HETATM   28  C14 UNL     1      10.981  63.556 -35.349  1.00  0.00     0.007 C 
HETATM   29  C15 UNL     1      11.391  62.962 -34.017  1.00  0.00     0.026 C 
HETATM   30  C16 UNL     1      10.380  63.308 -32.928  1.00  0.00     0.171 C 
ENDBRANCH  19  20
ENDBRANCH  18  19
ENDBRANCH  17  18
ENDBRANCH   1  17
TORSDOF 10
ENDMDL
MODEL 6
REMARK minimizedAffinity -8.0155983
REMARK  10 active torsions:
REMARK  status: ('A' for Active; 'I' for Inactive)
REMARK    1  A    between atoms: O1_1  and  C1_2 
REMARK    2  A    between atoms: C1_2  and  C2_3 
REMARK    3  A    between atoms: C3_5  and  C4_6 
REMARK    4  A    between atoms: C4_6  and  O2_7 
REMARK    5  A    between atoms: C4_6  and  C5_8 
REMARK    6  A    between atoms: C5_8  and  C6_9 
REMARK    7  A    between atoms: C6_9  and  C7_10 
REMARK    8  A    between atoms: C7_10  and  C8_11 
REMARK    9  A    between atoms: C17_22  and  O5_23 
REMARK   10  A    between atoms: C18_24  and  O6_25 
ROOT
HETATM    1  C4  UNL     1      -3.987  51.060 -24.833  1.00  0.00     0.154 C 
ENDROOT
BRANCH   1   2
HETATM    2  C3  UNL     1      -3.225  52.093 -25.705  1.00  0.00     0.280 C 
HETATM    3  N1  UNL     1      -2.260  52.936 -24.954  1.00  0.00     0.102 N 
HETATM    4  C2  UNL     1      -0.902  52.530 -25.393  1.00  0.00     0.275 C 
HETATM    5  H5  UNL     1      -2.351  52.824 -23.946  1.00  0.00     0.317 HD
HETATM    6  C18 UNL     1      -1.092  52.156 -26.860  1.00  0.00     0.184 C 
HETATM    7  C17 UNL     1      -2.421  51.403 -26.828  1.00  0.00     0.184 C 
BRANCH   4   8
HETATM    8  C1  UNL     1       0.091  53.684 -25.207  1.00  0.00     0.202 C 
BRANCH   8   9
HETATM    9  O1  UNL     1       0.422  54.256 -26.476  1.00  0.00    -0.399 OA
HETATM   10  H1  UNL     1      -0.416  54.235 -26.982  1.00  0.00     0.209 HD
ENDBRANCH   8   9
ENDBRANCH   4   8
BRANCH   6  11
HETATM   11  O6  UNL     1      -0.045  51.320 -27.341  1.00  0.00    -0.391 OA
HETATM   12  H33 UNL     1      -0.360  50.948 -28.187  1.00  0.00     0.210 HD
ENDBRANCH   6  11
BRANCH   7  13
HETATM   13  O5  UNL     1      -3.067  51.488 -28.100  1.00  0.00    -0.391 OA
HETATM   14  H31 UNL     1      -3.194  52.430 -28.311  1.00  0.00     0.210 HD
ENDBRANCH   7  13
ENDBRANCH   1   2
BRANCH   1  15
HETATM   15  O2  UNL     1      -5.341  51.488 -24.633  1.00  0.00    -0.393 OA
HETATM   16  H8  UNL     1      -5.805  51.440 -25.486  1.00  0.00     0.210 HD
ENDBRANCH   1  15
BRANCH   1  17
HETATM   17  C5  UNL     1      -4.023  49.628 -25.393  1.00  0.00     0.034 C 
BRANCH  17  18
HETATM   18  C6  UNL     1      -3.315  48.606 -24.503  1.00  0.00     0.005 C 
BRANCH  18  19
HETATM   19  C7  UNL     1      -3.959  48.427 -23.125  1.00  0.00     0.032 C 
BRANCH  19  20
HETATM   20  C8  UNL     1      -3.015  48.621 -21.929  1.00  0.00     0.125 C 
HETATM   21  C9  UNL     1      -2.095  47.424 -21.667  1.00  0.00     0.032 C 
HETATM   22  C10 UNL     1      -0.783  47.841 -21.000  1.00  0.00     0.008 C 
HETATM   23  C11 UNL     1      -0.981  49.108 -20.180  1.00  0.00     0.068 C 
HETATM   24  C12 UNL     1      -1.511  50.274 -21.057  1.00  0.00     0.164 C 
HETATM   25  C13 UNL     1      -0.372  51.152 -21.622  1.00  0.00     0.068 C 
HETATM   26  O3  UNL     1      -2.425  51.088 -20.318  1.00  0.00    -0.355 OA
HETATM   27  O4  UNL     1      -2.195  49.758 -22.215  1.00  0.00    -0.350 OA
HETATM   28  C14 UNL     1      -0.156  52.450 -20.847  1.00  0.00     0.007 C 
HETATM   29  C15 UNL     1      -0.463  52.266 -19.375  1.00  0.00     0.026 C 
HETATM   30  C16 UNL     1      -1.881  51.739 -19.173  1.00  0.00     0.171 C 
ENDBRANCH  19  20
ENDBRANCH  18  19
ENDBRANCH  17  18
ENDBRANCH   1  17
TORSDOF 10
ENDMDL
MODEL 7
REMARK minimizedAffinity -7.94686031
REMARK  10 active torsions:
REMARK  status: ('A' for Active; 'I' for Inactive)
REMARK    1  A    between atoms: O1_1  and  C1_2 
REMARK    2  A    between atoms: C1_2  and  C2_3 
REMARK    3  A    between atoms: C3_5  and  C4_6 
REMARK    4  A    between atoms: C4_6  and  O2_7 
REMARK    5  A    between atoms: C4_6  and  C5_8 
REMARK    6  A    between atoms: C5_8  and  C6_9 
REMARK    7  A    between atoms: C6_9  and  C7_10 
REMARK    8  A    between atoms: C7_10  and  C8_11 
REMARK    9  A    between atoms: C17_22  and  O5_23 
REMARK   10  A    between atoms: C18_24  and  O6_25 
ROOT
HETATM    1  C4  UNL     1      -2.341  50.436 -26.816  1.00  0.00     0.154 C 
ENDROOT
BRANCH   1   2
HETATM    2  C3  UNL     1      -1.276  51.009 -25.844  1.00  0.00     0.280 C 
HETATM    3  N1  UNL     1       0.106  50.527 -26.098  1.00  0.00     0.102 N 
HETATM    4  C2  UNL     1       0.880  51.689 -26.604  1.00  0.00     0.275 C 
HETATM    5  H5  UNL     1       0.133  49.766 -26.774  1.00  0.00     0.317 HD
HETATM    6  C18 UNL     1       0.272  52.878 -25.868  1.00  0.00     0.184 C 
HETATM    7  C17 UNL     1      -1.220  52.550 -25.909  1.00  0.00     0.184 C 
BRANCH   4   8
HETATM    8  C1  UNL     1       2.373  51.513 -26.300  1.00  0.00     0.202 C 
BRANCH   8   9
HETATM    9  O1  UNL     1       3.126  51.523 -27.516  1.00  0.00    -0.399 OA
HETATM   10  H1  UNL     1       2.682  52.192 -28.075  1.00  0.00     0.209 HD
ENDBRANCH   8   9
ENDBRANCH   4   8
BRANCH   6  11
HETATM   11  O6  UNL     1       0.540  54.112 -26.526  1.00  0.00    -0.391 OA
HETATM   12  H33 UNL     1      -0.065  54.768 -26.132  1.00  0.00     0.210 HD
ENDBRANCH   6  11
BRANCH   7  13
HETATM   13  O5  UNL     1      -1.893  53.172 -24.813  1.00  0.00    -0.391 OA
HETATM   14  H31 UNL     1      -1.480  52.858 -23.989  1.00  0.00     0.210 HD
ENDBRANCH   7  13
ENDBRANCH   1   2
BRANCH   1  15
HETATM   15  O2  UNL     1      -2.014  50.786 -28.167  1.00  0.00    -0.393 OA
HETATM   16  H8  UNL     1      -1.207  50.307 -28.420  1.00  0.00     0.210 HD
ENDBRANCH   1  15
BRANCH   1  17
HETATM   17  C5  UNL     1      -2.532  48.911 -26.757  1.00  0.00     0.034 C 
BRANCH  17  18
HETATM   18  C6  UNL     1      -3.980  48.467 -26.962  1.00  0.00     0.005 C 
BRANCH  18  19
HETATM   19  C7  UNL     1      -4.501  48.681 -28.388  1.00  0.00     0.032 C 
BRANCH  19  20
HETATM   20  C8  UNL     1      -5.647  47.751 -28.814  1.00  0.00     0.125 C 
HETATM   21  C9  UNL     1      -6.670  47.484 -27.705  1.00  0.00     0.032 C 
HETATM   22  C10 UNL     1      -8.060  47.176 -28.265  1.00  0.00     0.008 C 
HETATM   23  C11 UNL     1      -7.950  46.559 -29.652  1.00  0.00     0.068 C 
HETATM   24  C12 UNL     1      -7.191  47.494 -30.631  1.00  0.00     0.164 C 
HETATM   25  C13 UNL     1      -8.143  48.418 -31.423  1.00  0.00     0.068 C 
HETATM   26  O3  UNL     1      -6.392  46.733 -31.540  1.00  0.00    -0.355 OA
HETATM   27  O4  UNL     1      -6.326  48.386 -29.902  1.00  0.00    -0.350 OA
HETATM   28  C14 UNL     1      -8.429  47.933 -32.842  1.00  0.00     0.007 C 
HETATM   29  C15 UNL     1      -8.427  46.419 -32.914  1.00  0.00     0.026 C 
HETATM   30  C16 UNL     1      -7.110  45.849 -32.396  1.00  0.00     0.171 C 
ENDBRANCH  19  20
ENDBRANCH  18  19
ENDBRANCH  17  18
ENDBRANCH   1  17
TORSDOF 10
ENDMDL
MODEL 8
REMARK minimizedAffinity -7.88672829
REMARK  10 active torsions:
REMARK  status: ('A' for Active; 'I' for Inactive)
REMARK    1  A    between atoms: O1_1  and  C1_2 
REMARK    2  A    between atoms: C1_2  and  C2_3 
REMARK    3  A    between atoms: C3_5  and  C4_6 
REMARK    4  A    between atoms: C4_6  and  O2_7 
REMARK    5  A    between atoms: C4_6  and  C5_8 
REMARK    6  A    between atoms: C5_8  and  C6_9 
REMARK    7  A    between atoms: C6_9  and  C7_10 
REMARK    8  A    between atoms: C7_10  and  C8_11 
REMARK    9  A    between atoms: C17_22  and  O5_23 
REMARK   10  A    between atoms: C18_24  and  O6_25 
ROOT
HETATM    1  C4  UNL     1      -4.844  48.048 -28.357  1.00  0.00     0.154 C 
ENDROOT
BRANCH   1   2
HETATM    2  C3  UNL     1      -6.294  47.625 -28.714  1.00  0.00     0.280 C 
HETATM    3  N1  UNL     1      -7.211  48.760 -28.994  1.00  0.00     0.102 N 
HETATM    4  C2  UNL     1      -7.528  48.709 -30.443  1.00  0.00     0.275 C 
HETATM    5  H5  UNL     1      -6.798  49.659 -28.756  1.00  0.00     0.317 HD
HETATM    6  C18 UNL     1      -7.530  47.217 -30.762  1.00  0.00     0.184 C 
HETATM    7  C17 UNL     1      -6.327  46.717 -29.962  1.00  0.00     0.184 C 
BRANCH   4   8
HETATM    8  C1  UNL     1      -8.884  49.369 -30.720  1.00  0.00     0.202 C 
BRANCH   8   9
HETATM    9  O1  UNL     1      -8.727  50.787 -30.826  1.00  0.00    -0.399 OA
HETATM   10  H1  UNL     1      -7.873  50.906 -31.290  1.00  0.00     0.209 HD
ENDBRANCH   8   9
ENDBRANCH   4   8
BRANCH   6  11
HETATM   11  O6  UNL     1      -7.357  46.964 -32.152  1.00  0.00    -0.391 OA
HETATM   12  H33 UNL     1      -7.140  46.016 -32.232  1.00  0.00     0.210 HD
ENDBRANCH   6  11
BRANCH   7  13
HETATM   13  O5  UNL     1      -6.491  45.336 -29.635  1.00  0.00    -0.391 OA
HETATM   14  H31 UNL     1      -7.320  45.243 -29.132  1.00  0.00     0.210 HD
ENDBRANCH   7  13
ENDBRANCH   1   2
BRANCH   1  15
HETATM   15  O2  UNL     1      -4.434  49.147 -29.182  1.00  0.00    -0.393 OA
HETATM   16  H8  UNL     1      -4.958  49.927 -28.933  1.00  0.00     0.210 HD
ENDBRANCH   1  15
BRANCH   1  17
HETATM   17  C5  UNL     1      -4.620  48.451 -26.889  1.00  0.00     0.034 C 
BRANCH  17  18
HETATM   18  C6  UNL     1      -3.145  48.544 -26.500  1.00  0.00     0.005 C 
BRANCH  18  19
HETATM   19  C7  UNL     1      -2.500  49.897 -26.821  1.00  0.00     0.032 C 
BRANCH  19  20
HETATM   20  C8  UNL     1      -2.451  50.894 -25.653  1.00  0.00     0.125 C 
HETATM   21  C9  UNL     1      -3.802  51.549 -25.343  1.00  0.00     0.032 C 
HETATM   22  C10 UNL     1      -3.920  51.958 -23.874  1.00  0.00     0.008 C 
HETATM   23  C11 UNL     1      -2.545  52.250 -23.290  1.00  0.00     0.068 C 
HETATM   24  C12 UNL     1      -1.604  51.022 -23.413  1.00  0.00     0.164 C 
HETATM   25  C13 UNL     1      -1.639  50.123 -22.156  1.00  0.00     0.068 C 
HETATM   26  O3  UNL     1      -0.261  51.437 -23.671  1.00  0.00    -0.355 OA
HETATM   27  O4  UNL     1      -2.032  50.170 -24.493  1.00  0.00    -0.350 OA
HETATM   28  C14 UNL     1      -0.460  50.346 -21.210  1.00  0.00     0.007 C 
HETATM   29  C15 UNL     1      -0.005  51.791 -21.235  1.00  0.00     0.026 C 
HETATM   30  C16 UNL     1       0.342  52.232 -22.653  1.00  0.00     0.171 C 
ENDBRANCH  19  20
ENDBRANCH  18  19
ENDBRANCH  17  18
ENDBRANCH   1  17
TORSDOF 10
ENDMDL
MODEL 9
REMARK minimizedAffinity -7.87506676
REMARK  10 active torsions:
REMARK  status: ('A' for Active; 'I' for Inactive)
REMARK    1  A    between atoms: O1_1  and  C1_2 
REMARK    2  A    between atoms: C1_2  and  C2_3 
REMARK    3  A    between atoms: C3_5  and  C4_6 
REMARK    4  A    between atoms: C4_6  and  O2_7 
REMARK    5  A    between atoms: C4_6  and  C5_8 
REMARK    6  A    between atoms: C5_8  and  C6_9 
REMARK    7  A    between atoms: C6_9  and  C7_10 
REMARK    8  A    between atoms: C7_10  and  C8_11 
REMARK    9  A    between atoms: C17_22  and  O5_23 
REMARK   10  A    between atoms: C18_24  and  O6_25 
ROOT
HETATM    1  C4  UNL     1      -4.784  48.154 -28.686  1.00  0.00     0.154 C 
ENDROOT
BRANCH   1   2
HETATM    2  C3  UNL     1      -6.116  47.612 -29.267  1.00  0.00     0.280 C 
HETATM    3  N1  UNL     1      -7.230  48.594 -29.266  1.00  0.00     0.102 N 
HETATM    4  C2  UNL     1      -7.502  48.938 -30.685  1.00  0.00     0.275 C 
HETATM    5  H5  UNL     1      -7.004  49.435 -28.738  1.00  0.00     0.317 HD
HETATM    6  C18 UNL     1      -7.208  47.642 -31.434  1.00  0.00     0.184 C 
HETATM    7  C17 UNL     1      -5.948  47.142 -30.728  1.00  0.00     0.184 C 
BRANCH   4   8
HETATM    8  C1  UNL     1      -8.954  49.399 -30.858  1.00  0.00     0.202 C 
BRANCH   8   9
HETATM    9  O1  UNL     1      -9.762  48.885 -29.795  1.00  0.00    -0.399 OA
HETATM   10  H1  UNL     1      -9.187  48.931 -29.004  1.00  0.00     0.209 HD
ENDBRANCH   8   9
ENDBRANCH   4   8
BRANCH   6  11
HETATM   11  O6  UNL     1      -6.961  47.866 -32.818  1.00  0.00    -0.391 OA
HETATM   12  H33 UNL     1      -6.562  47.043 -33.160  1.00  0.00     0.210 HD
ENDBRANCH   6  11
BRANCH   7  13
HETATM   13  O5  UNL     1      -5.848  45.722 -30.842  1.00  0.00    -0.391 OA
HETATM   14  H31 UNL     1      -6.653  45.331 -30.457  1.00  0.00     0.210 HD
ENDBRANCH   7  13
ENDBRANCH   1   2
BRANCH   1  15
HETATM   15  O2  UNL     1      -4.441  49.395 -29.318  1.00  0.00    -0.393 OA
HETATM   16  H8  UNL     1      -5.088  50.066 -29.045  1.00  0.00     0.210 HD
ENDBRANCH   1  15
BRANCH   1  17
HETATM   17  C5  UNL     1      -4.774  48.382 -27.165  1.00  0.00     0.034 C 
BRANCH  17  18
HETATM   18  C6  UNL     1      -3.388  48.252 -26.536  1.00  0.00     0.005 C 
BRANCH  18  19
HETATM   19  C7  UNL     1      -3.276  48.876 -25.140  1.00  0.00     0.032 C 
BRANCH  19  20
HETATM   20  C8  UNL     1      -2.528  50.217 -25.080  1.00  0.00     0.125 C 
HETATM   21  C9  UNL     1      -1.905  50.516 -23.712  1.00  0.00     0.032 C 
HETATM   22  C10 UNL     1      -0.671  51.412 -23.824  1.00  0.00     0.008 C 
HETATM   23  C11 UNL     1      -0.764  52.295 -25.060  1.00  0.00     0.068 C 
HETATM   24  C12 UNL     1      -0.910  51.449 -26.353  1.00  0.00     0.164 C 
HETATM   25  C13 UNL     1       0.451  51.144 -27.017  1.00  0.00     0.068 C 
HETATM   26  O3  UNL     1      -1.768  52.103 -27.291  1.00  0.00    -0.355 OA
HETATM   27  O4  UNL     1      -1.473  50.159 -26.045  1.00  0.00    -0.350 OA
HETATM   28  C14 UNL     1       0.772  52.051 -28.203  1.00  0.00     0.007 C 
HETATM   29  C15 UNL     1       0.191  53.436 -28.005  1.00  0.00     0.026 C 
HETATM   30  C16 UNL     1      -1.313  53.369 -27.760  1.00  0.00     0.171 C 
ENDBRANCH  19  20
ENDBRANCH  18  19
ENDBRANCH  17  18
ENDBRANCH   1  17
TORSDOF 10
ENDMDL
