MODEL 1
REMARK minimizedAffinity -7.51241636
REMARK  8 active torsions:
REMARK  status: ('A' for Active; 'I' for Inactive)
REMARK    1  A    between atoms: C5_5  and  C6_6 
REMARK    2  A    between atoms: C6_6  and  O1_9 
REMARK    3  A    between atoms: C11_12  and  C12_13 
REMARK    4  A    between atoms: C12_13  and  C13_14 
REMARK    5  A    between atoms: C17_18  and  O2_19 
REMARK    6  A    between atoms: C18_20  and  C19_21 
REMARK    7  A    between atoms: C20_23  and  O4_24 
REMARK    8  A    between atoms: C21_25  and  C22_26 
ROOT
HETATM    1  C1  UNL     1       0.153  51.491 -18.280  1.00  0.00     0.019 C 
HETATM    2  C2  UNL     1      -0.702  51.979 -19.195  1.00  0.00    -0.068 C 
HETATM    3  C3  UNL     1      -0.219  52.942 -20.151  1.00  0.00     0.003 C 
HETATM    4  C4  UNL     1      -0.019  52.873 -21.475  1.00  0.00    -0.019 C 
HETATM    5  C5  UNL     1      -0.187  51.864 -22.615  1.00  0.00     0.042 C 
HETATM    6  C9  UNL     1      -0.571  50.381 -22.274  1.00  0.00     0.020 C 
HETATM    7  C10 UNL     1      -2.034  49.916 -22.006  1.00  0.00     0.030 C 
HETATM    8  C11 UNL     1      -2.919  49.581 -23.253  1.00  0.00     0.031 C 
HETATM    9  C16 UNL     1      -4.333  49.423 -22.722  1.00  0.00     0.015 A 
HETATM   10  C17 UNL     1      -5.481  49.966 -23.328  1.00  0.00     0.091 A 
HETATM   11  C18 UNL     1      -6.757  49.736 -22.782  1.00  0.00     0.069 A 
HETATM   12  C20 UNL     1      -6.901  48.987 -21.605  1.00  0.00     0.097 A 
HETATM   13  C21 UNL     1      -5.766  48.461 -20.982  1.00  0.00     0.070 A 
HETATM   14  C23 UNL     1      -4.494  48.676 -21.544  1.00  0.00     0.095 A 
HETATM   15  O6  UNL     1      -3.424  48.094 -20.924  1.00  0.00    -0.338 OA
HETATM   16  C24 UNL     1      -2.128  48.733 -20.971  1.00  0.00     0.068 C 
HETATM   17  C25 UNL     1      -1.131  47.579 -21.263  1.00  0.00     0.047 C 
HETATM   18  C26 UNL     1      -1.833  49.146 -19.502  1.00  0.00     0.039 C 
HETATM   19  C27 UNL     1      -2.655  50.289 -18.888  1.00  0.00     0.007 C 
HETATM   20  C28 UNL     1      -2.189  51.721 -19.168  1.00  0.00     0.038 C 
ENDROOT
BRANCH   5  21
HETATM   21  C6  UNL     1      -0.879  52.573 -23.842  1.00  0.00     0.057 C 
HETATM   22  C7  UNL     1      -0.146  53.833 -24.315  1.00  0.00     0.046 C 
HETATM   23  C8  UNL     1      -2.381  52.800 -23.638  1.00  0.00     0.046 C 
BRANCH  21  24
HETATM   24  O1  UNL     1      -0.809  51.689 -24.990  1.00  0.00    -0.390 OA
HETATM   25  H12 UNL     1      -1.312  50.880 -24.791  1.00  0.00     0.210 HD
ENDBRANCH  21  24
ENDBRANCH   5  21
BRANCH   8  26
HETATM   26  C12 UNL     1      -2.489  48.370 -24.120  1.00  0.00     0.014 C 
BRANCH  26  27
HETATM   27  C13 UNL     1      -2.701  48.565 -25.644  1.00  0.00    -0.022 C 
HETATM   28  C14 UNL     1      -4.133  48.190 -26.036  1.00  0.00     0.009 C 
HETATM   29  C15 UNL     1      -2.437  50.011 -26.074  1.00  0.00     0.009 C 
ENDBRANCH  26  27
ENDBRANCH   8  26
BRANCH  10  30
HETATM   30  O2  UNL     1      -5.421  50.714 -24.473  1.00  0.00    -0.359 OA
HETATM   31  H26 UNL     1      -4.509  50.928 -24.720  1.00  0.00     0.217 HD
ENDBRANCH  10  30
BRANCH  11  32
HETATM   32  C19 UNL     1      -7.950  50.268 -23.479  1.00  0.00     0.275 C 
HETATM   33  O3  UNL     1      -8.684  49.529 -24.131  1.00  0.00    -0.301 OA
ENDBRANCH  11  32
BRANCH  13  34
HETATM   34  C22 UNL     1      -5.848  47.691 -19.712  1.00  0.00     0.275 C 
HETATM   35  O5  UNL     1      -6.608  46.750 -19.522  1.00  0.00    -0.301 OA
ENDBRANCH  13  34
BRANCH  12  36
HETATM   36  O4  UNL     1      -8.137  48.725 -21.075  1.00  0.00    -0.359 OA
HETATM   37  H28 UNL     1      -8.830  49.185 -21.605  1.00  0.00     0.217 HD
ENDBRANCH  12  36
TORSDOF 8
ENDMDL
MODEL 2
REMARK minimizedAffinity -7.08251476
REMARK  8 active torsions:
REMARK  status: ('A' for Active; 'I' for Inactive)
REMARK    1  A    between atoms: C5_5  and  C6_6 
REMARK    2  A    between atoms: C6_6  and  O1_9 
REMARK    3  A    between atoms: C11_12  and  C12_13 
REMARK    4  A    between atoms: C12_13  and  C13_14 
REMARK    5  A    between atoms: C17_18  and  O2_19 
REMARK    6  A    between atoms: C18_20  and  C19_21 
REMARK    7  A    between atoms: C20_23  and  O4_24 
REMARK    8  A    between atoms: C21_25  and  C22_26 
ROOT
HETATM    1  C1  UNL     1      -6.237  47.628 -33.709  1.00  0.00     0.019 C 
HETATM    2  C2  UNL     1      -7.564  47.629 -33.495  1.00  0.00    -0.068 C 
HETATM    3  C3  UNL     1      -8.435  47.168 -34.546  1.00  0.00     0.003 C 
HETATM    4  C4  UNL     1      -9.213  46.082 -34.658  1.00  0.00    -0.019 C 
HETATM    5  C5  UNL     1      -9.604  44.854 -33.830  1.00  0.00     0.042 C 
HETATM    6  C9  UNL     1      -8.854  44.570 -32.480  1.00  0.00     0.020 C 
HETATM    7  C10 UNL     1      -9.224  45.263 -31.134  1.00  0.00     0.030 C 
HETATM    8  C11 UNL     1     -10.399  44.641 -30.308  1.00  0.00     0.031 C 
HETATM    9  C16 UNL     1     -10.709  45.647 -29.214  1.00  0.00     0.015 A 
HETATM   10  C17 UNL     1     -12.005  46.042 -28.834  1.00  0.00     0.091 A 
HETATM   11  C18 UNL     1     -12.197  46.957 -27.782  1.00  0.00     0.069 A 
HETATM   12  C20 UNL     1     -11.095  47.513 -27.115  1.00  0.00     0.097 A 
HETATM   13  C21 UNL     1      -9.802  47.144 -27.498  1.00  0.00     0.070 A 
HETATM   14  C23 UNL     1      -9.617  46.214 -28.537  1.00  0.00     0.095 A 
HETATM   15  O6  UNL     1      -8.334  45.848 -28.834  1.00  0.00    -0.338 OA
HETATM   16  C24 UNL     1      -7.984  45.481 -30.188  1.00  0.00     0.068 C 
HETATM   17  C25 UNL     1      -7.095  44.217 -30.037  1.00  0.00     0.047 C 
HETATM   18  C26 UNL     1      -7.008  46.594 -30.663  1.00  0.00     0.039 C 
HETATM   19  C27 UNL     1      -7.575  47.998 -30.921  1.00  0.00     0.007 C 
HETATM   20  C28 UNL     1      -8.214  48.261 -32.288  1.00  0.00     0.038 C 
ENDROOT
BRANCH   5  21
HETATM   21  C6  UNL     1     -11.167  44.656 -33.894  1.00  0.00     0.057 C 
HETATM   22  C7  UNL     1     -11.609  43.205 -33.675  1.00  0.00     0.046 C 
HETATM   23  C8  UNL     1     -11.803  45.291 -35.137  1.00  0.00     0.046 C 
BRANCH  21  24
HETATM   24  O1  UNL     1     -11.773  45.367 -32.785  1.00  0.00    -0.390 OA
HETATM   25  H12 UNL     1     -11.589  46.317 -32.887  1.00  0.00     0.210 HD
ENDBRANCH  21  24
ENDBRANCH   5  21
BRANCH   8  26
HETATM   26  C12 UNL     1     -10.184  43.215 -29.737  1.00  0.00     0.014 C 
BRANCH  26  27
HETATM   27  C13 UNL     1     -11.105  42.131 -30.354  1.00  0.00    -0.022 C 
HETATM   28  C14 UNL     1     -10.269  41.050 -31.045  1.00  0.00     0.009 C 
HETATM   29  C15 UNL     1     -11.988  41.466 -29.294  1.00  0.00     0.009 C 
ENDBRANCH  26  27
ENDBRANCH   8  26
BRANCH  10  30
HETATM   30  O2  UNL     1     -13.129  45.551 -29.442  1.00  0.00    -0.359 OA
HETATM   31  H26 UNL     1     -12.916  45.024 -30.227  1.00  0.00     0.217 HD
ENDBRANCH  10  30
BRANCH  11  32
HETATM   32  C19 UNL     1     -13.574  47.304 -27.365  1.00  0.00     0.275 C 
HETATM   33  O3  UNL     1     -13.875  47.378 -26.176  1.00  0.00    -0.301 OA
ENDBRANCH  11  32
BRANCH  13  34
HETATM   34  C22 UNL     1      -8.593  47.726 -26.858  1.00  0.00     0.275 C 
HETATM   35  O5  UNL     1      -7.443  47.424 -27.151  1.00  0.00    -0.301 OA
ENDBRANCH  13  34
BRANCH  12  36
HETATM   36  O4  UNL     1     -11.260  48.380 -26.067  1.00  0.00    -0.359 OA
HETATM   37  H28 UNL     1     -12.221  48.565 -25.937  1.00  0.00     0.217 HD
ENDBRANCH  12  36
TORSDOF 8
ENDMDL
MODEL 3
REMARK minimizedAffinity -6.9901104
REMARK  8 active torsions:
REMARK  status: ('A' for Active; 'I' for Inactive)
REMARK    1  A    between atoms: C5_5  and  C6_6 
REMARK    2  A    between atoms: C6_6  and  O1_9 
REMARK    3  A    between atoms: C11_12  and  C12_13 
REMARK    4  A    between atoms: C12_13  and  C13_14 
REMARK    5  A    between atoms: C17_18  and  O2_19 
REMARK    6  A    between atoms: C18_20  and  C19_21 
REMARK    7  A    between atoms: C20_23  and  O4_24 
REMARK    8  A    between atoms: C21_25  and  C22_26 
ROOT
HETATM    1  C1  UNL     1     -11.188  46.803 -27.483  1.00  0.00     0.019 C 
HETATM    2  C2  UNL     1     -10.437  47.456 -28.386  1.00  0.00    -0.068 C 
HETATM    3  C3  UNL     1      -9.255  48.144 -27.934  1.00  0.00     0.003 C 
HETATM    4  C4  UNL     1      -7.949  47.912 -28.130  1.00  0.00    -0.019 C 
HETATM    5  C5  UNL     1      -7.054  46.917 -28.875  1.00  0.00     0.042 C 
HETATM    6  C9  UNL     1      -7.705  45.656 -29.547  1.00  0.00     0.020 C 
HETATM    7  C10 UNL     1      -8.381  45.688 -30.950  1.00  0.00     0.030 C 
HETATM    8  C11 UNL     1      -7.447  45.545 -32.198  1.00  0.00     0.031 C 
HETATM    9  C16 UNL     1      -8.315  45.872 -33.400  1.00  0.00     0.015 A 
HETATM   10  C17 UNL     1      -7.920  46.693 -34.473  1.00  0.00     0.091 A 
HETATM   11  C18 UNL     1      -8.782  46.912 -35.563  1.00  0.00     0.069 A 
HETATM   12  C20 UNL     1     -10.062  46.340 -35.583  1.00  0.00     0.097 A 
HETATM   13  C21 UNL     1     -10.474  45.540 -34.513  1.00  0.00     0.070 A 
HETATM   14  C23 UNL     1      -9.601  45.308 -33.434  1.00  0.00     0.095 A 
HETATM   15  O6  UNL     1     -10.034  44.475 -32.441  1.00  0.00    -0.338 OA
HETATM   16  C24 UNL     1      -9.581  44.677 -31.082  1.00  0.00     0.068 C 
HETATM   17  C25 UNL     1      -9.247  43.253 -30.562  1.00  0.00     0.047 C 
HETATM   18  C26 UNL     1     -10.855  45.095 -30.296  1.00  0.00     0.039 C 
HETATM   19  C27 UNL     1     -11.459  46.480 -30.569  1.00  0.00     0.007 C 
HETATM   20  C28 UNL     1     -10.855  47.672 -29.820  1.00  0.00     0.038 C 
ENDROOT
BRANCH   5  21
HETATM   21  C6  UNL     1      -5.929  47.704 -29.652  1.00  0.00     0.057 C 
HETATM   22  C7  UNL     1      -4.980  48.481 -28.731  1.00  0.00     0.046 C 
HETATM   23  C8  UNL     1      -6.477  48.560 -30.800  1.00  0.00     0.046 C 
BRANCH  21  24
HETATM   24  O1  UNL     1      -5.059  46.747 -30.307  1.00  0.00    -0.390 OA
HETATM   25  H12 UNL     1      -5.580  46.251 -30.961  1.00  0.00     0.210 HD
ENDBRANCH  21  24
ENDBRANCH   5  21
BRANCH   8  26
HETATM   26  C12 UNL     1      -6.704  44.195 -32.374  1.00  0.00     0.014 C 
BRANCH  26  27
HETATM   27  C13 UNL     1      -5.165  44.282 -32.201  1.00  0.00    -0.022 C 
HETATM   28  C14 UNL     1      -4.500  42.987 -32.676  1.00  0.00     0.009 C 
HETATM   29  C15 UNL     1      -4.572  45.455 -32.987  1.00  0.00     0.009 C 
ENDBRANCH  26  27
ENDBRANCH   8  26
BRANCH  10  30
HETATM   30  O2  UNL     1      -6.691  47.293 -34.523  1.00  0.00    -0.359 OA
HETATM   31  H26 UNL     1      -6.205  47.194 -33.690  1.00  0.00     0.217 HD
ENDBRANCH  10  30
BRANCH  11  32
HETATM   32  C19 UNL     1      -8.312  47.729 -36.705  1.00  0.00     0.275 C 
HETATM   33  O3  UNL     1      -8.290  47.269 -37.845  1.00  0.00    -0.301 OA
ENDBRANCH  11  32
BRANCH  13  34
HETATM   34  C22 UNL     1     -11.832  44.937 -34.455  1.00  0.00     0.275 C 
HETATM   35  O5  UNL     1     -12.273  44.148 -35.281  1.00  0.00    -0.301 OA
ENDBRANCH  13  34
BRANCH  12  36
HETATM   36  O4  UNL     1     -10.904  46.514 -36.650  1.00  0.00    -0.359 OA
HETATM   37  H28 UNL     1     -10.487  47.122 -37.306  1.00  0.00     0.217 HD
ENDBRANCH  12  36
TORSDOF 8
ENDMDL
MODEL 4
REMARK minimizedAffinity -6.96373224
REMARK  8 active torsions:
REMARK  status: ('A' for Active; 'I' for Inactive)
REMARK    1  A    between atoms: C5_5  and  C6_6 
REMARK    2  A    between atoms: C6_6  and  O1_9 
REMARK    3  A    between atoms: C11_12  and  C12_13 
REMARK    4  A    between atoms: C12_13  and  C13_14 
REMARK    5  A    between atoms: C17_18  and  O2_19 
REMARK    6  A    between atoms: C18_20  and  C19_21 
REMARK    7  A    between atoms: C20_23  and  O4_24 
REMARK    8  A    between atoms: C21_25  and  C22_26 
ROOT
HETATM    1  C1  UNL     1      -3.298  50.879 -26.290  1.00  0.00     0.019 C 
HETATM    2  C2  UNL     1      -2.702  50.139 -25.340  1.00  0.00    -0.068 C 
HETATM    3  C3  UNL     1      -1.541  50.672 -24.674  1.00  0.00     0.003 C 
HETATM    4  C4  UNL     1      -1.339  51.090 -23.416  1.00  0.00    -0.019 C 
HETATM    5  C5  UNL     1      -2.118  51.210 -22.102  1.00  0.00     0.042 C 
HETATM    6  C9  UNL     1      -3.662  50.926 -22.098  1.00  0.00     0.020 C 
HETATM    7  C10 UNL     1      -4.267  49.493 -22.014  1.00  0.00     0.030 C 
HETATM    8  C11 UNL     1      -4.413  48.860 -20.589  1.00  0.00     0.031 C 
HETATM    9  C16 UNL     1      -4.766  47.402 -20.823  1.00  0.00     0.015 A 
HETATM   10  C17 UNL     1      -4.195  46.319 -20.129  1.00  0.00     0.091 A 
HETATM   11  C18 UNL     1      -4.611  45.001 -20.389  1.00  0.00     0.069 A 
HETATM   12  C20 UNL     1      -5.582  44.743 -21.368  1.00  0.00     0.097 A 
HETATM   13  C21 UNL     1      -6.142  45.809 -22.079  1.00  0.00     0.070 A 
HETATM   14  C23 UNL     1      -5.736  47.127 -21.800  1.00  0.00     0.095 A 
HETATM   15  O6  UNL     1      -6.354  48.135 -22.487  1.00  0.00    -0.338 OA
HETATM   16  C24 UNL     1      -5.632  49.351 -22.786  1.00  0.00     0.068 C 
HETATM   17  C25 UNL     1      -6.637  50.492 -22.475  1.00  0.00     0.047 C 
HETATM   18  C26 UNL     1      -5.492  49.361 -24.334  1.00  0.00     0.039 C 
HETATM   19  C27 UNL     1      -4.548  48.340 -24.987  1.00  0.00     0.007 C 
HETATM   20  C28 UNL     1      -3.060  48.700 -25.055  1.00  0.00     0.038 C 
ENDROOT
BRANCH   5  21
HETATM   21  C6  UNL     1      -1.233  50.660 -20.918  1.00  0.00     0.057 C 
HETATM   22  C7  UNL     1       0.014  51.507 -20.640  1.00  0.00     0.046 C 
HETATM   23  C8  UNL     1      -0.920  49.165 -21.045  1.00  0.00     0.046 C 
BRANCH  21  24
HETATM   24  O1  UNL     1      -1.992  50.758 -19.686  1.00  0.00    -0.390 OA
HETATM   25  H12 UNL     1      -2.778  50.190 -19.759  1.00  0.00     0.210 HD
ENDBRANCH  21  24
ENDBRANCH   5  21
BRANCH   8  26
HETATM   26  C12 UNL     1      -5.401  49.544 -19.610  1.00  0.00     0.014 C 
BRANCH  26  27
HETATM   27  C13 UNL     1      -6.506  48.608 -19.054  1.00  0.00    -0.022 C 
HETATM   28  C14 UNL     1      -6.183  48.198 -17.614  1.00  0.00     0.009 C 
HETATM   29  C15 UNL     1      -7.882  49.278 -19.077  1.00  0.00     0.009 C 
ENDBRANCH  26  27
ENDBRANCH   8  26
BRANCH  10  30
HETATM   30  O2  UNL     1      -3.237  46.489 -19.166  1.00  0.00    -0.359 OA
HETATM   31  H26 UNL     1      -2.918  47.403 -19.128  1.00  0.00     0.217 HD
ENDBRANCH  10  30
BRANCH  11  32
HETATM   32  C19 UNL     1      -4.037  43.890 -19.598  1.00  0.00     0.275 C 
HETATM   33  O3  UNL     1      -4.759  43.123 -18.965  1.00  0.00    -0.301 OA
ENDBRANCH  11  32
BRANCH  13  34
HETATM   34  C22 UNL     1      -7.146  45.599 -23.155  1.00  0.00     0.275 C 
HETATM   35  O5  UNL     1      -7.856  44.607 -23.253  1.00  0.00    -0.301 OA
ENDBRANCH  13  34
BRANCH  12  36
HETATM   36  O4  UNL     1      -6.025  43.469 -21.614  1.00  0.00    -0.359 OA
HETATM   37  H28 UNL     1      -5.519  42.829 -21.059  1.00  0.00     0.217 HD
ENDBRANCH  12  36
TORSDOF 8
ENDMDL
MODEL 5
REMARK minimizedAffinity -6.88798332
REMARK  8 active torsions:
REMARK  status: ('A' for Active; 'I' for Inactive)
REMARK    1  A    between atoms: C5_5  and  C6_6 
REMARK    2  A    between atoms: C6_6  and  O1_9 
REMARK    3  A    between atoms: C11_12  and  C12_13 
REMARK    4  A    between atoms: C12_13  and  C13_14 
REMARK    5  A    between atoms: C17_18  and  O2_19 
REMARK    6  A    between atoms: C18_20  and  C19_21 
REMARK    7  A    between atoms: C20_23  and  O4_24 
REMARK    8  A    between atoms: C21_25  and  C22_26 
ROOT
HETATM    1  C1  UNL     1      -1.994  51.970 -26.877  1.00  0.00     0.019 C 
HETATM    2  C2  UNL     1      -1.457  51.191 -25.923  1.00  0.00    -0.068 C 
HETATM    3  C3  UNL     1      -0.191  51.572 -25.351  1.00  0.00     0.003 C 
HETATM    4  C4  UNL     1       0.148  52.009 -24.129  1.00  0.00    -0.019 C 
HETATM    5  C5  UNL     1      -0.521  52.302 -22.783  1.00  0.00     0.042 C 
HETATM    6  C9  UNL     1      -2.087  52.254 -22.679  1.00  0.00     0.020 C 
HETATM    7  C10 UNL     1      -2.891  50.934 -22.488  1.00  0.00     0.030 C 
HETATM    8  C11 UNL     1      -3.041  50.392 -21.026  1.00  0.00     0.031 C 
HETATM    9  C16 UNL     1      -3.619  48.996 -21.164  1.00  0.00     0.015 A 
HETATM   10  C17 UNL     1      -3.172  47.870 -20.447  1.00  0.00     0.091 A 
HETATM   11  C18 UNL     1      -3.794  46.620 -20.614  1.00  0.00     0.069 A 
HETATM   12  C20 UNL     1      -4.851  46.469 -21.524  1.00  0.00     0.097 A 
HETATM   13  C21 UNL     1      -5.290  47.574 -22.258  1.00  0.00     0.070 A 
HETATM   14  C23 UNL     1      -4.677  48.828 -22.071  1.00  0.00     0.095 A 
HETATM   15  O6  UNL     1      -5.181  49.886 -22.774  1.00  0.00    -0.338 OA
HETATM   16  C24 UNL     1      -4.307  50.966 -23.176  1.00  0.00     0.068 C 
HETATM   17  C25 UNL     1      -5.111  52.258 -22.870  1.00  0.00     0.047 C 
HETATM   18  C26 UNL     1      -4.263  50.887 -24.728  1.00  0.00     0.039 C 
HETATM   19  C27 UNL     1      -3.522  49.708 -25.377  1.00  0.00     0.007 C 
HETATM   20  C28 UNL     1      -2.005  49.836 -25.545  1.00  0.00     0.038 C 
ENDROOT
BRANCH   5  21
HETATM   21  C6  UNL     1       0.344  51.677 -21.622  1.00  0.00     0.057 C 
HETATM   22  C7  UNL     1       0.142  50.166 -21.454  1.00  0.00     0.046 C 
HETATM   23  C8  UNL     1       0.220  52.443 -20.300  1.00  0.00     0.046 C 
BRANCH  21  24
HETATM   24  O1  UNL     1       1.746  51.795 -21.970  1.00  0.00    -0.390 OA
HETATM   25  H12 UNL     1       1.972  52.739 -22.033  1.00  0.00     0.210 HD
ENDBRANCH  21  24
ENDBRANCH   5  21
BRANCH   8  26
HETATM   26  C12 UNL     1      -3.854  51.260 -20.032  1.00  0.00     0.014 C 
BRANCH  26  27
HETATM   27  C13 UNL     1      -3.311  51.252 -18.579  1.00  0.00    -0.022 C 
HETATM   28  C14 UNL     1      -3.894  50.071 -17.797  1.00  0.00     0.009 C 
HETATM   29  C15 UNL     1      -1.783  51.156 -18.546  1.00  0.00     0.009 C 
ENDBRANCH  26  27
ENDBRANCH   8  26
BRANCH  10  30
HETATM   30  O2  UNL     1      -2.142  47.936 -19.547  1.00  0.00    -0.359 OA
HETATM   31  H26 UNL     1      -1.690  48.792 -19.574  1.00  0.00     0.217 HD
ENDBRANCH  10  30
BRANCH  11  32
HETATM   32  C19 UNL     1      -3.342  45.470 -19.798  1.00  0.00     0.275 C 
HETATM   33  O3  UNL     1      -4.140  44.624 -19.400  1.00  0.00    -0.301 OA
ENDBRANCH  11  32
BRANCH  13  34
HETATM   34  C22 UNL     1      -6.379  47.472 -23.265  1.00  0.00     0.275 C 
HETATM   35  O5  UNL     1      -7.534  47.162 -23.004  1.00  0.00    -0.301 OA
ENDBRANCH  13  34
BRANCH  12  36
HETATM   36  O4  UNL     1      -5.492  45.267 -21.678  1.00  0.00    -0.359 OA
HETATM   37  H28 UNL     1      -5.053  44.582 -21.119  1.00  0.00     0.217 HD
ENDBRANCH  12  36
TORSDOF 8
ENDMDL
MODEL 6
REMARK minimizedAffinity -6.86813927
REMARK  8 active torsions:
REMARK  status: ('A' for Active; 'I' for Inactive)
REMARK    1  A    between atoms: C5_5  and  C6_6 
REMARK    2  A    between atoms: C6_6  and  O1_9 
REMARK    3  A    between atoms: C11_12  and  C12_13 
REMARK    4  A    between atoms: C12_13  and  C13_14 
REMARK    5  A    between atoms: C17_18  and  O2_19 
REMARK    6  A    between atoms: C18_20  and  C19_21 
REMARK    7  A    between atoms: C20_23  and  O4_24 
REMARK    8  A    between atoms: C21_25  and  C22_26 
ROOT
HETATM    1  C1  UNL     1       0.734  51.061 -20.678  1.00  0.00     0.019 C 
HETATM    2  C2  UNL     1      -0.540  51.480 -20.773  1.00  0.00    -0.068 C 
HETATM    3  C3  UNL     1      -0.891  52.394 -21.830  1.00  0.00     0.003 C 
HETATM    4  C4  UNL     1      -1.647  52.251 -22.928  1.00  0.00    -0.019 C 
HETATM    5  C5  UNL     1      -2.496  51.174 -23.610  1.00  0.00     0.042 C 
HETATM    6  C9  UNL     1      -2.467  49.707 -23.052  1.00  0.00     0.020 C 
HETATM    7  C10 UNL     1      -3.324  49.236 -21.840  1.00  0.00     0.030 C 
HETATM    8  C11 UNL     1      -4.804  48.815 -22.130  1.00  0.00     0.031 C 
HETATM    9  C16 UNL     1      -5.462  48.666 -20.770  1.00  0.00     0.015 A 
HETATM   10  C17 UNL     1      -6.740  49.154 -20.441  1.00  0.00     0.091 A 
HETATM   11  C18 UNL     1      -7.284  48.937 -19.162  1.00  0.00     0.069 A 
HETATM   12  C20 UNL     1      -6.546  48.256 -18.183  1.00  0.00     0.097 A 
HETATM   13  C21 UNL     1      -5.267  47.784 -18.491  1.00  0.00     0.070 A 
HETATM   14  C23 UNL     1      -4.736  47.987 -19.778  1.00  0.00     0.095 A 
HETATM   15  O6  UNL     1      -3.503  47.458 -20.042  1.00  0.00    -0.338 OA
HETATM   16  C24 UNL     1      -2.625  48.114 -20.985  1.00  0.00     0.068 C 
HETATM   17  C25 UNL     1      -2.039  46.961 -21.844  1.00  0.00     0.047 C 
HETATM   18  C26 UNL     1      -1.427  48.617 -20.131  1.00  0.00     0.039 C 
HETATM   19  C27 UNL     1      -1.664  49.780 -19.157  1.00  0.00     0.007 C 
HETATM   20  C28 UNL     1      -1.590  51.201 -19.725  1.00  0.00     0.038 C 
ENDROOT
BRANCH   5  21
HETATM   21  C6  UNL     1      -3.876  51.799 -24.051  1.00  0.00     0.057 C 
HETATM   22  C7  UNL     1      -3.748  52.831 -25.178  1.00  0.00     0.046 C 
HETATM   23  C8  UNL     1      -4.711  52.308 -22.871  1.00  0.00     0.046 C 
BRANCH  21  24
HETATM   24  O1  UNL     1      -4.693  50.754 -24.639  1.00  0.00    -0.390 OA
HETATM   25  H12 UNL     1      -4.875  50.083 -23.959  1.00  0.00     0.210 HD
ENDBRANCH  21  24
ENDBRANCH   5  21
BRANCH   8  26
HETATM   26  C12 UNL     1      -5.021  47.563 -23.017  1.00  0.00     0.014 C 
BRANCH  26  27
HETATM   27  C13 UNL     1      -5.827  47.828 -24.316  1.00  0.00    -0.022 C 
HETATM   28  C14 UNL     1      -6.893  48.901 -24.073  1.00  0.00     0.009 C 
HETATM   29  C15 UNL     1      -4.921  48.286 -25.462  1.00  0.00     0.009 C 
ENDBRANCH  26  27
ENDBRANCH   8  26
BRANCH  10  30
HETATM   30  O2  UNL     1      -7.518  49.835 -21.339  1.00  0.00    -0.359 OA
HETATM   31  H26 UNL     1      -7.034  50.049 -22.150  1.00  0.00     0.217 HD
ENDBRANCH  10  30
BRANCH  11  32
HETATM   32  C19 UNL     1      -8.656  49.408 -18.868  1.00  0.00     0.275 C 
HETATM   33  O3  UNL     1      -8.970  49.777 -17.739  1.00  0.00    -0.301 OA
ENDBRANCH  11  32
BRANCH  13  34
HETATM   34  C22 UNL     1      -4.419  47.089 -17.487  1.00  0.00     0.275 C 
HETATM   35  O5  UNL     1      -3.922  47.631 -16.508  1.00  0.00    -0.301 OA
ENDBRANCH  13  34
BRANCH  12  36
HETATM   36  O4  UNL     1      -7.070  48.005 -16.942  1.00  0.00    -0.359 OA
HETATM   37  H28 UNL     1      -7.961  48.422 -16.867  1.00  0.00     0.217 HD
ENDBRANCH  12  36
TORSDOF 8
ENDMDL
MODEL 7
REMARK minimizedAffinity -6.66810513
REMARK  8 active torsions:
REMARK  status: ('A' for Active; 'I' for Inactive)
REMARK    1  A    between atoms: C5_5  and  C6_6 
REMARK    2  A    between atoms: C6_6  and  O1_9 
REMARK    3  A    between atoms: C11_12  and  C12_13 
REMARK    4  A    between atoms: C12_13  and  C13_14 
REMARK    5  A    between atoms: C17_18  and  O2_19 
REMARK    6  A    between atoms: C18_20  and  C19_21 
REMARK    7  A    between atoms: C20_23  and  O4_24 
REMARK    8  A    between atoms: C21_25  and  C22_26 
ROOT
HETATM    1  C1  UNL     1     -11.304  43.246 -28.225  1.00  0.00     0.019 C 
HETATM    2  C2  UNL     1     -11.126  44.402 -28.887  1.00  0.00    -0.068 C 
HETATM    3  C3  UNL     1     -10.841  45.595 -28.132  1.00  0.00     0.003 C 
HETATM    4  C4  UNL     1      -9.741  46.355 -28.032  1.00  0.00    -0.019 C 
HETATM    5  C5  UNL     1      -8.322  46.409 -28.605  1.00  0.00     0.042 C 
HETATM    6  C9  UNL     1      -7.804  45.215 -29.483  1.00  0.00     0.020 C 
HETATM    7  C10 UNL     1      -8.123  45.069 -31.001  1.00  0.00     0.030 C 
HETATM    8  C11 UNL     1      -7.214  45.856 -32.003  1.00  0.00     0.031 C 
HETATM    9  C16 UNL     1      -7.901  45.748 -33.353  1.00  0.00     0.015 A 
HETATM   10  C17 UNL     1      -8.069  46.816 -34.253  1.00  0.00     0.091 A 
HETATM   11  C18 UNL     1      -8.689  46.613 -35.500  1.00  0.00     0.069 A 
HETATM   12  C20 UNL     1      -9.178  45.346 -35.851  1.00  0.00     0.097 A 
HETATM   13  C21 UNL     1      -9.036  44.282 -34.956  1.00  0.00     0.070 A 
HETATM   14  C23 UNL     1      -8.397  44.486 -33.719  1.00  0.00     0.095 A 
HETATM   15  O6  UNL     1      -8.237  43.400 -32.905  1.00  0.00    -0.338 OA
HETATM   16  C24 UNL     1      -8.234  43.569 -31.469  1.00  0.00     0.068 C 
HETATM   17  C25 UNL     1      -7.062  42.681 -30.971  1.00  0.00     0.047 C 
HETATM   18  C26 UNL     1      -9.516  42.842 -30.979  1.00  0.00     0.039 C 
HETATM   19  C27 UNL     1     -10.880  43.469 -31.302  1.00  0.00     0.007 C 
HETATM   20  C28 UNL     1     -11.391  44.567 -30.364  1.00  0.00     0.038 C 
ENDROOT
BRANCH   5  21
HETATM   21  C6  UNL     1      -7.993  47.886 -29.049  1.00  0.00     0.057 C 
HETATM   22  C7  UNL     1      -8.752  48.330 -30.306  1.00  0.00     0.046 C 
HETATM   23  C8  UNL     1      -6.489  48.170 -29.132  1.00  0.00     0.046 C 
BRANCH  21  24
HETATM   24  O1  UNL     1      -8.469  48.797 -28.026  1.00  0.00    -0.390 OA
HETATM   25  H12 UNL     1      -7.984  48.620 -27.202  1.00  0.00     0.210 HD
ENDBRANCH  21  24
ENDBRANCH   5  21
BRANCH   8  26
HETATM   26  C12 UNL     1      -5.722  45.440 -32.080  1.00  0.00     0.014 C 
BRANCH  26  27
HETATM   27  C13 UNL     1      -4.729  46.626 -32.188  1.00  0.00    -0.022 C 
HETATM   28  C14 UNL     1      -4.212  46.762 -33.623  1.00  0.00     0.009 C 
HETATM   29  C15 UNL     1      -5.380  47.950 -31.773  1.00  0.00     0.009 C 
ENDBRANCH  26  27
ENDBRANCH   8  26
BRANCH  10  30
HETATM   30  O2  UNL     1      -7.626  48.082 -33.979  1.00  0.00    -0.359 OA
HETATM   31  H26 UNL     1      -7.321  48.170 -33.064  1.00  0.00     0.217 HD
ENDBRANCH  10  30
BRANCH  11  32
HETATM   32  C19 UNL     1      -8.793  47.743 -36.450  1.00  0.00     0.275 C 
HETATM   33  O3  UNL     1      -7.858  48.035 -37.192  1.00  0.00    -0.301 OA
ENDBRANCH  11  32
BRANCH  13  34
HETATM   34  C22 UNL     1      -9.567  42.925 -35.252  1.00  0.00     0.275 C 
HETATM   35  O5  UNL     1     -10.700  42.551 -34.976  1.00  0.00    -0.301 OA
ENDBRANCH  13  34
BRANCH  12  36
HETATM   36  O4  UNL     1      -9.756  45.120 -37.073  1.00  0.00    -0.359 OA
HETATM   37  H28 UNL     1      -9.810  45.966 -37.577  1.00  0.00     0.217 HD
ENDBRANCH  12  36
TORSDOF 8
ENDMDL
MODEL 8
REMARK minimizedAffinity -6.52729988
REMARK  8 active torsions:
REMARK  status: ('A' for Active; 'I' for Inactive)
REMARK    1  A    between atoms: C5_5  and  C6_6 
REMARK    2  A    between atoms: C6_6  and  O1_9 
REMARK    3  A    between atoms: C11_12  and  C12_13 
REMARK    4  A    between atoms: C12_13  and  C13_14 
REMARK    5  A    between atoms: C17_18  and  O2_19 
REMARK    6  A    between atoms: C18_20  and  C19_21 
REMARK    7  A    between atoms: C20_23  and  O4_24 
REMARK    8  A    between atoms: C21_25  and  C22_26 
ROOT
HETATM    1  C1  UNL     1     -20.033  44.800 -22.961  1.00  0.00     0.019 C 
HETATM    2  C2  UNL     1     -19.054  45.718 -23.026  1.00  0.00    -0.068 C 
HETATM    3  C3  UNL     1     -18.657  46.394 -21.817  1.00  0.00     0.003 C 
HETATM    4  C4  UNL     1     -17.534  46.344 -21.086  1.00  0.00    -0.019 C 
HETATM    5  C5  UNL     1     -16.171  45.646 -21.114  1.00  0.00     0.042 C 
HETATM    6  C9  UNL     1     -15.908  44.521 -22.177  1.00  0.00     0.020 C 
HETATM    7  C10 UNL     1     -15.486  44.816 -23.647  1.00  0.00     0.030 C 
HETATM    8  C11 UNL     1     -13.964  45.065 -23.920  1.00  0.00     0.031 C 
HETATM    9  C16 UNL     1     -13.882  45.579 -25.346  1.00  0.00     0.015 A 
HETATM   10  C17 UNL     1     -13.088  46.665 -25.760  1.00  0.00     0.091 A 
HETATM   11  C18 UNL     1     -13.047  47.049 -27.113  1.00  0.00     0.069 A 
HETATM   12  C20 UNL     1     -13.824  46.375 -28.066  1.00  0.00     0.097 A 
HETATM   13  C21 UNL     1     -14.634  45.309 -27.663  1.00  0.00     0.070 A 
HETATM   14  C23 UNL     1     -14.654  44.915 -26.312  1.00  0.00     0.095 A 
HETATM   15  O6  UNL     1     -15.422  43.833 -25.983  1.00  0.00    -0.338 OA
HETATM   16  C24 UNL     1     -16.030  43.753 -24.673  1.00  0.00     0.068 C 
HETATM   17  C25 UNL     1     -15.797  42.286 -24.220  1.00  0.00     0.047 C 
HETATM   18  C26 UNL     1     -17.558  43.846 -24.937  1.00  0.00     0.039 C 
HETATM   19  C27 UNL     1     -18.138  45.190 -25.402  1.00  0.00     0.007 C 
HETATM   20  C28 UNL     1     -18.469  46.225 -24.322  1.00  0.00     0.038 C 
ENDROOT
BRANCH   5  21
HETATM   21  C6  UNL     1     -15.036  46.701 -20.817  1.00  0.00     0.057 C 
HETATM   22  C7  UNL     1     -13.632  46.088 -20.757  1.00  0.00     0.046 C 
HETATM   23  C8  UNL     1     -15.347  47.596 -19.612  1.00  0.00     0.046 C 
BRANCH  21  24
HETATM   24  O1  UNL     1     -14.956  47.624 -21.932  1.00  0.00    -0.390 OA
HETATM   25  H12 UNL     1     -15.799  48.105 -21.999  1.00  0.00     0.210 HD
ENDBRANCH  21  24
ENDBRANCH   5  21
BRANCH   8  26
HETATM   26  C12 UNL     1     -13.001  43.874 -23.679  1.00  0.00     0.014 C 
BRANCH  26  27
HETATM   27  C13 UNL     1     -11.524  44.157 -24.060  1.00  0.00    -0.022 C 
HETATM   28  C14 UNL     1     -10.751  44.682 -22.847  1.00  0.00     0.009 C 
HETATM   29  C15 UNL     1     -10.823  42.899 -24.582  1.00  0.00     0.009 C 
ENDBRANCH  26  27
ENDBRANCH   8  26
BRANCH  10  30
HETATM   30  O2  UNL     1     -12.308  47.377 -24.888  1.00  0.00    -0.359 OA
HETATM   31  H26 UNL     1     -12.479  47.134 -23.966  1.00  0.00     0.217 HD
ENDBRANCH  10  30
BRANCH  11  32
HETATM   32  C19 UNL     1     -12.153  48.154 -27.526  1.00  0.00     0.275 C 
HETATM   33  O3  UNL     1     -11.663  48.916 -26.695  1.00  0.00    -0.301 OA
ENDBRANCH  11  32
BRANCH  13  34
HETATM   34  C22 UNL     1     -15.509  44.578 -28.617  1.00  0.00     0.275 C 
HETATM   35  O5  UNL     1     -16.450  43.867 -28.286  1.00  0.00    -0.301 OA
ENDBRANCH  13  34
BRANCH  12  36
HETATM   36  O4  UNL     1     -13.774  46.712 -29.393  1.00  0.00    -0.359 OA
HETATM   37  H28 UNL     1     -13.187  47.496 -29.515  1.00  0.00     0.217 HD
ENDBRANCH  12  36
TORSDOF 8
ENDMDL
MODEL 9
REMARK minimizedAffinity -6.46214533
REMARK  8 active torsions:
REMARK  status: ('A' for Active; 'I' for Inactive)
REMARK    1  A    between atoms: C5_5  and  C6_6 
REMARK    2  A    between atoms: C6_6  and  O1_9 
REMARK    3  A    between atoms: C11_12  and  C12_13 
REMARK    4  A    between atoms: C12_13  and  C13_14 
REMARK    5  A    between atoms: C17_18  and  O2_19 
REMARK    6  A    between atoms: C18_20  and  C19_21 
REMARK    7  A    between atoms: C20_23  and  O4_24 
REMARK    8  A    between atoms: C21_25  and  C22_26 
ROOT
HETATM    1  C1  UNL     1      -2.198  50.534 -23.451  1.00  0.00     0.019 C 
HETATM    2  C2  UNL     1      -2.481  49.246 -23.188  1.00  0.00    -0.068 C 
HETATM    3  C3  UNL     1      -1.918  48.640 -22.008  1.00  0.00     0.003 C 
HETATM    4  C4  UNL     1      -2.474  48.214 -20.865  1.00  0.00    -0.019 C 
HETATM    5  C5  UNL     1      -3.862  48.109 -20.226  1.00  0.00     0.042 C 
HETATM    6  C9  UNL     1      -5.087  48.781 -20.942  1.00  0.00     0.020 C 
HETATM    7  C10 UNL     1      -5.868  48.109 -22.111  1.00  0.00     0.030 C 
HETATM    8  C11 UNL     1      -6.989  47.086 -21.727  1.00  0.00     0.031 C 
HETATM    9  C16 UNL     1      -7.386  46.406 -23.026  1.00  0.00     0.015 A 
HETATM   10  C17 UNL     1      -7.592  45.022 -23.174  1.00  0.00     0.091 A 
HETATM   11  C18 UNL     1      -7.994  44.485 -24.411  1.00  0.00     0.069 A 
HETATM   12  C20 UNL     1      -8.164  45.319 -25.525  1.00  0.00     0.097 A 
HETATM   13  C21 UNL     1      -7.942  46.694 -25.396  1.00  0.00     0.070 A 
HETATM   14  C23 UNL     1      -7.560  47.228 -24.151  1.00  0.00     0.095 A 
HETATM   15  O6  UNL     1      -7.408  48.584 -24.067  1.00  0.00    -0.338 OA
HETATM   16  C24 UNL     1      -6.445  49.145 -23.147  1.00  0.00     0.068 C 
HETATM   17  C25 UNL     1      -7.185  50.336 -22.480  1.00  0.00     0.047 C 
HETATM   18  C26 UNL     1      -5.368  49.807 -24.052  1.00  0.00     0.039 C 
HETATM   19  C27 UNL     1      -4.438  48.895 -24.865  1.00  0.00     0.007 C 
HETATM   20  C28 UNL     1      -3.201  48.336 -24.154  1.00  0.00     0.038 C 
ENDROOT
BRANCH   5  21
HETATM   21  C6  UNL     1      -4.038  46.678 -19.588  1.00  0.00     0.057 C 
HETATM   22  C7  UNL     1      -3.069  46.400 -18.432  1.00  0.00     0.046 C 
HETATM   23  C8  UNL     1      -4.059  45.553 -20.629  1.00  0.00     0.046 C 
BRANCH  21  24
HETATM   24  O1  UNL     1      -5.344  46.605 -18.961  1.00  0.00    -0.390 OA
HETATM   25  H12 UNL     1      -6.024  46.710 -19.648  1.00  0.00     0.210 HD
ENDBRANCH  21  24
ENDBRANCH   5  21
BRANCH   8  26
HETATM   26  C12 UNL     1      -8.221  47.640 -20.966  1.00  0.00     0.014 C 
BRANCH  26  27
HETATM   27  C13 UNL     1      -8.105  47.571 -19.421  1.00  0.00    -0.022 C 
HETATM   28  C14 UNL     1      -8.290  48.963 -18.809  1.00  0.00     0.009 C 
HETATM   29  C15 UNL     1      -9.148  46.626 -18.816  1.00  0.00     0.009 C 
ENDBRANCH  26  27
ENDBRANCH   8  26
BRANCH  10  30
HETATM   30  O2  UNL     1      -7.438  44.143 -22.136  1.00  0.00    -0.359 OA
HETATM   31  H26 UNL     1      -7.048  44.566 -21.357  1.00  0.00     0.217 HD
ENDBRANCH  10  30
BRANCH  11  32
HETATM   32  C19 UNL     1      -8.263  43.034 -24.517  1.00  0.00     0.275 C 
HETATM   33  O3  UNL     1      -7.587  42.316 -25.252  1.00  0.00    -0.301 OA
ENDBRANCH  11  32
BRANCH  13  34
HETATM   34  C22 UNL     1      -8.068  47.626 -26.547  1.00  0.00     0.275 C 
HETATM   35  O5  UNL     1      -7.515  47.467 -27.628  1.00  0.00    -0.301 OA
ENDBRANCH  13  34
BRANCH  12  36
HETATM   36  O4  UNL     1      -8.586  44.821 -26.730  1.00  0.00    -0.359 OA
HETATM   37  H28 UNL     1      -8.671  43.840 -26.672  1.00  0.00     0.217 HD
ENDBRANCH  12  36
TORSDOF 8
ENDMDL
