MODEL 1
REMARK minimizedAffinity -9.35368538
REMARK CNNscore 0.626666725
REMARK CNNaffinity 7.21794462
REMARK  10 active torsions:
REMARK  status: ('A' for Active; 'I' for Inactive)
REMARK    1  A    between atoms: C19_21  and  O3_22 
REMARK    2  A    between atoms: C19_21  and  C20_23 
REMARK    3  A    between atoms: C20_23  and  C21_25 
REMARK    4  A    between atoms: C21_25  and  O5_26 
REMARK    5  A    between atoms: O5_26  and  C22_27 
REMARK    6  A    between atoms: C22_27  and  C23_29 
REMARK    7  A    between atoms: C23_29  and  C24_30 
REMARK    8  A    between atoms: C24_30  and  C25_31 
REMARK       I    between atoms: C25_31  and  N1_33 
REMARK    9  A    between atoms: N1_33  and  C26_34 
REMARK   10  A    between atoms: C26_34  and  C27_35 
ROOT
HETATM    1  C1  UNL     1       3.074   7.132  11.486  1.00  0.00     0.021 C 
HETATM    2  C2  UNL     1       1.974   6.371  10.712  1.00  0.00    -0.009 C 
HETATM    3  C3  UNL     1       2.342   4.859  10.622  1.00  0.00     0.022 C 
HETATM    4  C4  UNL     1       3.483   4.559   9.660  1.00  0.00     0.084 C 
HETATM    5  C5  UNL     1       3.169   5.099   8.291  1.00  0.00     0.149 C 
HETATM    6  O1  UNL     1       3.578   4.568   7.262  1.00  0.00    -0.293 OA
HETATM    7  C6  UNL     1       2.411   6.369   8.202  1.00  0.00     0.053 C 
HETATM    8  C7  UNL     1       1.909   6.972   9.295  1.00  0.00    -0.067 C 
HETATM    9  C8  UNL     1       1.266   8.333   9.163  1.00  0.00     0.035 C 
HETATM   10  C9  UNL     1      -0.107   8.377   9.815  1.00  0.00     0.010 C 
HETATM   11  C10 UNL     1      -0.045   7.932  11.282  1.00  0.00     0.003 C 
HETATM   12  C11 UNL     1       0.560   6.500  11.382  1.00  0.00     0.072 C 
HETATM   13  C12 UNL     1       0.462   6.004  12.840  1.00  0.00     0.133 C 
HETATM   14  O2  UNL     1       1.416   5.546  13.465  1.00  0.00    -0.297 OA
HETATM   15  C13 UNL     1      -0.914   6.074  13.492  1.00  0.00     0.091 C 
HETATM   16  C14 UNL     1      -1.438   7.514  13.412  1.00  0.00     0.005 C 
HETATM   17  C15 UNL     1      -0.548   8.424  14.299  1.00  0.00     0.019 C 
HETATM   18  C16 UNL     1      -1.442   7.924  11.916  1.00  0.00     0.002 C 
HETATM   19  C17 UNL     1      -2.262   9.212  11.893  1.00  0.00     0.009 C 
HETATM   20  C18 UNL     1      -3.284   9.052  13.037  1.00  0.00     0.047 C 
HETATM   21  C19 UNL     1      -2.944   7.721  13.741  1.00  0.00     0.128 C 
ENDROOT
BRANCH  21  22
HETATM   22  O3  UNL     1      -3.710   6.694  13.076  1.00  0.00    -0.381 OA
HETATM   23  H25 UNL     1      -3.808   5.958  13.717  1.00  0.00     0.211 HD
ENDBRANCH  21  22
BRANCH  21  24
HETATM   24  C20 UNL     1      -3.305   7.601  15.235  1.00  0.00     0.185 C 
HETATM   25  O4  UNL     1      -3.085   8.568  15.976  1.00  0.00    -0.292 OA
BRANCH  24  26
HETATM   26  C21 UNL     1      -3.934   6.312  15.761  1.00  0.00     0.260 C 
BRANCH  26  27
HETATM   27  O5  UNL     1      -5.068   5.902  14.991  1.00  0.00    -0.314 OA
BRANCH  27  28
HETATM   28  C22 UNL     1      -6.262   6.217  15.571  1.00  0.00     0.259 C 
HETATM   29  O6  UNL     1      -6.672   5.728  16.618  1.00  0.00    -0.265 OA
BRANCH  28  30
HETATM   30  C23 UNL     1      -7.007   7.218  14.728  1.00  0.00     0.120 C 
BRANCH  30  31
HETATM   31  C24 UNL     1      -8.449   6.771  14.524  1.00  0.00     0.112 C 
BRANCH  31  32
HETATM   32  C25 UNL     1      -8.574   5.752  13.416  1.00  0.00     0.218 C 
HETATM   33  O7  UNL     1      -9.166   5.963  12.362  1.00  0.00    -0.274 OA
HETATM   34  N1  UNL     1      -7.940   4.565  13.713  1.00  0.00    -0.357 N 
HETATM   35  H32 UNL     1      -7.623   4.410  14.661  1.00  0.00     0.162 HD
BRANCH  34  36
HETATM   36  C26 UNL     1      -8.011   3.420  12.832  1.00  0.00     0.162 C 
BRANCH  36  37
HETATM   37  C27 UNL     1      -6.642   2.984  12.401  1.00  0.00    -0.025 A 
HETATM   38  C28 UNL     1      -5.509   3.752  12.687  1.00  0.00     0.011 A 
HETATM   39  C29 UNL     1      -4.257   3.327  12.253  1.00  0.00     0.018 A 
HETATM   40  C30 UNL     1      -4.178   2.145  11.536  1.00  0.00     0.087 A 
HETATM   41  N2  UNL     1      -5.248   1.380  11.230  1.00  0.00    -0.375 N 
HETATM   42  C31 UNL     1      -6.452   1.816  11.668  1.00  0.00     0.096 A 
ATOM     43  H2  UNL     1      -5.154   0.517  10.696  1.00  0.00     0.164 HD
ENDBRANCH  36  37
ENDBRANCH  34  36
ENDBRANCH  31  32
ENDBRANCH  30  31
ENDBRANCH  28  30
ENDBRANCH  27  28
ENDBRANCH  26  27
ENDBRANCH  24  26
ENDBRANCH  21  24
TORSDOF 10
ENDMDL
MODEL 2
REMARK minimizedAffinity -8.25047398
REMARK CNNscore 0.586021185
REMARK CNNaffinity 7.52245474
REMARK  10 active torsions:
REMARK  status: ('A' for Active; 'I' for Inactive)
REMARK    1  A    between atoms: C19_21  and  O3_22 
REMARK    2  A    between atoms: C19_21  and  C20_23 
REMARK    3  A    between atoms: C20_23  and  C21_25 
REMARK    4  A    between atoms: C21_25  and  O5_26 
REMARK    5  A    between atoms: O5_26  and  C22_27 
REMARK    6  A    between atoms: C22_27  and  C23_29 
REMARK    7  A    between atoms: C23_29  and  C24_30 
REMARK    8  A    between atoms: C24_30  and  C25_31 
REMARK       I    between atoms: C25_31  and  N1_33 
REMARK    9  A    between atoms: N1_33  and  C26_34 
REMARK   10  A    between atoms: C26_34  and  C27_35 
ROOT
HETATM    1  C1  UNL     1      -7.602   4.322  14.797  1.00  0.00     0.021 C 
HETATM    2  C2  UNL     1      -7.119   5.713  14.327  1.00  0.00    -0.009 C 
HETATM    3  C3  UNL     1      -6.223   5.560  13.060  1.00  0.00     0.022 C 
HETATM    4  C4  UNL     1      -4.847   4.976  13.345  1.00  0.00     0.084 C 
HETATM    5  C5  UNL     1      -4.136   5.796  14.388  1.00  0.00     0.149 C 
HETATM    6  O1  UNL     1      -2.915   5.920  14.411  1.00  0.00    -0.293 OA
HETATM    7  C6  UNL     1      -4.949   6.398  15.471  1.00  0.00     0.053 C 
HETATM    8  C7  UNL     1      -6.292   6.324  15.474  1.00  0.00    -0.067 C 
HETATM    9  C8  UNL     1      -7.061   6.833  16.670  1.00  0.00     0.035 C 
HETATM   10  C9  UNL     1      -8.178   7.783  16.265  1.00  0.00     0.010 C 
HETATM   11  C10 UNL     1      -9.115   7.138  15.235  1.00  0.00     0.003 C 
HETATM   12  C11 UNL     1      -8.305   6.684  13.984  1.00  0.00     0.072 C 
HETATM   13  C12 UNL     1      -9.279   6.192  12.894  1.00  0.00     0.133 C 
HETATM   14  O2  UNL     1      -9.167   5.109  12.324  1.00  0.00    -0.297 OA
HETATM   15  C13 UNL     1     -10.409   7.141  12.511  1.00  0.00     0.091 C 
HETATM   16  C14 UNL     1     -11.204   7.514  13.769  1.00  0.00     0.005 C 
HETATM   17  C15 UNL     1     -11.931   6.250  14.299  1.00  0.00     0.019 C 
HETATM   18  C16 UNL     1     -10.204   8.122  14.787  1.00  0.00     0.002 C 
HETATM   19  C17 UNL     1     -11.102   8.750  15.851  1.00  0.00     0.009 C 
HETATM   20  C18 UNL     1     -12.369   9.192  15.090  1.00  0.00     0.047 C 
HETATM   21  C19 UNL     1     -12.193   8.706  13.635  1.00  0.00     0.128 C 
ENDROOT
BRANCH  21  22
HETATM   22  O3  UNL     1     -11.537   9.775  12.919  1.00  0.00    -0.381 OA
HETATM   23  H25 UNL     1     -11.760   9.656  11.971  1.00  0.00     0.211 HD
ENDBRANCH  21  22
BRANCH  21  24
HETATM   24  C20 UNL     1     -13.474   8.401  12.834  1.00  0.00     0.185 C 
HETATM   25  O4  UNL     1     -13.930   9.279  12.090  1.00  0.00    -0.292 OA
BRANCH  24  26
HETATM   26  C21 UNL     1     -14.139   7.031  12.961  1.00  0.00     0.260 C 
BRANCH  26  27
HETATM   27  O5  UNL     1     -15.395   7.094  13.643  1.00  0.00    -0.314 OA
BRANCH  27  28
HETATM   28  C22 UNL     1     -16.293   6.160  13.216  1.00  0.00     0.259 C 
HETATM   29  O6  UNL     1     -16.658   6.033  12.053  1.00  0.00    -0.265 OA
BRANCH  28  30
HETATM   30  C23 UNL     1     -16.790   5.341  14.377  1.00  0.00     0.120 C 
BRANCH  30  31
HETATM   31  C24 UNL     1     -15.621   4.684  15.102  1.00  0.00     0.112 C 
BRANCH  31  32
HETATM   32  C25 UNL     1     -15.456   3.234  14.710  1.00  0.00     0.218 C 
HETATM   33  O7  UNL     1     -14.381   2.645  14.726  1.00  0.00    -0.274 OA
HETATM   34  N1  UNL     1     -16.647   2.644  14.346  1.00  0.00    -0.357 N 
HETATM   35  H32 UNL     1     -17.454   3.236  14.197  1.00  0.00     0.162 HD
BRANCH  34  36
HETATM   36  C26 UNL     1     -16.707   1.288  13.848  1.00  0.00     0.162 C 
BRANCH  36  37
HETATM   37  C27 UNL     1     -16.587   0.295  14.967  1.00  0.00    -0.025 A 
HETATM   38  C28 UNL     1     -17.165   0.534  16.217  1.00  0.00     0.011 A 
HETATM   39  C29 UNL     1     -17.016  -0.401  17.237  1.00  0.00     0.018 A 
HETATM   40  C30 UNL     1     -16.283  -1.546  16.976  1.00  0.00     0.087 A 
HETATM   41  N2  UNL     1     -15.700  -1.808  15.786  1.00  0.00    -0.375 N 
HETATM   42  C31 UNL     1     -15.865  -0.885  14.812  1.00  0.00     0.096 A 
ATOM     43  H2  UNL     1     -15.163  -2.661  15.630  1.00  0.00     0.164 HD
ENDBRANCH  36  37
ENDBRANCH  34  36
ENDBRANCH  31  32
ENDBRANCH  30  31
ENDBRANCH  28  30
ENDBRANCH  27  28
ENDBRANCH  26  27
ENDBRANCH  24  26
ENDBRANCH  21  24
TORSDOF 10
ENDMDL
MODEL 3
REMARK minimizedAffinity -7.69043398
REMARK CNNscore 0.52155596
REMARK CNNaffinity 7.003263
REMARK  10 active torsions:
REMARK  status: ('A' for Active; 'I' for Inactive)
REMARK    1  A    between atoms: C19_21  and  O3_22 
REMARK    2  A    between atoms: C19_21  and  C20_23 
REMARK    3  A    between atoms: C20_23  and  C21_25 
REMARK    4  A    between atoms: C21_25  and  O5_26 
REMARK    5  A    between atoms: O5_26  and  C22_27 
REMARK    6  A    between atoms: C22_27  and  C23_29 
REMARK    7  A    between atoms: C23_29  and  C24_30 
REMARK    8  A    between atoms: C24_30  and  C25_31 
REMARK       I    between atoms: C25_31  and  N1_33 
REMARK    9  A    between atoms: N1_33  and  C26_34 
REMARK   10  A    between atoms: C26_34  and  C27_35 
ROOT
HETATM    1  C1  UNL     1      -2.312   5.878  11.488  1.00  0.00     0.021 C 
HETATM    2  C2  UNL     1      -2.641   4.561  12.227  1.00  0.00    -0.009 C 
HETATM    3  C3  UNL     1      -1.429   4.136  13.110  1.00  0.00     0.022 C 
HETATM    4  C4  UNL     1      -0.242   3.608  12.316  1.00  0.00     0.084 C 
HETATM    5  C5  UNL     1      -0.669   2.465  11.434  1.00  0.00     0.149 C 
HETATM    6  O1  UNL     1       0.084   1.541  11.140  1.00  0.00    -0.293 OA
HETATM    7  C6  UNL     1      -2.025   2.517  10.838  1.00  0.00     0.053 C 
HETATM    8  C7  UNL     1      -2.903   3.486  11.156  1.00  0.00    -0.067 C 
HETATM    9  C8  UNL     1      -4.217   3.569  10.416  1.00  0.00     0.035 C 
HETATM   10  C9  UNL     1      -5.399   3.660  11.368  1.00  0.00     0.010 C 
HETATM   11  C10 UNL     1      -5.239   4.829  12.349  1.00  0.00     0.003 C 
HETATM   12  C11 UNL     1      -3.908   4.680  13.146  1.00  0.00     0.072 C 
HETATM   13  C12 UNL     1      -3.843   5.767  14.240  1.00  0.00     0.133 C 
HETATM   14  O2  UNL     1      -2.879   6.513  14.396  1.00  0.00    -0.297 OA
HETATM   15  C13 UNL     1      -5.043   5.865  15.174  1.00  0.00     0.091 C 
HETATM   16  C14 UNL     1      -6.317   6.062  14.342  1.00  0.00     0.005 C 
HETATM   17  C15 UNL     1      -6.257   7.450  13.650  1.00  0.00     0.019 C 
HETATM   18  C16 UNL     1      -6.407   4.879  13.344  1.00  0.00     0.002 C 
HETATM   19  C17 UNL     1      -7.829   4.970  12.795  1.00  0.00     0.009 C 
HETATM   20  C18 UNL     1      -8.664   5.555  13.953  1.00  0.00     0.047 C 
HETATM   21  C19 UNL     1      -7.668   5.874  15.089  1.00  0.00     0.128 C 
ENDROOT
BRANCH  21  22
HETATM   22  O3  UNL     1      -7.583   4.689  15.909  1.00  0.00    -0.381 OA
HETATM   23  H25 UNL     1      -7.286   4.982  16.797  1.00  0.00     0.211 HD
ENDBRANCH  21  22
BRANCH  21  24
HETATM   24  C20 UNL     1      -8.041   7.016  16.055  1.00  0.00     0.185 C 
HETATM   25  O4  UNL     1      -7.461   7.080  17.147  1.00  0.00    -0.292 OA
BRANCH  24  26
HETATM   26  C21 UNL     1      -9.096   8.041  15.643  1.00  0.00     0.260 C 
BRANCH  26  27
HETATM   27  O5  UNL     1      -9.942   8.423  16.731  1.00  0.00    -0.314 OA
BRANCH  27  28
HETATM   28  C22 UNL     1     -10.428   9.693  16.623  1.00  0.00     0.259 C 
HETATM   29  O6  UNL     1     -10.395  10.362  15.597  1.00  0.00    -0.265 OA
BRANCH  28  30
HETATM   30  C23 UNL     1     -10.977  10.159  17.946  1.00  0.00     0.120 C 
BRANCH  30  31
HETATM   31  C24 UNL     1     -11.762  11.452  17.770  1.00  0.00     0.112 C 
BRANCH  31  32
HETATM   32  C25 UNL     1     -10.895  12.673  17.979  1.00  0.00     0.218 C 
HETATM   33  O7  UNL     1     -11.018  13.711  17.338  1.00  0.00    -0.274 OA
HETATM   34  N1  UNL     1      -9.963  12.496  18.978  1.00  0.00    -0.357 N 
HETATM   35  H32 UNL     1      -9.813  11.563  19.341  1.00  0.00     0.162 HD
BRANCH  34  36
HETATM   36  C26 UNL     1      -8.971  13.502  19.284  1.00  0.00     0.162 C 
BRANCH  36  37
HETATM   37  C27 UNL     1      -8.425  13.320  20.670  1.00  0.00    -0.025 A 
HETATM   38  C28 UNL     1      -7.080  13.563  20.960  1.00  0.00     0.011 A 
HETATM   39  C29 UNL     1      -6.605  13.365  22.254  1.00  0.00     0.018 A 
HETATM   40  C30 UNL     1      -7.494  12.919  23.218  1.00  0.00     0.087 A 
HETATM   41  N2  UNL     1      -8.797  12.664  22.975  1.00  0.00    -0.375 N 
HETATM   42  C31 UNL     1      -9.232  12.869  21.711  1.00  0.00     0.096 A 
ATOM     43  H2  UNL     1      -9.423  12.332  23.709  1.00  0.00     0.164 HD
ENDBRANCH  36  37
ENDBRANCH  34  36
ENDBRANCH  31  32
ENDBRANCH  30  31
ENDBRANCH  28  30
ENDBRANCH  27  28
ENDBRANCH  26  27
ENDBRANCH  24  26
ENDBRANCH  21  24
TORSDOF 10
ENDMDL
MODEL 4
REMARK minimizedAffinity -7.5574913
REMARK CNNscore 0.508125007
REMARK CNNaffinity 6.77644682
REMARK  10 active torsions:
REMARK  status: ('A' for Active; 'I' for Inactive)
REMARK    1  A    between atoms: C19_21  and  O3_22 
REMARK    2  A    between atoms: C19_21  and  C20_23 
REMARK    3  A    between atoms: C20_23  and  C21_25 
REMARK    4  A    between atoms: C21_25  and  O5_26 
REMARK    5  A    between atoms: O5_26  and  C22_27 
REMARK    6  A    between atoms: C22_27  and  C23_29 
REMARK    7  A    between atoms: C23_29  and  C24_30 
REMARK    8  A    between atoms: C24_30  and  C25_31 
REMARK       I    between atoms: C25_31  and  N1_33 
REMARK    9  A    between atoms: N1_33  and  C26_34 
REMARK   10  A    between atoms: C26_34  and  C27_35 
ROOT
HETATM    1  C1  UNL     1      -0.374  11.424  18.298  1.00  0.00     0.021 C 
HETATM    2  C2  UNL     1       0.043  11.814  16.862  1.00  0.00    -0.009 C 
HETATM    3  C3  UNL     1       1.579  12.074  16.811  1.00  0.00     0.022 C 
HETATM    4  C4  UNL     1       2.008  13.371  17.484  1.00  0.00     0.084 C 
HETATM    5  C5  UNL     1       1.264  14.538  16.893  1.00  0.00     0.149 C 
HETATM    6  O1  UNL     1       1.753  15.662  16.817  1.00  0.00    -0.293 OA
HETATM    7  C6  UNL     1      -0.140  14.325  16.472  1.00  0.00     0.053 C 
HETATM    8  C7  UNL     1      -0.712  13.107  16.499  1.00  0.00    -0.067 C 
HETATM    9  C8  UNL     1      -2.184  12.971  16.190  1.00  0.00     0.035 C 
HETATM   10  C9  UNL     1      -2.448  11.898  15.145  1.00  0.00     0.010 C 
HETATM   11  C10 UNL     1      -1.840  10.551  15.560  1.00  0.00     0.003 C 
HETATM   12  C11 UNL     1      -0.309  10.708  15.805  1.00  0.00     0.072 C 
HETATM   13  C12 UNL     1       0.314   9.319  16.057  1.00  0.00     0.133 C 
HETATM   14  O2  UNL     1       1.031   9.063  17.021  1.00  0.00    -0.297 OA
HETATM   15  C13 UNL     1       0.024   8.244  15.015  1.00  0.00     0.091 C 
HETATM   16  C14 UNL     1      -1.495   8.095  14.851  1.00  0.00     0.005 C 
HETATM   17  C15 UNL     1      -2.089   7.524  16.166  1.00  0.00     0.019 C 
HETATM   18  C16 UNL     1      -2.060   9.489  14.474  1.00  0.00     0.002 C 
HETATM   19  C17 UNL     1      -3.487   9.194  14.020  1.00  0.00     0.009 C 
HETATM   20  C18 UNL     1      -3.424   7.781  13.404  1.00  0.00     0.047 C 
HETATM   21  C19 UNL     1      -1.981   7.277  13.622  1.00  0.00     0.128 C 
ENDROOT
BRANCH  21  22
HETATM   22  O3  UNL     1      -1.222   7.685  12.464  1.00  0.00    -0.381 OA
HETATM   23  H25 UNL     1      -0.457   7.073  12.400  1.00  0.00     0.211 HD
ENDBRANCH  21  22
BRANCH  21  24
HETATM   24  C20 UNL     1      -1.776   5.753  13.732  1.00  0.00     0.185 C 
HETATM   25  O4  UNL     1      -2.759   5.040  13.971  1.00  0.00    -0.292 OA
BRANCH  24  26
HETATM   26  C21 UNL     1      -0.382   5.160  13.532  1.00  0.00     0.260 C 
BRANCH  26  27
HETATM   27  O5  UNL     1      -0.365   4.122  12.548  1.00  0.00    -0.314 OA
BRANCH  27  28
HETATM   28  C22 UNL     1      -0.567   4.575  11.276  1.00  0.00     0.259 C 
HETATM   29  O6  UNL     1       0.127   5.421  10.725  1.00  0.00    -0.265 OA
BRANCH  28  30
HETATM   30  C23 UNL     1      -1.776   3.911  10.670  1.00  0.00     0.120 C 
BRANCH  30  31
HETATM   31  C24 UNL     1      -1.741   2.410  10.927  1.00  0.00     0.112 C 
BRANCH  31  32
HETATM   32  C25 UNL     1      -3.094   1.875  11.336  1.00  0.00     0.218 C 
HETATM   33  O7  UNL     1      -3.257   0.791  11.887  1.00  0.00    -0.274 OA
HETATM   34  N1  UNL     1      -4.120   2.743  11.036  1.00  0.00    -0.357 N 
HETATM   35  H32 UNL     1      -3.926   3.534  10.435  1.00  0.00     0.162 HD
BRANCH  34  36
HETATM   36  C26 UNL     1      -5.506   2.394  11.257  1.00  0.00     0.162 C 
BRANCH  36  37
HETATM   37  C27 UNL     1      -6.118   3.257  12.321  1.00  0.00    -0.025 A 
HETATM   38  C28 UNL     1      -7.304   2.890  12.963  1.00  0.00     0.011 A 
HETATM   39  C29 UNL     1      -7.854   3.726  13.931  1.00  0.00     0.018 A 
HETATM   40  C30 UNL     1      -7.200   4.911  14.222  1.00  0.00     0.087 A 
HETATM   41  N2  UNL     1      -6.058   5.306  13.618  1.00  0.00    -0.375 N 
HETATM   42  C31 UNL     1      -5.545   4.473  12.684  1.00  0.00     0.096 A 
ATOM     43  H2  UNL     1      -5.606   6.189  13.854  1.00  0.00     0.164 HD
ENDBRANCH  36  37
ENDBRANCH  34  36
ENDBRANCH  31  32
ENDBRANCH  30  31
ENDBRANCH  28  30
ENDBRANCH  27  28
ENDBRANCH  26  27
ENDBRANCH  24  26
ENDBRANCH  21  24
TORSDOF 10
ENDMDL
MODEL 5
REMARK minimizedAffinity -8.05038738
REMARK CNNscore 0.466875285
REMARK CNNaffinity 6.76369143
REMARK  10 active torsions:
REMARK  status: ('A' for Active; 'I' for Inactive)
REMARK    1  A    between atoms: C19_21  and  O3_22 
REMARK    2  A    between atoms: C19_21  and  C20_23 
REMARK    3  A    between atoms: C20_23  and  C21_25 
REMARK    4  A    between atoms: C21_25  and  O5_26 
REMARK    5  A    between atoms: O5_26  and  C22_27 
REMARK    6  A    between atoms: C22_27  and  C23_29 
REMARK    7  A    between atoms: C23_29  and  C24_30 
REMARK    8  A    between atoms: C24_30  and  C25_31 
REMARK       I    between atoms: C25_31  and  N1_33 
REMARK    9  A    between atoms: N1_33  and  C26_34 
REMARK   10  A    between atoms: C26_34  and  C27_35 
ROOT
HETATM    1  C1  UNL     1      -1.524   5.144  10.451  1.00  0.00     0.021 C 
HETATM    2  C2  UNL     1      -1.635   4.303  11.743  1.00  0.00    -0.009 C 
HETATM    3  C3  UNL     1      -0.307   3.521  11.978  1.00  0.00     0.022 C 
HETATM    4  C4  UNL     1      -0.099   2.357  11.020  1.00  0.00     0.084 C 
HETATM    5  C5  UNL     1      -1.273   1.417  11.076  1.00  0.00     0.149 C 
HETATM    6  O1  UNL     1      -1.162   0.209  10.882  1.00  0.00    -0.293 OA
HETATM    7  C6  UNL     1      -2.619   1.998  11.289  1.00  0.00     0.053 C 
HETATM    8  C7  UNL     1      -2.793   3.308  11.545  1.00  0.00    -0.067 C 
HETATM    9  C8  UNL     1      -4.193   3.870  11.616  1.00  0.00     0.035 C 
HETATM   10  C9  UNL     1      -4.413   4.686  12.881  1.00  0.00     0.010 C 
HETATM   11  C10 UNL     1      -3.361   5.794  13.022  1.00  0.00     0.003 C 
HETATM   12  C11 UNL     1      -1.930   5.178  13.013  1.00  0.00     0.072 C 
HETATM   13  C12 UNL     1      -0.895   6.281  13.322  1.00  0.00     0.133 C 
HETATM   14  O2  UNL     1       0.096   6.492  12.628  1.00  0.00    -0.297 OA
HETATM   15  C13 UNL     1      -1.137   7.108  14.579  1.00  0.00     0.091 C 
HETATM   16  C14 UNL     1      -2.537   7.732  14.512  1.00  0.00     0.005 C 
HETATM   17  C15 UNL     1      -2.571   8.770  13.359  1.00  0.00     0.019 C 
HETATM   18  C16 UNL     1      -3.553   6.575  14.329  1.00  0.00     0.002 C 
HETATM   19  C17 UNL     1      -4.906   7.231  14.594  1.00  0.00     0.009 C 
HETATM   20  C18 UNL     1      -4.613   8.344  15.622  1.00  0.00     0.047 C 
HETATM   21  C19 UNL     1      -3.083   8.350  15.830  1.00  0.00     0.128 C 
ENDROOT
BRANCH  21  22
HETATM   22  O3  UNL     1      -2.810   7.441  16.917  1.00  0.00    -0.381 OA
HETATM   23  H25 UNL     1      -1.949   7.714  17.302  1.00  0.00     0.211 HD
ENDBRANCH  21  22
BRANCH  21  24
HETATM   24  C20 UNL     1      -2.433   9.687  16.239  1.00  0.00     0.185 C 
HETATM   25  O4  UNL     1      -2.615  10.678  15.520  1.00  0.00    -0.292 OA
BRANCH  24  26
HETATM   26  C21 UNL     1      -1.600   9.764  17.517  1.00  0.00     0.260 C 
BRANCH  26  27
HETATM   27  O5  UNL     1      -0.825  10.963  17.594  1.00  0.00    -0.314 OA
BRANCH  27  28
HETATM   28  C22 UNL     1      -1.158  11.761  18.649  1.00  0.00     0.259 C 
HETATM   29  O6  UNL     1      -2.301  12.115  18.914  1.00  0.00    -0.265 OA
BRANCH  28  30
HETATM   30  C23 UNL     1       0.076  12.164  19.412  1.00  0.00     0.120 C 
BRANCH  30  31
HETATM   31  C24 UNL     1       0.637  10.975  20.180  1.00  0.00     0.112 C 
BRANCH  31  32
HETATM   32  C25 UNL     1       2.071  10.684  19.803  1.00  0.00     0.218 C 
HETATM   33  O7  UNL     1       2.518   9.551  19.656  1.00  0.00    -0.274 OA
HETATM   34  N1  UNL     1       2.816  11.829  19.629  1.00  0.00    -0.357 N 
HETATM   35  H32 UNL     1       2.425  12.712  19.931  1.00  0.00     0.162 HD
BRANCH  34  36
HETATM   36  C26 UNL     1       4.236  11.783  19.356  1.00  0.00     0.162 C 
BRANCH  36  37
HETATM   37  C27 UNL     1       5.035  11.979  20.611  1.00  0.00    -0.025 A 
HETATM   38  C28 UNL     1       4.420  12.025  21.865  1.00  0.00     0.011 A 
HETATM   39  C29 UNL     1       5.191  12.228  23.006  1.00  0.00     0.018 A 
HETATM   40  C30 UNL     1       6.558  12.388  22.854  1.00  0.00     0.087 A 
HETATM   41  N2  UNL     1       7.188  12.361  21.660  1.00  0.00    -0.375 N 
HETATM   42  C31 UNL     1       6.415  12.158  20.569  1.00  0.00     0.096 A 
ATOM     43  H2  UNL     1       8.197  12.487  21.584  1.00  0.00     0.164 HD
ENDBRANCH  36  37
ENDBRANCH  34  36
ENDBRANCH  31  32
ENDBRANCH  30  31
ENDBRANCH  28  30
ENDBRANCH  27  28
ENDBRANCH  26  27
ENDBRANCH  24  26
ENDBRANCH  21  24
TORSDOF 10
ENDMDL
MODEL 6
REMARK minimizedAffinity -7.72603416
REMARK CNNscore 0.437932253
REMARK CNNaffinity 5.86647749
REMARK  10 active torsions:
REMARK  status: ('A' for Active; 'I' for Inactive)
REMARK    1  A    between atoms: C19_21  and  O3_22 
REMARK    2  A    between atoms: C19_21  and  C20_23 
REMARK    3  A    between atoms: C20_23  and  C21_25 
REMARK    4  A    between atoms: C21_25  and  O5_26 
REMARK    5  A    between atoms: O5_26  and  C22_27 
REMARK    6  A    between atoms: C22_27  and  C23_29 
REMARK    7  A    between atoms: C23_29  and  C24_30 
REMARK    8  A    between atoms: C24_30  and  C25_31 
REMARK       I    between atoms: C25_31  and  N1_33 
REMARK    9  A    between atoms: N1_33  and  C26_34 
REMARK   10  A    between atoms: C26_34  and  C27_35 
ROOT
HETATM    1  C1  UNL     1     -10.629  14.004  22.545  1.00  0.00     0.021 C 
HETATM    2  C2  UNL     1      -9.623  12.862  22.276  1.00  0.00    -0.009 C 
HETATM    3  C3  UNL     1      -8.330  13.089  23.117  1.00  0.00     0.022 C 
HETATM    4  C4  UNL     1      -7.455  14.226  22.609  1.00  0.00     0.084 C 
HETATM    5  C5  UNL     1      -7.102  14.008  21.162  1.00  0.00     0.149 C 
HETATM    6  O1  UNL     1      -6.044  14.396  20.675  1.00  0.00    -0.293 OA
HETATM    7  C6  UNL     1      -8.117  13.375  20.287  1.00  0.00     0.053 C 
HETATM    8  C7  UNL     1      -9.276  12.898  20.776  1.00  0.00    -0.067 C 
HETATM    9  C8  UNL     1     -10.331  12.390  19.822  1.00  0.00     0.035 C 
HETATM   10  C9  UNL     1     -10.830  11.007  20.212  1.00  0.00     0.010 C 
HETATM   11  C10 UNL     1     -11.333  10.982  21.661  1.00  0.00     0.003 C 
HETATM   12  C11 UNL     1     -10.203  11.446  22.628  1.00  0.00     0.072 C 
HETATM   13  C12 UNL     1     -10.668  11.257  24.087  1.00  0.00     0.133 C 
HETATM   14  O2  UNL     1     -10.613  12.143  24.936  1.00  0.00    -0.297 OA
HETATM   15  C13 UNL     1     -11.189   9.874  24.462  1.00  0.00     0.091 C 
HETATM   16  C14 UNL     1     -12.332   9.490  23.513  1.00  0.00     0.005 C 
HETATM   17  C15 UNL     1     -13.537  10.433  23.768  1.00  0.00     0.019 C 
HETATM   18  C16 UNL     1     -11.781   9.571  22.065  1.00  0.00     0.002 C 
HETATM   19  C17 UNL     1     -12.851   8.876  21.227  1.00  0.00     0.009 C 
HETATM   20  C18 UNL     1     -13.457   7.809  22.162  1.00  0.00     0.047 C 
HETATM   21  C19 UNL     1     -12.779   8.001  23.536  1.00  0.00     0.128 C 
ENDROOT
BRANCH  21  22
HETATM   22  O3  UNL     1     -11.604   7.163  23.538  1.00  0.00    -0.381 OA
HETATM   23  H25 UNL     1     -11.394   6.976  24.479  1.00  0.00     0.211 HD
ENDBRANCH  21  22
BRANCH  21  24
HETATM   24  C20 UNL     1     -13.584   7.583  24.783  1.00  0.00     0.185 C 
HETATM   25  O4  UNL     1     -13.440   8.235  25.826  1.00  0.00    -0.292 OA
BRANCH  24  26
HETATM   26  C21 UNL     1     -14.542   6.396  24.703  1.00  0.00     0.260 C 
BRANCH  26  27
HETATM   27  O5  UNL     1     -13.857   5.142  24.643  1.00  0.00    -0.314 OA
BRANCH  27  28
HETATM   28  C22 UNL     1     -14.622   4.127  24.149  1.00  0.00     0.259 C 
HETATM   29  O6  UNL     1     -15.805   3.956  24.422  1.00  0.00    -0.265 OA
BRANCH  28  30
HETATM   30  C23 UNL     1     -13.799   3.237  23.255  1.00  0.00     0.120 C 
BRANCH  30  31
HETATM   31  C24 UNL     1     -12.594   2.693  24.012  1.00  0.00     0.112 C 
BRANCH  31  32
HETATM   32  C25 UNL     1     -13.003   1.860  25.204  1.00  0.00     0.218 C 
HETATM   33  O7  UNL     1     -13.846   0.970  25.153  1.00  0.00    -0.274 OA
HETATM   34  N1  UNL     1     -12.316   2.198  26.349  1.00  0.00    -0.357 N 
HETATM   35  H32 UNL     1     -11.766   3.047  26.349  1.00  0.00     0.162 HD
BRANCH  34  36
HETATM   36  C26 UNL     1     -12.614   1.590  27.626  1.00  0.00     0.162 C 
BRANCH  36  37
HETATM   37  C27 UNL     1     -12.840   2.633  28.682  1.00  0.00    -0.025 A 
HETATM   38  C28 UNL     1     -13.557   3.801  28.409  1.00  0.00     0.011 A 
HETATM   39  C29 UNL     1     -13.729   4.756  29.407  1.00  0.00     0.018 A 
HETATM   40  C30 UNL     1     -13.168   4.514  30.650  1.00  0.00     0.087 A 
HETATM   41  N2  UNL     1     -12.461   3.404  30.950  1.00  0.00    -0.375 N 
HETATM   42  C31 UNL     1     -12.313   2.492  29.962  1.00  0.00     0.096 A 
ATOM     43  H2  UNL     1     -12.057   3.261  31.876  1.00  0.00     0.164 HD
ENDBRANCH  36  37
ENDBRANCH  34  36
ENDBRANCH  31  32
ENDBRANCH  30  31
ENDBRANCH  28  30
ENDBRANCH  27  28
ENDBRANCH  26  27
ENDBRANCH  24  26
ENDBRANCH  21  24
TORSDOF 10
ENDMDL
MODEL 7
REMARK minimizedAffinity -7.92749691
REMARK CNNscore 0.383647382
REMARK CNNaffinity 7.35881805
REMARK  10 active torsions:
REMARK  status: ('A' for Active; 'I' for Inactive)
REMARK    1  A    between atoms: C19_21  and  O3_22 
REMARK    2  A    between atoms: C19_21  and  C20_23 
REMARK    3  A    between atoms: C20_23  and  C21_25 
REMARK    4  A    between atoms: C21_25  and  O5_26 
REMARK    5  A    between atoms: O5_26  and  C22_27 
REMARK    6  A    between atoms: C22_27  and  C23_29 
REMARK    7  A    between atoms: C23_29  and  C24_30 
REMARK    8  A    between atoms: C24_30  and  C25_31 
REMARK       I    between atoms: C25_31  and  N1_33 
REMARK    9  A    between atoms: N1_33  and  C26_34 
REMARK   10  A    between atoms: C26_34  and  C27_35 
ROOT
HETATM    1  C1  UNL     1      -2.411   5.888  11.492  1.00  0.00     0.021 C 
HETATM    2  C2  UNL     1      -2.684   4.564  12.240  1.00  0.00    -0.009 C 
HETATM    3  C3  UNL     1      -1.446   4.183  13.107  1.00  0.00     0.022 C 
HETATM    4  C4  UNL     1      -0.253   3.693  12.298  1.00  0.00     0.084 C 
HETATM    5  C5  UNL     1      -0.654   2.533  11.426  1.00  0.00     0.149 C 
HETATM    6  O1  UNL     1       0.126   1.634  11.124  1.00  0.00    -0.293 OA
HETATM    7  C6  UNL     1      -2.018   2.537  10.849  1.00  0.00     0.053 C 
HETATM    8  C7  UNL     1      -2.924   3.476  11.176  1.00  0.00    -0.067 C 
HETATM    9  C8  UNL     1      -4.250   3.512  10.455  1.00  0.00     0.035 C 
HETATM   10  C9  UNL     1      -5.422   3.566  11.423  1.00  0.00     0.010 C 
HETATM   11  C10 UNL     1      -5.288   4.744  12.398  1.00  0.00     0.003 C 
HETATM   12  C11 UNL     1      -3.942   4.643  13.177  1.00  0.00     0.072 C 
HETATM   13  C12 UNL     1      -3.898   5.735  14.266  1.00  0.00     0.133 C 
HETATM   14  O2  UNL     1      -2.959   6.515  14.405  1.00  0.00    -0.297 OA
HETATM   15  C13 UNL     1      -5.088   5.797  15.217  1.00  0.00     0.091 C 
HETATM   16  C14 UNL     1      -6.379   5.947  14.402  1.00  0.00     0.005 C 
HETATM   17  C15 UNL     1      -6.376   7.333  13.705  1.00  0.00     0.019 C 
HETATM   18  C16 UNL     1      -6.443   4.758  13.409  1.00  0.00     0.002 C 
HETATM   19  C17 UNL     1      -7.875   4.798  12.880  1.00  0.00     0.009 C 
HETATM   20  C18 UNL     1      -8.713   5.359  14.048  1.00  0.00     0.047 C 
HETATM   21  C19 UNL     1      -7.712   5.716  15.168  1.00  0.00     0.128 C 
ENDROOT
BRANCH  21  22
HETATM   22  O3  UNL     1      -7.576   4.537  15.991  1.00  0.00    -0.381 OA
HETATM   23  H25 UNL     1      -7.276   4.844  16.874  1.00  0.00     0.211 HD
ENDBRANCH  21  22
BRANCH  21  24
HETATM   24  C20 UNL     1      -8.111   6.848  16.135  1.00  0.00     0.185 C 
HETATM   25  O4  UNL     1      -7.406   7.049  17.133  1.00  0.00    -0.292 OA
BRANCH  24  26
HETATM   26  C21 UNL     1      -9.345   7.698  15.839  1.00  0.00     0.260 C 
BRANCH  26  27
HETATM   27  O5  UNL     1      -9.826   7.517  14.504  1.00  0.00    -0.314 OA
BRANCH  27  28
HETATM   28  C22 UNL     1     -11.149   7.818  14.357  1.00  0.00     0.259 C 
HETATM   29  O6  UNL     1     -11.954   7.867  15.279  1.00  0.00    -0.265 OA
BRANCH  28  30
HETATM   30  C23 UNL     1     -11.475   8.047  12.904  1.00  0.00     0.120 C 
BRANCH  30  31
HETATM   31  C24 UNL     1     -12.161   9.395  12.721  1.00  0.00     0.112 C 
BRANCH  31  32
HETATM   32  C25 UNL     1     -13.646   9.247  12.487  1.00  0.00     0.218 C 
HETATM   33  O7  UNL     1     -14.311  10.036  11.823  1.00  0.00    -0.274 OA
HETATM   34  N1  UNL     1     -14.168   8.123  13.088  1.00  0.00    -0.357 N 
HETATM   35  H32 UNL     1     -13.595   7.619  13.752  1.00  0.00     0.162 HD
BRANCH  34  36
HETATM   36  C26 UNL     1     -15.585   7.834  13.069  1.00  0.00     0.162 C 
BRANCH  36  37
HETATM   37  C27 UNL     1     -15.886   6.558  13.799  1.00  0.00    -0.025 A 
HETATM   38  C28 UNL     1     -14.873   5.657  14.139  1.00  0.00     0.011 A 
HETATM   39  C29 UNL     1     -15.193   4.474  14.798  1.00  0.00     0.018 A 
HETATM   40  C30 UNL     1     -16.523   4.225  15.092  1.00  0.00     0.087 A 
HETATM   41  N2  UNL     1     -17.531   5.065  14.772  1.00  0.00    -0.375 N 
HETATM   42  C31 UNL     1     -17.191   6.208  14.135  1.00  0.00     0.096 A 
ATOM     43  H2  UNL     1     -18.501   4.847  15.000  1.00  0.00     0.164 HD
ENDBRANCH  36  37
ENDBRANCH  34  36
ENDBRANCH  31  32
ENDBRANCH  30  31
ENDBRANCH  28  30
ENDBRANCH  27  28
ENDBRANCH  26  27
ENDBRANCH  24  26
ENDBRANCH  21  24
TORSDOF 10
ENDMDL
MODEL 8
REMARK minimizedAffinity -9.2546196
REMARK CNNscore 0.32041052
REMARK CNNaffinity 7.10545874
REMARK  10 active torsions:
REMARK  status: ('A' for Active; 'I' for Inactive)
REMARK    1  A    between atoms: C19_21  and  O3_22 
REMARK    2  A    between atoms: C19_21  and  C20_23 
REMARK    3  A    between atoms: C20_23  and  C21_25 
REMARK    4  A    between atoms: C21_25  and  O5_26 
REMARK    5  A    between atoms: O5_26  and  C22_27 
REMARK    6  A    between atoms: C22_27  and  C23_29 
REMARK    7  A    between atoms: C23_29  and  C24_30 
REMARK    8  A    between atoms: C24_30  and  C25_31 
REMARK       I    between atoms: C25_31  and  N1_33 
REMARK    9  A    between atoms: N1_33  and  C26_34 
REMARK   10  A    between atoms: C26_34  and  C27_35 
ROOT
HETATM    1  C1  UNL     1       0.316   8.274  10.488  1.00  0.00     0.021 C 
HETATM    2  C2  UNL     1       0.928   7.779  11.818  1.00  0.00    -0.009 C 
HETATM    3  C3  UNL     1       2.041   8.764  12.285  1.00  0.00     0.022 C 
HETATM    4  C4  UNL     1       3.317   8.690  11.458  1.00  0.00     0.084 C 
HETATM    5  C5  UNL     1       3.846   7.281  11.437  1.00  0.00     0.149 C 
HETATM    6  O1  UNL     1       5.045   7.027  11.356  1.00  0.00    -0.293 OA
HETATM    7  C6  UNL     1       2.865   6.171  11.427  1.00  0.00     0.053 C 
HETATM    8  C7  UNL     1       1.543   6.392  11.552  1.00  0.00    -0.067 C 
HETATM    9  C8  UNL     1       0.580   5.239  11.397  1.00  0.00     0.035 C 
HETATM   10  C9  UNL     1      -0.405   5.163  12.553  1.00  0.00     0.010 C 
HETATM   11  C10 UNL     1      -1.152   6.490  12.740  1.00  0.00     0.003 C 
HETATM   12  C11 UNL     1      -0.136   7.649  12.966  1.00  0.00     0.072 C 
HETATM   13  C12 UNL     1      -0.903   8.942  13.316  1.00  0.00     0.133 C 
HETATM   14  O2  UNL     1      -0.724  10.013  12.741  1.00  0.00    -0.297 OA
HETATM   15  C13 UNL     1      -1.905   8.849  14.461  1.00  0.00     0.091 C 
HETATM   16  C14 UNL     1      -2.911   7.729  14.164  1.00  0.00     0.005 C 
HETATM   17  C15 UNL     1      -3.769   8.135  12.937  1.00  0.00     0.019 C 
HETATM   18  C16 UNL     1      -2.101   6.424  13.944  1.00  0.00     0.002 C 
HETATM   19  C17 UNL     1      -3.162   5.326  13.979  1.00  0.00     0.009 C 
HETATM   20  C18 UNL     1      -4.245   5.850  14.944  1.00  0.00     0.047 C 
HETATM   21  C19 UNL     1      -3.814   7.277  15.346  1.00  0.00     0.128 C 
ENDROOT
BRANCH  21  22
HETATM   22  O3  UNL     1      -2.997   7.143  16.529  1.00  0.00    -0.381 OA
HETATM   23  H25 UNL     1      -3.040   8.004  16.999  1.00  0.00     0.211 HD
ENDBRANCH  21  22
BRANCH  21  24
HETATM   24  C20 UNL     1      -4.930   8.270  15.728  1.00  0.00     0.185 C 
HETATM   25  O4  UNL     1      -4.626   9.454  15.925  1.00  0.00    -0.292 OA
BRANCH  24  26
HETATM   26  C21 UNL     1      -6.372   7.781  15.840  1.00  0.00     0.260 C 
BRANCH  26  27
HETATM   27  O5  UNL     1      -7.085   7.891  14.604  1.00  0.00    -0.314 OA
BRANCH  27  28
HETATM   28  C22 UNL     1      -7.790   6.769  14.280  1.00  0.00     0.259 C 
HETATM   29  O6  UNL     1      -8.696   6.301  14.960  1.00  0.00    -0.265 OA
BRANCH  28  30
HETATM   30  C23 UNL     1      -7.273   6.179  12.994  1.00  0.00     0.120 C 
BRANCH  30  31
HETATM   31  C24 UNL     1      -8.246   5.136  12.460  1.00  0.00     0.112 C 
BRANCH  31  32
HETATM   32  C25 UNL     1      -7.719   3.730  12.632  1.00  0.00     0.218 C 
HETATM   33  O7  UNL     1      -8.122   2.955  13.493  1.00  0.00    -0.274 OA
HETATM   34  N1  UNL     1      -6.749   3.411  11.708  1.00  0.00    -0.357 N 
HETATM   35  H32 UNL     1      -6.354   4.153  11.145  1.00  0.00     0.162 HD
BRANCH  34  36
HETATM   36  C26 UNL     1      -6.043   2.150  11.747  1.00  0.00     0.162 C 
BRANCH  36  37
HETATM   37  C27 UNL     1      -4.598   2.328  11.381  1.00  0.00    -0.025 A 
HETATM   38  C28 UNL     1      -4.144   3.491  10.755  1.00  0.00     0.011 A 
HETATM   39  C29 UNL     1      -2.800   3.613  10.412  1.00  0.00     0.018 A 
HETATM   40  C30 UNL     1      -1.951   2.558  10.702  1.00  0.00     0.087 A 
HETATM   41  N2  UNL     1      -2.353   1.414  11.297  1.00  0.00    -0.375 N 
HETATM   42  C31 UNL     1      -3.663   1.325  11.621  1.00  0.00     0.096 A 
ATOM     43  H2  UNL     1      -1.700   0.654  11.491  1.00  0.00     0.164 HD
ENDBRANCH  36  37
ENDBRANCH  34  36
ENDBRANCH  31  32
ENDBRANCH  30  31
ENDBRANCH  28  30
ENDBRANCH  27  28
ENDBRANCH  26  27
ENDBRANCH  24  26
ENDBRANCH  21  24
TORSDOF 10
ENDMDL
MODEL 9
REMARK minimizedAffinity -7.44932604
REMARK CNNscore 0.309708953
REMARK CNNaffinity 7.47678137
REMARK  10 active torsions:
REMARK  status: ('A' for Active; 'I' for Inactive)
REMARK    1  A    between atoms: C19_21  and  O3_22 
REMARK    2  A    between atoms: C19_21  and  C20_23 
REMARK    3  A    between atoms: C20_23  and  C21_25 
REMARK    4  A    between atoms: C21_25  and  O5_26 
REMARK    5  A    between atoms: O5_26  and  C22_27 
REMARK    6  A    between atoms: C22_27  and  C23_29 
REMARK    7  A    between atoms: C23_29  and  C24_30 
REMARK    8  A    between atoms: C24_30  and  C25_31 
REMARK       I    between atoms: C25_31  and  N1_33 
REMARK    9  A    between atoms: N1_33  and  C26_34 
REMARK   10  A    between atoms: C26_34  and  C27_35 
ROOT
HETATM    1  C1  UNL     1     -10.645   8.058  12.607  1.00  0.00     0.021 C 
HETATM    2  C2  UNL     1     -10.582   7.543  14.063  1.00  0.00    -0.009 C 
HETATM    3  C3  UNL     1     -11.417   6.233  14.196  1.00  0.00     0.022 C 
HETATM    4  C4  UNL     1     -12.922   6.453  14.145  1.00  0.00     0.084 C 
HETATM    5  C5  UNL     1     -13.342   7.446  15.196  1.00  0.00     0.149 C 
HETATM    6  O1  UNL     1     -14.440   7.402  15.744  1.00  0.00    -0.293 OA
HETATM    7  C6  UNL     1     -12.417   8.561  15.506  1.00  0.00     0.053 C 
HETATM    8  C7  UNL     1     -11.188   8.636  14.963  1.00  0.00    -0.067 C 
HETATM    9  C8  UNL     1     -10.343   9.863  15.206  1.00  0.00     0.035 C 
HETATM   10  C9  UNL     1      -8.945   9.504  15.687  1.00  0.00     0.010 C 
HETATM   11  C10 UNL     1      -8.253   8.534  14.719  1.00  0.00     0.003 C 
HETATM   12  C11 UNL     1      -9.115   7.249  14.541  1.00  0.00     0.072 C 
HETATM   13  C12 UNL     1      -8.331   6.219  13.701  1.00  0.00     0.133 C 
HETATM   14  O2  UNL     1      -8.795   5.660  12.710  1.00  0.00    -0.297 OA
HETATM   15  C13 UNL     1      -6.923   5.882  14.177  1.00  0.00     0.091 C 
HETATM   16  C14 UNL     1      -6.104   7.176  14.286  1.00  0.00     0.005 C 
HETATM   17  C15 UNL     1      -5.896   7.760  12.864  1.00  0.00     0.019 C 
HETATM   18  C16 UNL     1      -6.867   8.130  15.240  1.00  0.00     0.002 C 
HETATM   19  C17 UNL     1      -5.853   9.231  15.545  1.00  0.00     0.009 C 
HETATM   20  C18 UNL     1      -4.479   8.531  15.485  1.00  0.00     0.047 C 
HETATM   21  C19 UNL     1      -4.751   7.076  15.046  1.00  0.00     0.128 C 
ENDROOT
BRANCH  21  22
HETATM   22  O3  UNL     1      -4.954   6.312  16.254  1.00  0.00    -0.381 OA
HETATM   23  H25 UNL     1      -4.746   5.378  16.034  1.00  0.00     0.211 HD
ENDBRANCH  21  22
BRANCH  21  24
HETATM   24  C20 UNL     1      -3.628   6.348  14.283  1.00  0.00     0.185 C 
HETATM   25  O4  UNL     1      -3.547   5.116  14.381  1.00  0.00    -0.292 OA
BRANCH  24  26
HETATM   26  C21 UNL     1      -2.657   7.150  13.418  1.00  0.00     0.260 C 
BRANCH  26  27
HETATM   27  O5  UNL     1      -1.295   6.976  13.819  1.00  0.00    -0.314 OA
BRANCH  27  28
HETATM   28  C22 UNL     1      -0.402   7.138  12.800  1.00  0.00     0.259 C 
HETATM   29  O6  UNL     1      -0.485   8.007  11.940  1.00  0.00    -0.265 OA
BRANCH  28  30
HETATM   30  C23 UNL     1       0.669   6.082  12.870  1.00  0.00     0.120 C 
BRANCH  30  31
HETATM   31  C24 UNL     1       0.069   4.743  13.281  1.00  0.00     0.112 C 
BRANCH  31  32
HETATM   32  C25 UNL     1      -0.497   3.990  12.100  1.00  0.00     0.218 C 
HETATM   33  O7  UNL     1       0.118   3.122  11.490  1.00  0.00    -0.274 OA
HETATM   34  N1  UNL     1      -1.784   4.376  11.792  1.00  0.00    -0.357 N 
HETATM   35  H32 UNL     1      -2.157   5.208  12.230  1.00  0.00     0.162 HD
BRANCH  34  36
HETATM   36  C26 UNL     1      -2.484   3.850  10.642  1.00  0.00     0.162 C 
BRANCH  36  37
HETATM   37  C27 UNL     1      -3.773   3.195  11.046  1.00  0.00    -0.025 A 
HETATM   38  C28 UNL     1      -4.881   3.951  11.438  1.00  0.00     0.011 A 
HETATM   39  C29 UNL     1      -6.054   3.308  11.826  1.00  0.00     0.018 A 
HETATM   40  C30 UNL     1      -6.077   1.924  11.817  1.00  0.00     0.087 A 
HETATM   41  N2  UNL     1      -5.025   1.159  11.455  1.00  0.00    -0.375 N 
HETATM   42  C31 UNL     1      -3.900   1.810  11.079  1.00  0.00     0.096 A 
ATOM     43  H2  UNL     1      -5.076   0.140  11.464  1.00  0.00     0.164 HD
ENDBRANCH  36  37
ENDBRANCH  34  36
ENDBRANCH  31  32
ENDBRANCH  30  31
ENDBRANCH  28  30
ENDBRANCH  27  28
ENDBRANCH  26  27
ENDBRANCH  24  26
ENDBRANCH  21  24
TORSDOF 10
ENDMDL
