MODEL 1
REMARK minimizedAffinity -5.93223715
REMARK CNNscore 0.763378918
REMARK CNNaffinity 6.84979582
REMARK  13 active torsions:
REMARK  status: ('A' for Active; 'I' for Inactive)
REMARK    1  A    between atoms: C4_4  and  O1_5 
REMARK    2  A    between atoms: C7_9  and  C8_10 
REMARK    3  A    between atoms: C8_10  and  C10_12 
REMARK    4  A    between atoms: C10_12  and  O3_13 
REMARK    5  A    between atoms: C16_19  and  O4_21 
REMARK    6  A    between atoms: O4_21  and  C18_22 
REMARK    7  A    between atoms: C18_22  and  C19_24 
REMARK    8  A    between atoms: C19_24  and  C20_25 
REMARK    9  A    between atoms: C19_24  and  O6_27 
REMARK   10  A    between atoms: O6_27  and  C22_28 
REMARK   11  A    between atoms: C22_28  and  C23_30 
REMARK   12  A    between atoms: C23_30  and  C24_31 
REMARK   13  A    between atoms: C28_35  and  O8_36 
ROOT
HETATM    1  C1  UNL     1      -2.285  54.430 -10.055  1.00  0.00     0.017 C 
HETATM    2  C2  UNL     1      -2.219  53.100 -10.260  1.00  0.00    -0.056 C 
HETATM    3  C3  UNL     1      -1.151  52.273  -9.547  1.00  0.00     0.105 C 
HETATM    4  C4  UNL     1      -0.211  51.430 -10.447  1.00  0.00     0.173 C 
HETATM    5  O2  UNL     1      -1.005  50.476 -11.133  1.00  0.00    -0.345 OA
HETATM    6  C5  UNL     1      -0.579  50.329 -12.483  1.00  0.00     0.165 C 
HETATM    7  C6  UNL     1       0.417  51.461 -12.828  1.00  0.00     0.036 C 
HETATM    8  C7  UNL     1       1.741  50.922 -13.449  1.00  0.00    -0.001 C 
HETATM    9  C11 UNL     1       2.719  50.502 -12.343  1.00  0.00     0.010 C 
HETATM   10  C12 UNL     1       3.087  51.605 -11.354  1.00  0.00     0.034 C 
HETATM   11  C13 UNL     1       1.994  52.616 -11.125  1.00  0.00    -0.079 C 
HETATM   12  C14 UNL     1       2.293  53.837 -10.646  1.00  0.00     0.015 C 
HETATM   13  C15 UNL     1       0.578  52.240 -11.503  1.00  0.00     0.083 C 
HETATM   14  C16 UNL     1      -1.832  50.144 -13.411  1.00  0.00     0.093 C 
HETATM   15  C17 UNL     1      -2.633  48.942 -12.847  1.00  0.00     0.049 C 
HETATM   16  C26 UNL     1      -2.778  51.375 -13.608  1.00  0.00     0.044 C 
HETATM   17  C27 UNL     1      -2.769  52.583 -12.662  1.00  0.00     0.039 C 
HETATM   18  C28 UNL     1      -3.148  52.332 -11.196  1.00  0.00     0.146 C 
ENDROOT
BRANCH  14  19
HETATM   19  O4  UNL     1      -1.272  49.764 -14.721  1.00  0.00    -0.306 OA
BRANCH  19  20
HETATM   20  C18 UNL     1      -1.993  49.953 -15.863  1.00  0.00     0.289 C 
HETATM   21  O5  UNL     1      -2.466  51.018 -16.238  1.00  0.00    -0.262 OA
BRANCH  20  22
HETATM   22  C19 UNL     1      -2.134  48.646 -16.648  1.00  0.00     0.231 C 
BRANCH  22  23
HETATM   23  C20 UNL     1      -1.644  47.464 -15.809  1.00  0.00     0.038 C 
HETATM   24  C21 UNL     1      -2.646  46.324 -15.732  1.00  0.00     0.008 C 
ENDBRANCH  22  23
BRANCH  22  25
HETATM   25  O6  UNL     1      -1.266  48.701 -17.801  1.00  0.00    -0.306 OA
BRANCH  25  26
HETATM   26  C22 UNL     1      -1.848  48.300 -18.963  1.00  0.00     0.259 C 
HETATM   27  O7  UNL     1      -2.914  47.701 -19.039  1.00  0.00    -0.265 OA
BRANCH  26  28
HETATM   28  C23 UNL     1      -1.012  48.726 -20.143  1.00  0.00     0.111 C 
BRANCH  28  29
HETATM   29  C24 UNL     1      -1.793  48.624 -21.451  1.00  0.00     0.005 C 
HETATM   30  C25 UNL     1      -1.962  47.187 -21.925  1.00  0.00     0.005 C 
ENDBRANCH  28  29
ENDBRANCH  26  28
ENDBRANCH  25  26
ENDBRANCH  22  25
ENDBRANCH  20  22
ENDBRANCH  19  20
ENDBRANCH  14  19
BRANCH   4  31
HETATM   31  O1  UNL     1       0.633  50.683  -9.580  1.00  0.00    -0.364 OA
HETATM   32  H5  UNL     1       0.941  49.931 -10.108  1.00  0.00     0.213 HD
ENDBRANCH   4  31
BRANCH   8  33
HETATM   33  C8  UNL     1       2.306  51.841 -14.582  1.00  0.00     0.010 C 
HETATM   34  C9  UNL     1       3.707  51.513 -15.106  1.00  0.00     0.012 C 
BRANCH  33  35
HETATM   35  C10 UNL     1       1.321  52.024 -15.752  1.00  0.00     0.168 C 
BRANCH  35  36
HETATM   36  O3  UNL     1       1.440  53.308 -16.340  1.00  0.00    -0.400 OA
HETATM   37  H15 UNL     1       0.764  53.369 -17.036  1.00  0.00     0.209 HD
ENDBRANCH  35  36
ENDBRANCH  33  35
ENDBRANCH   8  33
BRANCH  18  38
HETATM   38  O8  UNL     1      -4.503  52.727 -10.990  1.00  0.00    -0.391 OA
HETATM   39  H44 UNL     1      -4.551  53.694 -10.989  1.00  0.00     0.210 HD
ENDBRANCH  18  38
TORSDOF 13
ENDMDL
MODEL 2
REMARK minimizedAffinity -8.21159744
REMARK CNNscore 0.731505036
REMARK CNNaffinity 7.2857089
REMARK  13 active torsions:
REMARK  status: ('A' for Active; 'I' for Inactive)
REMARK    1  A    between atoms: C4_4  and  O1_5 
REMARK    2  A    between atoms: C7_9  and  C8_10 
REMARK    3  A    between atoms: C8_10  and  C10_12 
REMARK    4  A    between atoms: C10_12  and  O3_13 
REMARK    5  A    between atoms: C16_19  and  O4_21 
REMARK    6  A    between atoms: O4_21  and  C18_22 
REMARK    7  A    between atoms: C18_22  and  C19_24 
REMARK    8  A    between atoms: C19_24  and  C20_25 
REMARK    9  A    between atoms: C19_24  and  O6_27 
REMARK   10  A    between atoms: O6_27  and  C22_28 
REMARK   11  A    between atoms: C22_28  and  C23_30 
REMARK   12  A    between atoms: C23_30  and  C24_31 
REMARK   13  A    between atoms: C28_35  and  O8_36 
ROOT
HETATM    1  C1  UNL     1      -6.995  50.055 -20.220  1.00  0.00     0.017 C 
HETATM    2  C2  UNL     1      -6.182  49.355 -21.035  1.00  0.00    -0.056 C 
HETATM    3  C3  UNL     1      -5.202  48.343 -20.443  1.00  0.00     0.105 C 
HETATM    4  C4  UNL     1      -3.705  48.539 -20.796  1.00  0.00     0.173 C 
HETATM    5  O2  UNL     1      -3.567  48.395 -22.200  1.00  0.00    -0.345 OA
HETATM    6  C5  UNL     1      -2.654  49.352 -22.727  1.00  0.00     0.165 C 
HETATM    7  C6  UNL     1      -2.341  50.408 -21.641  1.00  0.00     0.036 C 
HETATM    8  C7  UNL     1      -0.809  50.611 -21.431  1.00  0.00    -0.001 C 
HETATM    9  C11 UNL     1      -0.257  49.558 -20.460  1.00  0.00     0.010 C 
HETATM   10  C12 UNL     1      -0.914  49.542 -19.083  1.00  0.00     0.034 C 
HETATM   11  C13 UNL     1      -2.363  49.956 -19.088  1.00  0.00    -0.079 C 
HETATM   12  C14 UNL     1      -2.943  50.400 -17.958  1.00  0.00     0.015 C 
HETATM   13  C15 UNL     1      -3.117  49.914 -20.399  1.00  0.00     0.083 C 
HETATM   14  C16 UNL     1      -3.173  49.862 -24.118  1.00  0.00     0.093 C 
HETATM   15  C17 UNL     1      -3.384  48.607 -25.005  1.00  0.00     0.049 C 
HETATM   16  C26 UNL     1      -4.462  50.750 -24.131  1.00  0.00     0.044 C 
HETATM   17  C27 UNL     1      -5.434  50.812 -22.946  1.00  0.00     0.039 C 
HETATM   18  C28 UNL     1      -6.148  49.513 -22.552  1.00  0.00     0.146 C 
ENDROOT
BRANCH  14  19
HETATM   19  O4  UNL     1      -2.053  50.645 -24.670  1.00  0.00    -0.306 OA
BRANCH  19  20
HETATM   20  C18 UNL     1      -2.261  51.903 -25.156  1.00  0.00     0.289 C 
HETATM   21  O5  UNL     1      -2.814  52.816 -24.556  1.00  0.00    -0.262 OA
BRANCH  20  22
HETATM   22  C19 UNL     1      -1.696  52.046 -26.571  1.00  0.00     0.231 C 
BRANCH  22  23
HETATM   23  C20 UNL     1      -1.915  50.757 -27.367  1.00  0.00     0.038 C 
HETATM   24  C21 UNL     1      -3.238  50.728 -28.114  1.00  0.00     0.008 C 
ENDBRANCH  22  23
BRANCH  22  25
HETATM   25  O6  UNL     1      -0.266  52.220 -26.485  1.00  0.00    -0.306 OA
BRANCH  25  26
HETATM   26  C22 UNL     1       0.269  52.987 -27.473  1.00  0.00     0.259 C 
HETATM   27  O7  UNL     1       0.078  54.190 -27.601  1.00  0.00    -0.265 OA
BRANCH  26  28
HETATM   28  C23 UNL     1       1.153  52.154 -28.365  1.00  0.00     0.111 C 
BRANCH  28  29
HETATM   29  C24 UNL     1       2.377  51.634 -27.616  1.00  0.00     0.005 C 
HETATM   30  C25 UNL     1       2.208  51.687 -26.104  1.00  0.00     0.005 C 
ENDBRANCH  28  29
ENDBRANCH  26  28
ENDBRANCH  25  26
ENDBRANCH  22  25
ENDBRANCH  20  22
ENDBRANCH  19  20
ENDBRANCH  14  19
BRANCH   4  31
HETATM   31  O1  UNL     1      -2.997  47.448 -20.221  1.00  0.00    -0.364 OA
HETATM   32  H5  UNL     1      -2.174  47.382 -20.728  1.00  0.00     0.213 HD
ENDBRANCH   4  31
BRANCH   8  33
HETATM   33  C8  UNL     1      -0.421  52.102 -21.156  1.00  0.00     0.010 C 
HETATM   34  C9  UNL     1      -0.496  52.579 -19.703  1.00  0.00     0.012 C 
BRANCH  33  35
HETATM   35  C10 UNL     1       0.927  52.496 -21.786  1.00  0.00     0.168 C 
BRANCH  35  36
HETATM   36  O3  UNL     1       1.271  53.838 -21.486  1.00  0.00    -0.400 OA
HETATM   37  H15 UNL     1       2.104  54.031 -21.949  1.00  0.00     0.209 HD
ENDBRANCH  35  36
ENDBRANCH  33  35
ENDBRANCH   8  33
BRANCH  18  38
HETATM   38  O8  UNL     1      -7.473  49.530 -23.081  1.00  0.00    -0.391 OA
HETATM   39  H44 UNL     1      -8.008  50.151 -22.568  1.00  0.00     0.210 HD
ENDBRANCH  18  38
TORSDOF 13
ENDMDL
MODEL 3
REMARK minimizedAffinity -8.13652229
REMARK CNNscore 0.682106733
REMARK CNNaffinity 6.95786095
REMARK  13 active torsions:
REMARK  status: ('A' for Active; 'I' for Inactive)
REMARK    1  A    between atoms: C4_4  and  O1_5 
REMARK    2  A    between atoms: C7_9  and  C8_10 
REMARK    3  A    between atoms: C8_10  and  C10_12 
REMARK    4  A    between atoms: C10_12  and  O3_13 
REMARK    5  A    between atoms: C16_19  and  O4_21 
REMARK    6  A    between atoms: O4_21  and  C18_22 
REMARK    7  A    between atoms: C18_22  and  C19_24 
REMARK    8  A    between atoms: C19_24  and  C20_25 
REMARK    9  A    between atoms: C19_24  and  O6_27 
REMARK   10  A    between atoms: O6_27  and  C22_28 
REMARK   11  A    between atoms: C22_28  and  C23_30 
REMARK   12  A    between atoms: C23_30  and  C24_31 
REMARK   13  A    between atoms: C28_35  and  O8_36 
ROOT
HETATM    1  C1  UNL     1      -4.201  46.084 -19.462  1.00  0.00     0.017 C 
HETATM    2  C2  UNL     1      -4.161  47.403 -19.191  1.00  0.00    -0.056 C 
HETATM    3  C3  UNL     1      -5.392  48.270 -19.450  1.00  0.00     0.105 C 
HETATM    4  C4  UNL     1      -5.196  49.492 -20.383  1.00  0.00     0.173 C 
HETATM    5  O2  UNL     1      -4.265  50.366 -19.766  1.00  0.00    -0.345 OA
HETATM    6  C5  UNL     1      -3.364  50.915 -20.723  1.00  0.00     0.165 C 
HETATM    7  C6  UNL     1      -3.520  50.156 -22.062  1.00  0.00     0.036 C 
HETATM    8  C7  UNL     1      -3.742  51.117 -23.269  1.00  0.00    -0.001 C 
HETATM    9  C11 UNL     1      -5.226  51.488 -23.393  1.00  0.00     0.010 C 
HETATM   10  C12 UNL     1      -6.175  50.305 -23.563  1.00  0.00     0.034 C 
HETATM   11  C13 UNL     1      -5.712  49.042 -22.885  1.00  0.00    -0.079 C 
HETATM   12  C14 UNL     1      -6.185  47.847 -23.285  1.00  0.00     0.015 C 
HETATM   13  C15 UNL     1      -4.666  49.154 -21.797  1.00  0.00     0.083 C 
HETATM   14  C16 UNL     1      -1.928  51.011 -20.096  1.00  0.00     0.093 C 
HETATM   15  C17 UNL     1      -2.064  51.829 -18.786  1.00  0.00     0.049 C 
HETATM   16  C26 UNL     1      -1.168  49.672 -19.815  1.00  0.00     0.044 C 
HETATM   17  C27 UNL     1      -1.881  48.315 -19.747  1.00  0.00     0.039 C 
HETATM   18  C28 UNL     1      -2.934  48.128 -18.646  1.00  0.00     0.146 C 
ENDROOT
BRANCH  14  19
HETATM   19  O4  UNL     1      -1.150  51.801 -21.067  1.00  0.00    -0.306 OA
BRANCH  19  20
HETATM   20  C18 UNL     1       0.139  51.464 -21.360  1.00  0.00     0.289 C 
HETATM   21  O5  UNL     1       0.723  50.467 -20.956  1.00  0.00    -0.262 OA
BRANCH  20  22
HETATM   22  C19 UNL     1       0.782  52.499 -22.286  1.00  0.00     0.231 C 
BRANCH  22  23
HETATM   23  C20 UNL     1       1.045  53.803 -21.529  1.00  0.00     0.038 C 
HETATM   24  C21 UNL     1       1.397  53.590 -20.067  1.00  0.00     0.008 C 
ENDBRANCH  22  23
BRANCH  22  25
HETATM   25  O6  UNL     1      -0.156  52.832 -23.333  1.00  0.00    -0.306 OA
BRANCH  25  26
HETATM   26  C22 UNL     1       0.391  52.907 -24.576  1.00  0.00     0.259 C 
HETATM   27  O7  UNL     1       0.900  53.913 -25.053  1.00  0.00    -0.265 OA
BRANCH  26  28
HETATM   28  C23 UNL     1       0.309  51.571 -25.268  1.00  0.00     0.111 C 
BRANCH  28  29
HETATM   29  C24 UNL     1       1.360  51.442 -26.368  1.00  0.00     0.005 C 
HETATM   30  C25 UNL     1       0.769  51.580 -27.764  1.00  0.00     0.005 C 
ENDBRANCH  28  29
ENDBRANCH  26  28
ENDBRANCH  25  26
ENDBRANCH  22  25
ENDBRANCH  20  22
ENDBRANCH  19  20
ENDBRANCH  14  19
BRANCH   4  31
HETATM   31  O1  UNL     1      -6.431  50.196 -20.410  1.00  0.00    -0.364 OA
HETATM   32  H5  UNL     1      -6.205  51.099 -20.677  1.00  0.00     0.213 HD
ENDBRANCH   4  31
BRANCH   8  33
HETATM   33  C8  UNL     1      -3.020  50.641 -24.572  1.00  0.00     0.010 C 
HETATM   34  C9  UNL     1      -3.002  49.134 -24.843  1.00  0.00     0.012 C 
BRANCH  33  35
HETATM   35  C10 UNL     1      -3.476  51.410 -25.826  1.00  0.00     0.168 C 
BRANCH  35  36
HETATM   36  O3  UNL     1      -3.019  52.752 -25.811  1.00  0.00    -0.400 OA
HETATM   37  H15 UNL     1      -3.379  53.186 -26.604  1.00  0.00     0.209 HD
ENDBRANCH  35  36
ENDBRANCH  33  35
ENDBRANCH   8  33
BRANCH  18  38
HETATM   38  O8  UNL     1      -2.357  47.390 -17.569  1.00  0.00    -0.391 OA
HETATM   39  H44 UNL     1      -2.260  46.466 -17.839  1.00  0.00     0.210 HD
ENDBRANCH  18  38
TORSDOF 13
ENDMDL
MODEL 4
REMARK minimizedAffinity -8.20450878
REMARK CNNscore 0.612502038
REMARK CNNaffinity 7.00304794
REMARK  13 active torsions:
REMARK  status: ('A' for Active; 'I' for Inactive)
REMARK    1  A    between atoms: C4_4  and  O1_5 
REMARK    2  A    between atoms: C7_9  and  C8_10 
REMARK    3  A    between atoms: C8_10  and  C10_12 
REMARK    4  A    between atoms: C10_12  and  O3_13 
REMARK    5  A    between atoms: C16_19  and  O4_21 
REMARK    6  A    between atoms: O4_21  and  C18_22 
REMARK    7  A    between atoms: C18_22  and  C19_24 
REMARK    8  A    between atoms: C19_24  and  C20_25 
REMARK    9  A    between atoms: C19_24  and  O6_27 
REMARK   10  A    between atoms: O6_27  and  C22_28 
REMARK   11  A    between atoms: C22_28  and  C23_30 
REMARK   12  A    between atoms: C23_30  and  C24_31 
REMARK   13  A    between atoms: C28_35  and  O8_36 
ROOT
HETATM    1  C1  UNL     1      -7.814  48.725 -20.924  1.00  0.00     0.017 C 
HETATM    2  C2  UNL     1      -6.892  48.519 -21.884  1.00  0.00    -0.056 C 
HETATM    3  C3  UNL     1      -5.889  47.375 -21.742  1.00  0.00     0.105 C 
HETATM    4  C4  UNL     1      -4.388  47.758 -21.806  1.00  0.00     0.173 C 
HETATM    5  O2  UNL     1      -4.132  48.302 -23.090  1.00  0.00    -0.345 OA
HETATM    6  C5  UNL     1      -3.254  49.420 -23.008  1.00  0.00     0.165 C 
HETATM    7  C6  UNL     1      -3.103  49.840 -21.527  1.00  0.00     0.036 C 
HETATM    8  C7  UNL     1      -1.611  49.962 -21.090  1.00  0.00    -0.001 C 
HETATM    9  C11 UNL     1      -1.059  48.590 -20.679  1.00  0.00     0.010 C 
HETATM   10  C12 UNL     1      -1.818  47.902 -19.547  1.00  0.00     0.034 C 
HETATM   11  C13 UNL     1      -3.288  48.228 -19.504  1.00  0.00    -0.079 C 
HETATM   12  C14 UNL     1      -3.984  48.065 -18.364  1.00  0.00     0.015 C 
HETATM   13  C15 UNL     1      -3.934  48.793 -20.751  1.00  0.00     0.083 C 
HETATM   14  C16 UNL     1      -3.701  50.515 -24.040  1.00  0.00     0.093 C 
HETATM   15  C17 UNL     1      -3.750  49.828 -25.429  1.00  0.00     0.049 C 
HETATM   16  C26 UNL     1      -5.046  51.266 -23.765  1.00  0.00     0.044 C 
HETATM   17  C27 UNL     1      -6.108  50.730 -22.796  1.00  0.00     0.039 C 
HETATM   18  C28 UNL     1      -6.753  49.380 -23.136  1.00  0.00     0.146 C 
ENDROOT
BRANCH  14  19
HETATM   19  O4  UNL     1      -2.601  51.498 -24.039  1.00  0.00    -0.306 OA
BRANCH  19  20
HETATM   20  C18 UNL     1      -2.290  52.188 -25.175  1.00  0.00     0.289 C 
HETATM   21  O5  UNL     1      -3.070  52.861 -25.836  1.00  0.00    -0.262 OA
BRANCH  20  22
HETATM   22  C19 UNL     1      -0.809  52.027 -25.527  1.00  0.00     0.231 C 
BRANCH  22  23
HETATM   23  C20 UNL     1       0.040  51.972 -24.255  1.00  0.00     0.038 C 
HETATM   24  C21 UNL     1       0.675  53.306 -23.897  1.00  0.00     0.008 C 
ENDBRANCH  22  23
BRANCH  22  25
HETATM   25  O6  UNL     1      -0.372  53.201 -26.245  1.00  0.00    -0.306 OA
BRANCH  25  26
HETATM   26  C22 UNL     1      -0.218  53.018 -27.583  1.00  0.00     0.259 C 
HETATM   27  O7  UNL     1      -0.521  53.840 -28.438  1.00  0.00    -0.265 OA
BRANCH  26  28
HETATM   28  C23 UNL     1       0.407  51.675 -27.861  1.00  0.00     0.111 C 
BRANCH  28  29
HETATM   29  C24 UNL     1       1.915  51.787 -28.068  1.00  0.00     0.005 C 
HETATM   30  C25 UNL     1       2.704  51.535 -26.790  1.00  0.00     0.005 C 
ENDBRANCH  28  29
ENDBRANCH  26  28
ENDBRANCH  25  26
ENDBRANCH  22  25
ENDBRANCH  20  22
ENDBRANCH  19  20
ENDBRANCH  14  19
BRANCH   4  31
HETATM   31  O1  UNL     1      -3.648  46.545 -21.743  1.00  0.00    -0.364 OA
HETATM   32  H5  UNL     1      -2.786  46.750 -22.134  1.00  0.00     0.213 HD
ENDBRANCH   4  31
BRANCH   8  33
HETATM   33  C8  UNL     1      -1.356  51.152 -20.108  1.00  0.00     0.010 C 
HETATM   34  C9  UNL     1      -0.428  52.268 -20.599  1.00  0.00     0.012 C 
BRANCH  33  35
HETATM   35  C10 UNL     1      -2.655  51.744 -19.532  1.00  0.00     0.168 C 
BRANCH  35  36
HETATM   36  O3  UNL     1      -2.642  51.754 -18.115  1.00  0.00    -0.400 OA
HETATM   37  H15 UNL     1      -3.504  52.096 -17.822  1.00  0.00     0.209 HD
ENDBRANCH  35  36
ENDBRANCH  33  35
ENDBRANCH   8  33
BRANCH  18  38
HETATM   38  O8  UNL     1      -8.032  49.610 -23.727  1.00  0.00    -0.391 OA
HETATM   39  H44 UNL     1      -8.648  49.897 -23.040  1.00  0.00     0.210 HD
ENDBRANCH  18  38
TORSDOF 13
ENDMDL
MODEL 5
REMARK minimizedAffinity -6.0880394
REMARK CNNscore 0.57887727
REMARK CNNaffinity 6.67337179
REMARK  13 active torsions:
REMARK  status: ('A' for Active; 'I' for Inactive)
REMARK    1  A    between atoms: C4_4  and  O1_5 
REMARK    2  A    between atoms: C7_9  and  C8_10 
REMARK    3  A    between atoms: C8_10  and  C10_12 
REMARK    4  A    between atoms: C10_12  and  O3_13 
REMARK    5  A    between atoms: C16_19  and  O4_21 
REMARK    6  A    between atoms: O4_21  and  C18_22 
REMARK    7  A    between atoms: C18_22  and  C19_24 
REMARK    8  A    between atoms: C19_24  and  C20_25 
REMARK    9  A    between atoms: C19_24  and  O6_27 
REMARK   10  A    between atoms: O6_27  and  C22_28 
REMARK   11  A    between atoms: C22_28  and  C23_30 
REMARK   12  A    between atoms: C23_30  and  C24_31 
REMARK   13  A    between atoms: C28_35  and  O8_36 
ROOT
HETATM    1  C1  UNL     1      -2.759  50.177  -8.785  1.00  0.00     0.017 C 
HETATM    2  C2  UNL     1      -2.413  51.377  -9.290  1.00  0.00    -0.056 C 
HETATM    3  C3  UNL     1      -2.979  51.826 -10.636  1.00  0.00     0.105 C 
HETATM    4  C4  UNL     1      -1.947  52.209 -11.728  1.00  0.00     0.173 C 
HETATM    5  O2  UNL     1      -1.209  53.325 -11.259  1.00  0.00    -0.345 OA
HETATM    6  C5  UNL     1       0.170  53.205 -11.591  1.00  0.00     0.165 C 
HETATM    7  C6  UNL     1       0.448  51.770 -12.098  1.00  0.00     0.036 C 
HETATM    8  C7  UNL     1       1.190  51.756 -13.469  1.00  0.00    -0.001 C 
HETATM    9  C11 UNL     1       0.188  51.889 -14.624  1.00  0.00     0.010 C 
HETATM   10  C12 UNL     1      -0.890  50.809 -14.670  1.00  0.00     0.034 C 
HETATM   11  C13 UNL     1      -1.281  50.271 -13.318  1.00  0.00    -0.079 C 
HETATM   12  C14 UNL     1      -1.868  49.065 -13.215  1.00  0.00     0.015 C 
HETATM   13  C15 UNL     1      -0.941  51.092 -12.093  1.00  0.00     0.083 C 
HETATM   14  C16 UNL     1       1.045  53.746 -10.405  1.00  0.00     0.093 C 
HETATM   15  C17 UNL     1       0.568  55.194 -10.122  1.00  0.00     0.049 C 
HETATM   16  C26 UNL     1       1.062  52.918  -9.078  1.00  0.00     0.044 C 
HETATM   17  C27 UNL     1      -0.003  51.864  -8.749  1.00  0.00     0.039 C 
HETATM   18  C28 UNL     1      -1.453  52.347  -8.609  1.00  0.00     0.146 C 
ENDROOT
BRANCH  14  19
HETATM   19  O4  UNL     1       2.415  53.800 -10.947  1.00  0.00    -0.306 OA
BRANCH  19  20
HETATM   20  C18 UNL     1       3.451  53.229 -10.267  1.00  0.00     0.289 C 
HETATM   21  O5  UNL     1       3.676  52.029 -10.188  1.00  0.00    -0.262 OA
BRANCH  20  22
HETATM   22  C19 UNL     1       4.328  54.296  -9.606  1.00  0.00     0.231 C 
BRANCH  22  23
HETATM   23  C20 UNL     1       3.984  55.684 -10.152  1.00  0.00     0.038 C 
HETATM   24  C21 UNL     1       3.754  56.719  -9.063  1.00  0.00     0.008 C 
ENDBRANCH  22  23
BRANCH  22  25
HETATM   25  O6  UNL     1       5.705  54.057  -9.971  1.00  0.00    -0.306 OA
BRANCH  25  26
HETATM   26  C22 UNL     1       6.447  53.454  -9.004  1.00  0.00     0.259 C 
HETATM   27  O7  UNL     1       7.143  52.462  -9.178  1.00  0.00    -0.265 OA
BRANCH  26  28
HETATM   28  C23 UNL     1       6.316  54.199  -7.701  1.00  0.00     0.111 C 
BRANCH  28  29
HETATM   29  C24 UNL     1       7.126  55.493  -7.708  1.00  0.00     0.005 C 
HETATM   30  C25 UNL     1       6.918  56.325  -6.450  1.00  0.00     0.005 C 
ENDBRANCH  28  29
ENDBRANCH  26  28
ENDBRANCH  25  26
ENDBRANCH  22  25
ENDBRANCH  20  22
ENDBRANCH  19  20
ENDBRANCH  14  19
BRANCH   4  31
HETATM   31  O1  UNL     1      -2.685  52.676 -12.851  1.00  0.00    -0.364 OA
HETATM   32  H5  UNL     1      -2.067  53.226 -13.353  1.00  0.00     0.213 HD
ENDBRANCH   4  31
BRANCH   8  33
HETATM   33  C8  UNL     1       2.250  50.610 -13.580  1.00  0.00     0.010 C 
HETATM   34  C9  UNL     1       3.617  50.986 -14.159  1.00  0.00     0.012 C 
BRANCH  33  35
HETATM   35  C10 UNL     1       2.418  49.820 -12.270  1.00  0.00     0.168 C 
BRANCH  35  36
HETATM   36  O3  UNL     1       3.784  49.630 -11.944  1.00  0.00    -0.400 OA
HETATM   37  H15 UNL     1       3.815  49.089 -11.137  1.00  0.00     0.209 HD
ENDBRANCH  35  36
ENDBRANCH  33  35
ENDBRANCH   8  33
BRANCH  18  38
HETATM   38  O8  UNL     1      -1.771  52.473  -7.223  1.00  0.00    -0.391 OA
HETATM   39  H44 UNL     1      -1.874  51.590  -6.843  1.00  0.00     0.210 HD
ENDBRANCH  18  38
TORSDOF 13
ENDMDL
MODEL 6
REMARK minimizedAffinity -7.95476151
REMARK CNNscore 0.556718826
REMARK CNNaffinity 6.45598364
REMARK  13 active torsions:
REMARK  status: ('A' for Active; 'I' for Inactive)
REMARK    1  A    between atoms: C4_4  and  O1_5 
REMARK    2  A    between atoms: C7_9  and  C8_10 
REMARK    3  A    between atoms: C8_10  and  C10_12 
REMARK    4  A    between atoms: C10_12  and  O3_13 
REMARK    5  A    between atoms: C16_19  and  O4_21 
REMARK    6  A    between atoms: O4_21  and  C18_22 
REMARK    7  A    between atoms: C18_22  and  C19_24 
REMARK    8  A    between atoms: C19_24  and  C20_25 
REMARK    9  A    between atoms: C19_24  and  O6_27 
REMARK   10  A    between atoms: O6_27  and  C22_28 
REMARK   11  A    between atoms: C22_28  and  C23_30 
REMARK   12  A    between atoms: C23_30  and  C24_31 
REMARK   13  A    between atoms: C28_35  and  O8_36 
ROOT
HETATM    1  C1  UNL     1      -4.303  45.318 -19.591  1.00  0.00     0.017 C 
HETATM    2  C2  UNL     1      -4.203  46.661 -19.618  1.00  0.00    -0.056 C 
HETATM    3  C3  UNL     1      -5.453  47.512 -19.835  1.00  0.00     0.105 C 
HETATM    4  C4  UNL     1      -5.418  48.504 -21.026  1.00  0.00     0.173 C 
HETATM    5  O2  UNL     1      -4.383  49.442 -20.781  1.00  0.00    -0.345 OA
HETATM    6  C5  UNL     1      -3.665  49.737 -21.975  1.00  0.00     0.165 C 
HETATM    7  C6  UNL     1      -4.068  48.726 -23.074  1.00  0.00     0.036 C 
HETATM    8  C7  UNL     1      -4.497  49.426 -24.400  1.00  0.00    -0.001 C 
HETATM    9  C11 UNL     1      -5.975  49.833 -24.338  1.00  0.00     0.010 C 
HETATM   10  C12 UNL     1      -6.950  48.686 -24.084  1.00  0.00     0.034 C 
HETATM   11  C13 UNL     1      -6.383  47.570 -23.245  1.00  0.00    -0.079 C 
HETATM   12  C14 UNL     1      -6.931  46.342 -23.293  1.00  0.00     0.015 C 
HETATM   13  C15 UNL     1      -5.156  47.856 -22.405  1.00  0.00     0.083 C 
HETATM   14  C16 UNL     1      -2.138  49.893 -21.645  1.00  0.00     0.093 C 
HETATM   15  C17 UNL     1      -2.028  50.971 -20.535  1.00  0.00     0.049 C 
HETATM   16  C26 UNL     1      -1.352  48.607 -21.223  1.00  0.00     0.044 C 
HETATM   17  C27 UNL     1      -2.054  47.329 -20.745  1.00  0.00     0.039 C 
HETATM   18  C28 UNL     1      -2.891  47.424 -19.463  1.00  0.00     0.146 C 
ENDROOT
BRANCH  14  19
HETATM   19  O4  UNL     1      -1.542  50.428 -22.882  1.00  0.00    -0.306 OA
BRANCH  19  20
HETATM   20  C18 UNL     1      -1.362  51.771 -23.039  1.00  0.00     0.289 C 
HETATM   21  O5  UNL     1      -2.251  52.613 -23.045  1.00  0.00    -0.262 OA
BRANCH  20  22
HETATM   22  C19 UNL     1       0.122  52.112 -23.200  1.00  0.00     0.231 C 
BRANCH  22  23
HETATM   23  C20 UNL     1       0.771  52.331 -21.831  1.00  0.00     0.038 C 
HETATM   24  C21 UNL     1       1.220  53.764 -21.600  1.00  0.00     0.008 C 
ENDBRANCH  22  23
BRANCH  22  25
HETATM   25  O6  UNL     1       0.236  53.371 -23.898  1.00  0.00    -0.306 OA
BRANCH  25  26
HETATM   26  C22 UNL     1       0.313  53.260 -25.251  1.00  0.00     0.259 C 
HETATM   27  O7  UNL     1      -0.120  54.087 -26.043  1.00  0.00    -0.265 OA
BRANCH  26  28
HETATM   28  C23 UNL     1       1.033  51.993 -25.634  1.00  0.00     0.111 C 
BRANCH  28  29
HETATM   29  C24 UNL     1       1.240  51.898 -27.143  1.00  0.00     0.005 C 
HETATM   30  C25 UNL     1       2.700  51.703 -27.526  1.00  0.00     0.005 C 
ENDBRANCH  28  29
ENDBRANCH  26  28
ENDBRANCH  25  26
ENDBRANCH  22  25
ENDBRANCH  20  22
ENDBRANCH  19  20
ENDBRANCH  14  19
BRANCH   4  31
HETATM   31  O1  UNL     1      -6.631  49.245 -20.985  1.00  0.00    -0.364 OA
HETATM   32  H5  UNL     1      -6.449  50.061 -21.472  1.00  0.00     0.213 HD
ENDBRANCH   4  31
BRANCH   8  33
HETATM   33  C8  UNL     1      -4.027  48.656 -25.678  1.00  0.00     0.010 C 
HETATM   34  C9  UNL     1      -5.120  48.160 -26.629  1.00  0.00     0.012 C 
BRANCH  33  35
HETATM   35  C10 UNL     1      -2.930  49.404 -26.459  1.00  0.00     0.168 C 
BRANCH  35  36
HETATM   36  O3  UNL     1      -1.840  49.753 -25.624  1.00  0.00    -0.400 OA
HETATM   37  H15 UNL     1      -1.211  50.257 -26.168  1.00  0.00     0.209 HD
ENDBRANCH  35  36
ENDBRANCH  33  35
ENDBRANCH   8  33
BRANCH  18  38
HETATM   38  O8  UNL     1      -2.135  46.899 -18.372  1.00  0.00    -0.391 OA
HETATM   39  H44 UNL     1      -2.097  45.935 -18.451  1.00  0.00     0.210 HD
ENDBRANCH  18  38
TORSDOF 13
ENDMDL
MODEL 7
REMARK minimizedAffinity -8.17400455
REMARK CNNscore 0.536237359
REMARK CNNaffinity 6.72301674
REMARK  13 active torsions:
REMARK  status: ('A' for Active; 'I' for Inactive)
REMARK    1  A    between atoms: C4_4  and  O1_5 
REMARK    2  A    between atoms: C7_9  and  C8_10 
REMARK    3  A    between atoms: C8_10  and  C10_12 
REMARK    4  A    between atoms: C10_12  and  O3_13 
REMARK    5  A    between atoms: C16_19  and  O4_21 
REMARK    6  A    between atoms: O4_21  and  C18_22 
REMARK    7  A    between atoms: C18_22  and  C19_24 
REMARK    8  A    between atoms: C19_24  and  C20_25 
REMARK    9  A    between atoms: C19_24  and  O6_27 
REMARK   10  A    between atoms: O6_27  and  C22_28 
REMARK   11  A    between atoms: C22_28  and  C23_30 
REMARK   12  A    between atoms: C23_30  and  C24_31 
REMARK   13  A    between atoms: C28_35  and  O8_36 
ROOT
HETATM    1  C1  UNL     1      -7.742  49.214 -21.395  1.00  0.00     0.017 C 
HETATM    2  C2  UNL     1      -6.798  48.810 -22.266  1.00  0.00    -0.056 C 
HETATM    3  C3  UNL     1      -5.965  47.566 -21.962  1.00  0.00     0.105 C 
HETATM    4  C4  UNL     1      -4.426  47.749 -21.948  1.00  0.00     0.173 C 
HETATM    5  O2  UNL     1      -4.022  48.142 -23.249  1.00  0.00    -0.345 OA
HETATM    6  C5  UNL     1      -3.011  49.144 -23.193  1.00  0.00     0.165 C 
HETATM    7  C6  UNL     1      -2.897  49.670 -21.743  1.00  0.00     0.036 C 
HETATM    8  C7  UNL     1      -1.432  49.640 -21.211  1.00  0.00    -0.001 C 
HETATM    9  C11 UNL     1      -1.092  48.251 -20.653  1.00  0.00     0.010 C 
HETATM   10  C12 UNL     1      -2.002  47.767 -19.528  1.00  0.00     0.034 C 
HETATM   11  C13 UNL     1      -3.416  48.278 -19.618  1.00  0.00    -0.079 C 
HETATM   12  C14 UNL     1      -4.196  48.305 -18.521  1.00  0.00     0.015 C 
HETATM   13  C15 UNL     1      -3.905  48.808 -20.948  1.00  0.00     0.083 C 
HETATM   14  C16 UNL     1      -3.246  50.191 -24.338  1.00  0.00     0.093 C 
HETATM   15  C17 UNL     1      -3.301  49.396 -25.668  1.00  0.00     0.049 C 
HETATM   16  C26 UNL     1      -4.495  51.127 -24.221  1.00  0.00     0.044 C 
HETATM   17  C27 UNL     1      -5.676  50.816 -23.292  1.00  0.00     0.039 C 
HETATM   18  C28 UNL     1      -6.471  49.534 -23.569  1.00  0.00     0.146 C 
ENDROOT
BRANCH  14  19
HETATM   19  O4  UNL     1      -2.029  51.023 -24.337  1.00  0.00    -0.306 OA
BRANCH  19  20
HETATM   20  C18 UNL     1      -1.890  52.047 -25.228  1.00  0.00     0.289 C 
HETATM   21  O5  UNL     1      -2.789  52.783 -25.613  1.00  0.00    -0.262 OA
BRANCH  20  22
HETATM   22  C19 UNL     1      -0.437  52.177 -25.693  1.00  0.00     0.231 C 
BRANCH  22  23
HETATM   23  C20 UNL     1      -0.099  51.077 -26.702  1.00  0.00     0.038 C 
HETATM   24  C21 UNL     1       0.362  51.614 -28.047  1.00  0.00     0.008 C 
ENDBRANCH  22  23
BRANCH  22  25
HETATM   25  O6  UNL     1       0.434  51.959 -24.562  1.00  0.00    -0.306 OA
BRANCH  25  26
HETATM   26  C22 UNL     1       0.753  53.086 -23.872  1.00  0.00     0.259 C 
HETATM   27  O7  UNL     1       0.975  54.177 -24.382  1.00  0.00    -0.265 OA
BRANCH  26  28
HETATM   28  C23 UNL     1       0.761  52.809 -22.390  1.00  0.00     0.111 C 
BRANCH  28  29
HETATM   29  C24 UNL     1       1.354  53.976 -21.603  1.00  0.00     0.005 C 
HETATM   30  C25 UNL     1       0.963  53.953 -20.132  1.00  0.00     0.005 C 
ENDBRANCH  28  29
ENDBRANCH  26  28
ENDBRANCH  25  26
ENDBRANCH  22  25
ENDBRANCH  20  22
ENDBRANCH  19  20
ENDBRANCH  14  19
BRANCH   4  31
HETATM   31  O1  UNL     1      -3.857  46.463 -21.736  1.00  0.00    -0.364 OA
HETATM   32  H5  UNL     1      -2.954  46.523 -22.079  1.00  0.00     0.213 HD
ENDBRANCH   4  31
BRANCH   8  33
HETATM   33  C8  UNL     1      -1.083  50.871 -20.310  1.00  0.00     0.010 C 
HETATM   34  C9  UNL     1      -2.229  51.828 -19.970  1.00  0.00     0.012 C 
BRANCH  33  35
HETATM   35  C10 UNL     1      -0.308  50.482 -19.038  1.00  0.00     0.168 C 
BRANCH  35  36
HETATM   36  O3  UNL     1      -0.465  51.449 -18.014  1.00  0.00    -0.400 OA
HETATM   37  H15 UNL     1       0.083  51.164 -17.263  1.00  0.00     0.209 HD
ENDBRANCH  35  36
ENDBRANCH  33  35
ENDBRANCH   8  33
BRANCH  18  38
HETATM   38  O8  UNL     1      -7.670  49.869 -24.267  1.00  0.00    -0.391 OA
HETATM   39  H44 UNL     1      -8.284  50.292 -23.651  1.00  0.00     0.210 HD
ENDBRANCH  18  38
TORSDOF 13
ENDMDL
MODEL 8
REMARK minimizedAffinity -5.87051249
REMARK CNNscore 0.47571224
REMARK CNNaffinity 6.53193235
REMARK  13 active torsions:
REMARK  status: ('A' for Active; 'I' for Inactive)
REMARK    1  A    between atoms: C4_4  and  O1_5 
REMARK    2  A    between atoms: C7_9  and  C8_10 
REMARK    3  A    between atoms: C8_10  and  C10_12 
REMARK    4  A    between atoms: C10_12  and  O3_13 
REMARK    5  A    between atoms: C16_19  and  O4_21 
REMARK    6  A    between atoms: O4_21  and  C18_22 
REMARK    7  A    between atoms: C18_22  and  C19_24 
REMARK    8  A    between atoms: C19_24  and  C20_25 
REMARK    9  A    between atoms: C19_24  and  O6_27 
REMARK   10  A    between atoms: O6_27  and  C22_28 
REMARK   11  A    between atoms: C22_28  and  C23_30 
REMARK   12  A    between atoms: C23_30  and  C24_31 
REMARK   13  A    between atoms: C28_35  and  O8_36 
ROOT
HETATM    1  C1  UNL     1      -3.383  50.067 -12.200  1.00  0.00     0.017 C 
HETATM    2  C2  UNL     1      -2.867  51.312 -12.177  1.00  0.00    -0.056 C 
HETATM    3  C3  UNL     1      -1.900  51.754 -13.274  1.00  0.00     0.105 C 
HETATM    4  C4  UNL     1      -0.514  52.269 -12.809  1.00  0.00     0.173 C 
HETATM    5  O2  UNL     1      -0.723  53.432 -12.025  1.00  0.00    -0.345 OA
HETATM    6  C5  UNL     1       0.146  53.454 -10.897  1.00  0.00     0.165 C 
HETATM    7  C6  UNL     1       0.823  52.070 -10.750  1.00  0.00     0.036 C 
HETATM    8  C7  UNL     1       2.374  52.174 -10.633  1.00  0.00    -0.001 C 
HETATM    9  C11 UNL     1       3.012  52.254 -12.027  1.00  0.00     0.010 C 
HETATM   10  C12 UNL     1       2.695  51.080 -12.950  1.00  0.00     0.034 C 
HETATM   11  C13 UNL     1       1.342  50.460 -12.714  1.00  0.00    -0.079 C 
HETATM   12  C14 UNL     1       1.096  49.201 -13.121  1.00  0.00     0.015 C 
HETATM   13  C15 UNL     1       0.304  51.266 -11.963  1.00  0.00     0.083 C 
HETATM   14  C16 UNL     1      -0.620  54.033  -9.655  1.00  0.00     0.093 C 
HETATM   15  C17 UNL     1      -1.173  55.419 -10.077  1.00  0.00     0.049 C 
HETATM   16  C26 UNL     1      -1.765  53.163  -9.038  1.00  0.00     0.044 C 
HETATM   17  C27 UNL     1      -2.421  52.002  -9.798  1.00  0.00     0.039 C 
HETATM   18  C28 UNL     1      -3.169  52.343 -11.094  1.00  0.00     0.146 C 
ENDROOT
BRANCH  14  19
HETATM   19  O4  UNL     1       0.424  54.233  -8.634  1.00  0.00    -0.306 OA
BRANCH  19  20
HETATM   20  C18 UNL     1       1.365  55.210  -8.788  1.00  0.00     0.289 C 
HETATM   21  O5  UNL     1       1.881  55.540  -9.848  1.00  0.00    -0.262 OA
BRANCH  20  22
HETATM   22  C19 UNL     1       1.698  55.869  -7.447  1.00  0.00     0.231 C 
BRANCH  22  23
HETATM   23  C20 UNL     1       0.645  56.922  -7.093  1.00  0.00     0.038 C 
HETATM   24  C21 UNL     1       0.169  56.836  -5.653  1.00  0.00     0.008 C 
ENDBRANCH  22  23
BRANCH  22  25
HETATM   25  O6  UNL     1       2.945  56.585  -7.579  1.00  0.00    -0.306 OA
BRANCH  25  26
HETATM   26  C22 UNL     1       4.011  55.971  -6.999  1.00  0.00     0.259 C 
HETATM   27  O7  UNL     1       3.931  55.091  -6.151  1.00  0.00    -0.265 OA
BRANCH  26  28
HETATM   28  C23 UNL     1       5.299  56.505  -7.571  1.00  0.00     0.111 C 
BRANCH  28  29
HETATM   29  C24 UNL     1       6.033  55.444  -8.388  1.00  0.00     0.005 C 
HETATM   30  C25 UNL     1       5.345  55.141  -9.712  1.00  0.00     0.005 C 
ENDBRANCH  28  29
ENDBRANCH  26  28
ENDBRANCH  25  26
ENDBRANCH  22  25
ENDBRANCH  20  22
ENDBRANCH  19  20
ENDBRANCH  14  19
BRANCH   4  31
HETATM   31  O1  UNL     1       0.179  52.704 -13.973  1.00  0.00    -0.364 OA
HETATM   32  H5  UNL     1       0.848  53.328 -13.654  1.00  0.00     0.213 HD
ENDBRANCH   4  31
BRANCH   8  33
HETATM   33  C8  UNL     1       2.984  51.138  -9.633  1.00  0.00     0.010 C 
HETATM   34  C9  UNL     1       3.417  49.788 -10.213  1.00  0.00     0.012 C 
BRANCH  33  35
HETATM   35  C10 UNL     1       4.102  51.734  -8.759  1.00  0.00     0.168 C 
BRANCH  35  36
HETATM   36  O3  UNL     1       3.578  52.538  -7.716  1.00  0.00    -0.400 OA
HETATM   37  H15 UNL     1       4.335  52.916  -7.236  1.00  0.00     0.209 HD
ENDBRANCH  35  36
ENDBRANCH  33  35
ENDBRANCH   8  33
BRANCH  18  38
HETATM   38  O8  UNL     1      -4.570  52.389 -10.826  1.00  0.00    -0.391 OA
HETATM   39  H44 UNL     1      -4.896  51.487 -10.703  1.00  0.00     0.210 HD
ENDBRANCH  18  38
TORSDOF 13
ENDMDL
MODEL 9
REMARK minimizedAffinity -7.54914236
REMARK CNNscore 0.441690713
REMARK CNNaffinity 6.61751032
REMARK  13 active torsions:
REMARK  status: ('A' for Active; 'I' for Inactive)
REMARK    1  A    between atoms: C4_4  and  O1_5 
REMARK    2  A    between atoms: C7_9  and  C8_10 
REMARK    3  A    between atoms: C8_10  and  C10_12 
REMARK    4  A    between atoms: C10_12  and  O3_13 
REMARK    5  A    between atoms: C16_19  and  O4_21 
REMARK    6  A    between atoms: O4_21  and  C18_22 
REMARK    7  A    between atoms: C18_22  and  C19_24 
REMARK    8  A    between atoms: C19_24  and  C20_25 
REMARK    9  A    between atoms: C19_24  and  O6_27 
REMARK   10  A    between atoms: O6_27  and  C22_28 
REMARK   11  A    between atoms: C22_28  and  C23_30 
REMARK   12  A    between atoms: C23_30  and  C24_31 
REMARK   13  A    between atoms: C28_35  and  O8_36 
ROOT
HETATM    1  C1  UNL     1      -2.823  48.133 -27.325  1.00  0.00     0.017 C 
HETATM    2  C2  UNL     1      -3.450  49.205 -26.803  1.00  0.00    -0.056 C 
HETATM    3  C3  UNL     1      -3.058  50.611 -27.255  1.00  0.00     0.105 C 
HETATM    4  C4  UNL     1      -2.622  51.600 -26.144  1.00  0.00     0.173 C 
HETATM    5  O2  UNL     1      -3.727  51.797 -25.278  1.00  0.00    -0.345 OA
HETATM    6  C5  UNL     1      -3.311  51.844 -23.917  1.00  0.00     0.165 C 
HETATM    7  C6  UNL     1      -1.838  51.381 -23.820  1.00  0.00     0.036 C 
HETATM    8  C7  UNL     1      -0.945  52.392 -23.040  1.00  0.00    -0.001 C 
HETATM    9  C11 UNL     1      -0.453  53.506 -23.975  1.00  0.00     0.010 C 
HETATM   10  C12 UNL     1       0.341  53.027 -25.187  1.00  0.00     0.034 C 
HETATM   11  C13 UNL     1      -0.069  51.668 -25.693  1.00  0.00    -0.079 C 
HETATM   12  C14 UNL     1       0.781  50.942 -26.442  1.00  0.00     0.015 C 
HETATM   13  C15 UNL     1      -1.423  51.129 -25.288  1.00  0.00     0.083 C 
HETATM   14  C16 UNL     1      -4.371  51.115 -23.018  1.00  0.00     0.093 C 
HETATM   15  C17 UNL     1      -5.739  51.787 -23.304  1.00  0.00     0.049 C 
HETATM   16  C26 UNL     1      -4.498  49.561 -23.160  1.00  0.00     0.044 C 
HETATM   17  C27 UNL     1      -3.946  48.795 -24.369  1.00  0.00     0.039 C 
HETATM   18  C28 UNL     1      -4.545  49.123 -25.743  1.00  0.00     0.146 C 
ENDROOT
BRANCH  14  19
HETATM   19  O4  UNL     1      -3.969  51.433 -21.636  1.00  0.00    -0.306 OA
BRANCH  19  20
HETATM   20  C18 UNL     1      -3.950  50.460 -20.680  1.00  0.00     0.289 C 
HETATM   21  O5  UNL     1      -3.079  50.310 -19.833  1.00  0.00    -0.262 OA
BRANCH  20  22
HETATM   22  C19 UNL     1      -5.185  49.560 -20.786  1.00  0.00     0.231 C 
BRANCH  22  23
HETATM   23  C20 UNL     1      -6.421  50.284 -20.246  1.00  0.00     0.038 C 
HETATM   24  C21 UNL     1      -7.413  49.355 -19.566  1.00  0.00     0.008 C 
ENDBRANCH  22  23
BRANCH  22  25
HETATM   25  O6  UNL     1      -4.996  48.410 -19.933  1.00  0.00    -0.306 OA
BRANCH  25  26
HETATM   26  C22 UNL     1      -4.831  47.236 -20.600  1.00  0.00     0.259 C 
HETATM   27  O7  UNL     1      -5.507  46.877 -21.556  1.00  0.00    -0.265 OA
BRANCH  26  28
HETATM   28  C23 UNL     1      -3.680  46.458 -20.016  1.00  0.00     0.111 C 
BRANCH  28  29
HETATM   29  C24 UNL     1      -2.344  47.150 -20.274  1.00  0.00     0.005 C 
HETATM   30  C25 UNL     1      -1.971  47.177 -21.750  1.00  0.00     0.005 C 
ENDBRANCH  28  29
ENDBRANCH  26  28
ENDBRANCH  25  26
ENDBRANCH  22  25
ENDBRANCH  20  22
ENDBRANCH  19  20
ENDBRANCH  14  19
BRANCH   4  31
HETATM   31  O1  UNL     1      -2.393  52.855 -26.773  1.00  0.00    -0.364 OA
HETATM   32  H5  UNL     1      -2.478  53.514 -26.069  1.00  0.00     0.213 HD
ENDBRANCH   4  31
BRANCH   8  33
HETATM   33  C8  UNL     1       0.130  51.695 -22.142  1.00  0.00     0.010 C 
HETATM   34  C9  UNL     1       0.858  52.576 -21.122  1.00  0.00     0.012 C 
BRANCH  33  35
HETATM   35  C10 UNL     1      -0.390  50.410 -21.472  1.00  0.00     0.168 C 
BRANCH  35  36
HETATM   36  O3  UNL     1      -0.209  50.443 -20.067  1.00  0.00    -0.400 OA
HETATM   37  H15 UNL     1      -0.516  49.588 -19.718  1.00  0.00     0.209 HD
ENDBRANCH  35  36
ENDBRANCH  33  35
ENDBRANCH   8  33
BRANCH  18  38
HETATM   38  O8  UNL     1      -5.499  48.119 -26.089  1.00  0.00    -0.391 OA
HETATM   39  H44 UNL     1      -5.028  47.307 -26.324  1.00  0.00     0.210 HD
ENDBRANCH  18  38
TORSDOF 13
ENDMDL
