MODEL 1
REMARK minimizedAffinity -9.78394794
REMARK CNNscore 0.385717601
REMARK CNNaffinity 7.09623718
REMARK  11 active torsions:
REMARK  status: ('A' for Active; 'I' for Inactive)
REMARK    1  A    between atoms: C2_2  and  C4_4 
REMARK    2  A    between atoms: C4_4  and  C6_6 
REMARK    3  A    between atoms: C7_7  and  C8_8 
REMARK    4  A    between atoms: C8_8  and  C10_10 
REMARK    5  A    between atoms: C24_24  and  O1_25 
REMARK    6  A    between atoms: O1_25  and  C25_26 
REMARK    7  A    between atoms: C26_28  and  C27_29 
REMARK    8  A    between atoms: C27_29  and  O3_30 
REMARK    9  A    between atoms: C28_31  and  O4_32 
REMARK   10  A    between atoms: C29_33  and  O5_34 
REMARK   11  A    between atoms: C30_35  and  O6_36 
ROOT
HETATM    1  C10 UNL     1      -0.857  49.918 -21.264  1.00  0.00     0.002 C 
HETATM    2  C11 UNL     1      -0.773  48.912 -20.090  1.00  0.00     0.006 C 
HETATM    3  C12 UNL     1      -2.063  48.072 -20.149  1.00  0.00     0.009 C 
HETATM    4  C13 UNL     1      -2.803  48.582 -21.391  1.00  0.00     0.041 C 
HETATM    5  C14 UNL     1      -2.392  50.072 -21.507  1.00  0.00    -0.029 C 
HETATM    6  C15 UNL     1      -3.081  50.976 -20.464  1.00  0.00     0.016 C 
HETATM    7  C16 UNL     1      -2.770  50.552 -22.928  1.00  0.00     0.037 C 
HETATM    8  C17 UNL     1      -4.182  50.164 -23.304  1.00  0.00    -0.019 C 
HETATM    9  C18 UNL     1      -4.884  49.184 -22.690  1.00  0.00    -0.030 C 
HETATM   10  C19 UNL     1      -4.300  48.304 -21.566  1.00  0.00     0.142 C 
HETATM   11  C20 UNL     1      -5.177  48.394 -20.331  1.00  0.00     0.018 C 
HETATM   12  C21 UNL     1      -6.464  48.051 -20.544  1.00  0.00     0.014 C 
HETATM   13  C22 UNL     1      -6.737  47.656 -21.984  1.00  0.00     0.127 C 
HETATM   14  C23 UNL     1      -8.164  47.139 -22.186  1.00  0.00     0.078 C 
HETATM   15  C24 UNL     1      -8.544  46.945 -23.665  1.00  0.00     0.128 C 
HETATM   16  C31 UNL     1      -7.373  47.089 -24.639  1.00  0.00     0.033 C 
HETATM   17  C32 UNL     1      -6.556  48.372 -24.456  1.00  0.00     0.020 C 
HETATM   18  C33 UNL     1      -6.361  48.823 -22.982  1.00  0.00     0.021 C 
HETATM   19  C34 UNL     1      -7.225  50.086 -22.718  1.00  0.00     0.024 C 
HETATM   20  O7  UNL     1      -5.844  46.527 -22.215  1.00  0.00    -0.223 OA
HETATM   21  O8  UNL     1      -4.419  46.933 -22.062  1.00  0.00    -0.219 OA
ENDROOT
BRANCH  15  22
HETATM   22  O1  UNL     1      -9.558  47.910 -23.964  1.00  0.00    -0.353 OA
BRANCH  22  23
HETATM   23  C25 UNL     1     -10.121  47.791 -25.275  1.00  0.00     0.292 C 
HETATM   24  O2  UNL     1     -10.036  46.440 -25.726  1.00  0.00    -0.348 OA
HETATM   25  C26 UNL     1     -10.768  46.212 -26.947  1.00  0.00     0.179 C 
HETATM   26  C28 UNL     1     -10.719  47.427 -27.913  1.00  0.00     0.180 C 
HETATM   27  C29 UNL     1      -9.429  48.238 -27.703  1.00  0.00     0.183 C 
HETATM   28  C30 UNL     1      -9.318  48.711 -26.232  1.00  0.00     0.204 C 
BRANCH  25  29
HETATM   29  C27 UNL     1     -10.211  44.924 -27.585  1.00  0.00     0.198 C 
BRANCH  29  30
HETATM   30  O3  UNL     1     -10.287  43.799 -26.718  1.00  0.00    -0.398 OA
HETATM   31  H39 UNL     1     -11.212  43.657 -26.458  1.00  0.00     0.209 HD
ENDBRANCH  29  30
ENDBRANCH  25  29
BRANCH  26  32
HETATM   32  O4  UNL     1     -11.828  48.312 -27.654  1.00  0.00    -0.390 OA
HETATM   33  H41 UNL     1     -12.649  47.792 -27.737  1.00  0.00     0.210 HD
ENDBRANCH  26  32
BRANCH  27  34
HETATM   34  O5  UNL     1      -8.307  47.453 -28.126  1.00  0.00    -0.390 OA
HETATM   35  H43 UNL     1      -7.750  47.260 -27.350  1.00  0.00     0.210 HD
ENDBRANCH  27  34
BRANCH  28  36
HETATM   36  O6  UNL     1      -9.768  50.074 -26.115  1.00  0.00    -0.388 OA
HETATM   37  H45 UNL     1     -10.662  50.135 -26.501  1.00  0.00     0.210 HD
ENDBRANCH  28  36
ENDBRANCH  22  23
ENDBRANCH  15  22
BRANCH   1  38
HETATM   38  C8  UNL     1       0.036  51.178 -21.160  1.00  0.00     0.008 C 
HETATM   39  C9  UNL     1      -0.547  52.155 -20.125  1.00  0.00     0.014 C 
BRANCH  38  40
HETATM   40  C7  UNL     1       0.267  51.949 -22.437  1.00  0.00    -0.026 C 
HETATM   41  C6  UNL     1      -0.214  51.562 -23.635  1.00  0.00    -0.026 C 
BRANCH  41  42
HETATM   42  C4  UNL     1       0.043  52.293 -24.935  1.00  0.00     0.007 C 
HETATM   43  C5  UNL     1       0.869  53.549 -24.641  1.00  0.00     0.014 C 
BRANCH  42  44
HETATM   44  C2  UNL     1       0.681  51.353 -26.001  1.00  0.00    -0.015 C 
HETATM   45  C1  UNL     1      -0.073  51.434 -27.334  1.00  0.00     0.010 C 
HETATM   46  C3  UNL     1       2.175  51.597 -26.242  1.00  0.00     0.010 C 
ENDBRANCH  42  44
ENDBRANCH  41  42
ENDBRANCH  38  40
ENDBRANCH   1  38
TORSDOF 11
ENDMDL
MODEL 2
REMARK minimizedAffinity -8.68349171
REMARK CNNscore 0.382279515
REMARK CNNaffinity 6.44109774
REMARK  11 active torsions:
REMARK  status: ('A' for Active; 'I' for Inactive)
REMARK    1  A    between atoms: C2_2  and  C4_4 
REMARK    2  A    between atoms: C4_4  and  C6_6 
REMARK    3  A    between atoms: C7_7  and  C8_8 
REMARK    4  A    between atoms: C8_8  and  C10_10 
REMARK    5  A    between atoms: C24_24  and  O1_25 
REMARK    6  A    between atoms: O1_25  and  C25_26 
REMARK    7  A    between atoms: C26_28  and  C27_29 
REMARK    8  A    between atoms: C27_29  and  O3_30 
REMARK    9  A    between atoms: C28_31  and  O4_32 
REMARK   10  A    between atoms: C29_33  and  O5_34 
REMARK   11  A    between atoms: C30_35  and  O6_36 
ROOT
HETATM    1  C10 UNL     1      -0.248  51.402 -20.286  1.00  0.00     0.002 C 
HETATM    2  C11 UNL     1      -0.909  52.187 -19.127  1.00  0.00     0.006 C 
HETATM    3  C12 UNL     1      -2.155  51.379 -18.716  1.00  0.00     0.009 C 
HETATM    4  C13 UNL     1      -2.122  50.132 -19.607  1.00  0.00     0.041 C 
HETATM    5  C14 UNL     1      -1.434  50.603 -20.913  1.00  0.00    -0.029 C 
HETATM    6  C15 UNL     1      -2.347  51.475 -21.802  1.00  0.00     0.016 C 
HETATM    7  C16 UNL     1      -1.011  49.340 -21.700  1.00  0.00     0.037 C 
HETATM    8  C17 UNL     1      -2.131  48.329 -21.802  1.00  0.00    -0.019 C 
HETATM    9  C18 UNL     1      -3.208  48.312 -20.982  1.00  0.00    -0.030 C 
HETATM   10  C19 UNL     1      -3.389  49.292 -19.804  1.00  0.00     0.142 C 
HETATM   11  C20 UNL     1      -4.706  50.032 -19.948  1.00  0.00     0.018 C 
HETATM   12  C21 UNL     1      -5.784  49.227 -20.030  1.00  0.00     0.014 C 
HETATM   13  C22 UNL     1      -5.425  47.754 -19.962  1.00  0.00     0.127 C 
HETATM   14  C23 UNL     1      -6.663  46.853 -19.919  1.00  0.00     0.078 C 
HETATM   15  C24 UNL     1      -6.340  45.357 -20.079  1.00  0.00     0.128 C 
HETATM   16  C31 UNL     1      -4.847  45.027 -20.030  1.00  0.00     0.033 C 
HETATM   17  C32 UNL     1      -3.984  45.868 -20.976  1.00  0.00     0.020 C 
HETATM   18  C33 UNL     1      -4.417  47.355 -21.114  1.00  0.00     0.021 C 
HETATM   19  C34 UNL     1      -5.051  47.573 -22.515  1.00  0.00     0.024 C 
HETATM   20  O7  UNL     1      -4.756  47.613 -18.675  1.00  0.00    -0.223 OA
HETATM   21  O8  UNL     1      -3.518  48.440 -18.623  1.00  0.00    -0.219 OA
ENDROOT
BRANCH  15  22
HETATM   22  O1  UNL     1      -6.897  44.942 -21.330  1.00  0.00    -0.353 OA
BRANCH  22  23
HETATM   23  C25 UNL     1      -7.518  43.652 -21.304  1.00  0.00     0.292 C 
HETATM   24  O2  UNL     1      -6.526  42.631 -21.224  1.00  0.00    -0.348 OA
HETATM   25  C26 UNL     1      -7.088  41.324 -20.986  1.00  0.00     0.179 C 
HETATM   26  C28 UNL     1      -8.452  41.119 -21.699  1.00  0.00     0.180 C 
HETATM   27  C29 UNL     1      -8.542  41.988 -22.965  1.00  0.00     0.183 C 
HETATM   28  C30 UNL     1      -8.335  43.482 -22.612  1.00  0.00     0.204 C 
BRANCH  25  29
HETATM   29  C27 UNL     1      -6.033  40.284 -21.412  1.00  0.00     0.198 C 
BRANCH  29  30
HETATM   30  O3  UNL     1      -4.909  40.247 -20.542  1.00  0.00    -0.398 OA
HETATM   31  H39 UNL     1      -5.209  40.051 -19.639  1.00  0.00     0.209 HD
ENDBRANCH  29  30
ENDBRANCH  25  29
BRANCH  26  32
HETATM   32  O4  UNL     1      -9.531  41.516 -20.829  1.00  0.00    -0.390 OA
HETATM   33  H41 UNL     1      -9.452  41.003 -20.003  1.00  0.00     0.210 HD
ENDBRANCH  26  32
BRANCH  27  34
HETATM   34  O5  UNL     1      -7.603  41.506 -23.934  1.00  0.00    -0.390 OA
HETATM   35  H43 UNL     1      -6.927  42.191 -24.084  1.00  0.00     0.210 HD
ENDBRANCH  27  34
BRANCH  28  36
HETATM   36  O6  UNL     1      -9.608  44.146 -22.500  1.00  0.00    -0.388 OA
HETATM   37  H45 UNL     1     -10.159  43.646 -21.868  1.00  0.00     0.210 HD
ENDBRANCH  28  36
ENDBRANCH  22  23
ENDBRANCH  15  22
BRANCH   1  38
HETATM   38  C8  UNL     1       0.712  52.200 -21.203  1.00  0.00     0.008 C 
HETATM   39  C9  UNL     1       0.599  53.704 -20.904  1.00  0.00     0.014 C 
BRANCH  38  40
HETATM   40  C7  UNL     1       0.536  52.014 -22.690  1.00  0.00    -0.026 C 
HETATM   41  C6  UNL     1       0.106  52.988 -23.514  1.00  0.00    -0.026 C 
BRANCH  41  42
HETATM   42  C4  UNL     1      -0.124  52.811 -25.000  1.00  0.00     0.007 C 
HETATM   43  C5  UNL     1       0.315  54.088 -25.723  1.00  0.00     0.014 C 
BRANCH  42  44
HETATM   44  C2  UNL     1       0.559  51.517 -25.533  1.00  0.00    -0.015 C 
HETATM   45  C1  UNL     1      -0.415  50.681 -26.373  1.00  0.00     0.010 C 
HETATM   46  C3  UNL     1       1.842  51.766 -26.334  1.00  0.00     0.010 C 
ENDBRANCH  42  44
ENDBRANCH  41  42
ENDBRANCH  38  40
ENDBRANCH   1  38
TORSDOF 11
ENDMDL
MODEL 3
REMARK minimizedAffinity -9.95289421
REMARK CNNscore 0.376089871
REMARK CNNaffinity 7.32073736
REMARK  11 active torsions:
REMARK  status: ('A' for Active; 'I' for Inactive)
REMARK    1  A    between atoms: C2_2  and  C4_4 
REMARK    2  A    between atoms: C4_4  and  C6_6 
REMARK    3  A    between atoms: C7_7  and  C8_8 
REMARK    4  A    between atoms: C8_8  and  C10_10 
REMARK    5  A    between atoms: C24_24  and  O1_25 
REMARK    6  A    between atoms: O1_25  and  C25_26 
REMARK    7  A    between atoms: C26_28  and  C27_29 
REMARK    8  A    between atoms: C27_29  and  O3_30 
REMARK    9  A    between atoms: C28_31  and  O4_32 
REMARK   10  A    between atoms: C29_33  and  O5_34 
REMARK   11  A    between atoms: C30_35  and  O6_36 
ROOT
HETATM    1  C10 UNL     1      -3.760  50.369 -25.336  1.00  0.00     0.002 C 
HETATM    2  C11 UNL     1      -4.144  48.870 -25.378  1.00  0.00     0.006 C 
HETATM    3  C12 UNL     1      -3.944  48.334 -23.948  1.00  0.00     0.009 C 
HETATM    4  C13 UNL     1      -3.519  49.558 -23.129  1.00  0.00     0.041 C 
HETATM    5  C14 UNL     1      -2.763  50.460 -24.138  1.00  0.00    -0.029 C 
HETATM    6  C15 UNL     1      -1.353  49.937 -24.483  1.00  0.00     0.016 C 
HETATM    7  C16 UNL     1      -2.645  51.868 -23.509  1.00  0.00     0.037 C 
HETATM    8  C17 UNL     1      -2.151  51.816 -22.080  1.00  0.00    -0.019 C 
HETATM    9  C18 UNL     1      -2.202  50.708 -21.305  1.00  0.00    -0.030 C 
HETATM   10  C19 UNL     1      -2.829  49.377 -21.772  1.00  0.00     0.142 C 
HETATM   11  C20 UNL     1      -1.813  48.257 -21.647  1.00  0.00     0.018 C 
HETATM   12  C21 UNL     1      -1.314  48.104 -20.404  1.00  0.00     0.014 C 
HETATM   13  C22 UNL     1      -1.887  49.100 -19.413  1.00  0.00     0.127 C 
HETATM   14  C23 UNL     1      -1.418  48.832 -17.979  1.00  0.00     0.078 C 
HETATM   15  C24 UNL     1      -1.793  49.950 -16.990  1.00  0.00     0.128 C 
HETATM   16  C31 UNL     1      -2.744  51.002 -17.563  1.00  0.00     0.033 C 
HETATM   17  C32 UNL     1      -2.294  51.596 -18.902  1.00  0.00     0.020 C 
HETATM   18  C33 UNL     1      -1.621  50.588 -19.875  1.00  0.00     0.021 C 
HETATM   19  C34 UNL     1      -0.100  50.890 -19.948  1.00  0.00     0.024 C 
HETATM   20  O7  UNL     1      -3.320  48.841 -19.441  1.00  0.00    -0.223 OA
HETATM   21  O8  UNL     1      -3.882  49.096 -20.798  1.00  0.00    -0.219 OA
ENDROOT
BRANCH  15  22
HETATM   22  O1  UNL     1      -0.570  50.563 -16.572  1.00  0.00    -0.353 OA
BRANCH  22  23
HETATM   23  C25 UNL     1      -0.604  51.110 -15.249  1.00  0.00     0.292 C 
HETATM   24  O2  UNL     1       0.721  51.380 -14.794  1.00  0.00    -0.348 OA
HETATM   25  C26 UNL     1       0.747  52.120 -13.558  1.00  0.00     0.179 C 
HETATM   26  C28 UNL     1      -0.408  51.726 -12.598  1.00  0.00     0.180 C 
HETATM   27  C29 UNL     1      -0.843  50.271 -12.838  1.00  0.00     0.183 C 
HETATM   28  C30 UNL     1      -1.272  50.069 -14.312  1.00  0.00     0.204 C 
BRANCH  25  29
HETATM   29  C27 UNL     1       2.139  51.916 -12.927  1.00  0.00     0.198 C 
BRANCH  29  30
HETATM   30  O3  UNL     1       2.513  52.976 -12.056  1.00  0.00    -0.398 OA
HETATM   31  H39 UNL     1       1.849  53.063 -11.353  1.00  0.00     0.209 HD
ENDBRANCH  29  30
ENDBRANCH  25  29
BRANCH  26  32
HETATM   32  O4  UNL     1      -1.558  52.563 -12.836  1.00  0.00    -0.390 OA
HETATM   33  H41 UNL     1      -1.277  53.491 -12.734  1.00  0.00     0.210 HD
ENDBRANCH  26  32
BRANCH  27  34
HETATM   34  O5  UNL     1       0.214  49.391 -12.436  1.00  0.00    -0.390 OA
HETATM   35  H43 UNL     1       0.548  48.923 -13.223  1.00  0.00     0.210 HD
ENDBRANCH  27  34
BRANCH  28  36
HETATM   36  O6  UNL     1      -2.707  50.140 -14.425  1.00  0.00    -0.388 OA
HETATM   37  H45 UNL     1      -3.004  50.976 -14.020  1.00  0.00     0.210 HD
ENDBRANCH  28  36
ENDBRANCH  22  23
ENDBRANCH  15  22
BRANCH   1  38
HETATM   38  C8  UNL     1      -3.399  51.028 -26.690  1.00  0.00     0.008 C 
HETATM   39  C9  UNL     1      -3.383  49.970 -27.806  1.00  0.00     0.014 C 
BRANCH  38  40
HETATM   40  C7  UNL     1      -2.088  51.773 -26.748  1.00  0.00    -0.026 C 
HETATM   41  C6  UNL     1      -1.114  51.496 -27.637  1.00  0.00    -0.026 C 
BRANCH  41  42
HETATM   42  C4  UNL     1       0.226  52.198 -27.684  1.00  0.00     0.007 C 
HETATM   43  C5  UNL     1      -0.009  53.711 -27.690  1.00  0.00     0.014 C 
BRANCH  42  44
HETATM   44  C2  UNL     1       1.166  51.709 -26.542  1.00  0.00    -0.015 C 
HETATM   45  C1  UNL     1       2.623  51.634 -27.016  1.00  0.00     0.010 C 
HETATM   46  C3  UNL     1       1.088  52.547 -25.260  1.00  0.00     0.010 C 
ENDBRANCH  42  44
ENDBRANCH  41  42
ENDBRANCH  38  40
ENDBRANCH   1  38
TORSDOF 11
ENDMDL
MODEL 4
REMARK minimizedAffinity -9.88881874
REMARK CNNscore 0.312584788
REMARK CNNaffinity 7.0413785
REMARK  11 active torsions:
REMARK  status: ('A' for Active; 'I' for Inactive)
REMARK    1  A    between atoms: C2_2  and  C4_4 
REMARK    2  A    between atoms: C4_4  and  C6_6 
REMARK    3  A    between atoms: C7_7  and  C8_8 
REMARK    4  A    between atoms: C8_8  and  C10_10 
REMARK    5  A    between atoms: C24_24  and  O1_25 
REMARK    6  A    between atoms: O1_25  and  C25_26 
REMARK    7  A    between atoms: C26_28  and  C27_29 
REMARK    8  A    between atoms: C27_29  and  O3_30 
REMARK    9  A    between atoms: C28_31  and  O4_32 
REMARK   10  A    between atoms: C29_33  and  O5_34 
REMARK   11  A    between atoms: C30_35  and  O6_36 
ROOT
HETATM    1  C10 UNL     1      -3.591  51.749 -24.509  1.00  0.00     0.002 C 
HETATM    2  C11 UNL     1      -5.055  51.939 -24.044  1.00  0.00     0.006 C 
HETATM    3  C12 UNL     1      -5.048  51.760 -22.514  1.00  0.00     0.009 C 
HETATM    4  C13 UNL     1      -3.573  51.542 -22.155  1.00  0.00     0.041 C 
HETATM    5  C14 UNL     1      -2.967  50.846 -23.399  1.00  0.00    -0.029 C 
HETATM    6  C15 UNL     1      -3.374  49.362 -23.526  1.00  0.00     0.016 C 
HETATM    7  C16 UNL     1      -1.427  50.943 -23.285  1.00  0.00     0.037 C 
HETATM    8  C17 UNL     1      -0.929  50.534 -21.917  1.00  0.00    -0.019 C 
HETATM    9  C18 UNL     1      -1.709  50.492 -20.812  1.00  0.00    -0.030 C 
HETATM   10  C19 UNL     1      -3.192  50.918 -20.808  1.00  0.00     0.142 C 
HETATM   11  C20 UNL     1      -4.053  49.780 -20.294  1.00  0.00     0.018 C 
HETATM   12  C21 UNL     1      -3.710  49.341 -19.066  1.00  0.00     0.014 C 
HETATM   13  C22 UNL     1      -2.529  50.093 -18.481  1.00  0.00     0.127 C 
HETATM   14  C23 UNL     1      -2.234  49.681 -17.036  1.00  0.00     0.078 C 
HETATM   15  C24 UNL     1      -0.912  50.253 -16.492  1.00  0.00     0.128 C 
HETATM   16  C31 UNL     1      -0.255  51.292 -17.402  1.00  0.00     0.033 C 
HETATM   17  C32 UNL     1      -0.088  50.840 -18.856  1.00  0.00     0.020 C 
HETATM   18  C33 UNL     1      -1.260  49.989 -19.419  1.00  0.00     0.021 C 
HETATM   19  C34 UNL     1      -0.792  48.515 -19.569  1.00  0.00     0.024 C 
HETATM   20  O7  UNL     1      -2.978  51.478 -18.441  1.00  0.00    -0.223 OA
HETATM   21  O8  UNL     1      -3.273  51.985 -19.811  1.00  0.00    -0.219 OA
ENDROOT
BRANCH  15  22
HETATM   22  O1  UNL     1      -0.031  49.144 -16.289  1.00  0.00    -0.353 OA
BRANCH  22  23
HETATM   23  C25 UNL     1       0.360  48.938 -14.927  1.00  0.00     0.292 C 
HETATM   24  O2  UNL     1       1.005  50.104 -14.419  1.00  0.00    -0.348 OA
HETATM   25  C26 UNL     1       1.238  50.039 -12.998  1.00  0.00     0.179 C 
HETATM   26  C28 UNL     1       1.583  48.606 -12.511  1.00  0.00     0.180 C 
HETATM   27  C29 UNL     1       2.256  47.797 -13.633  1.00  0.00     0.183 C 
HETATM   28  C30 UNL     1       1.342  47.739 -14.882  1.00  0.00     0.204 C 
BRANCH  25  29
HETATM   29  C27 UNL     1       2.341  51.062 -12.663  1.00  0.00     0.198 C 
BRANCH  29  30
HETATM   30  O3  UNL     1       2.472  52.078 -13.649  1.00  0.00    -0.398 OA
HETATM   31  H39 UNL     1       1.623  52.540 -13.749  1.00  0.00     0.209 HD
ENDBRANCH  29  30
ENDBRANCH  25  29
BRANCH  26  32
HETATM   32  O4  UNL     1       0.379  47.904 -12.139  1.00  0.00    -0.390 OA
HETATM   33  H41 UNL     1      -0.079  48.437 -11.462  1.00  0.00     0.210 HD
ENDBRANCH  26  32
BRANCH  27  34
HETATM   34  O5  UNL     1       3.546  48.356 -13.907  1.00  0.00    -0.390 OA
HETATM   35  H43 UNL     1       3.545  48.716 -14.812  1.00  0.00     0.210 HD
ENDBRANCH  27  34
BRANCH  28  36
HETATM   36  O6  UNL     1       0.618  46.494 -14.908  1.00  0.00    -0.388 OA
HETATM   37  H45 UNL     1       0.156  46.391 -14.055  1.00  0.00     0.210 HD
ENDBRANCH  28  36
ENDBRANCH  22  23
ENDBRANCH  15  22
BRANCH   1  38
HETATM   38  C8  UNL     1      -3.380  51.392 -26.001  1.00  0.00     0.008 C 
HETATM   39  C9  UNL     1      -3.507  49.873 -26.204  1.00  0.00     0.014 C 
BRANCH  38  40
HETATM   40  C7  UNL     1      -2.076  51.829 -26.621  1.00  0.00    -0.026 C 
HETATM   41  C6  UNL     1      -1.091  50.974 -26.960  1.00  0.00    -0.026 C 
BRANCH  41  42
HETATM   42  C4  UNL     1       0.243  51.393 -27.539  1.00  0.00     0.007 C 
HETATM   43  C5  UNL     1       0.081  52.758 -28.216  1.00  0.00     0.014 C 
BRANCH  42  44
HETATM   44  C2  UNL     1       1.370  51.352 -26.464  1.00  0.00    -0.015 C 
HETATM   45  C1  UNL     1       2.747  51.592 -27.094  1.00  0.00     0.010 C 
HETATM   46  C3  UNL     1       1.164  52.325 -25.298  1.00  0.00     0.010 C 
ENDBRANCH  42  44
ENDBRANCH  41  42
ENDBRANCH  38  40
ENDBRANCH   1  38
TORSDOF 11
ENDMDL
MODEL 5
REMARK minimizedAffinity -8.4559269
REMARK CNNscore 0.278113604
REMARK CNNaffinity 5.77888489
REMARK  11 active torsions:
REMARK  status: ('A' for Active; 'I' for Inactive)
REMARK    1  A    between atoms: C2_2  and  C4_4 
REMARK    2  A    between atoms: C4_4  and  C6_6 
REMARK    3  A    between atoms: C7_7  and  C8_8 
REMARK    4  A    between atoms: C8_8  and  C10_10 
REMARK    5  A    between atoms: C24_24  and  O1_25 
REMARK    6  A    between atoms: O1_25  and  C25_26 
REMARK    7  A    between atoms: C26_28  and  C27_29 
REMARK    8  A    between atoms: C27_29  and  O3_30 
REMARK    9  A    between atoms: C28_31  and  O4_32 
REMARK   10  A    between atoms: C29_33  and  O5_34 
REMARK   11  A    between atoms: C30_35  and  O6_36 
ROOT
HETATM    1  C10 UNL     1       5.537  67.596 -36.054  1.00  0.00     0.002 C 
HETATM    2  C11 UNL     1       6.001  66.601 -37.145  1.00  0.00     0.006 C 
HETATM    3  C12 UNL     1       4.979  66.713 -38.292  1.00  0.00     0.009 C 
HETATM    4  C13 UNL     1       4.010  67.812 -37.844  1.00  0.00     0.041 C 
HETATM    5  C14 UNL     1       4.000  67.719 -36.298  1.00  0.00    -0.029 C 
HETATM    6  C15 UNL     1       3.205  66.507 -35.766  1.00  0.00     0.016 C 
HETATM    7  C16 UNL     1       3.368  69.022 -35.754  1.00  0.00     0.037 C 
HETATM    8  C17 UNL     1       2.077  69.368 -36.462  1.00  0.00    -0.019 C 
HETATM    9  C18 UNL     1       1.723  68.872 -37.670  1.00  0.00    -0.030 C 
HETATM   10  C19 UNL     1       2.629  67.937 -38.498  1.00  0.00     0.142 C 
HETATM   11  C20 UNL     1       1.888  66.653 -38.820  1.00  0.00     0.018 C 
HETATM   12  C21 UNL     1       0.722  66.839 -39.471  1.00  0.00     0.014 C 
HETATM   13  C22 UNL     1       0.420  68.303 -39.730  1.00  0.00     0.127 C 
HETATM   14  C23 UNL     1      -0.834  68.496 -40.588  1.00  0.00     0.078 C 
HETATM   15  C24 UNL     1      -1.297  69.962 -40.679  1.00  0.00     0.128 C 
HETATM   16  C31 UNL     1      -0.310  70.970 -40.089  1.00  0.00     0.033 C 
HETATM   17  C32 UNL     1       0.155  70.640 -38.667  1.00  0.00     0.020 C 
HETATM   18  C33 UNL     1       0.372  69.127 -38.381  1.00  0.00     0.021 C 
HETATM   19  C34 UNL     1      -0.763  68.618 -37.452  1.00  0.00     0.024 C 
HETATM   20  O7  UNL     1       1.550  68.761 -40.528  1.00  0.00    -0.223 OA
HETATM   21  O8  UNL     1       2.826  68.633 -39.769  1.00  0.00    -0.219 OA
ENDROOT
BRANCH  15  22
HETATM   22  O1  UNL     1      -2.553  70.044 -40.000  1.00  0.00    -0.353 OA
BRANCH  22  23
HETATM   23  C25 UNL     1      -3.665  70.360 -40.845  1.00  0.00     0.292 C 
HETATM   24  O2  UNL     1      -4.795  69.565 -40.489  1.00  0.00    -0.348 OA
HETATM   25  C26 UNL     1      -6.001  69.977 -41.162  1.00  0.00     0.179 C 
HETATM   26  C28 UNL     1      -5.742  70.470 -42.612  1.00  0.00     0.180 C 
HETATM   27  C29 UNL     1      -4.496  69.790 -43.203  1.00  0.00     0.183 C 
HETATM   28  C30 UNL     1      -3.258  70.056 -42.312  1.00  0.00     0.204 C 
BRANCH  25  29
HETATM   29  C27 UNL     1      -6.989  68.795 -41.104  1.00  0.00     0.198 C 
BRANCH  29  30
HETATM   30  O3  UNL     1      -6.337  67.532 -41.054  1.00  0.00    -0.398 OA
HETATM   31  H39 UNL     1      -5.753  67.503 -40.279  1.00  0.00     0.209 HD
ENDBRANCH  29  30
ENDBRANCH  25  29
BRANCH  26  32
HETATM   32  O4  UNL     1      -5.498  71.891 -42.616  1.00  0.00    -0.390 OA
HETATM   33  H41 UNL     1      -6.264  72.326 -42.198  1.00  0.00     0.210 HD
ENDBRANCH  26  32
BRANCH  27  34
HETATM   34  O5  UNL     1      -4.765  68.394 -43.388  1.00  0.00    -0.390 OA
HETATM   35  H43 UNL     1      -4.183  67.882 -42.797  1.00  0.00     0.210 HD
ENDBRANCH  27  34
BRANCH  28  36
HETATM   36  O6  UNL     1      -2.482  71.142 -42.853  1.00  0.00    -0.388 OA
HETATM   37  H45 UNL     1      -3.073  71.908 -42.977  1.00  0.00     0.210 HD
ENDBRANCH  28  36
ENDBRANCH  22  23
ENDBRANCH  15  22
BRANCH   1  38
HETATM   38  C8  UNL     1       6.073  67.351 -34.622  1.00  0.00     0.008 C 
HETATM   39  C9  UNL     1       7.170  68.375 -34.285  1.00  0.00     0.014 C 
BRANCH  38  40
HETATM   40  C7  UNL     1       6.626  65.976 -34.335  1.00  0.00    -0.026 C 
HETATM   41  C6  UNL     1       6.616  64.970 -35.231  1.00  0.00    -0.026 C 
BRANCH  41  42
HETATM   42  C4  UNL     1       7.121  63.571 -34.950  1.00  0.00     0.007 C 
HETATM   43  C5  UNL     1       8.459  63.669 -34.210  1.00  0.00     0.014 C 
BRANCH  42  44
HETATM   44  C2  UNL     1       6.051  62.715 -34.211  1.00  0.00    -0.015 C 
HETATM   45  C1  UNL     1       4.675  63.392 -34.249  1.00  0.00     0.010 C 
HETATM   46  C3  UNL     1       5.929  61.276 -34.727  1.00  0.00     0.010 C 
ENDBRANCH  42  44
ENDBRANCH  41  42
ENDBRANCH  38  40
ENDBRANCH   1  38
TORSDOF 11
ENDMDL
MODEL 6
REMARK minimizedAffinity -8.91840172
REMARK CNNscore 0.269349873
REMARK CNNaffinity 6.56187057
REMARK  11 active torsions:
REMARK  status: ('A' for Active; 'I' for Inactive)
REMARK    1  A    between atoms: C2_2  and  C4_4 
REMARK    2  A    between atoms: C4_4  and  C6_6 
REMARK    3  A    between atoms: C7_7  and  C8_8 
REMARK    4  A    between atoms: C8_8  and  C10_10 
REMARK    5  A    between atoms: C24_24  and  O1_25 
REMARK    6  A    between atoms: O1_25  and  C25_26 
REMARK    7  A    between atoms: C26_28  and  C27_29 
REMARK    8  A    between atoms: C27_29  and  O3_30 
REMARK    9  A    between atoms: C28_31  and  O4_32 
REMARK   10  A    between atoms: C29_33  and  O5_34 
REMARK   11  A    between atoms: C30_35  and  O6_36 
ROOT
HETATM    1  C10 UNL     1      -0.701  50.860 -21.254  1.00  0.00     0.002 C 
HETATM    2  C11 UNL     1      -0.983  51.310 -19.800  1.00  0.00     0.006 C 
HETATM    3  C12 UNL     1      -2.364  50.734 -19.432  1.00  0.00     0.009 C 
HETATM    4  C13 UNL     1      -2.788  49.924 -20.661  1.00  0.00     0.041 C 
HETATM    5  C14 UNL     1      -2.126  50.652 -21.858  1.00  0.00    -0.029 C 
HETATM    6  C15 UNL     1      -2.825  51.978 -22.227  1.00  0.00     0.016 C 
HETATM    7  C16 UNL     1      -2.173  49.696 -23.072  1.00  0.00     0.037 C 
HETATM    8  C17 UNL     1      -3.545  49.091 -23.269  1.00  0.00    -0.019 C 
HETATM    9  C18 UNL     1      -4.492  49.040 -22.304  1.00  0.00    -0.030 C 
HETATM   10  C19 UNL     1      -4.259  49.543 -20.864  1.00  0.00     0.142 C 
HETATM   11  C20 UNL     1      -5.307  50.580 -20.504  1.00  0.00     0.018 C 
HETATM   12  C21 UNL     1      -6.577  50.143 -20.625  1.00  0.00     0.014 C 
HETATM   13  C22 UNL     1      -6.662  48.705 -21.101  1.00  0.00     0.127 C 
HETATM   14  C23 UNL     1      -8.100  48.176 -21.105  1.00  0.00     0.078 C 
HETATM   15  C24 UNL     1      -8.249  46.807 -21.794  1.00  0.00     0.128 C 
HETATM   16  C31 UNL     1      -6.922  46.132 -22.145  1.00  0.00     0.033 C 
HETATM   17  C32 UNL     1      -5.949  47.023 -22.924  1.00  0.00     0.020 C 
HETATM   18  C33 UNL     1      -5.936  48.517 -22.494  1.00  0.00     0.021 C 
HETATM   19  C34 UNL     1      -6.615  49.370 -23.600  1.00  0.00     0.024 C 
HETATM   20  O7  UNL     1      -5.940  47.953 -20.083  1.00  0.00    -0.223 OA
HETATM   21  O8  UNL     1      -4.515  48.381 -20.014  1.00  0.00    -0.219 OA
ENDROOT
BRANCH  15  22
HETATM   22  O1  UNL     1      -9.026  47.019 -22.976  1.00  0.00    -0.353 OA
BRANCH  22  23
HETATM   23  C25 UNL     1     -10.435  46.836 -22.801  1.00  0.00     0.292 C 
HETATM   24  O2  UNL     1     -10.682  45.805 -21.846  1.00  0.00    -0.348 OA
HETATM   25  C26 UNL     1     -12.071  45.713 -21.471  1.00  0.00     0.179 C 
HETATM   26  C28 UNL     1     -13.033  46.016 -22.652  1.00  0.00     0.180 C 
HETATM   27  C29 UNL     1     -12.375  45.660 -23.996  1.00  0.00     0.183 C 
HETATM   28  C30 UNL     1     -11.044  46.434 -24.170  1.00  0.00     0.204 C 
BRANCH  25  29
HETATM   29  C27 UNL     1     -12.294  44.313 -20.867  1.00  0.00     0.198 C 
BRANCH  29  30
HETATM   30  O3  UNL     1     -13.631  44.106 -20.429  1.00  0.00    -0.398 OA
HETATM   31  H39 UNL     1     -14.238  44.235 -21.177  1.00  0.00     0.209 HD
ENDBRANCH  29  30
ENDBRANCH  25  29
BRANCH  26  32
HETATM   32  O4  UNL     1     -13.348  47.423 -22.688  1.00  0.00    -0.390 OA
HETATM   33  H41 UNL     1     -13.721  47.666 -21.821  1.00  0.00     0.210 HD
ENDBRANCH  26  32
BRANCH  27  34
HETATM   34  O5  UNL     1     -12.212  44.238 -24.077  1.00  0.00    -0.390 OA
HETATM   35  H43 UNL     1     -11.259  44.033 -24.095  1.00  0.00     0.210 HD
ENDBRANCH  27  34
BRANCH  28  36
HETATM   36  O6  UNL     1     -11.253  47.600 -24.989  1.00  0.00    -0.388 OA
HETATM   37  H45 UNL     1     -11.984  48.118 -24.603  1.00  0.00     0.210 HD
ENDBRANCH  28  36
ENDBRANCH  22  23
ENDBRANCH  15  22
BRANCH   1  38
HETATM   38  C8  UNL     1       0.356  51.677 -22.038  1.00  0.00     0.008 C 
HETATM   39  C9  UNL     1       0.820  52.881 -21.201  1.00  0.00     0.014 C 
BRANCH  38  40
HETATM   40  C7  UNL     1      -0.062  52.196 -23.392  1.00  0.00    -0.026 C 
HETATM   41  C6  UNL     1       0.680  52.044 -24.507  1.00  0.00    -0.026 C 
BRANCH  41  42
HETATM   42  C4  UNL     1       0.304  52.596 -25.865  1.00  0.00     0.007 C 
HETATM   43  C5  UNL     1       0.034  54.098 -25.730  1.00  0.00     0.014 C 
BRANCH  42  44
HETATM   44  C2  UNL     1       1.372  52.241 -26.941  1.00  0.00    -0.015 C 
HETATM   45  C1  UNL     1       2.409  51.254 -26.389  1.00  0.00     0.010 C 
HETATM   46  C3  UNL     1       0.790  51.692 -28.249  1.00  0.00     0.010 C 
ENDBRANCH  42  44
ENDBRANCH  41  42
ENDBRANCH  38  40
ENDBRANCH   1  38
TORSDOF 11
ENDMDL
MODEL 7
REMARK minimizedAffinity -9.19469738
REMARK CNNscore 0.255058587
REMARK CNNaffinity 6.70876265
REMARK  11 active torsions:
REMARK  status: ('A' for Active; 'I' for Inactive)
REMARK    1  A    between atoms: C2_2  and  C4_4 
REMARK    2  A    between atoms: C4_4  and  C6_6 
REMARK    3  A    between atoms: C7_7  and  C8_8 
REMARK    4  A    between atoms: C8_8  and  C10_10 
REMARK    5  A    between atoms: C24_24  and  O1_25 
REMARK    6  A    between atoms: O1_25  and  C25_26 
REMARK    7  A    between atoms: C26_28  and  C27_29 
REMARK    8  A    between atoms: C27_29  and  O3_30 
REMARK    9  A    between atoms: C28_31  and  O4_32 
REMARK   10  A    between atoms: C29_33  and  O5_34 
REMARK   11  A    between atoms: C30_35  and  O6_36 
ROOT
HETATM    1  C10 UNL     1      -0.224  51.323 -21.264  1.00  0.00     0.002 C 
HETATM    2  C11 UNL     1      -0.542  51.885 -19.857  1.00  0.00     0.006 C 
HETATM    3  C12 UNL     1      -1.922  51.320 -19.470  1.00  0.00     0.009 C 
HETATM    4  C13 UNL     1      -2.309  50.405 -20.637  1.00  0.00     0.041 C 
HETATM    5  C14 UNL     1      -1.633  51.044 -21.876  1.00  0.00    -0.029 C 
HETATM    6  C15 UNL     1      -2.344  52.324 -22.365  1.00  0.00     0.016 C 
HETATM    7  C16 UNL     1      -1.642  49.991 -23.009  1.00  0.00     0.037 C 
HETATM    8  C17 UNL     1      -3.001  49.350 -23.181  1.00  0.00    -0.019 C 
HETATM    9  C18 UNL     1      -3.967  49.363 -22.234  1.00  0.00    -0.030 C 
HETATM   10  C19 UNL     1      -3.770  49.986 -20.835  1.00  0.00     0.142 C 
HETATM   11  C20 UNL     1      -4.840  51.031 -20.582  1.00  0.00     0.018 C 
HETATM   12  C21 UNL     1      -6.101  50.566 -20.691  1.00  0.00     0.014 C 
HETATM   13  C22 UNL     1      -6.155  49.093 -21.049  1.00  0.00     0.127 C 
HETATM   14  C23 UNL     1      -7.585  48.543 -21.038  1.00  0.00     0.078 C 
HETATM   15  C24 UNL     1      -7.700  47.120 -21.614  1.00  0.00     0.128 C 
HETATM   16  C31 UNL     1      -6.357  46.440 -21.884  1.00  0.00     0.033 C 
HETATM   17  C32 UNL     1      -5.381  47.279 -22.714  1.00  0.00     0.020 C 
HETATM   18  C33 UNL     1      -5.399  48.803 -22.408  1.00  0.00     0.021 C 
HETATM   19  C34 UNL     1      -6.067  49.552 -23.593  1.00  0.00     0.024 C 
HETATM   20  O7  UNL     1      -5.444  48.438 -19.960  1.00  0.00    -0.223 OA
HETATM   21  O8  UNL     1      -4.026  48.893 -19.898  1.00  0.00    -0.219 OA
ENDROOT
BRANCH  15  22
HETATM   22  O1  UNL     1      -8.456  47.221 -22.825  1.00  0.00    -0.353 OA
BRANCH  22  23
HETATM   23  C25 UNL     1      -9.184  46.038 -23.171  1.00  0.00     0.292 C 
HETATM   24  O2  UNL     1      -8.345  45.138 -23.892  1.00  0.00    -0.348 OA
HETATM   25  C26 UNL     1      -8.953  43.845 -24.089  1.00  0.00     0.179 C 
HETATM   26  C28 UNL     1     -10.487  43.931 -24.315  1.00  0.00     0.180 C 
HETATM   27  C29 UNL     1     -10.869  45.280 -24.949  1.00  0.00     0.183 C 
HETATM   28  C30 UNL     1     -10.386  46.453 -24.059  1.00  0.00     0.204 C 
BRANCH  25  29
HETATM   29  C27 UNL     1      -8.218  43.163 -25.260  1.00  0.00     0.198 C 
BRANCH  29  30
HETATM   30  O3  UNL     1      -7.630  41.920 -24.895  1.00  0.00    -0.398 OA
HETATM   31  H39 UNL     1      -8.321  41.326 -24.557  1.00  0.00     0.209 HD
ENDBRANCH  29  30
ENDBRANCH  25  29
BRANCH  26  32
HETATM   32  O4  UNL     1     -11.181  43.838 -23.055  1.00  0.00    -0.390 OA
HETATM   33  H41 UNL     1     -10.905  43.007 -22.625  1.00  0.00     0.210 HD
ENDBRANCH  26  32
BRANCH  27  34
HETATM   34  O5  UNL     1     -10.350  45.337 -26.283  1.00  0.00    -0.390 OA
HETATM   35  H43 UNL     1      -9.679  46.043 -26.328  1.00  0.00     0.210 HD
ENDBRANCH  27  34
BRANCH  28  36
HETATM   36  O6  UNL     1     -11.471  46.935 -23.244  1.00  0.00    -0.388 OA
HETATM   37  H45 UNL     1     -11.849  46.178 -22.758  1.00  0.00     0.210 HD
ENDBRANCH  28  36
ENDBRANCH  22  23
ENDBRANCH  15  22
BRANCH   1  38
HETATM   38  C8  UNL     1       0.837  52.091 -22.092  1.00  0.00     0.008 C 
HETATM   39  C9  UNL     1       1.448  53.222 -21.249  1.00  0.00     0.014 C 
BRANCH  38  40
HETATM   40  C7  UNL     1       0.369  52.692 -23.394  1.00  0.00    -0.026 C 
HETATM   41  C6  UNL     1       0.684  52.185 -24.603  1.00  0.00    -0.026 C 
BRANCH  41  42
HETATM   42  C4  UNL     1       0.266  52.798 -25.922  1.00  0.00     0.007 C 
HETATM   43  C5  UNL     1       0.168  54.318 -25.751  1.00  0.00     0.014 C 
BRANCH  42  44
HETATM   44  C2  UNL     1       1.205  52.352 -27.081  1.00  0.00    -0.015 C 
HETATM   45  C1  UNL     1       2.415  51.575 -26.548  1.00  0.00     0.010 C 
HETATM   46  C3  UNL     1       0.510  51.530 -28.173  1.00  0.00     0.010 C 
ENDBRANCH  42  44
ENDBRANCH  41  42
ENDBRANCH  38  40
ENDBRANCH   1  38
TORSDOF 11
ENDMDL
MODEL 8
REMARK minimizedAffinity -9.09928131
REMARK CNNscore 0.238493487
REMARK CNNaffinity 6.30842638
REMARK  11 active torsions:
REMARK  status: ('A' for Active; 'I' for Inactive)
REMARK    1  A    between atoms: C2_2  and  C4_4 
REMARK    2  A    between atoms: C4_4  and  C6_6 
REMARK    3  A    between atoms: C7_7  and  C8_8 
REMARK    4  A    between atoms: C8_8  and  C10_10 
REMARK    5  A    between atoms: C24_24  and  O1_25 
REMARK    6  A    between atoms: O1_25  and  C25_26 
REMARK    7  A    between atoms: C26_28  and  C27_29 
REMARK    8  A    between atoms: C27_29  and  O3_30 
REMARK    9  A    between atoms: C28_31  and  O4_32 
REMARK   10  A    between atoms: C29_33  and  O5_34 
REMARK   11  A    between atoms: C30_35  and  O6_36 
ROOT
HETATM    1  C10 UNL     1      -7.977  46.729 -18.770  1.00  0.00     0.002 C 
HETATM    2  C11 UNL     1      -8.666  48.042 -18.325  1.00  0.00     0.006 C 
HETATM    3  C12 UNL     1      -8.079  49.157 -19.210  1.00  0.00     0.009 C 
HETATM    4  C13 UNL     1      -7.129  48.433 -20.171  1.00  0.00     0.041 C 
HETATM    5  C14 UNL     1      -6.618  47.211 -19.367  1.00  0.00    -0.029 C 
HETATM    6  C15 UNL     1      -5.581  47.584 -18.286  1.00  0.00     0.016 C 
HETATM    7  C16 UNL     1      -5.975  46.226 -20.372  1.00  0.00     0.037 C 
HETATM    8  C17 UNL     1      -5.017  46.918 -21.315  1.00  0.00    -0.019 C 
HETATM    9  C18 UNL     1      -5.021  48.251 -21.550  1.00  0.00    -0.030 C 
HETATM   10  C19 UNL     1      -6.049  49.216 -20.924  1.00  0.00     0.142 C 
HETATM   11  C20 UNL     1      -5.327  50.317 -20.169  1.00  0.00     0.018 C 
HETATM   12  C21 UNL     1      -4.454  51.019 -20.920  1.00  0.00     0.014 C 
HETATM   13  C22 UNL     1      -4.394  50.536 -22.357  1.00  0.00     0.127 C 
HETATM   14  C23 UNL     1      -3.504  51.423 -23.233  1.00  0.00     0.078 C 
HETATM   15  C24 UNL     1      -3.239  50.837 -24.632  1.00  0.00     0.128 C 
HETATM   16  C31 UNL     1      -4.080  49.604 -24.966  1.00  0.00     0.033 C 
HETATM   17  C32 UNL     1      -4.033  48.502 -23.903  1.00  0.00     0.020 C 
HETATM   18  C33 UNL     1      -3.999  49.007 -22.434  1.00  0.00     0.021 C 
HETATM   19  C34 UNL     1      -2.583  48.763 -21.845  1.00  0.00     0.024 C 
HETATM   20  O7  UNL     1      -5.758  50.699 -22.842  1.00  0.00    -0.223 OA
HETATM   21  O8  UNL     1      -6.707  49.855 -22.063  1.00  0.00    -0.219 OA
ENDROOT
BRANCH  15  22
HETATM   22  O1  UNL     1      -1.846  50.517 -24.692  1.00  0.00    -0.353 OA
BRANCH  22  23
HETATM   23  C25 UNL     1      -1.153  51.096 -25.804  1.00  0.00     0.292 C 
HETATM   24  O2  UNL     1       0.251  50.878 -25.675  1.00  0.00    -0.348 OA
HETATM   25  C26 UNL     1       0.985  51.253 -26.858  1.00  0.00     0.179 C 
HETATM   26  C28 UNL     1       0.387  52.500 -27.566  1.00  0.00     0.180 C 
HETATM   27  C29 UNL     1      -0.333  53.407 -26.554  1.00  0.00     0.183 C 
HETATM   28  C30 UNL     1      -1.444  52.620 -25.814  1.00  0.00     0.204 C 
BRANCH  25  29
HETATM   29  C27 UNL     1       2.456  51.453 -26.444  1.00  0.00     0.198 C 
BRANCH  29  30
HETATM   30  O3  UNL     1       3.334  51.563 -27.558  1.00  0.00    -0.398 OA
HETATM   31  H39 UNL     1       3.052  52.307 -28.116  1.00  0.00     0.209 HD
ENDBRANCH  29  30
ENDBRANCH  25  29
BRANCH  26  32
HETATM   32  O4  UNL     1      -0.587  52.093 -28.548  1.00  0.00    -0.390 OA
HETATM   33  H41 UNL     1      -0.149  51.478 -29.165  1.00  0.00     0.210 HD
ENDBRANCH  26  32
BRANCH  27  34
HETATM   34  O5  UNL     1       0.634  53.981 -25.665  1.00  0.00    -0.390 OA
HETATM   35  H43 UNL     1       0.470  53.645 -24.765  1.00  0.00     0.210 HD
ENDBRANCH  27  34
BRANCH  28  36
HETATM   36  O6  UNL     1      -2.724  52.883 -26.420  1.00  0.00    -0.388 OA
HETATM   37  H45 UNL     1      -2.654  52.698 -27.375  1.00  0.00     0.210 HD
ENDBRANCH  28  36
ENDBRANCH  22  23
ENDBRANCH  15  22
BRANCH   1  38
HETATM   38  C8  UNL     1      -8.002  45.558 -17.757  1.00  0.00     0.008 C 
HETATM   39  C9  UNL     1      -9.046  44.512 -18.182  1.00  0.00     0.014 C 
BRANCH  38  40
HETATM   40  C7  UNL     1      -8.275  45.917 -16.317  1.00  0.00    -0.026 C 
HETATM   41  C6  UNL     1      -7.619  45.368 -15.276  1.00  0.00    -0.026 C 
BRANCH  41  42
HETATM   42  C4  UNL     1      -7.909  45.678 -13.823  1.00  0.00     0.007 C 
HETATM   43  C5  UNL     1      -6.740  46.484 -13.248  1.00  0.00     0.014 C 
BRANCH  42  44
HETATM   44  C2  UNL     1      -9.295  46.366 -13.652  1.00  0.00    -0.015 C 
HETATM   45  C1  UNL     1     -10.424  45.329 -13.584  1.00  0.00     0.010 C 
HETATM   46  C3  UNL     1      -9.388  47.304 -12.443  1.00  0.00     0.010 C 
ENDBRANCH  42  44
ENDBRANCH  41  42
ENDBRANCH  38  40
ENDBRANCH   1  38
TORSDOF 11
ENDMDL
MODEL 9
REMARK minimizedAffinity -9.17337799
REMARK CNNscore 0.237732008
REMARK CNNaffinity 6.30095816
REMARK  11 active torsions:
REMARK  status: ('A' for Active; 'I' for Inactive)
REMARK    1  A    between atoms: C2_2  and  C4_4 
REMARK    2  A    between atoms: C4_4  and  C6_6 
REMARK    3  A    between atoms: C7_7  and  C8_8 
REMARK    4  A    between atoms: C8_8  and  C10_10 
REMARK    5  A    between atoms: C24_24  and  O1_25 
REMARK    6  A    between atoms: O1_25  and  C25_26 
REMARK    7  A    between atoms: C26_28  and  C27_29 
REMARK    8  A    between atoms: C27_29  and  O3_30 
REMARK    9  A    between atoms: C28_31  and  O4_32 
REMARK   10  A    between atoms: C29_33  and  O5_34 
REMARK   11  A    between atoms: C30_35  and  O6_36 
ROOT
HETATM    1  C10 UNL     1      -2.189  47.530 -20.211  1.00  0.00     0.002 C 
HETATM    2  C11 UNL     1      -2.839  46.758 -19.037  1.00  0.00     0.006 C 
HETATM    3  C12 UNL     1      -4.274  46.421 -19.485  1.00  0.00     0.009 C 
HETATM    4  C13 UNL     1      -4.369  46.952 -20.919  1.00  0.00     0.041 C 
HETATM    5  C14 UNL     1      -3.408  48.168 -20.950  1.00  0.00    -0.029 C 
HETATM    6  C15 UNL     1      -3.972  49.409 -20.227  1.00  0.00     0.016 C 
HETATM    7  C16 UNL     1      -3.145  48.517 -22.434  1.00  0.00     0.037 C 
HETATM    8  C17 UNL     1      -4.423  48.591 -23.238  1.00  0.00    -0.019 C 
HETATM    9  C18 UNL     1      -5.591  48.027 -22.851  1.00  0.00    -0.030 C 
HETATM   10  C19 UNL     1      -5.739  47.188 -21.565  1.00  0.00     0.142 C 
HETATM   11  C20 UNL     1      -6.834  47.772 -20.691  1.00  0.00     0.018 C 
HETATM   12  C21 UNL     1      -8.032  47.869 -21.302  1.00  0.00     0.014 C 
HETATM   13  C22 UNL     1      -8.004  47.370 -22.735  1.00  0.00     0.127 C 
HETATM   14  C23 UNL     1      -9.395  47.357 -23.375  1.00  0.00     0.078 C 
HETATM   15  C24 UNL     1      -9.373  47.076 -24.889  1.00  0.00     0.128 C 
HETATM   16  C31 UNL     1      -8.008  46.648 -25.428  1.00  0.00     0.033 C 
HETATM   17  C32 UNL     1      -6.855  47.577 -25.037  1.00  0.00     0.020 C 
HETATM   18  C33 UNL     1      -6.940  48.160 -23.598  1.00  0.00     0.021 C 
HETATM   19  C34 UNL     1      -7.295  49.670 -23.682  1.00  0.00     0.024 C 
HETATM   20  O7  UNL     1      -7.582  45.981 -22.617  1.00  0.00    -0.223 OA
HETATM   21  O8  UNL     1      -6.221  45.884 -22.020  1.00  0.00    -0.219 OA
ENDROOT
BRANCH  15  22
HETATM   22  O1  UNL     1      -9.810  48.273 -25.541  1.00  0.00    -0.353 OA
BRANCH  22  23
HETATM   23  C25 UNL     1     -10.544  48.054 -26.750  1.00  0.00     0.292 C 
HETATM   24  O2  UNL     1     -11.316  46.860 -26.648  1.00  0.00    -0.348 OA
HETATM   25  C26 UNL     1     -12.234  46.692 -27.747  1.00  0.00     0.179 C 
HETATM   26  C28 UNL     1     -11.659  47.211 -29.094  1.00  0.00     0.180 C 
HETATM   27  C29 UNL     1     -10.124  47.120 -29.101  1.00  0.00     0.183 C 
HETATM   28  C30 UNL     1      -9.528  47.918 -27.915  1.00  0.00     0.204 C 
BRANCH  25  29
HETATM   29  C27 UNL     1     -12.622  45.201 -27.802  1.00  0.00     0.198 C 
BRANCH  29  30
HETATM   30  O3  UNL     1     -12.586  44.668 -29.120  1.00  0.00    -0.398 OA
HETATM   31  H39 UNL     1     -11.695  44.784 -29.488  1.00  0.00     0.209 HD
ENDBRANCH  29  30
ENDBRANCH  25  29
BRANCH  26  32
HETATM   32  O4  UNL     1     -12.008  48.597 -29.281  1.00  0.00    -0.390 OA
HETATM   33  H41 UNL     1     -12.979  48.670 -29.228  1.00  0.00     0.210 HD
ENDBRANCH  26  32
BRANCH  27  34
HETATM   34  O5  UNL     1      -9.734  45.741 -29.101  1.00  0.00    -0.390 OA
HETATM   35  H43 UNL     1      -9.270  45.547 -28.267  1.00  0.00     0.210 HD
ENDBRANCH  27  34
BRANCH  28  36
HETATM   36  O6  UNL     1      -9.096  49.218 -28.360  1.00  0.00    -0.388 OA
HETATM   37  H45 UNL     1      -9.844  49.651 -28.813  1.00  0.00     0.210 HD
ENDBRANCH  28  36
ENDBRANCH  22  23
ENDBRANCH  15  22
BRANCH   1  38
HETATM   38  C8  UNL     1      -0.956  48.401 -19.868  1.00  0.00     0.008 C 
HETATM   39  C9  UNL     1      -1.163  49.100 -18.514  1.00  0.00     0.014 C 
BRANCH  38  40
HETATM   40  C7  UNL     1      -0.575  49.458 -20.875  1.00  0.00    -0.026 C 
HETATM   41  C6  UNL     1      -0.075  50.662 -20.536  1.00  0.00    -0.026 C 
BRANCH  41  42
HETATM   42  C4  UNL     1       0.269  51.755 -21.525  1.00  0.00     0.007 C 
HETATM   43  C5  UNL     1      -1.007  52.171 -22.264  1.00  0.00     0.014 C 
BRANCH  42  44
HETATM   44  C2  UNL     1       1.014  52.936 -20.836  1.00  0.00    -0.015 C 
HETATM   45  C1  UNL     1       1.250  54.091 -21.816  1.00  0.00     0.010 C 
HETATM   46  C3  UNL     1       0.321  53.467 -19.576  1.00  0.00     0.010 C 
ENDBRANCH  42  44
ENDBRANCH  41  42
ENDBRANCH  38  40
ENDBRANCH   1  38
TORSDOF 11
ENDMDL
