MODEL 1
REMARK minimizedAffinity -8.49757099
REMARK  9 active torsions:
REMARK  status: ('A' for Active; 'I' for Inactive)
REMARK    1  A    between atoms: C2_2  and  C3_3 
REMARK    2  A    between atoms: C3_3  and  C5_5 
REMARK    3  A    between atoms: C5_5  and  C6_6 
REMARK    4  A    between atoms: C6_6  and  O2_8 
REMARK    5  A    between atoms: O2_8  and  C7_9 
REMARK    6  A    between atoms: C7_9  and  C8_10 
REMARK    7  A    between atoms: C20_22  and  O3_23 
REMARK    8  A    between atoms: C20_22  and  C21_24 
REMARK    9  A    between atoms: C21_24  and  O4_25 
ROOT
HETATM    1  C8  UNL     1      -1.857  51.126 -25.900  1.00  0.00    -0.018 C 
HETATM    2  C9  UNL     1      -0.390  50.616 -26.008  1.00  0.00     0.018 C 
HETATM    3  C10 UNL     1      -2.658  50.450 -27.040  1.00  0.00     0.012 C 
HETATM    4  C11 UNL     1      -2.987  48.974 -26.834  1.00  0.00     0.002 C 
HETATM    5  C12 UNL     1      -3.065  48.519 -25.379  1.00  0.00     0.010 C 
HETATM    6  C13 UNL     1      -3.473  49.618 -24.374  1.00  0.00    -0.032 C 
HETATM    7  C14 UNL     1      -4.873  50.172 -24.787  1.00  0.00     0.016 C 
HETATM    8  C15 UNL     1      -2.400  50.762 -24.450  1.00  0.00     0.005 C 
HETATM    9  C16 UNL     1      -2.842  51.960 -23.567  1.00  0.00     0.007 C 
HETATM   10  C17 UNL     1      -3.421  51.544 -22.203  1.00  0.00     0.006 C 
HETATM   11  C18 UNL     1      -2.992  50.127 -21.837  1.00  0.00    -0.002 C 
HETATM   12  C19 UNL     1      -3.291  49.766 -20.375  1.00  0.00     0.045 C 
HETATM   13  C20 UNL     1      -2.812  48.334 -20.060  1.00  0.00     0.083 C 
HETATM   14  C22 UNL     1      -3.218  47.350 -21.192  1.00  0.00     0.023 C 
HETATM   15  C23 UNL     1      -4.728  47.378 -21.459  1.00  0.00     0.008 C 
HETATM   16  C24 UNL     1      -4.937  48.507 -22.478  1.00  0.00     0.011 C 
HETATM   17  C25 UNL     1      -3.525  49.048 -22.866  1.00  0.00    -0.029 C 
HETATM   18  C26 UNL     1      -2.678  47.782 -22.569  1.00  0.00     0.018 C 
ENDROOT
BRANCH   1  19
HETATM   19  C7  UNL     1      -1.825  52.660 -26.165  1.00  0.00     0.188 C 
BRANCH  19  20
HETATM   20  O2  UNL     1      -1.268  53.352 -25.034  1.00  0.00    -0.321 OA
BRANCH  20  21
HETATM   21  C6  UNL     1      -0.052  53.918 -25.256  1.00  0.00     0.259 C 
HETATM   22  O1  UNL     1       0.193  54.742 -26.128  1.00  0.00    -0.265 OA
BRANCH  21  23
HETATM   23  C5  UNL     1       0.985  53.358 -24.313  1.00  0.00     0.115 C 
BRANCH  23  24
HETATM   24  C3  UNL     1       0.520  53.281 -22.849  1.00  0.00    -0.010 C 
HETATM   25  C4  UNL     1       0.517  51.822 -22.384  1.00  0.00     0.010 C 
BRANCH  24  26
HETATM   26  C2  UNL     1       1.330  54.179 -21.890  1.00  0.00     0.000 C 
HETATM   27  C1  UNL     1       0.996  54.026 -20.413  1.00  0.00     0.005 C 
ENDBRANCH  24  26
ENDBRANCH  23  24
ENDBRANCH  21  23
ENDBRANCH  20  21
ENDBRANCH  19  20
ENDBRANCH   1  19
BRANCH  13  28
HETATM   28  O3  UNL     1      -3.404  47.894 -18.823  1.00  0.00    -0.387 OA
HETATM   29  H34 UNL     1      -4.353  48.105 -18.841  1.00  0.00     0.210 HD
ENDBRANCH  13  28
BRANCH  13  30
HETATM   30  C21 UNL     1      -1.286  48.309 -19.793  1.00  0.00     0.202 C 
BRANCH  30  31
HETATM   31  O4  UNL     1      -0.620  47.589 -20.831  1.00  0.00    -0.398 OA
HETATM   32  H37 UNL     1      -1.168  46.788 -20.959  1.00  0.00     0.209 HD
ENDBRANCH  30  31
ENDBRANCH  13  30
TORSDOF 9
ENDMDL
MODEL 2
REMARK minimizedAffinity -8.31059933
REMARK  9 active torsions:
REMARK  status: ('A' for Active; 'I' for Inactive)
REMARK    1  A    between atoms: C2_2  and  C3_3 
REMARK    2  A    between atoms: C3_3  and  C5_5 
REMARK    3  A    between atoms: C5_5  and  C6_6 
REMARK    4  A    between atoms: C6_6  and  O2_8 
REMARK    5  A    between atoms: O2_8  and  C7_9 
REMARK    6  A    between atoms: C7_9  and  C8_10 
REMARK    7  A    between atoms: C20_22  and  O3_23 
REMARK    8  A    between atoms: C20_22  and  C21_24 
REMARK    9  A    between atoms: C21_24  and  O4_25 
ROOT
HETATM    1  C8  UNL     1      -2.245  48.976 -21.478  1.00  0.00    -0.018 C 
HETATM    2  C9  UNL     1      -0.953  48.366 -20.858  1.00  0.00     0.018 C 
HETATM    3  C10 UNL     1      -2.834  49.952 -20.430  1.00  0.00     0.012 C 
HETATM    4  C11 UNL     1      -2.094  51.276 -20.268  1.00  0.00     0.002 C 
HETATM    5  C12 UNL     1      -1.315  51.744 -21.494  1.00  0.00     0.010 C 
HETATM    6  C13 UNL     1      -1.877  51.257 -22.847  1.00  0.00    -0.032 C 
HETATM    7  C14 UNL     1      -3.349  51.762 -22.983  1.00  0.00     0.016 C 
HETATM    8  C15 UNL     1      -1.847  49.687 -22.844  1.00  0.00     0.005 C 
HETATM    9  C16 UNL     1      -2.540  49.143 -24.122  1.00  0.00     0.007 C 
HETATM   10  C17 UNL     1      -2.170  49.913 -25.403  1.00  0.00     0.006 C 
HETATM   11  C18 UNL     1      -0.874  50.695 -25.214  1.00  0.00    -0.002 C 
HETATM   12  C19 UNL     1      -0.304  51.241 -26.531  1.00  0.00     0.045 C 
HETATM   13  C20 UNL     1       1.016  51.998 -26.279  1.00  0.00     0.083 C 
HETATM   14  C22 UNL     1       0.892  52.938 -25.047  1.00  0.00     0.023 C 
HETATM   15  C23 UNL     1      -0.283  53.914 -25.191  1.00  0.00     0.008 C 
HETATM   16  C24 UNL     1      -1.501  53.163 -24.636  1.00  0.00     0.011 C 
HETATM   17  C25 UNL     1      -0.991  51.795 -24.082  1.00  0.00    -0.029 C 
HETATM   18  C26 UNL     1       0.480  52.183 -23.770  1.00  0.00     0.018 C 
ENDROOT
BRANCH   1  19
HETATM   19  C7  UNL     1      -3.249  47.803 -21.678  1.00  0.00     0.188 C 
BRANCH  19  20
HETATM   20  O2  UNL     1      -4.595  48.303 -21.753  1.00  0.00    -0.321 OA
BRANCH  20  21
HETATM   21  C6  UNL     1      -5.446  47.536 -22.485  1.00  0.00     0.259 C 
HETATM   22  O1  UNL     1      -5.940  46.481 -22.112  1.00  0.00    -0.265 OA
BRANCH  21  23
HETATM   23  C5  UNL     1      -5.669  48.131 -23.854  1.00  0.00     0.115 C 
BRANCH  23  24
HETATM   24  C3  UNL     1      -7.051  47.820 -24.451  1.00  0.00    -0.010 C 
HETATM   25  C4  UNL     1      -8.048  48.909 -24.042  1.00  0.00     0.010 C 
BRANCH  24  26
HETATM   26  C2  UNL     1      -7.038  47.613 -25.981  1.00  0.00     0.000 C 
HETATM   27  C1  UNL     1      -5.714  47.914 -26.670  1.00  0.00     0.005 C 
ENDBRANCH  24  26
ENDBRANCH  23  24
ENDBRANCH  21  23
ENDBRANCH  20  21
ENDBRANCH  19  20
ENDBRANCH   1  19
BRANCH  13  28
HETATM   28  O3  UNL     1       1.343  52.788 -27.439  1.00  0.00    -0.387 OA
HETATM   29  H34 UNL     1       0.546  53.266 -27.723  1.00  0.00     0.210 HD
ENDBRANCH  13  28
BRANCH  13  30
HETATM   30  C21 UNL     1       2.200  51.009 -26.133  1.00  0.00     0.202 C 
BRANCH  30  31
HETATM   31  O4  UNL     1       3.230  51.340 -27.065  1.00  0.00    -0.398 OA
HETATM   32  H37 UNL     1       2.753  51.507 -27.904  1.00  0.00     0.209 HD
ENDBRANCH  30  31
ENDBRANCH  13  30
TORSDOF 9
ENDMDL
MODEL 3
REMARK minimizedAffinity -8.07828236
REMARK  9 active torsions:
REMARK  status: ('A' for Active; 'I' for Inactive)
REMARK    1  A    between atoms: C2_2  and  C3_3 
REMARK    2  A    between atoms: C3_3  and  C5_5 
REMARK    3  A    between atoms: C5_5  and  C6_6 
REMARK    4  A    between atoms: C6_6  and  O2_8 
REMARK    5  A    between atoms: O2_8  and  C7_9 
REMARK    6  A    between atoms: C7_9  and  C8_10 
REMARK    7  A    between atoms: C20_22  and  O3_23 
REMARK    8  A    between atoms: C20_22  and  C21_24 
REMARK    9  A    between atoms: C21_24  and  O4_25 
ROOT
HETATM    1  C8  UNL     1      -2.128  49.001 -21.346  1.00  0.00    -0.018 C 
HETATM    2  C9  UNL     1      -0.815  48.403 -20.760  1.00  0.00     0.018 C 
HETATM    3  C10 UNL     1      -2.689  49.984 -20.289  1.00  0.00     0.012 C 
HETATM    4  C11 UNL     1      -1.951  51.314 -20.163  1.00  0.00     0.002 C 
HETATM    5  C12 UNL     1      -1.213  51.773 -21.416  1.00  0.00     0.010 C 
HETATM    6  C13 UNL     1      -1.813  51.271 -22.747  1.00  0.00    -0.032 C 
HETATM    7  C14 UNL     1      -3.291  51.767 -22.843  1.00  0.00     0.016 C 
HETATM    8  C15 UNL     1      -1.776  49.702 -22.730  1.00  0.00     0.005 C 
HETATM    9  C16 UNL     1      -2.504  49.142 -23.982  1.00  0.00     0.007 C 
HETATM   10  C17 UNL     1      -2.177  49.901 -25.280  1.00  0.00     0.006 C 
HETATM   11  C18 UNL     1      -0.880  50.691 -25.138  1.00  0.00    -0.002 C 
HETATM   12  C19 UNL     1      -0.353  51.227 -26.477  1.00  0.00     0.045 C 
HETATM   13  C20 UNL     1       0.971  51.993 -26.272  1.00  0.00     0.083 C 
HETATM   14  C22 UNL     1       0.879  52.944 -25.046  1.00  0.00     0.023 C 
HETATM   15  C23 UNL     1      -0.305  53.913 -25.163  1.00  0.00     0.008 C 
HETATM   16  C24 UNL     1      -1.502  53.161 -24.565  1.00  0.00     0.011 C 
HETATM   17  C25 UNL     1      -0.967  51.801 -24.013  1.00  0.00    -0.029 C 
HETATM   18  C26 UNL     1       0.510  52.199 -23.750  1.00  0.00     0.018 C 
ENDROOT
BRANCH   1  19
HETATM   19  C7  UNL     1      -3.132  47.822 -21.504  1.00  0.00     0.188 C 
BRANCH  19  20
HETATM   20  O2  UNL     1      -4.463  48.248 -21.164  1.00  0.00    -0.321 OA
BRANCH  20  21
HETATM   21  C6  UNL     1      -5.439  47.766 -21.979  1.00  0.00     0.259 C 
HETATM   22  O1  UNL     1      -5.265  47.350 -23.117  1.00  0.00    -0.265 OA
BRANCH  21  23
HETATM   23  C5  UNL     1      -6.791  47.855 -21.314  1.00  0.00     0.115 C 
BRANCH  23  24
HETATM   24  C3  UNL     1      -7.420  49.258 -21.367  1.00  0.00    -0.010 C 
HETATM   25  C4  UNL     1      -6.773  50.154 -20.305  1.00  0.00     0.010 C 
BRANCH  24  26
HETATM   26  C2  UNL     1      -7.370  49.912 -22.764  1.00  0.00     0.000 C 
HETATM   27  C1  UNL     1      -8.125  49.173 -23.860  1.00  0.00     0.005 C 
ENDBRANCH  24  26
ENDBRANCH  23  24
ENDBRANCH  21  23
ENDBRANCH  20  21
ENDBRANCH  19  20
ENDBRANCH   1  19
BRANCH  13  28
HETATM   28  O3  UNL     1       1.258  52.773 -27.449  1.00  0.00    -0.387 OA
HETATM   29  H34 UNL     1       0.450  53.245 -27.713  1.00  0.00     0.210 HD
ENDBRANCH  13  28
BRANCH  13  30
HETATM   30  C21 UNL     1       2.163  51.011 -26.154  1.00  0.00     0.202 C 
BRANCH  30  31
HETATM   31  O4  UNL     1       3.194  51.382 -27.070  1.00  0.00    -0.398 OA
HETATM   32  H37 UNL     1       2.719  51.571 -27.905  1.00  0.00     0.209 HD
ENDBRANCH  30  31
ENDBRANCH  13  30
TORSDOF 9
ENDMDL
MODEL 4
REMARK minimizedAffinity -8.0766449
REMARK  9 active torsions:
REMARK  status: ('A' for Active; 'I' for Inactive)
REMARK    1  A    between atoms: C2_2  and  C3_3 
REMARK    2  A    between atoms: C3_3  and  C5_5 
REMARK    3  A    between atoms: C5_5  and  C6_6 
REMARK    4  A    between atoms: C6_6  and  O2_8 
REMARK    5  A    between atoms: O2_8  and  C7_9 
REMARK    6  A    between atoms: C7_9  and  C8_10 
REMARK    7  A    between atoms: C20_22  and  O3_23 
REMARK    8  A    between atoms: C20_22  and  C21_24 
REMARK    9  A    between atoms: C21_24  and  O4_25 
ROOT
HETATM    1  C8  UNL     1      -1.533  50.979 -22.873  1.00  0.00    -0.018 C 
HETATM    2  C9  UNL     1      -2.127  52.386 -22.571  1.00  0.00     0.018 C 
HETATM    3  C10 UNL     1      -0.761  50.531 -21.607  1.00  0.00     0.012 C 
HETATM    4  C11 UNL     1      -1.622  50.092 -20.426  1.00  0.00     0.002 C 
HETATM    5  C12 UNL     1      -3.005  49.558 -20.789  1.00  0.00     0.010 C 
HETATM    6  C13 UNL     1      -3.108  48.913 -22.188  1.00  0.00    -0.032 C 
HETATM    7  C14 UNL     1      -2.093  47.729 -22.264  1.00  0.00     0.016 C 
HETATM    8  C15 UNL     1      -2.735  50.007 -23.251  1.00  0.00     0.005 C 
HETATM    9  C16 UNL     1      -2.678  49.372 -24.666  1.00  0.00     0.007 C 
HETATM   10  C17 UNL     1      -3.828  48.390 -24.951  1.00  0.00     0.006 C 
HETATM   11  C18 UNL     1      -4.996  48.627 -23.999  1.00  0.00    -0.002 C 
HETATM   12  C19 UNL     1      -6.273  47.884 -24.417  1.00  0.00     0.045 C 
HETATM   13  C20 UNL     1      -7.422  48.182 -23.432  1.00  0.00     0.083 C 
HETATM   14  C22 UNL     1      -6.930  48.095 -21.960  1.00  0.00     0.023 C 
HETATM   15  C23 UNL     1      -6.282  46.739 -21.654  1.00  0.00     0.008 C 
HETATM   16  C24 UNL     1      -4.808  46.897 -22.051  1.00  0.00     0.011 C 
HETATM   17  C25 UNL     1      -4.602  48.383 -22.485  1.00  0.00    -0.029 C 
HETATM   18  C26 UNL     1      -5.750  49.044 -21.677  1.00  0.00     0.018 C 
ENDROOT
BRANCH   1  19
HETATM   19  C7  UNL     1      -0.512  51.157 -24.034  1.00  0.00     0.188 C 
BRANCH  19  20
HETATM   20  O2  UNL     1      -0.217  52.550 -24.233  1.00  0.00    -0.321 OA
BRANCH  20  21
HETATM   21  C6  UNL     1      -0.087  52.923 -25.533  1.00  0.00     0.259 C 
HETATM   22  O1  UNL     1       0.137  54.063 -25.920  1.00  0.00    -0.265 OA
BRANCH  21  23
HETATM   23  C5  UNL     1      -0.305  51.750 -26.458  1.00  0.00     0.115 C 
BRANCH  23  24
HETATM   24  C3  UNL     1       0.391  51.894 -27.822  1.00  0.00    -0.010 C 
HETATM   25  C4  UNL     1      -0.057  53.194 -28.496  1.00  0.00     0.010 C 
BRANCH  24  26
HETATM   26  C2  UNL     1       1.930  51.795 -27.751  1.00  0.00     0.000 C 
HETATM   27  C1  UNL     1       2.493  51.309 -26.423  1.00  0.00     0.005 C 
ENDBRANCH  24  26
ENDBRANCH  23  24
ENDBRANCH  21  23
ENDBRANCH  20  21
ENDBRANCH  19  20
ENDBRANCH   1  19
BRANCH  13  28
HETATM   28  O3  UNL     1      -8.481  47.225 -23.629  1.00  0.00    -0.387 OA
HETATM   29  H34 UNL     1      -8.090  46.336 -23.677  1.00  0.00     0.210 HD
ENDBRANCH  13  28
BRANCH  13  30
HETATM   30  C21 UNL     1      -8.073  49.553 -23.743  1.00  0.00     0.202 C 
BRANCH  30  31
HETATM   31  O4  UNL     1      -7.584  50.544 -22.837  1.00  0.00    -0.398 OA
HETATM   32  H37 UNL     1      -7.615  50.107 -21.962  1.00  0.00     0.209 HD
ENDBRANCH  30  31
ENDBRANCH  13  30
TORSDOF 9
ENDMDL
MODEL 5
REMARK minimizedAffinity -8.00615501
REMARK  9 active torsions:
REMARK  status: ('A' for Active; 'I' for Inactive)
REMARK    1  A    between atoms: C2_2  and  C3_3 
REMARK    2  A    between atoms: C3_3  and  C5_5 
REMARK    3  A    between atoms: C5_5  and  C6_6 
REMARK    4  A    between atoms: C6_6  and  O2_8 
REMARK    5  A    between atoms: O2_8  and  C7_9 
REMARK    6  A    between atoms: C7_9  and  C8_10 
REMARK    7  A    between atoms: C20_22  and  O3_23 
REMARK    8  A    between atoms: C20_22  and  C21_24 
REMARK    9  A    between atoms: C21_24  and  O4_25 
ROOT
HETATM    1  C8  UNL     1      -3.644  51.270 -22.834  1.00  0.00    -0.018 C 
HETATM    2  C9  UNL     1      -4.356  52.635 -23.070  1.00  0.00     0.018 C 
HETATM    3  C10 UNL     1      -3.568  51.056 -21.302  1.00  0.00     0.012 C 
HETATM    4  C11 UNL     1      -4.879  50.673 -20.621  1.00  0.00     0.002 C 
HETATM    5  C12 UNL     1      -5.894  49.961 -21.510  1.00  0.00     0.010 C 
HETATM    6  C13 UNL     1      -5.284  49.149 -22.674  1.00  0.00    -0.032 C 
HETATM    7  C14 UNL     1      -4.322  48.075 -22.077  1.00  0.00     0.016 C 
HETATM    8  C15 UNL     1      -4.479  50.143 -23.585  1.00  0.00     0.005 C 
HETATM    9  C16 UNL     1      -3.723  49.355 -24.687  1.00  0.00     0.007 C 
HETATM   10  C17 UNL     1      -4.558  48.233 -25.331  1.00  0.00     0.006 C 
HETATM   11  C18 UNL     1      -6.048  48.459 -25.096  1.00  0.00    -0.002 C 
HETATM   12  C19 UNL     1      -6.937  47.545 -25.952  1.00  0.00     0.045 C 
HETATM   13  C20 UNL     1      -8.429  47.839 -25.689  1.00  0.00     0.083 C 
HETATM   14  C22 UNL     1      -8.709  47.976 -24.167  1.00  0.00     0.023 C 
HETATM   15  C23 UNL     1      -8.246  46.739 -23.387  1.00  0.00     0.008 C 
HETATM   16  C24 UNL     1      -6.771  47.000 -23.055  1.00  0.00     0.011 C 
HETATM   17  C25 UNL     1      -6.429  48.438 -23.560  1.00  0.00    -0.029 C 
HETATM   18  C26 UNL     1      -7.846  49.068 -23.506  1.00  0.00     0.018 C 
ENDROOT
BRANCH   1  19
HETATM   19  C7  UNL     1      -2.195  51.414 -23.384  1.00  0.00     0.188 C 
BRANCH  19  20
HETATM   20  O2  UNL     1      -2.062  52.633 -24.135  1.00  0.00    -0.321 OA
BRANCH  20  21
HETATM   21  C6  UNL     1      -0.907  52.740 -24.844  1.00  0.00     0.259 C 
HETATM   22  O1  UNL     1      -0.499  53.765 -25.375  1.00  0.00    -0.265 OA
BRANCH  21  23
HETATM   23  C5  UNL     1      -0.204  51.407 -24.939  1.00  0.00     0.115 C 
BRANCH  23  24
HETATM   24  C3  UNL     1      -0.051  50.884 -26.377  1.00  0.00    -0.010 C 
HETATM   25  C4  UNL     1      -1.390  50.996 -27.112  1.00  0.00     0.010 C 
BRANCH  24  26
HETATM   26  C2  UNL     1       1.088  51.562 -27.169  1.00  0.00     0.000 C 
HETATM   27  C1  UNL     1       2.470  51.467 -26.538  1.00  0.00     0.005 C 
ENDBRANCH  24  26
ENDBRANCH  23  24
ENDBRANCH  21  23
ENDBRANCH  20  21
ENDBRANCH  19  20
ENDBRANCH   1  19
BRANCH  13  28
HETATM   28  O3  UNL     1      -9.227  46.761 -26.216  1.00  0.00    -0.387 OA
HETATM   29  H34 UNL     1      -8.833  45.918 -25.937  1.00  0.00     0.210 HD
ENDBRANCH  13  28
BRANCH  13  30
HETATM   30  C21 UNL     1      -8.892  49.089 -26.477  1.00  0.00     0.202 C 
BRANCH  30  31
HETATM   31  O4  UNL     1      -9.651  49.950 -25.626  1.00  0.00    -0.398 OA
HETATM   32  H37 UNL     1     -10.256  49.346 -25.150  1.00  0.00     0.209 HD
ENDBRANCH  30  31
ENDBRANCH  13  30
TORSDOF 9
ENDMDL
MODEL 6
REMARK minimizedAffinity -7.99996281
REMARK  9 active torsions:
REMARK  status: ('A' for Active; 'I' for Inactive)
REMARK    1  A    between atoms: C2_2  and  C3_3 
REMARK    2  A    between atoms: C3_3  and  C5_5 
REMARK    3  A    between atoms: C5_5  and  C6_6 
REMARK    4  A    between atoms: C6_6  and  O2_8 
REMARK    5  A    between atoms: O2_8  and  C7_9 
REMARK    6  A    between atoms: C7_9  and  C8_10 
REMARK    7  A    between atoms: C20_22  and  O3_23 
REMARK    8  A    between atoms: C20_22  and  C21_24 
REMARK    9  A    between atoms: C21_24  and  O4_25 
ROOT
HETATM    1  C8  UNL     1      -1.542  51.351 -23.267  1.00  0.00    -0.018 C 
HETATM    2  C9  UNL     1      -2.466  52.587 -23.471  1.00  0.00     0.018 C 
HETATM    3  C10 UNL     1      -0.267  51.851 -22.544  1.00  0.00     0.012 C 
HETATM    4  C11 UNL     1      -0.430  52.176 -21.062  1.00  0.00     0.002 C 
HETATM    5  C12 UNL     1      -1.551  51.426 -20.347  1.00  0.00     0.010 C 
HETATM    6  C13 UNL     1      -1.895  50.044 -20.946  1.00  0.00    -0.032 C 
HETATM    7  C14 UNL     1      -0.612  49.155 -20.909  1.00  0.00     0.016 C 
HETATM    8  C15 UNL     1      -2.351  50.264 -22.432  1.00  0.00     0.005 C 
HETATM    9  C16 UNL     1      -2.567  48.893 -23.127  1.00  0.00     0.007 C 
HETATM   10  C17 UNL     1      -3.295  47.860 -22.248  1.00  0.00     0.006 C 
HETATM   11  C18 UNL     1      -4.051  48.546 -21.115  1.00  0.00    -0.002 C 
HETATM   12  C19 UNL     1      -5.023  47.606 -20.386  1.00  0.00     0.045 C 
HETATM   13  C20 UNL     1      -5.775  48.362 -19.271  1.00  0.00     0.083 C 
HETATM   14  C22 UNL     1      -4.801  49.249 -18.446  1.00  0.00     0.023 C 
HETATM   15  C23 UNL     1      -3.636  48.434 -17.870  1.00  0.00     0.008 C 
HETATM   16  C24 UNL     1      -2.566  48.427 -18.970  1.00  0.00     0.011 C 
HETATM   17  C25 UNL     1      -3.089  49.330 -20.132  1.00  0.00    -0.029 C 
HETATM   18  C26 UNL     1      -4.036  50.257 -19.324  1.00  0.00     0.018 C 
ENDROOT
BRANCH   1  19
HETATM   19  C7  UNL     1      -1.139  50.846 -24.683  1.00  0.00     0.188 C 
BRANCH  19  20
HETATM   20  O2  UNL     1      -2.103  51.274 -25.661  1.00  0.00    -0.321 OA
BRANCH  20  21
HETATM   21  C6  UNL     1      -1.745  51.040 -26.952  1.00  0.00     0.259 C 
HETATM   22  O1  UNL     1      -2.524  50.925 -27.889  1.00  0.00    -0.265 OA
BRANCH  21  23
HETATM   23  C5  UNL     1      -0.249  50.886 -27.079  1.00  0.00     0.115 C 
BRANCH  23  24
HETATM   24  C3  UNL     1       0.408  51.927 -28.001  1.00  0.00    -0.010 C 
HETATM   25  C4  UNL     1      -0.102  53.326 -27.648  1.00  0.00     0.010 C 
BRANCH  24  26
HETATM   26  C2  UNL     1       1.951  51.872 -28.003  1.00  0.00     0.000 C 
HETATM   27  C1  UNL     1       2.593  51.455 -26.688  1.00  0.00     0.005 C 
ENDBRANCH  24  26
ENDBRANCH  23  24
ENDBRANCH  21  23
ENDBRANCH  20  21
ENDBRANCH  19  20
ENDBRANCH   1  19
BRANCH  13  28
HETATM   28  O3  UNL     1      -6.402  47.410 -18.389  1.00  0.00    -0.387 OA
HETATM   29  H34 UNL     1      -5.755  46.719 -18.168  1.00  0.00     0.210 HD
ENDBRANCH  13  28
BRANCH  13  30
HETATM   30  C21 UNL     1      -6.950  49.184 -19.856  1.00  0.00     0.202 C 
BRANCH  30  31
HETATM   31  O4  UNL     1      -6.462  50.407 -20.410  1.00  0.00    -0.398 OA
HETATM   32  H37 UNL     1      -5.837  50.745 -19.736  1.00  0.00     0.209 HD
ENDBRANCH  30  31
ENDBRANCH  13  30
TORSDOF 9
ENDMDL
MODEL 7
REMARK minimizedAffinity -7.95026112
REMARK  9 active torsions:
REMARK  status: ('A' for Active; 'I' for Inactive)
REMARK    1  A    between atoms: C2_2  and  C3_3 
REMARK    2  A    between atoms: C3_3  and  C5_5 
REMARK    3  A    between atoms: C5_5  and  C6_6 
REMARK    4  A    between atoms: C6_6  and  O2_8 
REMARK    5  A    between atoms: O2_8  and  C7_9 
REMARK    6  A    between atoms: C7_9  and  C8_10 
REMARK    7  A    between atoms: C20_22  and  O3_23 
REMARK    8  A    between atoms: C20_22  and  C21_24 
REMARK    9  A    between atoms: C21_24  and  O4_25 
ROOT
HETATM    1  C8  UNL     1      -4.029  51.040 -21.528  1.00  0.00    -0.018 C 
HETATM    2  C9  UNL     1      -4.627  52.462 -21.321  1.00  0.00     0.018 C 
HETATM    3  C10 UNL     1      -5.175  50.137 -22.047  1.00  0.00     0.012 C 
HETATM    4  C11 UNL     1      -5.581  50.352 -23.502  1.00  0.00     0.002 C 
HETATM    5  C12 UNL     1      -4.490  50.915 -24.409  1.00  0.00     0.010 C 
HETATM    6  C13 UNL     1      -3.047  50.569 -23.983  1.00  0.00    -0.032 C 
HETATM    7  C14 UNL     1      -2.900  49.015 -23.950  1.00  0.00     0.016 C 
HETATM    8  C15 UNL     1      -2.814  51.159 -22.547  1.00  0.00     0.005 C 
HETATM    9  C16 UNL     1      -1.428  50.712 -22.010  1.00  0.00     0.007 C 
HETATM   10  C17 UNL     1      -0.304  50.785 -23.059  1.00  0.00     0.006 C 
HETATM   11  C18 UNL     1      -0.688  51.714 -24.206  1.00  0.00    -0.002 C 
HETATM   12  C19 UNL     1       0.493  52.054 -25.126  1.00  0.00     0.045 C 
HETATM   13  C20 UNL     1       0.048  53.014 -26.249  1.00  0.00     0.083 C 
HETATM   14  C22 UNL     1      -1.302  52.557 -26.869  1.00  0.00     0.023 C 
HETATM   15  C23 UNL     1      -1.236  51.111 -27.377  1.00  0.00     0.008 C 
HETATM   16  C24 UNL     1      -1.594  50.242 -26.164  1.00  0.00     0.011 C 
HETATM   17  C25 UNL     1      -1.965  51.207 -24.993  1.00  0.00    -0.029 C 
HETATM   18  C26 UNL     1      -2.422  52.440 -25.819  1.00  0.00     0.018 C 
ENDROOT
BRANCH   1  19
HETATM   19  C7  UNL     1      -3.593  50.523 -20.126  1.00  0.00     0.188 C 
BRANCH  19  20
HETATM   20  O2  UNL     1      -3.121  51.612 -19.314  1.00  0.00    -0.321 OA
BRANCH  20  21
HETATM   21  C6  UNL     1      -2.460  51.236 -18.187  1.00  0.00     0.259 C 
HETATM   22  O1  UNL     1      -2.967  51.121 -17.079  1.00  0.00    -0.265 OA
BRANCH  21  23
HETATM   23  C5  UNL     1      -0.992  51.025 -18.466  1.00  0.00     0.115 C 
BRANCH  23  24
HETATM   24  C3  UNL     1      -0.190  52.329 -18.605  1.00  0.00    -0.010 C 
HETATM   25  C4  UNL     1       0.942  52.352 -17.573  1.00  0.00     0.010 C 
BRANCH  24  26
HETATM   26  C2  UNL     1       0.342  52.585 -20.032  1.00  0.00     0.000 C 
HETATM   27  C1  UNL     1       0.829  54.001 -20.304  1.00  0.00     0.005 C 
ENDBRANCH  24  26
ENDBRANCH  23  24
ENDBRANCH  21  23
ENDBRANCH  20  21
ENDBRANCH  19  20
ENDBRANCH   1  19
BRANCH  13  28
HETATM   28  O3  UNL     1       1.053  53.039 -27.281  1.00  0.00    -0.387 OA
HETATM   29  H34 UNL     1       1.310  52.125 -27.487  1.00  0.00     0.210 HD
ENDBRANCH  13  28
BRANCH  13  30
HETATM   30  C21 UNL     1      -0.018  54.473 -25.733  1.00  0.00     0.202 C 
BRANCH  30  31
HETATM   31  O4  UNL     1       0.134  55.385 -26.822  1.00  0.00    -0.398 OA
HETATM   32  H37 UNL     1       0.879  55.019 -27.341  1.00  0.00     0.209 HD
ENDBRANCH  30  31
ENDBRANCH  13  30
TORSDOF 9
ENDMDL
MODEL 8
REMARK minimizedAffinity -7.78275776
REMARK  9 active torsions:
REMARK  status: ('A' for Active; 'I' for Inactive)
REMARK    1  A    between atoms: C2_2  and  C3_3 
REMARK    2  A    between atoms: C3_3  and  C5_5 
REMARK    3  A    between atoms: C5_5  and  C6_6 
REMARK    4  A    between atoms: C6_6  and  O2_8 
REMARK    5  A    between atoms: O2_8  and  C7_9 
REMARK    6  A    between atoms: C7_9  and  C8_10 
REMARK    7  A    between atoms: C20_22  and  O3_23 
REMARK    8  A    between atoms: C20_22  and  C21_24 
REMARK    9  A    between atoms: C21_24  and  O4_25 
ROOT
HETATM    1  C8  UNL     1      -4.662  49.526 -23.550  1.00  0.00    -0.018 C 
HETATM    2  C9  UNL     1      -5.996  49.131 -22.852  1.00  0.00     0.018 C 
HETATM    3  C10 UNL     1      -4.891  50.902 -24.222  1.00  0.00     0.012 C 
HETATM    4  C11 UNL     1      -4.939  52.100 -23.278  1.00  0.00     0.002 C 
HETATM    5  C12 UNL     1      -4.174  51.931 -21.968  1.00  0.00     0.010 C 
HETATM    6  C13 UNL     1      -2.972  50.964 -22.036  1.00  0.00    -0.032 C 
HETATM    7  C14 UNL     1      -1.976  51.486 -23.119  1.00  0.00     0.016 C 
HETATM    8  C15 UNL     1      -3.516  49.549 -22.447  1.00  0.00     0.005 C 
HETATM    9  C16 UNL     1      -2.331  48.573 -22.674  1.00  0.00     0.007 C 
HETATM   10  C17 UNL     1      -1.221  48.688 -21.614  1.00  0.00     0.006 C 
HETATM   11  C18 UNL     1      -1.743  49.361 -20.349  1.00  0.00    -0.002 C 
HETATM   12  C19 UNL     1      -0.777  49.242 -19.162  1.00  0.00     0.045 C 
HETATM   13  C20 UNL     1      -1.371  49.919 -17.908  1.00  0.00     0.083 C 
HETATM   14  C22 UNL     1      -1.987  51.301 -18.261  1.00  0.00     0.023 C 
HETATM   15  C23 UNL     1      -0.971  52.219 -18.953  1.00  0.00     0.008 C 
HETATM   16  C24 UNL     1      -1.075  51.883 -20.447  1.00  0.00     0.011 C 
HETATM   17  C25 UNL     1      -2.230  50.845 -20.610  1.00  0.00    -0.029 C 
HETATM   18  C26 UNL     1      -3.069  51.202 -19.354  1.00  0.00     0.018 C 
ENDROOT
BRANCH   1  19
HETATM   19  C7  UNL     1      -4.404  48.471 -24.666  1.00  0.00     0.188 C 
BRANCH  19  20
HETATM   20  O2  UNL     1      -4.466  49.088 -25.963  1.00  0.00    -0.321 OA
BRANCH  20  21
HETATM   21  C6  UNL     1      -3.403  48.825 -26.769  1.00  0.00     0.259 C 
HETATM   22  O1  UNL     1      -3.439  48.135 -27.779  1.00  0.00    -0.265 OA
BRANCH  21  23
HETATM   23  C5  UNL     1      -2.144  49.457 -26.227  1.00  0.00     0.115 C 
BRANCH  23  24
HETATM   24  C3  UNL     1      -1.671  50.686 -27.022  1.00  0.00    -0.010 C 
HETATM   25  C4  UNL     1      -2.666  51.835 -26.838  1.00  0.00     0.010 C 
BRANCH  24  26
HETATM   26  C2  UNL     1      -0.229  51.127 -26.689  1.00  0.00     0.000 C 
HETATM   27  C1  UNL     1       0.643  51.470 -27.888  1.00  0.00     0.005 C 
ENDBRANCH  24  26
ENDBRANCH  23  24
ENDBRANCH  21  23
ENDBRANCH  20  21
ENDBRANCH  19  20
ENDBRANCH   1  19
BRANCH  13  28
HETATM   28  O3  UNL     1      -0.331  50.106 -16.929  1.00  0.00    -0.387 OA
HETATM   29  H34 UNL     1       0.448  50.483 -17.372  1.00  0.00     0.210 HD
ENDBRANCH  13  28
BRANCH  13  30
HETATM   30  C21 UNL     1      -2.398  48.989 -17.214  1.00  0.00     0.202 C 
BRANCH  30  31
HETATM   31  O4  UNL     1      -1.937  47.637 -17.253  1.00  0.00    -0.398 OA
HETATM   32  H37 UNL     1      -1.620  47.517 -18.171  1.00  0.00     0.209 HD
ENDBRANCH  30  31
ENDBRANCH  13  30
TORSDOF 9
ENDMDL
MODEL 9
REMARK minimizedAffinity -7.78261089
REMARK  9 active torsions:
REMARK  status: ('A' for Active; 'I' for Inactive)
REMARK    1  A    between atoms: C2_2  and  C3_3 
REMARK    2  A    between atoms: C3_3  and  C5_5 
REMARK    3  A    between atoms: C5_5  and  C6_6 
REMARK    4  A    between atoms: C6_6  and  O2_8 
REMARK    5  A    between atoms: O2_8  and  C7_9 
REMARK    6  A    between atoms: C7_9  and  C8_10 
REMARK    7  A    between atoms: C20_22  and  O3_23 
REMARK    8  A    between atoms: C20_22  and  C21_24 
REMARK    9  A    between atoms: C21_24  and  O4_25 
ROOT
HETATM    1  C8  UNL     1      -2.091  50.899 -23.245  1.00  0.00    -0.018 C 
HETATM    2  C9  UNL     1      -2.680  50.205 -24.509  1.00  0.00     0.018 C 
HETATM    3  C10 UNL     1      -2.848  52.238 -23.068  1.00  0.00     0.012 C 
HETATM    4  C11 UNL     1      -4.276  52.128 -22.540  1.00  0.00     0.002 C 
HETATM    5  C12 UNL     1      -4.566  50.891 -21.694  1.00  0.00     0.010 C 
HETATM    6  C13 UNL     1      -3.346  50.315 -20.943  1.00  0.00    -0.032 C 
HETATM    7  C14 UNL     1      -2.773  51.423 -20.004  1.00  0.00     0.016 C 
HETATM    8  C15 UNL     1      -2.269  49.910 -22.012  1.00  0.00     0.005 C 
HETATM    9  C16 UNL     1      -0.963  49.462 -21.303  1.00  0.00     0.007 C 
HETATM   10  C17 UNL     1      -1.200  48.562 -20.077  1.00  0.00     0.006 C 
HETATM   11  C18 UNL     1      -2.588  47.931 -20.124  1.00  0.00    -0.002 C 
HETATM   12  C19 UNL     1      -2.773  46.808 -19.094  1.00  0.00     0.045 C 
HETATM   13  C20 UNL     1      -4.184  46.194 -19.208  1.00  0.00     0.083 C 
HETATM   14  C22 UNL     1      -5.264  47.303 -19.336  1.00  0.00     0.023 C 
HETATM   15  C23 UNL     1      -5.193  48.306 -18.178  1.00  0.00     0.008 C 
HETATM   16  C24 UNL     1      -4.173  49.364 -18.623  1.00  0.00     0.011 C 
HETATM   17  C25 UNL     1      -3.745  49.011 -20.083  1.00  0.00    -0.029 C 
HETATM   18  C26 UNL     1      -5.011  48.235 -20.536  1.00  0.00     0.018 C 
ENDROOT
BRANCH   1  19
HETATM   19  C7  UNL     1      -0.599  51.215 -23.555  1.00  0.00     0.188 C 
BRANCH  19  20
HETATM   20  O2  UNL     1      -0.394  52.635 -23.642  1.00  0.00    -0.321 OA
BRANCH  20  21
HETATM   21  C6  UNL     1       0.373  53.036 -24.690  1.00  0.00     0.259 C 
HETATM   22  O1  UNL     1       0.650  54.198 -24.956  1.00  0.00    -0.265 OA
BRANCH  21  23
HETATM   23  C5  UNL     1       0.806  51.856 -25.526  1.00  0.00     0.115 C 
BRANCH  23  24
HETATM   24  C3  UNL     1       1.291  52.236 -26.936  1.00  0.00    -0.010 C 
HETATM   25  C4  UNL     1       2.665  51.611 -27.195  1.00  0.00     0.010 C 
BRANCH  24  26
HETATM   26  C2  UNL     1       0.289  51.882 -28.056  1.00  0.00     0.000 C 
HETATM   27  C1  UNL     1      -1.040  51.306 -27.587  1.00  0.00     0.005 C 
ENDBRANCH  24  26
ENDBRANCH  23  24
ENDBRANCH  21  23
ENDBRANCH  20  21
ENDBRANCH  19  20
ENDBRANCH   1  19
BRANCH  13  28
HETATM   28  O3  UNL     1      -4.457  45.407 -18.032  1.00  0.00    -0.387 OA
HETATM   29  H34 UNL     1      -4.205  45.922 -17.248  1.00  0.00     0.210 HD
ENDBRANCH  13  28
BRANCH  13  30
HETATM   30  C21 UNL     1      -4.252  45.182 -20.379  1.00  0.00     0.202 C 
BRANCH  30  31
HETATM   31  O4  UNL     1      -3.876  43.881 -19.924  1.00  0.00    -0.398 OA
HETATM   32  H37 UNL     1      -3.078  44.037 -19.379  1.00  0.00     0.209 HD
ENDBRANCH  30  31
ENDBRANCH  13  30
TORSDOF 9
ENDMDL
