MODEL 1
REMARK minimizedAffinity -7.47250891
REMARK CNNscore 0.871490836
REMARK CNNaffinity 6.96954536
REMARK  9 active torsions:
REMARK  status: ('A' for Active; 'I' for Inactive)
REMARK    1  A    between atoms: C3_3  and  C4_4 
REMARK    2  A    between atoms: C3_3  and  C27_30 
REMARK    3  A    between atoms: C4_4  and  C5_5 
REMARK    4  A    between atoms: C5_5  and  C6_6 
REMARK    5  A    between atoms: C6_6  and  C8_8 
REMARK    6  A    between atoms: C15_15  and  O1_16 
REMARK    7  A    between atoms: C18_19  and  C19_20 
REMARK    8  A    between atoms: C19_20  and  O2_21 
REMARK    9  A    between atoms: C22_24  and  O3_25 
ROOT
HETATM    1  C8  UNL     1       2.918  56.655  -8.672  1.00  0.00     0.001 C 
HETATM    2  C9  UNL     1       3.913  56.185  -9.761  1.00  0.00     0.006 C 
HETATM    3  C10 UNL     1       3.132  55.225 -10.679  1.00  0.00     0.010 C 
HETATM    4  C11 UNL     1       1.680  55.338 -10.211  1.00  0.00     0.026 C 
HETATM    5  C12 UNL     1       0.649  54.297 -10.588  1.00  0.00    -0.072 C 
HETATM    6  C13 UNL     1      -0.470  54.145  -9.831  1.00  0.00    -0.064 C 
HETATM    7  C14 UNL     1      -0.663  54.956  -8.541  1.00  0.00     0.068 C 
HETATM    8  C15 UNL     1       0.422  56.011  -8.211  1.00  0.00     0.131 C 
HETATM    9  C16 UNL     1       1.817  55.550  -8.679  1.00  0.00    -0.006 C 
HETATM   10  C17 UNL     1       2.269  54.273  -7.930  1.00  0.00     0.019 C 
HETATM   11  C18 UNL     1      -1.563  53.093 -10.189  1.00  0.00     0.009 C 
HETATM   12  C20 UNL     1      -3.017  53.610  -9.921  1.00  0.00     0.019 C 
HETATM   13  C21 UNL     1      -4.058  53.311 -11.013  1.00  0.00     0.033 C 
HETATM   14  C22 UNL     1      -3.904  51.960 -11.700  1.00  0.00     0.118 C 
HETATM   15  C23 UNL     1      -2.476  51.689 -12.187  1.00  0.00     0.037 C 
HETATM   16  C24 UNL     1      -1.466  52.749 -11.712  1.00  0.00     0.003 C 
HETATM   17  C25 UNL     1      -0.045  52.367 -12.121  1.00  0.00     0.010 C 
HETATM   18  C26 UNL     1       0.919  53.521 -11.856  1.00  0.00     0.035 C 
ENDROOT
BRANCH   1  19
HETATM   19  C6  UNL     1       3.540  57.094  -7.313  1.00  0.00    -0.013 C 
HETATM   20  C7  UNL     1       2.883  58.415  -6.870  1.00  0.00     0.010 C 
BRANCH  19  21
HETATM   21  C5  UNL     1       5.079  57.263  -7.309  1.00  0.00     0.009 C 
BRANCH  21  22
HETATM   22  C4  UNL     1       5.749  57.336  -5.923  1.00  0.00     0.034 C 
BRANCH  22  23
HETATM   23  C3  UNL     1       7.145  56.739  -5.845  1.00  0.00    -0.081 C 
HETATM   24  C2  UNL     1       7.522  55.671  -6.583  1.00  0.00    -0.028 C 
HETATM   25  C1  UNL     1       6.686  54.871  -7.532  1.00  0.00     0.036 C 
BRANCH  23  26
HETATM   26  C27 UNL     1       8.124  57.493  -4.939  1.00  0.00     0.006 C 
HETATM   27  C28 UNL     1       9.606  57.184  -5.187  1.00  0.00     0.014 C 
HETATM   28  C29 UNL     1       7.882  59.004  -5.031  1.00  0.00     0.014 C 
ENDBRANCH  23  26
ENDBRANCH  22  23
ENDBRANCH  21  22
ENDBRANCH  19  21
ENDBRANCH   1  19
BRANCH   8  29
HETATM   29  O1  UNL     1       0.385  56.318  -6.818  1.00  0.00    -0.394 OA
HETATM   30  H22 UNL     1       0.611  55.518  -6.318  1.00  0.00     0.210 HD
ENDBRANCH   8  29
BRANCH  11  31
HETATM   31  C19 UNL     1      -1.256  51.874  -9.253  1.00  0.00     0.178 C 
BRANCH  31  32
HETATM   32  O2  UNL     1       0.115  51.758  -8.891  1.00  0.00    -0.400 OA
HETATM   33  H28 UNL     1       0.172  51.006  -8.269  1.00  0.00     0.209 HD
ENDBRANCH  31  32
ENDBRANCH  11  31
BRANCH  14  34
HETATM   34  O3  UNL     1      -4.332  50.924 -10.820  1.00  0.00    -0.396 OA
HETATM   35  H34 UNL     1      -3.631  50.837 -10.138  1.00  0.00     0.210 HD
ENDBRANCH  14  34
TORSDOF 9
ENDMDL
MODEL 2
REMARK minimizedAffinity -8.72163963
REMARK CNNscore 0.628349662
REMARK CNNaffinity 6.84698486
REMARK  9 active torsions:
REMARK  status: ('A' for Active; 'I' for Inactive)
REMARK    1  A    between atoms: C3_3  and  C4_4 
REMARK    2  A    between atoms: C3_3  and  C27_30 
REMARK    3  A    between atoms: C4_4  and  C5_5 
REMARK    4  A    between atoms: C5_5  and  C6_6 
REMARK    5  A    between atoms: C6_6  and  C8_8 
REMARK    6  A    between atoms: C15_15  and  O1_16 
REMARK    7  A    between atoms: C18_19  and  C19_20 
REMARK    8  A    between atoms: C19_20  and  O2_21 
REMARK    9  A    between atoms: C22_24  and  O3_25 
ROOT
HETATM    1  C8  UNL     1      -0.368  51.533 -21.238  1.00  0.00     0.001 C 
HETATM    2  C9  UNL     1       0.222  52.952 -21.052  1.00  0.00     0.006 C 
HETATM    3  C10 UNL     1       0.696  53.039 -19.589  1.00  0.00     0.010 C 
HETATM    4  C11 UNL     1       0.551  51.615 -19.050  1.00  0.00     0.026 C 
HETATM    5  C12 UNL     1       0.551  51.332 -17.564  1.00  0.00    -0.072 C 
HETATM    6  C13 UNL     1      -0.019  50.192 -17.090  1.00  0.00    -0.064 C 
HETATM    7  C14 UNL     1      -0.745  49.224 -18.036  1.00  0.00     0.068 C 
HETATM    8  C15 UNL     1      -0.706  49.562 -19.547  1.00  0.00     0.131 C 
HETATM    9  C16 UNL     1      -0.711  51.086 -19.783  1.00  0.00    -0.006 C 
HETATM   10  C17 UNL     1      -2.023  51.730 -19.270  1.00  0.00     0.019 C 
HETATM   11  C18 UNL     1      -0.032  49.856 -15.568  1.00  0.00     0.009 C 
HETATM   12  C20 UNL     1       0.184  48.332 -15.279  1.00  0.00     0.019 C 
HETATM   13  C21 UNL     1       1.154  47.987 -14.136  1.00  0.00     0.033 C 
HETATM   14  C22 UNL     1       1.109  48.933 -12.943  1.00  0.00     0.118 C 
HETATM   15  C23 UNL     1       1.201  50.410 -13.339  1.00  0.00     0.037 C 
HETATM   16  C24 UNL     1       1.128  50.632 -14.861  1.00  0.00     0.003 C 
HETATM   17  C25 UNL     1       1.102  52.122 -15.191  1.00  0.00     0.010 C 
HETATM   18  C26 UNL     1       1.262  52.342 -16.694  1.00  0.00     0.035 C 
ENDROOT
BRANCH   1  19
HETATM   19  C6  UNL     1      -1.446  51.375 -22.352  1.00  0.00    -0.013 C 
HETATM   20  C7  UNL     1      -1.603  49.878 -22.681  1.00  0.00     0.010 C 
BRANCH  19  21
HETATM   21  C5  UNL     1      -1.172  52.159 -23.658  1.00  0.00     0.009 C 
BRANCH  21  22
HETATM   22  C4  UNL     1      -0.473  51.374 -24.785  1.00  0.00     0.034 C 
BRANCH  22  23
HETATM   23  C3  UNL     1      -0.616  51.971 -26.177  1.00  0.00    -0.081 C 
HETATM   24  C2  UNL     1      -1.817  52.231 -26.737  1.00  0.00    -0.028 C 
HETATM   25  C1  UNL     1      -3.174  51.957 -26.165  1.00  0.00     0.036 C 
BRANCH  23  26
HETATM   26  C27 UNL     1       0.703  52.344 -26.861  1.00  0.00     0.006 C 
HETATM   27  C28 UNL     1       1.949  51.659 -26.284  1.00  0.00     0.014 C 
HETATM   28  C29 UNL     1       0.615  52.083 -28.369  1.00  0.00     0.014 C 
ENDBRANCH  23  26
ENDBRANCH  22  23
ENDBRANCH  21  22
ENDBRANCH  19  21
ENDBRANCH   1  19
BRANCH   8  29
HETATM   29  O1  UNL     1      -1.777  48.899 -20.216  1.00  0.00    -0.394 OA
HETATM   30  H22 UNL     1      -2.617  49.244 -19.873  1.00  0.00     0.210 HD
ENDBRANCH   8  29
BRANCH  11  31
HETATM   31  C19 UNL     1      -1.458  50.287 -15.083  1.00  0.00     0.178 C 
BRANCH  31  32
HETATM   32  O2  UNL     1      -2.184  51.052 -16.038  1.00  0.00    -0.400 OA
HETATM   33  H28 UNL     1      -3.066  51.211 -15.650  1.00  0.00     0.209 HD
ENDBRANCH  31  32
ENDBRANCH  11  31
BRANCH  14  34
HETATM   34  O3  UNL     1      -0.077  48.696 -12.189  1.00  0.00    -0.396 OA
HETATM   35  H34 UNL     1      -0.816  49.068 -12.716  1.00  0.00     0.210 HD
ENDBRANCH  14  34
TORSDOF 9
ENDMDL
MODEL 3
REMARK minimizedAffinity -7.63889408
REMARK CNNscore 0.613766372
REMARK CNNaffinity 7.05040598
REMARK  9 active torsions:
REMARK  status: ('A' for Active; 'I' for Inactive)
REMARK    1  A    between atoms: C3_3  and  C4_4 
REMARK    2  A    between atoms: C3_3  and  C27_30 
REMARK    3  A    between atoms: C4_4  and  C5_5 
REMARK    4  A    between atoms: C5_5  and  C6_6 
REMARK    5  A    between atoms: C6_6  and  C8_8 
REMARK    6  A    between atoms: C15_15  and  O1_16 
REMARK    7  A    between atoms: C18_19  and  C19_20 
REMARK    8  A    between atoms: C19_20  and  O2_21 
REMARK    9  A    between atoms: C22_24  and  O3_25 
ROOT
HETATM    1  C8  UNL     1      -1.083  50.898 -23.106  1.00  0.00     0.001 C 
HETATM    2  C9  UNL     1      -0.236  51.577 -22.002  1.00  0.00     0.006 C 
HETATM    3  C10 UNL     1      -0.458  50.759 -20.716  1.00  0.00     0.010 C 
HETATM    4  C11 UNL     1      -1.252  49.533 -21.171  1.00  0.00     0.026 C 
HETATM    5  C12 UNL     1      -1.997  48.666 -20.180  1.00  0.00    -0.072 C 
HETATM    6  C13 UNL     1      -3.034  47.894 -20.599  1.00  0.00    -0.064 C 
HETATM    7  C14 UNL     1      -3.522  47.953 -22.054  1.00  0.00     0.068 C 
HETATM    8  C15 UNL     1      -2.716  48.852 -23.024  1.00  0.00     0.131 C 
HETATM    9  C16 UNL     1      -2.153  50.094 -22.304  1.00  0.00    -0.006 C 
HETATM   10  C17 UNL     1      -3.290  51.004 -21.778  1.00  0.00     0.019 C 
HETATM   11  C18 UNL     1      -3.822  46.977 -19.614  1.00  0.00     0.009 C 
HETATM   12  C20 UNL     1      -4.231  45.606 -20.251  1.00  0.00     0.019 C 
HETATM   13  C21 UNL     1      -4.025  44.359 -19.375  1.00  0.00     0.033 C 
HETATM   14  C22 UNL     1      -4.304  44.559 -17.891  1.00  0.00     0.118 C 
HETATM   15  C23 UNL     1      -3.602  45.788 -17.305  1.00  0.00     0.037 C 
HETATM   16  C24 UNL     1      -2.922  46.662 -18.374  1.00  0.00     0.003 C 
HETATM   17  C25 UNL     1      -2.344  47.931 -17.751  1.00  0.00     0.010 C 
HETATM   18  C26 UNL     1      -1.476  48.678 -18.762  1.00  0.00     0.035 C 
ENDROOT
BRANCH   1  19
HETATM   19  C6  UNL     1      -1.546  51.811 -24.280  1.00  0.00    -0.013 C 
HETATM   20  C7  UNL     1      -2.862  52.503 -23.881  1.00  0.00     0.010 C 
BRANCH  19  21
HETATM   21  C5  UNL     1      -1.736  51.099 -25.642  1.00  0.00     0.009 C 
BRANCH  21  22
HETATM   22  C4  UNL     1      -0.457  50.867 -26.469  1.00  0.00     0.034 C 
BRANCH  22  23
HETATM   23  C3  UNL     1       0.404  52.100 -26.694  1.00  0.00    -0.081 C 
HETATM   24  C2  UNL     1       1.751  52.075 -26.597  1.00  0.00    -0.028 C 
HETATM   25  C1  UNL     1       2.622  50.916 -26.222  1.00  0.00     0.036 C 
BRANCH  23  26
HETATM   26  C27 UNL     1      -0.361  53.354 -27.132  1.00  0.00     0.006 C 
HETATM   27  C28 UNL     1      -0.002  54.632 -26.363  1.00  0.00     0.014 C 
HETATM   28  C29 UNL     1      -0.193  53.584 -28.638  1.00  0.00     0.014 C 
ENDBRANCH  23  26
ENDBRANCH  22  23
ENDBRANCH  21  22
ENDBRANCH  19  21
ENDBRANCH   1  19
BRANCH   8  29
HETATM   29  O1  UNL     1      -3.524  49.190 -24.149  1.00  0.00    -0.394 OA
HETATM   30  H22 UNL     1      -4.279  49.716 -23.842  1.00  0.00     0.210 HD
ENDBRANCH   8  29
BRANCH  11  31
HETATM   31  C19 UNL     1      -5.109  47.798 -19.258  1.00  0.00     0.178 C 
BRANCH  31  32
HETATM   32  O2  UNL     1      -4.917  49.207 -19.283  1.00  0.00    -0.400 OA
HETATM   33  H28 UNL     1      -5.791  49.607 -19.104  1.00  0.00     0.209 HD
ENDBRANCH  31  32
ENDBRANCH  11  31
BRANCH  14  34
HETATM   34  O3  UNL     1      -5.711  44.644 -17.676  1.00  0.00    -0.396 OA
HETATM   35  H34 UNL     1      -5.987  45.524 -18.011  1.00  0.00     0.210 HD
ENDBRANCH  14  34
TORSDOF 9
ENDMDL
MODEL 4
REMARK minimizedAffinity -7.72478056
REMARK CNNscore 0.536549926
REMARK CNNaffinity 6.5853138
REMARK  9 active torsions:
REMARK  status: ('A' for Active; 'I' for Inactive)
REMARK    1  A    between atoms: C3_3  and  C4_4 
REMARK    2  A    between atoms: C3_3  and  C27_30 
REMARK    3  A    between atoms: C4_4  and  C5_5 
REMARK    4  A    between atoms: C5_5  and  C6_6 
REMARK    5  A    between atoms: C6_6  and  C8_8 
REMARK    6  A    between atoms: C15_15  and  O1_16 
REMARK    7  A    between atoms: C18_19  and  C19_20 
REMARK    8  A    between atoms: C19_20  and  O2_21 
REMARK    9  A    between atoms: C22_24  and  O3_25 
ROOT
HETATM    1  C8  UNL     1      -2.657  49.263 -22.153  1.00  0.00     0.001 C 
HETATM    2  C9  UNL     1      -2.993  48.836 -23.603  1.00  0.00     0.006 C 
HETATM    3  C10 UNL     1      -4.480  48.432 -23.605  1.00  0.00     0.010 C 
HETATM    4  C11 UNL     1      -4.991  48.833 -22.220  1.00  0.00     0.026 C 
HETATM    5  C12 UNL     1      -6.288  48.281 -21.670  1.00  0.00    -0.072 C 
HETATM    6  C13 UNL     1      -6.502  48.262 -20.328  1.00  0.00    -0.064 C 
HETATM    7  C14 UNL     1      -5.407  48.714 -19.350  1.00  0.00     0.068 C 
HETATM    8  C15 UNL     1      -4.105  49.275 -19.971  1.00  0.00     0.131 C 
HETATM    9  C16 UNL     1      -3.767  48.573 -21.301  1.00  0.00    -0.006 C 
HETATM   10  C17 UNL     1      -3.482  47.066 -21.086  1.00  0.00     0.019 C 
HETATM   11  C18 UNL     1      -7.829  47.713 -19.719  1.00  0.00     0.009 C 
HETATM   12  C20 UNL     1      -8.319  48.539 -18.482  1.00  0.00     0.019 C 
HETATM   13  C21 UNL     1      -9.821  48.865 -18.433  1.00  0.00     0.033 C 
HETATM   14  C22 UNL     1     -10.737  47.767 -18.957  1.00  0.00     0.118 C 
HETATM   15  C23 UNL     1     -10.317  47.234 -20.331  1.00  0.00     0.037 C 
HETATM   16  C24 UNL     1      -8.957  47.782 -20.800  1.00  0.00     0.003 C 
HETATM   17  C25 UNL     1      -8.531  47.128 -22.112  1.00  0.00     0.010 C 
HETATM   18  C26 UNL     1      -7.307  47.834 -22.692  1.00  0.00     0.035 C 
ENDROOT
BRANCH   1  19
HETATM   19  C6  UNL     1      -1.168  49.116 -21.719  1.00  0.00    -0.013 C 
HETATM   20  C7  UNL     1      -0.996  47.771 -20.988  1.00  0.00     0.010 C 
BRANCH  19  21
HETATM   21  C5  UNL     1      -0.619  50.256 -20.827  1.00  0.00     0.009 C 
BRANCH  21  22
HETATM   22  C4  UNL     1      -0.986  51.689 -21.258  1.00  0.00     0.034 C 
BRANCH  22  23
HETATM   23  C3  UNL     1       0.098  52.435 -22.020  1.00  0.00    -0.081 C 
HETATM   24  C2  UNL     1       0.170  52.434 -23.370  1.00  0.00    -0.028 C 
HETATM   25  C1  UNL     1      -0.713  51.706 -24.334  1.00  0.00     0.036 C 
BRANCH  23  26
HETATM   26  C27 UNL     1       1.049  53.265 -21.151  1.00  0.00     0.006 C 
HETATM   27  C28 UNL     1       1.664  54.485 -21.849  1.00  0.00     0.014 C 
HETATM   28  C29 UNL     1       0.350  53.699 -19.858  1.00  0.00     0.014 C 
ENDBRANCH  23  26
ENDBRANCH  22  23
ENDBRANCH  21  22
ENDBRANCH  19  21
ENDBRANCH   1  19
BRANCH   8  29
HETATM   29  O1  UNL     1      -3.044  49.190 -19.021  1.00  0.00    -0.394 OA
HETATM   30  H22 UNL     1      -2.879  48.255 -18.823  1.00  0.00     0.210 HD
ENDBRANCH   8  29
BRANCH  11  31
HETATM   31  C19 UNL     1      -7.480  46.252 -19.273  1.00  0.00     0.178 C 
BRANCH  31  32
HETATM   32  O2  UNL     1      -7.868  45.949 -17.939  1.00  0.00    -0.400 OA
HETATM   33  H28 UNL     1      -7.654  45.007 -17.797  1.00  0.00     0.209 HD
ENDBRANCH  31  32
ENDBRANCH  11  31
BRANCH  14  34
HETATM   34  O3  UNL     1     -10.799  46.703 -18.011  1.00  0.00    -0.396 OA
HETATM   35  H34 UNL     1      -9.939  46.234 -18.069  1.00  0.00     0.210 HD
ENDBRANCH  14  34
TORSDOF 9
ENDMDL
MODEL 5
REMARK minimizedAffinity -8.21154881
REMARK CNNscore 0.405022204
REMARK CNNaffinity 6.66808558
REMARK  9 active torsions:
REMARK  status: ('A' for Active; 'I' for Inactive)
REMARK    1  A    between atoms: C3_3  and  C4_4 
REMARK    2  A    between atoms: C3_3  and  C27_30 
REMARK    3  A    between atoms: C4_4  and  C5_5 
REMARK    4  A    between atoms: C5_5  and  C6_6 
REMARK    5  A    between atoms: C6_6  and  C8_8 
REMARK    6  A    between atoms: C15_15  and  O1_16 
REMARK    7  A    between atoms: C18_19  and  C19_20 
REMARK    8  A    between atoms: C19_20  and  O2_21 
REMARK    9  A    between atoms: C22_24  and  O3_25 
ROOT
HETATM    1  C8  UNL     1      -3.004  49.436 -23.209  1.00  0.00     0.001 C 
HETATM    2  C9  UNL     1      -3.427  49.207 -21.737  1.00  0.00     0.006 C 
HETATM    3  C10 UNL     1      -4.745  48.411 -21.781  1.00  0.00     0.010 C 
HETATM    4  C11 UNL     1      -4.922  48.037 -23.255  1.00  0.00     0.026 C 
HETATM    5  C12 UNL     1      -6.259  47.582 -23.796  1.00  0.00    -0.072 C 
HETATM    6  C13 UNL     1      -6.528  47.694 -25.124  1.00  0.00    -0.064 C 
HETATM    7  C14 UNL     1      -5.524  48.362 -26.076  1.00  0.00     0.068 C 
HETATM    8  C15 UNL     1      -4.171  48.802 -25.466  1.00  0.00     0.131 C 
HETATM    9  C16 UNL     1      -4.335  49.264 -24.004  1.00  0.00    -0.006 C 
HETATM   10  C17 UNL     1      -5.237  50.519 -23.908  1.00  0.00     0.019 C 
HETATM   11  C18 UNL     1      -7.888  47.226 -25.726  1.00  0.00     0.009 C 
HETATM   12  C20 UNL     1      -7.733  46.554 -27.132  1.00  0.00     0.019 C 
HETATM   13  C21 UNL     1      -8.543  45.268 -27.365  1.00  0.00     0.033 C 
HETATM   14  C22 UNL     1      -9.923  45.248 -26.720  1.00  0.00     0.118 C 
HETATM   15  C23 UNL     1      -9.905  45.648 -25.242  1.00  0.00     0.037 C 
HETATM   16  C24 UNL     1      -8.534  46.166 -24.773  1.00  0.00     0.003 C 
HETATM   17  C25 UNL     1      -8.604  46.662 -23.331  1.00  0.00     0.010 C 
HETATM   18  C26 UNL     1      -7.204  46.957 -22.796  1.00  0.00     0.035 C 
ENDROOT
BRANCH   1  19
HETATM   19  C6  UNL     1      -2.114  50.685 -23.484  1.00  0.00    -0.013 C 
HETATM   20  C7  UNL     1      -3.009  51.938 -23.495  1.00  0.00     0.010 C 
BRANCH  19  21
HETATM   21  C5  UNL     1      -1.287  50.637 -24.791  1.00  0.00     0.009 C 
BRANCH  21  22
HETATM   22  C4  UNL     1      -0.982  51.996 -25.451  1.00  0.00     0.034 C 
BRANCH  22  23
HETATM   23  C3  UNL     1       0.481  52.410 -25.440  1.00  0.00    -0.081 C 
HETATM   24  C2  UNL     1       1.110  52.832 -24.322  1.00  0.00    -0.028 C 
HETATM   25  C1  UNL     1       0.525  53.018 -22.956  1.00  0.00     0.036 C 
BRANCH  23  26
HETATM   26  C27 UNL     1       1.217  52.224 -26.772  1.00  0.00     0.006 C 
HETATM   27  C28 UNL     1       2.521  51.420 -26.684  1.00  0.00     0.014 C 
HETATM   28  C29 UNL     1       0.285  51.597 -27.815  1.00  0.00     0.014 C 
ENDBRANCH  23  26
ENDBRANCH  22  23
ENDBRANCH  21  22
ENDBRANCH  19  21
ENDBRANCH   1  19
BRANCH   8  29
HETATM   29  O1  UNL     1      -3.574  49.799 -26.292  1.00  0.00    -0.394 OA
HETATM   30  H22 UNL     1      -4.147  50.582 -26.297  1.00  0.00     0.210 HD
ENDBRANCH   8  29
BRANCH  11  31
HETATM   31  C19 UNL     1      -8.731  48.540 -25.859  1.00  0.00     0.178 C 
BRANCH  31  32
HETATM   32  O2  UNL     1      -9.134  48.833 -27.191  1.00  0.00    -0.400 OA
HETATM   33  H28 UNL     1      -9.694  49.633 -27.140  1.00  0.00     0.209 HD
ENDBRANCH  31  32
ENDBRANCH  11  31
BRANCH  14  34
HETATM   34  O3  UNL     1     -10.805  46.096 -27.452  1.00  0.00    -0.396 OA
HETATM   35  H34 UNL     1     -10.542  47.016 -27.236  1.00  0.00     0.210 HD
ENDBRANCH  14  34
TORSDOF 9
ENDMDL
MODEL 6
REMARK minimizedAffinity -7.66192627
REMARK CNNscore 0.404813677
REMARK CNNaffinity 6.44541931
REMARK  9 active torsions:
REMARK  status: ('A' for Active; 'I' for Inactive)
REMARK    1  A    between atoms: C3_3  and  C4_4 
REMARK    2  A    between atoms: C3_3  and  C27_30 
REMARK    3  A    between atoms: C4_4  and  C5_5 
REMARK    4  A    between atoms: C5_5  and  C6_6 
REMARK    5  A    between atoms: C6_6  and  C8_8 
REMARK    6  A    between atoms: C15_15  and  O1_16 
REMARK    7  A    between atoms: C18_19  and  C19_20 
REMARK    8  A    between atoms: C19_20  and  O2_21 
REMARK    9  A    between atoms: C22_24  and  O3_25 
ROOT
HETATM    1  C8  UNL     1      -3.440  50.218 -23.328  1.00  0.00     0.001 C 
HETATM    2  C9  UNL     1      -2.986  48.834 -23.853  1.00  0.00     0.006 C 
HETATM    3  C10 UNL     1      -3.834  47.786 -23.109  1.00  0.00     0.010 C 
HETATM    4  C11 UNL     1      -4.876  48.604 -22.343  1.00  0.00     0.026 C 
HETATM    5  C12 UNL     1      -5.664  48.003 -21.200  1.00  0.00    -0.072 C 
HETATM    6  C13 UNL     1      -6.221  48.812 -20.261  1.00  0.00    -0.064 C 
HETATM    7  C14 UNL     1      -5.988  50.330 -20.291  1.00  0.00     0.068 C 
HETATM    8  C15 UNL     1      -5.179  50.888 -21.488  1.00  0.00     0.131 C 
HETATM    9  C16 UNL     1      -4.099  49.891 -21.953  1.00  0.00    -0.006 C 
HETATM   10  C17 UNL     1      -3.044  49.647 -20.845  1.00  0.00     0.019 C 
HETATM   11  C18 UNL     1      -7.050  48.236 -19.072  1.00  0.00     0.009 C 
HETATM   12  C20 UNL     1      -8.288  49.122 -18.708  1.00  0.00     0.019 C 
HETATM   13  C21 UNL     1      -9.605  48.374 -18.437  1.00  0.00     0.033 C 
HETATM   14  C22 UNL     1      -9.454  47.040 -17.718  1.00  0.00     0.118 C 
HETATM   15  C23 UNL     1      -8.402  46.126 -18.354  1.00  0.00     0.037 C 
HETATM   16  C24 UNL     1      -7.591  46.820 -19.463  1.00  0.00     0.003 C 
HETATM   17  C25 UNL     1      -6.480  45.907 -19.977  1.00  0.00     0.010 C 
HETATM   18  C26 UNL     1      -5.830  46.501 -21.224  1.00  0.00     0.035 C 
ENDROOT
BRANCH   1  19
HETATM   19  C6  UNL     1      -2.389  51.366 -23.409  1.00  0.00    -0.013 C 
HETATM   20  C7  UNL     1      -3.050  52.598 -24.054  1.00  0.00     0.010 C 
BRANCH  19  21
HETATM   21  C5  UNL     1      -1.089  51.024 -24.175  1.00  0.00     0.009 C 
BRANCH  21  22
HETATM   22  C4  UNL     1      -0.534  52.129 -25.095  1.00  0.00     0.034 C 
BRANCH  22  23
HETATM   23  C3  UNL     1      -0.138  51.673 -26.491  1.00  0.00    -0.081 C 
HETATM   24  C2  UNL     1      -1.023  51.135 -27.359  1.00  0.00    -0.028 C 
HETATM   25  C1  UNL     1      -2.474  50.846 -27.128  1.00  0.00     0.036 C 
BRANCH  23  26
HETATM   26  C27 UNL     1       1.318  51.954 -26.877  1.00  0.00     0.006 C 
HETATM   27  C28 UNL     1       2.359  51.103 -26.140  1.00  0.00     0.014 C 
HETATM   28  C29 UNL     1       1.506  51.814 -28.392  1.00  0.00     0.014 C 
ENDBRANCH  23  26
ENDBRANCH  22  23
ENDBRANCH  21  22
ENDBRANCH  19  21
ENDBRANCH   1  19
BRANCH   8  29
HETATM   29  O1  UNL     1      -4.639  52.163 -21.150  1.00  0.00    -0.394 OA
HETATM   30  H22 UNL     1      -4.013  52.051 -20.417  1.00  0.00     0.210 HD
ENDBRANCH   8  29
BRANCH  11  31
HETATM   31  C19 UNL     1      -6.047  48.210 -17.870  1.00  0.00     0.178 C 
BRANCH  31  32
HETATM   32  O2  UNL     1      -6.487  47.423 -16.769  1.00  0.00    -0.400 OA
HETATM   33  H28 UNL     1      -5.762  47.437 -16.114  1.00  0.00     0.209 HD
ENDBRANCH  31  32
ENDBRANCH  11  31
BRANCH  14  34
HETATM   34  O3  UNL     1      -9.146  47.269 -16.345  1.00  0.00    -0.396 OA
HETATM   35  H34 UNL     1      -8.212  47.570 -16.320  1.00  0.00     0.210 HD
ENDBRANCH  14  34
TORSDOF 9
ENDMDL
MODEL 7
REMARK minimizedAffinity -7.24408197
REMARK CNNscore 0.373688281
REMARK CNNaffinity 6.56247473
REMARK  9 active torsions:
REMARK  status: ('A' for Active; 'I' for Inactive)
REMARK    1  A    between atoms: C3_3  and  C4_4 
REMARK    2  A    between atoms: C3_3  and  C27_30 
REMARK    3  A    between atoms: C4_4  and  C5_5 
REMARK    4  A    between atoms: C5_5  and  C6_6 
REMARK    5  A    between atoms: C6_6  and  C8_8 
REMARK    6  A    between atoms: C15_15  and  O1_16 
REMARK    7  A    between atoms: C18_19  and  C19_20 
REMARK    8  A    between atoms: C19_20  and  O2_21 
REMARK    9  A    between atoms: C22_24  and  O3_25 
ROOT
HETATM    1  C8  UNL     1      -3.138  49.480 -23.347  1.00  0.00     0.001 C 
HETATM    2  C9  UNL     1      -3.533  48.828 -24.695  1.00  0.00     0.006 C 
HETATM    3  C10 UNL     1      -4.937  48.228 -24.494  1.00  0.00     0.010 C 
HETATM    4  C11 UNL     1      -5.379  48.730 -23.118  1.00  0.00     0.026 C 
HETATM    5  C12 UNL     1      -6.526  48.082 -22.375  1.00  0.00    -0.072 C 
HETATM    6  C13 UNL     1      -6.617  48.207 -21.024  1.00  0.00    -0.064 C 
HETATM    7  C14 UNL     1      -5.520  48.925 -20.225  1.00  0.00     0.068 C 
HETATM    8  C15 UNL     1      -4.374  49.575 -21.040  1.00  0.00     0.131 C 
HETATM    9  C16 UNL     1      -4.054  48.760 -22.309  1.00  0.00    -0.006 C 
HETATM   10  C17 UNL     1      -3.531  47.346 -21.954  1.00  0.00     0.019 C 
HETATM   11  C18 UNL     1      -7.788  47.564 -20.220  1.00  0.00     0.009 C 
HETATM   12  C20 UNL     1      -8.285  48.467 -19.041  1.00  0.00     0.019 C 
HETATM   13  C21 UNL     1      -9.809  48.588 -18.872  1.00  0.00     0.033 C 
HETATM   14  C22 UNL     1     -10.595  47.317 -19.168  1.00  0.00     0.118 C 
HETATM   15  C23 UNL     1     -10.221  46.674 -20.507  1.00  0.00     0.037 C 
HETATM   16  C24 UNL     1      -9.005  47.339 -21.177  1.00  0.00     0.003 C 
HETATM   17  C25 UNL     1      -8.603  46.586 -22.443  1.00  0.00     0.010 C 
HETATM   18  C26 UNL     1      -7.553  47.372 -23.225  1.00  0.00     0.035 C 
ENDROOT
BRANCH   1  19
HETATM   19  C6  UNL     1      -1.611  49.595 -23.057  1.00  0.00    -0.013 C 
HETATM   20  C7  UNL     1      -1.310  48.916 -21.708  1.00  0.00     0.010 C 
BRANCH  19  21
HETATM   21  C5  UNL     1      -1.043  51.034 -23.043  1.00  0.00     0.009 C 
BRANCH  21  22
HETATM   22  C4  UNL     1      -1.070  51.787 -24.387  1.00  0.00     0.034 C 
BRANCH  22  23
HETATM   23  C3  UNL     1       0.294  52.101 -24.982  1.00  0.00    -0.081 C 
HETATM   24  C2  UNL     1       1.096  53.071 -24.492  1.00  0.00    -0.028 C 
HETATM   25  C1  UNL     1       0.810  54.014 -23.365  1.00  0.00     0.036 C 
BRANCH  23  26
HETATM   26  C27 UNL     1       0.733  51.175 -26.121  1.00  0.00     0.006 C 
HETATM   27  C28 UNL     1      -0.021  51.371 -27.443  1.00  0.00     0.014 C 
HETATM   28  C29 UNL     1       2.243  51.298 -26.358  1.00  0.00     0.014 C 
ENDBRANCH  23  26
ENDBRANCH  22  23
ENDBRANCH  21  22
ENDBRANCH  19  21
ENDBRANCH   1  19
BRANCH   8  29
HETATM   29  O1  UNL     1      -3.234  49.758 -20.204  1.00  0.00    -0.394 OA
HETATM   30  H22 UNL     1      -2.915  48.888 -19.918  1.00  0.00     0.210 HD
ENDBRANCH   8  29
BRANCH  11  31
HETATM   31  C19 UNL     1      -7.189  46.234 -19.649  1.00  0.00     0.178 C 
BRANCH  31  32
HETATM   32  O2  UNL     1      -6.178  45.660 -20.469  1.00  0.00    -0.400 OA
HETATM   33  H28 UNL     1      -5.845  44.877 -19.987  1.00  0.00     0.209 HD
ENDBRANCH  31  32
ENDBRANCH  11  31
BRANCH  14  34
HETATM   34  O3  UNL     1     -10.415  46.385 -18.104  1.00  0.00    -0.396 OA
HETATM   35  H34 UNL     1      -9.503  46.035 -18.198  1.00  0.00     0.210 HD
ENDBRANCH  14  34
TORSDOF 9
ENDMDL
MODEL 8
REMARK minimizedAffinity -9.49898243
REMARK CNNscore 0.371487468
REMARK CNNaffinity 6.86772203
REMARK  9 active torsions:
REMARK  status: ('A' for Active; 'I' for Inactive)
REMARK    1  A    between atoms: C3_3  and  C4_4 
REMARK    2  A    between atoms: C3_3  and  C27_30 
REMARK    3  A    between atoms: C4_4  and  C5_5 
REMARK    4  A    between atoms: C5_5  and  C6_6 
REMARK    5  A    between atoms: C6_6  and  C8_8 
REMARK    6  A    between atoms: C15_15  and  O1_16 
REMARK    7  A    between atoms: C18_19  and  C19_20 
REMARK    8  A    between atoms: C19_20  and  O2_21 
REMARK    9  A    between atoms: C22_24  and  O3_25 
ROOT
HETATM    1  C8  UNL     1      -0.139  50.449 -18.711  1.00  0.00     0.001 C 
HETATM    2  C9  UNL     1      -0.794  49.136 -18.217  1.00  0.00     0.006 C 
HETATM    3  C10 UNL     1      -1.494  48.512 -19.438  1.00  0.00     0.010 C 
HETATM    4  C11 UNL     1      -1.048  49.373 -20.622  1.00  0.00     0.026 C 
HETATM    5  C12 UNL     1      -1.788  49.341 -21.941  1.00  0.00    -0.072 C 
HETATM    6  C13 UNL     1      -1.693  50.392 -22.798  1.00  0.00    -0.064 C 
HETATM    7  C14 UNL     1      -0.913  51.656 -22.408  1.00  0.00     0.068 C 
HETATM    8  C15 UNL     1      -0.171  51.628 -21.049  1.00  0.00     0.131 C 
HETATM    9  C16 UNL     1      -0.939  50.794 -20.005  1.00  0.00    -0.006 C 
HETATM   10  C17 UNL     1      -2.318  51.422 -19.687  1.00  0.00     0.019 C 
HETATM   11  C18 UNL     1      -2.429  50.396 -24.172  1.00  0.00     0.009 C 
HETATM   12  C20 UNL     1      -1.583  51.053 -25.314  1.00  0.00     0.019 C 
HETATM   13  C21 UNL     1      -1.573  50.315 -26.664  1.00  0.00     0.033 C 
HETATM   14  C22 UNL     1      -2.891  49.656 -27.050  1.00  0.00     0.118 C 
HETATM   15  C23 UNL     1      -3.483  48.790 -25.934  1.00  0.00     0.037 C 
HETATM   16  C24 UNL     1      -2.724  48.921 -24.602  1.00  0.00     0.003 C 
HETATM   17  C25 UNL     1      -3.425  48.134 -23.497  1.00  0.00     0.010 C 
HETATM   18  C26 UNL     1      -2.554  48.074 -22.244  1.00  0.00     0.035 C 
ENDROOT
BRANCH   1  19
HETATM   19  C6  UNL     1       0.078  51.558 -17.638  1.00  0.00    -0.013 C 
HETATM   20  C7  UNL     1       1.225  52.476 -18.099  1.00  0.00     0.010 C 
BRANCH  19  21
HETATM   21  C5  UNL     1       0.373  51.050 -16.206  1.00  0.00     0.009 C 
BRANCH  21  22
HETATM   22  C4  UNL     1       1.205  51.990 -15.312  1.00  0.00     0.034 C 
BRANCH  22  23
HETATM   23  C3  UNL     1       2.419  51.354 -14.653  1.00  0.00    -0.081 C 
HETATM   24  C2  UNL     1       3.685  51.680 -14.992  1.00  0.00    -0.028 C 
HETATM   25  C1  UNL     1       4.133  52.637 -16.053  1.00  0.00     0.036 C 
BRANCH  23  26
HETATM   26  C27 UNL     1       2.102  50.383 -13.510  1.00  0.00     0.006 C 
HETATM   27  C28 UNL     1       3.261  49.464 -13.102  1.00  0.00     0.014 C 
HETATM   28  C29 UNL     1       1.586  51.148 -12.286  1.00  0.00     0.014 C 
ENDBRANCH  23  26
ENDBRANCH  22  23
ENDBRANCH  21  22
ENDBRANCH  19  21
ENDBRANCH   1  19
BRANCH   8  29
HETATM   29  O1  UNL     1       0.078  52.962 -20.610  1.00  0.00    -0.394 OA
HETATM   30  H22 UNL     1      -0.772  53.401 -20.455  1.00  0.00     0.210 HD
ENDBRANCH   8  29
BRANCH  11  31
HETATM   31  C19 UNL     1      -3.724  51.242 -23.921  1.00  0.00     0.178 C 
BRANCH  31  32
HETATM   32  O2  UNL     1      -4.728  51.068 -24.913  1.00  0.00    -0.400 OA
HETATM   33  H28 UNL     1      -5.498  51.594 -24.622  1.00  0.00     0.209 HD
ENDBRANCH  31  32
ENDBRANCH  11  31
BRANCH  14  34
HETATM   34  O3  UNL     1      -3.826  50.655 -27.450  1.00  0.00    -0.396 OA
HETATM   35  H34 UNL     1      -4.110  51.110 -26.629  1.00  0.00     0.210 HD
ENDBRANCH  14  34
TORSDOF 9
ENDMDL
MODEL 9
REMARK minimizedAffinity -8.08627987
REMARK CNNscore 0.329234749
REMARK CNNaffinity 6.5579114
REMARK  9 active torsions:
REMARK  status: ('A' for Active; 'I' for Inactive)
REMARK    1  A    between atoms: C3_3  and  C4_4 
REMARK    2  A    between atoms: C3_3  and  C27_30 
REMARK    3  A    between atoms: C4_4  and  C5_5 
REMARK    4  A    between atoms: C5_5  and  C6_6 
REMARK    5  A    between atoms: C6_6  and  C8_8 
REMARK    6  A    between atoms: C15_15  and  O1_16 
REMARK    7  A    between atoms: C18_19  and  C19_20 
REMARK    8  A    between atoms: C19_20  and  O2_21 
REMARK    9  A    between atoms: C22_24  and  O3_25 
ROOT
HETATM    1  C8  UNL     1      -1.702  50.099 -20.894  1.00  0.00     0.001 C 
HETATM    2  C9  UNL     1      -1.264  51.516 -21.337  1.00  0.00     0.006 C 
HETATM    3  C10 UNL     1      -0.382  52.074 -20.203  1.00  0.00     0.010 C 
HETATM    4  C11 UNL     1      -0.179  50.891 -19.254  1.00  0.00     0.026 C 
HETATM    5  C12 UNL     1       0.307  51.095 -17.836  1.00  0.00    -0.072 C 
HETATM    6  C13 UNL     1       0.054  50.152 -16.890  1.00  0.00    -0.064 C 
HETATM    7  C14 UNL     1      -0.798  48.917 -17.218  1.00  0.00     0.068 C 
HETATM    8  C15 UNL     1      -1.262  48.759 -18.687  1.00  0.00     0.131 C 
HETATM    9  C16 UNL     1      -1.529  50.128 -19.344  1.00  0.00    -0.006 C 
HETATM   10  C17 UNL     1      -2.691  50.873 -18.642  1.00  0.00     0.019 C 
HETATM   11  C18 UNL     1       0.547  50.316 -15.420  1.00  0.00     0.009 C 
HETATM   12  C20 UNL     1       1.028  48.968 -14.785  1.00  0.00     0.019 C 
HETATM   13  C21 UNL     1       2.334  49.025 -13.974  1.00  0.00     0.033 C 
HETATM   14  C22 UNL     1       2.537  50.300 -13.165  1.00  0.00     0.118 C 
HETATM   15  C23 UNL     1       2.321  51.576 -13.984  1.00  0.00     0.037 C 
HETATM   16  C24 UNL     1       1.761  51.302 -15.392  1.00  0.00     0.003 C 
HETATM   17  C25 UNL     1       1.451  52.609 -16.117  1.00  0.00     0.010 C 
HETATM   18  C26 UNL     1       1.119  52.344 -17.584  1.00  0.00     0.035 C 
ENDROOT
BRANCH   1  19
HETATM   19  C6  UNL     1      -3.039  49.571 -21.495  1.00  0.00    -0.013 C 
HETATM   20  C7  UNL     1      -3.837  48.863 -20.385  1.00  0.00     0.010 C 
BRANCH  19  21
HETATM   21  C5  UNL     1      -2.894  48.618 -22.706  1.00  0.00     0.009 C 
BRANCH  21  22
HETATM   22  C4  UNL     1      -3.890  48.833 -23.862  1.00  0.00     0.034 C 
BRANCH  22  23
HETATM   23  C3  UNL     1      -3.526  49.943 -24.835  1.00  0.00    -0.081 C 
HETATM   24  C2  UNL     1      -3.286  49.713 -26.144  1.00  0.00    -0.028 C 
HETATM   25  C1  UNL     1      -3.279  48.397 -26.858  1.00  0.00     0.036 C 
BRANCH  23  26
HETATM   26  C27 UNL     1      -3.542  51.356 -24.242  1.00  0.00     0.006 C 
HETATM   27  C28 UNL     1      -2.777  52.408 -25.056  1.00  0.00     0.014 C 
HETATM   28  C29 UNL     1      -4.984  51.822 -24.010  1.00  0.00     0.014 C 
ENDBRANCH  23  26
ENDBRANCH  22  23
ENDBRANCH  21  22
ENDBRANCH  19  21
ENDBRANCH   1  19
BRANCH   8  29
HETATM   29  O1  UNL     1      -2.395  47.895 -18.743  1.00  0.00    -0.394 OA
HETATM   30  H22 UNL     1      -3.127  48.311 -18.261  1.00  0.00     0.210 HD
ENDBRANCH   8  29
BRANCH  11  31
HETATM   31  C19 UNL     1      -0.706  50.847 -14.643  1.00  0.00     0.178 C 
BRANCH  31  32
HETATM   32  O2  UNL     1      -0.977  50.144 -13.437  1.00  0.00    -0.400 OA
HETATM   33  H28 UNL     1      -1.735  50.596 -13.019  1.00  0.00     0.209 HD
ENDBRANCH  31  32
ENDBRANCH  11  31
BRANCH  14  34
HETATM   34  O3  UNL     1       1.675  50.288 -12.030  1.00  0.00    -0.396 OA
HETATM   35  H34 UNL     1       0.771  50.457 -12.371  1.00  0.00     0.210 HD
ENDBRANCH  14  34
TORSDOF 9
ENDMDL
