MODEL 1
REMARK minimizedAffinity -10.5271168
REMARK CNNscore 0.33637926
REMARK CNNaffinity 7.04507208
REMARK  11 active torsions:
REMARK  status: ('A' for Active; 'I' for Inactive)
REMARK    1  A    between atoms: C3_3  and  O1_4 
REMARK    2  A    between atoms: N1_14  and  O2_16 
REMARK    3  A    between atoms: O2_16  and  C13_17 
REMARK    4  A    between atoms: C13_17  and  C14_18 
REMARK       I    between atoms: C14_18  and  N2_20 
REMARK    5  A    between atoms: N2_20  and  C15_21 
REMARK    6  A    between atoms: C15_21  and  C16_22 
REMARK    7  A    between atoms: C15_21  and  C19_27 
REMARK    8  A    between atoms: C16_22  and  O5_24 
REMARK    9  A    between atoms: O5_24  and  C17_25 
REMARK   10  A    between atoms: C19_27  and  O6_28 
REMARK   11  A    between atoms: C19_27  and  C20_29 
ROOT
HETATM    1  C1  UNL     1       6.094   9.656  10.506  1.00  0.00     0.015 C 
HETATM    2  C2  UNL     1       5.473   8.632  10.605  1.00  0.00    -0.078 C 
HETATM    3  C3  UNL     1       4.726   7.360  10.738  1.00  0.00     0.128 C 
HETATM    4  C4  UNL     1       4.292   7.177  12.192  1.00  0.00     0.052 C 
HETATM    5  C5  UNL     1       2.966   7.928  12.314  1.00  0.00     0.010 C 
HETATM    6  C6  UNL     1       2.436   8.144  10.880  1.00  0.00     0.002 C 
HETATM    7  C7  UNL     1       0.940   7.825  10.687  1.00  0.00    -0.004 C 
HETATM    8  C8  UNL     1       0.042   8.782  11.481  1.00  0.00     0.010 C 
HETATM    9  C9  UNL     1      -1.386   8.270  11.551  1.00  0.00     0.035 C 
HETATM   10  C10 UNL     1      -1.357   7.024  12.388  1.00  0.00    -0.069 C 
HETATM   11  C11 UNL     1      -1.968   7.008  13.586  1.00  0.00     0.030 C 
HETATM   12  C12 UNL     1      -1.870   5.837  14.504  1.00  0.00     0.032 C 
HETATM   13  N1  UNL     1      -2.524   5.686  15.616  1.00  0.00    -0.271 N 
ATOM     14  H1  UNL     1      -2.431   4.872  16.223  1.00  0.00     0.194 HD
HETATM   15  C26 UNL     1      -0.941   4.706  14.111  1.00  0.00     0.060 C 
HETATM   16  C27 UNL     1       0.085   5.117  13.060  1.00  0.00     0.020 C 
HETATM   17  C28 UNL     1      -0.530   5.864  11.846  1.00  0.00    -0.016 C 
HETATM   18  C29 UNL     1      -1.507   4.901  11.115  1.00  0.00     0.020 C 
HETATM   19  C30 UNL     1       0.564   6.313  10.780  1.00  0.00     0.002 C 
HETATM   20  C31 UNL     1       1.803   5.397  10.716  1.00  0.00     0.007 C 
HETATM   21  C32 UNL     1       2.830   5.885   9.698  1.00  0.00     0.014 C 
HETATM   22  C33 UNL     1       3.375   7.327   9.947  1.00  0.00     0.003 C 
HETATM   23  C34 UNL     1       3.503   7.991   8.556  1.00  0.00     0.020 C 
ENDROOT
BRANCH   3  24
HETATM   24  O1  UNL     1       5.597   6.302  10.364  1.00  0.00    -0.377 OA
HETATM   25  H2  UNL     1       5.954   6.526   9.488  1.00  0.00     0.211 HD
ENDBRANCH   3  24
BRANCH  13  26
HETATM   26  O2  UNL     1      -3.371   6.771  15.887  1.00  0.00    -0.271 OA
BRANCH  26  27
HETATM   27  C13 UNL     1      -4.273   6.926  14.795  1.00  0.00     0.303 C 
BRANCH  27  28
HETATM   28  C14 UNL     1      -5.613   6.250  15.075  1.00  0.00     0.244 C 
HETATM   29  O3  UNL     1      -6.010   6.023  16.216  1.00  0.00    -0.271 OA
HETATM   30  N2  UNL     1      -6.356   5.937  13.964  1.00  0.00    -0.343 N 
HETATM   31  H16 UNL     1      -6.035   6.282  13.064  1.00  0.00     0.163 HD
BRANCH  30  32
HETATM   32  C15 UNL     1      -7.696   5.349  14.067  1.00  0.00     0.217 C 
BRANCH  32  33
HETATM   33  C16 UNL     1      -8.599   6.007  13.024  1.00  0.00     0.284 C 
HETATM   34  O4  UNL     1      -8.599   5.719  11.832  1.00  0.00    -0.263 OA
BRANCH  33  35
HETATM   35  O5  UNL     1      -9.413   6.928  13.609  1.00  0.00    -0.320 OA
BRANCH  35  36
HETATM   36  C17 UNL     1     -10.756   6.987  13.110  1.00  0.00     0.174 C 
HETATM   37  C18 UNL     1     -11.735   6.627  14.212  1.00  0.00     0.034 C 
ENDBRANCH  35  36
ENDBRANCH  33  35
ENDBRANCH  32  33
BRANCH  32  38
HETATM   38  C19 UNL     1      -7.679   3.832  13.778  1.00  0.00     0.183 C 
BRANCH  38  39
HETATM   39  O6  UNL     1      -8.950   3.410  13.252  1.00  0.00    -0.388 OA
HETATM   40  H24 UNL     1      -8.784   2.665  12.647  1.00  0.00     0.210 HD
ENDBRANCH  38  39
BRANCH  38  41
HETATM   41  C20 UNL     1      -6.583   3.403  12.821  1.00  0.00    -0.027 A 
HETATM   42  C21 UNL     1      -5.423   4.176  12.657  1.00  0.00     0.010 A 
HETATM   43  C22 UNL     1      -4.417   3.768  11.781  1.00  0.00     0.001 A 
HETATM   44  C23 UNL     1      -4.559   2.587  11.056  1.00  0.00     0.000 A 
HETATM   45  C24 UNL     1      -5.707   1.812  11.207  1.00  0.00     0.001 A 
HETATM   46  C25 UNL     1      -6.715   2.216  12.084  1.00  0.00     0.010 A 
ENDBRANCH  38  41
ENDBRANCH  32  38
ENDBRANCH  30  32
ENDBRANCH  27  28
ENDBRANCH  26  27
ENDBRANCH  13  26
TORSDOF 11
ENDMDL
MODEL 2
REMARK minimizedAffinity -8.36448669
REMARK CNNscore 0.310086787
REMARK CNNaffinity 7.10349846
REMARK  11 active torsions:
REMARK  status: ('A' for Active; 'I' for Inactive)
REMARK    1  A    between atoms: C3_3  and  O1_4 
REMARK    2  A    between atoms: N1_14  and  O2_16 
REMARK    3  A    between atoms: O2_16  and  C13_17 
REMARK    4  A    between atoms: C13_17  and  C14_18 
REMARK       I    between atoms: C14_18  and  N2_20 
REMARK    5  A    between atoms: N2_20  and  C15_21 
REMARK    6  A    between atoms: C15_21  and  C16_22 
REMARK    7  A    between atoms: C15_21  and  C19_27 
REMARK    8  A    between atoms: C16_22  and  O5_24 
REMARK    9  A    between atoms: O5_24  and  C17_25 
REMARK   10  A    between atoms: C19_27  and  O6_28 
REMARK   11  A    between atoms: C19_27  and  C20_29 
ROOT
HETATM    1  C1  UNL     1      -3.968   3.661   9.901  1.00  0.00     0.015 C 
HETATM    2  C2  UNL     1      -3.568   3.848  11.018  1.00  0.00    -0.078 C 
HETATM    3  C3  UNL     1      -3.063   4.057  12.395  1.00  0.00     0.128 C 
HETATM    4  C4  UNL     1      -1.548   4.258  12.355  1.00  0.00     0.052 C 
HETATM    5  C5  UNL     1      -1.346   5.751  12.092  1.00  0.00     0.010 C 
HETATM    6  C6  UNL     1      -2.682   6.452  12.423  1.00  0.00     0.002 C 
HETATM    7  C7  UNL     1      -2.548   7.735  13.267  1.00  0.00    -0.004 C 
HETATM    8  C8  UNL     1      -1.811   8.846  12.509  1.00  0.00     0.010 C 
HETATM    9  C9  UNL     1      -1.398   9.972  13.440  1.00  0.00     0.035 C 
HETATM   10  C10 UNL     1      -0.353   9.408  14.360  1.00  0.00    -0.069 C 
HETATM   11  C11 UNL     1       0.913   9.858  14.290  1.00  0.00     0.030 C 
HETATM   12  C12 UNL     1       2.009   9.251  15.098  1.00  0.00     0.032 C 
HETATM   13  N1  UNL     1       3.225   9.698  15.187  1.00  0.00    -0.271 N 
ATOM     14  H1  UNL     1       3.954   9.256  15.749  1.00  0.00     0.194 HD
HETATM   15  C26 UNL     1       1.688   8.010  15.907  1.00  0.00     0.060 C 
HETATM   16  C27 UNL     1       0.416   7.309  15.441  1.00  0.00     0.020 C 
HETATM   17  C28 UNL     1      -0.794   8.264  15.266  1.00  0.00    -0.016 C 
HETATM   18  C29 UNL     1      -1.145   8.880  16.650  1.00  0.00     0.020 C 
HETATM   19  C30 UNL     1      -2.100   7.516  14.746  1.00  0.00     0.002 C 
HETATM   20  C31 UNL     1      -2.199   6.038  15.175  1.00  0.00     0.007 C 
HETATM   21  C32 UNL     1      -3.454   5.362  14.631  1.00  0.00     0.014 C 
HETATM   22  C33 UNL     1      -3.587   5.366  13.075  1.00  0.00     0.003 C 
HETATM   23  C34 UNL     1      -5.081   5.621  12.766  1.00  0.00     0.020 C 
ENDROOT
BRANCH   3  24
HETATM   24  O1  UNL     1      -3.370   2.895  13.153  1.00  0.00    -0.377 OA
HETATM   25  H2  UNL     1      -4.321   2.728  13.040  1.00  0.00     0.211 HD
ENDBRANCH   3  24
BRANCH  13  26
HETATM   26  O2  UNL     1       3.423  10.857  14.422  1.00  0.00    -0.271 OA
BRANCH  26  27
HETATM   27  C13 UNL     1       4.777  10.884  13.980  1.00  0.00     0.303 C 
BRANCH  27  28
HETATM   28  C14 UNL     1       4.916  10.337  12.562  1.00  0.00     0.244 C 
HETATM   29  O3  UNL     1       5.103  11.068  11.591  1.00  0.00    -0.271 OA
HETATM   30  N2  UNL     1       4.844   8.971  12.449  1.00  0.00    -0.343 N 
HETATM   31  H16 UNL     1       4.832   8.423  13.303  1.00  0.00     0.163 HD
BRANCH  30  32
HETATM   32  C15 UNL     1       5.030   8.288  11.163  1.00  0.00     0.217 C 
BRANCH  32  33
HETATM   33  C16 UNL     1       6.406   7.624  11.159  1.00  0.00     0.284 C 
HETATM   34  O4  UNL     1       6.670   6.587  10.558  1.00  0.00    -0.263 OA
BRANCH  33  35
HETATM   35  O5  UNL     1       7.293   8.357  11.887  1.00  0.00    -0.320 OA
BRANCH  35  36
HETATM   36  C17 UNL     1       8.063   7.632  12.856  1.00  0.00     0.174 C 
HETATM   37  C18 UNL     1       7.239   7.405  14.109  1.00  0.00     0.034 C 
ENDBRANCH  35  36
ENDBRANCH  33  35
ENDBRANCH  32  33
BRANCH  32  38
HETATM   38  C19 UNL     1       3.976   7.179  10.948  1.00  0.00     0.183 C 
BRANCH  38  39
HETATM   39  O6  UNL     1       3.451   6.739  12.213  1.00  0.00    -0.388 OA
HETATM   40  H24 UNL     1       2.528   6.464  12.068  1.00  0.00     0.210 HD
ENDBRANCH  38  39
BRANCH  38  41
HETATM   41  C20 UNL     1       2.824   7.593  10.054  1.00  0.00    -0.027 A 
HETATM   42  C21 UNL     1       2.994   7.712   8.666  1.00  0.00     0.010 A 
HETATM   43  C22 UNL     1       1.925   8.085   7.850  1.00  0.00     0.001 A 
HETATM   44  C23 UNL     1       0.677   8.346   8.411  1.00  0.00     0.000 A 
HETATM   45  C24 UNL     1       0.496   8.235   9.788  1.00  0.00     0.001 A 
HETATM   46  C25 UNL     1       1.562   7.861  10.606  1.00  0.00     0.010 A 
ENDBRANCH  38  41
ENDBRANCH  32  38
ENDBRANCH  30  32
ENDBRANCH  27  28
ENDBRANCH  26  27
ENDBRANCH  13  26
TORSDOF 11
ENDMDL
MODEL 3
REMARK minimizedAffinity -9.8192091
REMARK CNNscore 0.300155401
REMARK CNNaffinity 7.21603394
REMARK  11 active torsions:
REMARK  status: ('A' for Active; 'I' for Inactive)
REMARK    1  A    between atoms: C3_3  and  O1_4 
REMARK    2  A    between atoms: N1_14  and  O2_16 
REMARK    3  A    between atoms: O2_16  and  C13_17 
REMARK    4  A    between atoms: C13_17  and  C14_18 
REMARK       I    between atoms: C14_18  and  N2_20 
REMARK    5  A    between atoms: N2_20  and  C15_21 
REMARK    6  A    between atoms: C15_21  and  C16_22 
REMARK    7  A    between atoms: C15_21  and  C19_27 
REMARK    8  A    between atoms: C16_22  and  O5_24 
REMARK    9  A    between atoms: O5_24  and  C17_25 
REMARK   10  A    between atoms: C19_27  and  O6_28 
REMARK   11  A    between atoms: C19_27  and  C20_29 
ROOT
HETATM    1  C1  UNL     1       1.944   6.494   6.193  1.00  0.00     0.015 C 
HETATM    2  C2  UNL     1       2.111   7.105   7.213  1.00  0.00    -0.078 C 
HETATM    3  C3  UNL     1       2.315   7.880   8.459  1.00  0.00     0.128 C 
HETATM    4  C4  UNL     1       0.981   8.476   8.909  1.00  0.00     0.052 C 
HETATM    5  C5  UNL     1       0.310   7.382   9.740  1.00  0.00     0.010 C 
HETATM    6  C6  UNL     1       1.412   6.373  10.131  1.00  0.00     0.002 C 
HETATM    7  C7  UNL     1       1.393   5.934  11.608  1.00  0.00    -0.004 C 
HETATM    8  C8  UNL     1       0.127   5.140  11.955  1.00  0.00     0.010 C 
HETATM    9  C9  UNL     1      -0.041   4.996  13.458  1.00  0.00     0.035 C 
HETATM   10  C10 UNL     1      -0.320   6.371  13.993  1.00  0.00    -0.069 C 
HETATM   11  C11 UNL     1      -1.523   6.650  14.526  1.00  0.00     0.030 C 
HETATM   12  C12 UNL     1      -1.889   8.028  14.965  1.00  0.00     0.032 C 
HETATM   13  N1  UNL     1      -2.972   8.361  15.599  1.00  0.00    -0.271 N 
ATOM     14  H1  UNL     1      -3.193   9.316  15.883  1.00  0.00     0.194 HD
HETATM   15  C26 UNL     1      -0.914   9.148  14.665  1.00  0.00     0.060 C 
HETATM   16  C27 UNL     1       0.095   8.784  13.579  1.00  0.00     0.020 C 
HETATM   17  C28 UNL     1       0.779   7.409  13.799  1.00  0.00    -0.016 C 
HETATM   18  C29 UNL     1       1.598   7.468  15.120  1.00  0.00     0.020 C 
HETATM   19  C30 UNL     1       1.800   7.036  12.635  1.00  0.00     0.002 C 
HETATM   20  C31 UNL     1       2.463   8.253  11.957  1.00  0.00     0.007 C 
HETATM   21  C32 UNL     1       3.413   7.841  10.836  1.00  0.00     0.014 C 
HETATM   22  C33 UNL     1       2.758   7.013   9.685  1.00  0.00     0.003 C 
HETATM   23  C34 UNL     1       3.789   5.931   9.286  1.00  0.00     0.020 C 
ENDROOT
BRANCH   3  24
HETATM   24  O1  UNL     1       3.233   8.926   8.177  1.00  0.00    -0.377 OA
HETATM   25  H2  UNL     1       4.014   8.514   7.769  1.00  0.00     0.211 HD
ENDBRANCH   3  24
BRANCH  13  26
HETATM   26  O2  UNL     1      -3.803   7.258  15.849  1.00  0.00    -0.271 OA
BRANCH  26  27
HETATM   27  C13 UNL     1      -3.895   6.481  14.659  1.00  0.00     0.303 C 
BRANCH  27  28
HETATM   28  C14 UNL     1      -5.293   6.547  14.051  1.00  0.00     0.244 C 
HETATM   29  O3  UNL     1      -5.693   7.528  13.428  1.00  0.00    -0.271 OA
HETATM   30  N2  UNL     1      -6.064   5.425  14.226  1.00  0.00    -0.343 N 
HETATM   31  H16 UNL     1      -5.622   4.602  14.624  1.00  0.00     0.163 HD
BRANCH  30  32
HETATM   32  C15 UNL     1      -7.405   5.305  13.641  1.00  0.00     0.217 C 
BRANCH  32  33
HETATM   33  C16 UNL     1      -7.551   3.908  13.041  1.00  0.00     0.284 C 
HETATM   34  O4  UNL     1      -8.627   3.359  12.824  1.00  0.00    -0.263 OA
BRANCH  33  35
HETATM   35  O5  UNL     1      -6.330   3.378  12.758  1.00  0.00    -0.320 OA
BRANCH  35  36
HETATM   36  C17 UNL     1      -6.130   2.945  11.405  1.00  0.00     0.174 C 
HETATM   37  C18 UNL     1      -5.694   1.492  11.385  1.00  0.00     0.034 C 
ENDBRANCH  35  36
ENDBRANCH  33  35
ENDBRANCH  32  33
BRANCH  32  38
HETATM   38  C19 UNL     1      -8.510   5.473  14.707  1.00  0.00     0.183 C 
BRANCH  38  39
HETATM   39  O6  UNL     1      -7.988   5.185  16.016  1.00  0.00    -0.388 OA
HETATM   40  H24 UNL     1      -8.472   5.739  16.654  1.00  0.00     0.210 HD
ENDBRANCH  38  39
BRANCH  38  41
HETATM   41  C20 UNL     1      -9.143   6.851  14.722  1.00  0.00    -0.027 A 
HETATM   42  C21 UNL     1     -10.360   7.094  14.066  1.00  0.00     0.010 A 
HETATM   43  C22 UNL     1     -10.939   8.363  14.092  1.00  0.00     0.001 A 
HETATM   44  C23 UNL     1     -10.309   9.403  14.772  1.00  0.00     0.000 A 
HETATM   45  C24 UNL     1      -9.100   9.177  15.424  1.00  0.00     0.001 A 
HETATM   46  C25 UNL     1      -8.518   7.908  15.400  1.00  0.00     0.010 A 
ENDBRANCH  38  41
ENDBRANCH  32  38
ENDBRANCH  30  32
ENDBRANCH  27  28
ENDBRANCH  26  27
ENDBRANCH  13  26
TORSDOF 11
ENDMDL
MODEL 4
REMARK minimizedAffinity -7.08667612
REMARK CNNscore 0.296844989
REMARK CNNaffinity 6.07933378
REMARK  11 active torsions:
REMARK  status: ('A' for Active; 'I' for Inactive)
REMARK    1  A    between atoms: C3_3  and  O1_4 
REMARK    2  A    between atoms: N1_14  and  O2_16 
REMARK    3  A    between atoms: O2_16  and  C13_17 
REMARK    4  A    between atoms: C13_17  and  C14_18 
REMARK       I    between atoms: C14_18  and  N2_20 
REMARK    5  A    between atoms: N2_20  and  C15_21 
REMARK    6  A    between atoms: C15_21  and  C16_22 
REMARK    7  A    between atoms: C15_21  and  C19_27 
REMARK    8  A    between atoms: C16_22  and  O5_24 
REMARK    9  A    between atoms: O5_24  and  C17_25 
REMARK   10  A    between atoms: C19_27  and  O6_28 
REMARK   11  A    between atoms: C19_27  and  C20_29 
ROOT
HETATM    1  C1  UNL     1       0.144   8.203  10.665  1.00  0.00     0.015 C 
HETATM    2  C2  UNL     1      -0.220   8.040  11.798  1.00  0.00    -0.078 C 
HETATM    3  C3  UNL     1      -0.653   7.821  13.198  1.00  0.00     0.128 C 
HETATM    4  C4  UNL     1       0.418   8.354  14.149  1.00  0.00     0.052 C 
HETATM    5  C5  UNL     1       0.102   9.840  14.320  1.00  0.00     0.010 C 
HETATM    6  C6  UNL     1      -1.355  10.048  13.851  1.00  0.00     0.002 C 
HETATM    7  C7  UNL     1      -2.220  10.914  14.789  1.00  0.00    -0.004 C 
HETATM    8  C8  UNL     1      -1.720  12.363  14.855  1.00  0.00     0.010 C 
HETATM    9  C9  UNL     1      -2.359  13.116  16.009  1.00  0.00     0.035 C 
HETATM   10  C10 UNL     1      -1.834  12.496  17.272  1.00  0.00    -0.069 C 
HETATM   11  C11 UNL     1      -1.033  13.208  18.085  1.00  0.00     0.030 C 
HETATM   12  C12 UNL     1      -0.394  12.602  19.287  1.00  0.00     0.032 C 
HETATM   13  N1  UNL     1       0.287  13.242  20.190  1.00  0.00    -0.271 N 
ATOM     14  H1  UNL     1       0.715  12.795  21.002  1.00  0.00     0.194 HD
HETATM   15  C26 UNL     1      -0.555  11.110  19.499  1.00  0.00     0.060 C 
HETATM   16  C27 UNL     1      -0.977  10.372  18.232  1.00  0.00     0.020 C 
HETATM   17  C28 UNL     1      -2.176  11.027  17.498  1.00  0.00    -0.016 C 
HETATM   18  C29 UNL     1      -3.417  10.981  18.434  1.00  0.00     0.020 C 
HETATM   19  C30 UNL     1      -2.574  10.260  16.161  1.00  0.00     0.002 C 
HETATM   20  C31 UNL     1      -2.274   8.747  16.183  1.00  0.00     0.007 C 
HETATM   21  C32 UNL     1      -2.651   8.064  14.872  1.00  0.00     0.014 C 
HETATM   22  C33 UNL     1      -1.933   8.626  13.603  1.00  0.00     0.003 C 
HETATM   23  C34 UNL     1      -2.990   8.638  12.474  1.00  0.00     0.020 C 
ENDROOT
BRANCH   3  24
HETATM   24  O1  UNL     1      -0.810   6.423  13.392  1.00  0.00    -0.377 OA
HETATM   25  H2  UNL     1      -1.393   6.103  12.684  1.00  0.00     0.211 HD
ENDBRANCH   3  24
BRANCH  13  26
HETATM   26  O2  UNL     1       0.367  14.616  19.921  1.00  0.00    -0.271 OA
BRANCH  26  27
HETATM   27  C13 UNL     1       1.562  15.124  20.507  1.00  0.00     0.303 C 
BRANCH  27  28
HETATM   28  C14 UNL     1       2.698  14.108  20.437  1.00  0.00     0.244 C 
HETATM   29  O3  UNL     1       3.109  13.653  19.372  1.00  0.00    -0.271 OA
HETATM   30  N2  UNL     1       3.248  13.758  21.645  1.00  0.00    -0.343 N 
HETATM   31  H16 UNL     1       2.959  14.278  22.468  1.00  0.00     0.163 HD
BRANCH  30  32
HETATM   32  C15 UNL     1       4.395  12.847  21.741  1.00  0.00     0.217 C 
BRANCH  32  33
HETATM   33  C16 UNL     1       3.961  11.465  21.256  1.00  0.00     0.284 C 
HETATM   34  O4  UNL     1       4.513  10.846  20.351  1.00  0.00    -0.263 OA
BRANCH  33  35
HETATM   35  O5  UNL     1       2.902  11.013  21.983  1.00  0.00    -0.320 OA
BRANCH  35  36
HETATM   36  C17 UNL     1       2.248   9.841  21.480  1.00  0.00     0.174 C 
HETATM   37  C18 UNL     1       2.449   8.683  22.439  1.00  0.00     0.034 C 
ENDBRANCH  35  36
ENDBRANCH  33  35
ENDBRANCH  32  33
BRANCH  32  38
HETATM   38  C19 UNL     1       5.567  13.308  20.847  1.00  0.00     0.183 C 
BRANCH  38  39
HETATM   39  O6  UNL     1       5.538  14.738  20.685  1.00  0.00    -0.388 OA
HETATM   40  H24 UNL     1       6.458  15.041  20.584  1.00  0.00     0.210 HD
ENDBRANCH  38  39
BRANCH  38  41
HETATM   41  C20 UNL     1       6.932  12.900  21.367  1.00  0.00    -0.027 A 
HETATM   42  C21 UNL     1       7.957  12.521  20.486  1.00  0.00     0.010 A 
HETATM   43  C22 UNL     1       9.212  12.156  20.974  1.00  0.00     0.001 A 
HETATM   44  C23 UNL     1       9.457  12.162  22.345  1.00  0.00     0.000 A 
HETATM   45  C24 UNL     1       8.447  12.533  23.230  1.00  0.00     0.001 A 
HETATM   46  C25 UNL     1       7.191  12.900  22.746  1.00  0.00     0.010 A 
ENDBRANCH  38  41
ENDBRANCH  32  38
ENDBRANCH  30  32
ENDBRANCH  27  28
ENDBRANCH  26  27
ENDBRANCH  13  26
TORSDOF 11
ENDMDL
MODEL 5
REMARK minimizedAffinity -7.14332056
REMARK CNNscore 0.292324126
REMARK CNNaffinity 6.5843811
REMARK  11 active torsions:
REMARK  status: ('A' for Active; 'I' for Inactive)
REMARK    1  A    between atoms: C3_3  and  O1_4 
REMARK    2  A    between atoms: N1_14  and  O2_16 
REMARK    3  A    between atoms: O2_16  and  C13_17 
REMARK    4  A    between atoms: C13_17  and  C14_18 
REMARK       I    between atoms: C14_18  and  N2_20 
REMARK    5  A    between atoms: N2_20  and  C15_21 
REMARK    6  A    between atoms: C15_21  and  C16_22 
REMARK    7  A    between atoms: C15_21  and  C19_27 
REMARK    8  A    between atoms: C16_22  and  O5_24 
REMARK    9  A    between atoms: O5_24  and  C17_25 
REMARK   10  A    between atoms: C19_27  and  O6_28 
REMARK   11  A    between atoms: C19_27  and  C20_29 
ROOT
HETATM    1  C1  UNL     1      -1.540  18.724  14.582  1.00  0.00     0.015 C 
HETATM    2  C2  UNL     1      -2.160  17.702  14.462  1.00  0.00    -0.078 C 
HETATM    3  C3  UNL     1      -2.926  16.445  14.290  1.00  0.00     0.128 C 
HETATM    4  C4  UNL     1      -2.030  15.390  13.640  1.00  0.00     0.052 C 
HETATM    5  C5  UNL     1      -1.277  14.733  14.797  1.00  0.00     0.010 C 
HETATM    6  C6  UNL     1      -2.045  15.080  16.091  1.00  0.00     0.002 C 
HETATM    7  C7  UNL     1      -2.269  13.894  17.049  1.00  0.00    -0.004 C 
HETATM    8  C8  UNL     1      -0.949  13.362  17.622  1.00  0.00     0.010 C 
HETATM    9  C9  UNL     1      -1.140  12.013  18.293  1.00  0.00     0.035 C 
HETATM   10  C10 UNL     1      -1.480  11.035  17.205  1.00  0.00    -0.069 C 
HETATM   11  C11 UNL     1      -0.620  10.047  16.899  1.00  0.00     0.030 C 
HETATM   12  C12 UNL     1      -0.858   9.124  15.753  1.00  0.00     0.032 C 
HETATM   13  N1  UNL     1      -0.151   8.074  15.465  1.00  0.00    -0.271 N 
ATOM     14  H1  UNL     1      -0.339   7.463  14.669  1.00  0.00     0.194 HD
HETATM   15  C26 UNL     1      -2.034   9.414  14.843  1.00  0.00     0.060 C 
HETATM   16  C27 UNL     1      -2.546  10.846  14.970  1.00  0.00     0.020 C 
HETATM   17  C28 UNL     1      -2.770  11.301  16.436  1.00  0.00    -0.016 C 
HETATM   18  C29 UNL     1      -3.877  10.410  17.068  1.00  0.00     0.020 C 
HETATM   19  C30 UNL     1      -3.270  12.809  16.544  1.00  0.00     0.002 C 
HETATM   20  C31 UNL     1      -4.096  13.292  15.334  1.00  0.00     0.007 C 
HETATM   21  C32 UNL     1      -4.529  14.749  15.477  1.00  0.00     0.014 C 
HETATM   22  C33 UNL     1      -3.361  15.773  15.636  1.00  0.00     0.003 C 
HETATM   23  C34 UNL     1      -3.835  16.816  16.675  1.00  0.00     0.020 C 
ENDROOT
BRANCH   3  24
HETATM   24  O1  UNL     1      -4.031  16.720  13.442  1.00  0.00    -0.377 OA
HETATM   25  H2  UNL     1      -4.496  17.484  13.823  1.00  0.00     0.211 HD
ENDBRANCH   3  24
BRANCH  13  26
HETATM   26  O2  UNL     1       0.902   7.875  16.371  1.00  0.00    -0.271 OA
BRANCH  26  27
HETATM   27  C13 UNL     1       2.131   7.905  15.652  1.00  0.00     0.303 C 
BRANCH  27  28
HETATM   28  C14 UNL     1       1.905   7.783  14.148  1.00  0.00     0.244 C 
HETATM   29  O3  UNL     1       1.653   8.756  13.439  1.00  0.00    -0.271 OA
HETATM   30  N2  UNL     1       2.031   6.515  13.636  1.00  0.00    -0.343 N 
HETATM   31  H16 UNL     1       2.381   5.787  14.250  1.00  0.00     0.163 HD
BRANCH  30  32
HETATM   32  C15 UNL     1       1.914   6.244  12.198  1.00  0.00     0.217 C 
BRANCH  32  33
HETATM   33  C16 UNL     1       0.469   5.851  11.893  1.00  0.00     0.284 C 
HETATM   34  O4  UNL     1       0.142   5.032  11.040  1.00  0.00    -0.263 OA
BRANCH  33  35
HETATM   35  O5  UNL     1      -0.391   6.514  12.714  1.00  0.00    -0.320 OA
BRANCH  35  36
HETATM   36  C17 UNL     1      -1.291   5.696  13.474  1.00  0.00     0.174 C 
HETATM   37  C18 UNL     1      -2.652   5.664  12.806  1.00  0.00     0.034 C 
ENDBRANCH  35  36
ENDBRANCH  33  35
ENDBRANCH  32  33
BRANCH  32  38
HETATM   38  C19 UNL     1       2.247   7.492  11.352  1.00  0.00     0.183 C 
BRANCH  38  39
HETATM   39  O6  UNL     1       3.578   7.953  11.646  1.00  0.00    -0.388 OA
HETATM   40  H24 UNL     1       3.936   8.355  10.834  1.00  0.00     0.210 HD
ENDBRANCH  38  39
BRANCH  38  41
HETATM   41  C20 UNL     1       2.122   7.271   9.857  1.00  0.00    -0.027 A 
HETATM   42  C21 UNL     1       2.834   6.244   9.217  1.00  0.00     0.010 A 
HETATM   43  C22 UNL     1       2.706   6.043   7.842  1.00  0.00     0.001 A 
HETATM   44  C23 UNL     1       1.869   6.866   7.091  1.00  0.00     0.000 A 
HETATM   45  C24 UNL     1       1.160   7.890   7.714  1.00  0.00     0.001 A 
HETATM   46  C25 UNL     1       1.285   8.094   9.089  1.00  0.00     0.010 A 
ENDBRANCH  38  41
ENDBRANCH  32  38
ENDBRANCH  30  32
ENDBRANCH  27  28
ENDBRANCH  26  27
ENDBRANCH  13  26
TORSDOF 11
ENDMDL
MODEL 6
REMARK minimizedAffinity -9.42096806
REMARK CNNscore 0.261591524
REMARK CNNaffinity 7.11637688
REMARK  11 active torsions:
REMARK  status: ('A' for Active; 'I' for Inactive)
REMARK    1  A    between atoms: C3_3  and  O1_4 
REMARK    2  A    between atoms: N1_14  and  O2_16 
REMARK    3  A    between atoms: O2_16  and  C13_17 
REMARK    4  A    between atoms: C13_17  and  C14_18 
REMARK       I    between atoms: C14_18  and  N2_20 
REMARK    5  A    between atoms: N2_20  and  C15_21 
REMARK    6  A    between atoms: C15_21  and  C16_22 
REMARK    7  A    between atoms: C15_21  and  C19_27 
REMARK    8  A    between atoms: C16_22  and  O5_24 
REMARK    9  A    between atoms: O5_24  and  C17_25 
REMARK   10  A    between atoms: C19_27  and  O6_28 
REMARK   11  A    between atoms: C19_27  and  C20_29 
ROOT
HETATM    1  C1  UNL     1       6.083   9.779  10.568  1.00  0.00     0.015 C 
HETATM    2  C2  UNL     1       5.469   8.750  10.651  1.00  0.00    -0.078 C 
HETATM    3  C3  UNL     1       4.731   7.470  10.767  1.00  0.00     0.128 C 
HETATM    4  C4  UNL     1       4.296   7.265  12.218  1.00  0.00     0.052 C 
HETATM    5  C5  UNL     1       2.965   8.005  12.349  1.00  0.00     0.010 C 
HETATM    6  C6  UNL     1       2.435   8.238  10.917  1.00  0.00     0.002 C 
HETATM    7  C7  UNL     1       0.941   7.911  10.718  1.00  0.00    -0.004 C 
HETATM    8  C8  UNL     1       0.036   8.850  11.525  1.00  0.00     0.010 C 
HETATM    9  C9  UNL     1      -1.389   8.329  11.586  1.00  0.00     0.035 C 
HETATM   10  C10 UNL     1      -1.352   7.071  12.406  1.00  0.00    -0.069 C 
HETATM   11  C11 UNL     1      -1.963   7.035  13.603  1.00  0.00     0.030 C 
HETATM   12  C12 UNL     1      -1.859   5.852  14.505  1.00  0.00     0.032 C 
HETATM   13  N1  UNL     1      -2.512   5.681  15.614  1.00  0.00    -0.271 N 
ATOM     14  H1  UNL     1      -2.415   4.859  16.210  1.00  0.00     0.194 HD
HETATM   15  C26 UNL     1      -0.921   4.733  14.098  1.00  0.00     0.060 C 
HETATM   16  C27 UNL     1       0.103   5.165  13.053  1.00  0.00     0.020 C 
HETATM   17  C28 UNL     1      -0.516   5.924  11.849  1.00  0.00    -0.016 C 
HETATM   18  C29 UNL     1      -1.486   4.965  11.104  1.00  0.00     0.020 C 
HETATM   19  C30 UNL     1       0.576   6.395  10.791  1.00  0.00     0.002 C 
HETATM   20  C31 UNL     1       1.821   5.488  10.715  1.00  0.00     0.007 C 
HETATM   21  C32 UNL     1       2.845   5.997   9.704  1.00  0.00     0.014 C 
HETATM   22  C33 UNL     1       3.381   7.439   9.974  1.00  0.00     0.003 C 
HETATM   23  C34 UNL     1       3.505   8.123   8.593  1.00  0.00     0.020 C 
ENDROOT
BRANCH   3  24
HETATM   24  O1  UNL     1       5.609   6.424  10.379  1.00  0.00    -0.377 OA
HETATM   25  H2  UNL     1       5.965   6.663   9.507  1.00  0.00     0.211 HD
ENDBRANCH   3  24
BRANCH  13  26
HETATM   26  O2  UNL     1      -3.367   6.757  15.899  1.00  0.00    -0.271 OA
BRANCH  26  27
HETATM   27  C13 UNL     1      -3.637   7.455  14.687  1.00  0.00     0.303 C 
BRANCH  27  28
HETATM   28  C14 UNL     1      -5.120   7.408  14.331  1.00  0.00     0.244 C 
HETATM   29  O3  UNL     1      -5.767   8.421  14.074  1.00  0.00    -0.271 OA
HETATM   30  N2  UNL     1      -5.676   6.153  14.291  1.00  0.00    -0.343 N 
HETATM   31  H16 UNL     1      -5.054   5.355  14.372  1.00  0.00     0.163 HD
BRANCH  30  32
HETATM   32  C15 UNL     1      -7.072   5.935  13.896  1.00  0.00     0.217 C 
BRANCH  32  33
HETATM   33  C16 UNL     1      -7.188   4.551  13.258  1.00  0.00     0.284 C 
HETATM   34  O4  UNL     1      -8.251   3.987  13.021  1.00  0.00    -0.263 OA
BRANCH  33  35
HETATM   35  O5  UNL     1      -5.954   4.054  12.969  1.00  0.00    -0.320 OA
BRANCH  35  36
HETATM   36  C17 UNL     1      -5.816   3.417  11.691  1.00  0.00     0.174 C 
HETATM   37  C18 UNL     1      -4.494   2.678  11.620  1.00  0.00     0.034 C 
ENDBRANCH  35  36
ENDBRANCH  33  35
ENDBRANCH  32  33
BRANCH  32  38
HETATM   38  C19 UNL     1      -8.023   5.968  15.113  1.00  0.00     0.183 C 
BRANCH  38  39
HETATM   39  O6  UNL     1      -7.266   6.060  16.333  1.00  0.00    -0.388 OA
HETATM   40  H24 UNL     1      -7.803   6.558  16.975  1.00  0.00     0.210 HD
ENDBRANCH  38  39
BRANCH  38  41
HETATM   41  C20 UNL     1      -9.031   7.100  15.073  1.00  0.00    -0.027 A 
HETATM   42  C21 UNL     1      -8.742   8.345  15.654  1.00  0.00     0.010 A 
HETATM   43  C22 UNL     1      -9.673   9.383  15.604  1.00  0.00     0.001 A 
HETATM   44  C23 UNL     1     -10.903   9.189  14.978  1.00  0.00     0.000 A 
HETATM   45  C24 UNL     1     -11.203   7.958  14.401  1.00  0.00     0.001 A 
HETATM   46  C25 UNL     1     -10.273   6.917  14.447  1.00  0.00     0.010 A 
ENDBRANCH  38  41
ENDBRANCH  32  38
ENDBRANCH  30  32
ENDBRANCH  27  28
ENDBRANCH  26  27
ENDBRANCH  13  26
TORSDOF 11
ENDMDL
MODEL 7
REMARK minimizedAffinity -10.4131584
REMARK CNNscore 0.257958442
REMARK CNNaffinity 7.28363419
REMARK  11 active torsions:
REMARK  status: ('A' for Active; 'I' for Inactive)
REMARK    1  A    between atoms: C3_3  and  O1_4 
REMARK    2  A    between atoms: N1_14  and  O2_16 
REMARK    3  A    between atoms: O2_16  and  C13_17 
REMARK    4  A    between atoms: C13_17  and  C14_18 
REMARK       I    between atoms: C14_18  and  N2_20 
REMARK    5  A    between atoms: N2_20  and  C15_21 
REMARK    6  A    between atoms: C15_21  and  C16_22 
REMARK    7  A    between atoms: C15_21  and  C19_27 
REMARK    8  A    between atoms: C16_22  and  O5_24 
REMARK    9  A    between atoms: O5_24  and  C17_25 
REMARK   10  A    between atoms: C19_27  and  O6_28 
REMARK   11  A    between atoms: C19_27  and  C20_29 
ROOT
HETATM    1  C1  UNL     1       1.909   6.545   6.186  1.00  0.00     0.015 C 
HETATM    2  C2  UNL     1       2.098   7.133   7.217  1.00  0.00    -0.078 C 
HETATM    3  C3  UNL     1       2.330   7.880   8.475  1.00  0.00     0.128 C 
HETATM    4  C4  UNL     1       1.059   8.641   8.855  1.00  0.00     0.052 C 
HETATM    5  C5  UNL     1       0.212   7.642   9.645  1.00  0.00     0.010 C 
HETATM    6  C6  UNL     1       1.155   6.503  10.090  1.00  0.00     0.002 C 
HETATM    7  C7  UNL     1       1.002   6.074  11.562  1.00  0.00    -0.004 C 
HETATM    8  C8  UNL     1      -0.370   5.446  11.837  1.00  0.00     0.010 C 
HETATM    9  C9  UNL     1      -0.636   5.329  13.328  1.00  0.00     0.035 C 
HETATM   10  C10 UNL     1      -0.768   6.730  13.853  1.00  0.00    -0.069 C 
HETATM   11  C11 UNL     1      -1.953   7.160  14.322  1.00  0.00     0.030 C 
HETATM   12  C12 UNL     1      -2.165   8.573  14.746  1.00  0.00     0.032 C 
HETATM   13  N1  UNL     1      -3.230   9.042  15.323  1.00  0.00    -0.271 N 
ATOM     14  H1  UNL     1      -3.345  10.018  15.598  1.00  0.00     0.194 HD
HETATM   15  C26 UNL     1      -1.042   9.561  14.503  1.00  0.00     0.060 C 
HETATM   16  C27 UNL     1      -0.031   9.070  13.472  1.00  0.00     0.020 C 
HETATM   17  C28 UNL     1       0.462   7.620  13.723  1.00  0.00    -0.016 C 
HETATM   18  C29 UNL     1       1.209   7.579  15.086  1.00  0.00     0.020 C 
HETATM   19  C30 UNL     1       1.489   7.119  12.614  1.00  0.00     0.002 C 
HETATM   20  C31 UNL     1       2.336   8.240  11.978  1.00  0.00     0.007 C 
HETATM   21  C32 UNL     1       3.285   7.709  10.907  1.00  0.00     0.014 C 
HETATM   22  C33 UNL     1       2.593   6.967   9.719  1.00  0.00     0.003 C 
HETATM   23  C34 UNL     1       3.500   5.763   9.371  1.00  0.00     0.020 C 
ENDROOT
BRANCH   3  24
HETATM   24  O1  UNL     1       3.387   8.801   8.247  1.00  0.00    -0.377 OA
HETATM   25  H2  UNL     1       4.130   8.293   7.880  1.00  0.00     0.211 HD
ENDBRANCH   3  24
BRANCH  13  26
HETATM   26  O2  UNL     1      -4.206   8.054  15.523  1.00  0.00    -0.271 OA
BRANCH  26  27
HETATM   27  C13 UNL     1      -5.362   8.397  14.765  1.00  0.00     0.303 C 
BRANCH  27  28
HETATM   28  C14 UNL     1      -6.514   7.432  15.032  1.00  0.00     0.244 C 
HETATM   29  O3  UNL     1      -7.162   7.453  16.076  1.00  0.00    -0.271 OA
HETATM   30  N2  UNL     1      -6.796   6.557  14.012  1.00  0.00    -0.343 N 
HETATM   31  H16 UNL     1      -6.318   6.690  13.126  1.00  0.00     0.163 HD
BRANCH  30  32
HETATM   32  C15 UNL     1      -7.919   5.615  14.085  1.00  0.00     0.217 C 
BRANCH  32  33
HETATM   33  C16 UNL     1      -8.911   5.953  12.974  1.00  0.00     0.284 C 
HETATM   34  O4  UNL     1      -8.626   5.987  11.781  1.00  0.00    -0.263 OA
BRANCH  33  35
HETATM   35  O5  UNL     1     -10.150   6.180  13.491  1.00  0.00    -0.320 OA
BRANCH  35  36
HETATM   36  C17 UNL     1     -10.270   7.315  14.360  1.00  0.00     0.174 C 
HETATM   37  C18 UNL     1     -11.730   7.690  14.524  1.00  0.00     0.034 C 
ENDBRANCH  35  36
ENDBRANCH  33  35
ENDBRANCH  32  33
BRANCH  32  38
HETATM   38  C19 UNL     1      -7.457   4.157  13.871  1.00  0.00     0.183 C 
BRANCH  38  39
HETATM   39  O6  UNL     1      -8.532   3.368  13.331  1.00  0.00    -0.388 OA
HETATM   40  H24 UNL     1      -8.136   2.679  12.767  1.00  0.00     0.210 HD
ENDBRANCH  38  39
BRANCH  38  41
HETATM   41  C20 UNL     1      -6.246   4.024  12.967  1.00  0.00    -0.027 A 
HETATM   42  C21 UNL     1      -6.302   3.255  11.794  1.00  0.00     0.010 A 
HETATM   43  C22 UNL     1      -5.186   3.146  10.964  1.00  0.00     0.001 A 
HETATM   44  C23 UNL     1      -4.002   3.800  11.297  1.00  0.00     0.000 A 
HETATM   45  C24 UNL     1      -3.932   4.563  12.460  1.00  0.00     0.001 A 
HETATM   46  C25 UNL     1      -5.047   4.676  13.292  1.00  0.00     0.010 A 
ENDBRANCH  38  41
ENDBRANCH  32  38
ENDBRANCH  30  32
ENDBRANCH  27  28
ENDBRANCH  26  27
ENDBRANCH  13  26
TORSDOF 11
ENDMDL
MODEL 8
REMARK minimizedAffinity -8.72114182
REMARK CNNscore 0.251735747
REMARK CNNaffinity 7.15718699
REMARK  11 active torsions:
REMARK  status: ('A' for Active; 'I' for Inactive)
REMARK    1  A    between atoms: C3_3  and  O1_4 
REMARK    2  A    between atoms: N1_14  and  O2_16 
REMARK    3  A    between atoms: O2_16  and  C13_17 
REMARK    4  A    between atoms: C13_17  and  C14_18 
REMARK       I    between atoms: C14_18  and  N2_20 
REMARK    5  A    between atoms: N2_20  and  C15_21 
REMARK    6  A    between atoms: C15_21  and  C16_22 
REMARK    7  A    between atoms: C15_21  and  C19_27 
REMARK    8  A    between atoms: C16_22  and  O5_24 
REMARK    9  A    between atoms: O5_24  and  C17_25 
REMARK   10  A    between atoms: C19_27  and  O6_28 
REMARK   11  A    between atoms: C19_27  and  C20_29 
ROOT
HETATM    1  C1  UNL     1      -7.702   3.275  13.417  1.00  0.00     0.015 C 
HETATM    2  C2  UNL     1      -7.457   4.203  14.140  1.00  0.00    -0.078 C 
HETATM    3  C3  UNL     1      -7.157   5.332  15.051  1.00  0.00     0.128 C 
HETATM    4  C4  UNL     1      -5.772   5.134  15.666  1.00  0.00     0.052 C 
HETATM    5  C5  UNL     1      -4.792   5.733  14.657  1.00  0.00     0.010 C 
HETATM    6  C6  UNL     1      -5.613   6.644  13.718  1.00  0.00     0.002 C 
HETATM    7  C7  UNL     1      -4.984   8.025  13.444  1.00  0.00    -0.004 C 
HETATM    8  C8  UNL     1      -3.666   7.911  12.667  1.00  0.00     0.010 C 
HETATM    9  C9  UNL     1      -2.898   9.221  12.686  1.00  0.00     0.035 C 
HETATM   10  C10 UNL     1      -2.462   9.445  14.105  1.00  0.00    -0.069 C 
HETATM   11  C11 UNL     1      -1.155   9.409  14.418  1.00  0.00     0.030 C 
HETATM   12  C12 UNL     1      -0.679   9.509  15.827  1.00  0.00     0.032 C 
HETATM   13  N1  UNL     1       0.559   9.608  16.206  1.00  0.00    -0.271 N 
ATOM     14  H1  UNL     1       0.851   9.673  17.182  1.00  0.00     0.194 HD
HETATM   15  C26 UNL     1      -1.722   9.512  16.927  1.00  0.00     0.060 C 
HETATM   16  C27 UNL     1      -3.074   8.977  16.467  1.00  0.00     0.020 C 
HETATM   17  C28 UNL     1      -3.573   9.603  15.137  1.00  0.00    -0.016 C 
HETATM   18  C29 UNL     1      -3.786  11.128  15.357  1.00  0.00     0.020 C 
HETATM   19  C30 UNL     1      -4.968   9.003  14.660  1.00  0.00     0.002 C 
HETATM   20  C31 UNL     1      -5.882   8.526  15.807  1.00  0.00     0.007 C 
HETATM   21  C32 UNL     1      -7.194   7.939  15.295  1.00  0.00     0.014 C 
HETATM   22  C33 UNL     1      -7.041   6.718  14.332  1.00  0.00     0.003 C 
HETATM   23  C34 UNL     1      -8.116   6.892  13.234  1.00  0.00     0.020 C 
ENDROOT
BRANCH   3  24
HETATM   24  O1  UNL     1      -8.138   5.337  16.078  1.00  0.00    -0.377 OA
HETATM   25  H2  UNL     1      -9.006   5.328  15.639  1.00  0.00     0.211 HD
ENDBRANCH   3  24
BRANCH  13  26
HETATM   26  O2  UNL     1       1.448   9.617  15.122  1.00  0.00    -0.271 OA
BRANCH  26  27
HETATM   27  C13 UNL     1       0.815   8.989  14.011  1.00  0.00     0.303 C 
BRANCH  27  28
HETATM   28  C14 UNL     1       1.400   7.606  13.739  1.00  0.00     0.244 C 
HETATM   29  O3  UNL     1       1.977   6.954  14.606  1.00  0.00    -0.271 OA
HETATM   30  N2  UNL     1       1.212   7.129  12.465  1.00  0.00    -0.343 N 
HETATM   31  H16 UNL     1       0.605   7.655  11.845  1.00  0.00     0.163 HD
BRANCH  30  32
HETATM   32  C15 UNL     1       1.653   5.787  12.066  1.00  0.00     0.217 C 
BRANCH  32  33
HETATM   33  C16 UNL     1       0.423   4.963  11.688  1.00  0.00     0.284 C 
HETATM   34  O4  UNL     1       0.462   3.922  11.040  1.00  0.00    -0.263 OA
BRANCH  33  35
HETATM   35  O5  UNL     1      -0.707   5.531  12.193  1.00  0.00    -0.320 OA
BRANCH  35  36
HETATM   36  C17 UNL     1      -1.342   4.823  13.266  1.00  0.00     0.174 C 
HETATM   37  C18 UNL     1      -1.437   5.713  14.490  1.00  0.00     0.034 C 
ENDBRANCH  35  36
ENDBRANCH  33  35
ENDBRANCH  32  33
BRANCH  32  38
HETATM   38  C19 UNL     1       2.581   5.833  10.833  1.00  0.00     0.183 C 
BRANCH  38  39
HETATM   39  O6  UNL     1       2.886   4.499  10.389  1.00  0.00    -0.388 OA
HETATM   40  H24 UNL     1       3.011   4.531   9.424  1.00  0.00     0.210 HD
ENDBRANCH  38  39
BRANCH  38  41
HETATM   41  C20 UNL     1       2.014   6.621   9.668  1.00  0.00    -0.027 A 
HETATM   42  C21 UNL     1       0.986   7.557   9.861  1.00  0.00     0.010 A 
HETATM   43  C22 UNL     1       0.477   8.284   8.784  1.00  0.00     0.001 A 
HETATM   44  C23 UNL     1       0.986   8.082   7.503  1.00  0.00     0.000 A 
HETATM   45  C24 UNL     1       2.004   7.153   7.297  1.00  0.00     0.001 A 
HETATM   46  C25 UNL     1       2.516   6.426   8.372  1.00  0.00     0.010 A 
ENDBRANCH  38  41
ENDBRANCH  32  38
ENDBRANCH  30  32
ENDBRANCH  27  28
ENDBRANCH  26  27
ENDBRANCH  13  26
TORSDOF 11
ENDMDL
MODEL 9
REMARK minimizedAffinity -7.60067892
REMARK CNNscore 0.216295809
REMARK CNNaffinity 5.12251043
REMARK  11 active torsions:
REMARK  status: ('A' for Active; 'I' for Inactive)
REMARK    1  A    between atoms: C3_3  and  O1_4 
REMARK    2  A    between atoms: N1_14  and  O2_16 
REMARK    3  A    between atoms: O2_16  and  C13_17 
REMARK    4  A    between atoms: C13_17  and  C14_18 
REMARK       I    between atoms: C14_18  and  N2_20 
REMARK    5  A    between atoms: N2_20  and  C15_21 
REMARK    6  A    between atoms: C15_21  and  C16_22 
REMARK    7  A    between atoms: C15_21  and  C19_27 
REMARK    8  A    between atoms: C16_22  and  O5_24 
REMARK    9  A    between atoms: O5_24  and  C17_25 
REMARK   10  A    between atoms: C19_27  and  O6_28 
REMARK   11  A    between atoms: C19_27  and  C20_29 
ROOT
HETATM    1  C1  UNL     1      10.881  12.066  20.328  1.00  0.00     0.015 C 
HETATM    2  C2  UNL     1      10.034  12.782  20.791  1.00  0.00    -0.078 C 
HETATM    3  C3  UNL     1       8.999  13.684  21.348  1.00  0.00     0.128 C 
HETATM    4  C4  UNL     1       8.001  14.051  20.250  1.00  0.00     0.052 C 
HETATM    5  C5  UNL     1       6.969  12.923  20.249  1.00  0.00     0.010 C 
HETATM    6  C6  UNL     1       7.114  12.177  21.594  1.00  0.00     0.002 C 
HETATM    7  C7  UNL     1       5.784  11.869  22.309  1.00  0.00    -0.004 C 
HETATM    8  C8  UNL     1       4.921  10.880  21.514  1.00  0.00     0.010 C 
HETATM    9  C9  UNL     1       3.500  10.834  22.047  1.00  0.00     0.035 C 
HETATM   10  C10 UNL     1       2.884  12.171  21.749  1.00  0.00    -0.069 C 
HETATM   11  C11 UNL     1       1.872  12.260  20.868  1.00  0.00     0.030 C 
HETATM   12  C12 UNL     1       1.305  13.575  20.452  1.00  0.00     0.032 C 
HETATM   13  N1  UNL     1       0.255  13.748  19.708  1.00  0.00    -0.271 N 
ATOM     14  H1  UNL     1      -0.106  14.664  19.439  1.00  0.00     0.194 HD
HETATM   15  C26 UNL     1       1.995  14.831  20.944  1.00  0.00     0.060 C 
HETATM   16  C27 UNL     1       3.418  14.576  21.434  1.00  0.00     0.020 C 
HETATM   17  C28 UNL     1       3.534  13.379  22.414  1.00  0.00    -0.016 C 
HETATM   18  C29 UNL     1       2.710  13.702  23.693  1.00  0.00     0.020 C 
HETATM   19  C30 UNL     1       5.032  13.110  22.883  1.00  0.00     0.002 C 
HETATM   20  C31 UNL     1       5.923  14.369  22.918  1.00  0.00     0.007 C 
HETATM   21  C32 UNL     1       7.352  14.053  23.350  1.00  0.00     0.014 C 
HETATM   22  C33 UNL     1       8.103  13.022  22.448  1.00  0.00     0.003 C 
HETATM   23  C34 UNL     1       8.926  12.126  23.404  1.00  0.00     0.020 C 
ENDROOT
BRANCH   3  24
HETATM   24  O1  UNL     1       9.648  14.857  21.815  1.00  0.00    -0.377 OA
HETATM   25  H2  UNL     1      10.363  14.568  22.407  1.00  0.00     0.211 HD
ENDBRANCH   3  24
BRANCH  13  26
HETATM   26  O2  UNL     1      -0.326  12.533  19.316  1.00  0.00    -0.271 OA
BRANCH  26  27
HETATM   27  C13 UNL     1       0.206  12.163  18.048  1.00  0.00     0.303 C 
BRANCH  27  28
HETATM   28  C14 UNL     1      -0.822  12.340  16.934  1.00  0.00     0.244 C 
HETATM   29  O3  UNL     1      -0.793  13.292  16.157  1.00  0.00    -0.271 OA
HETATM   30  N2  UNL     1      -1.765  11.346  16.842  1.00  0.00    -0.343 N 
HETATM   31  H16 UNL     1      -1.644  10.521  17.420  1.00  0.00     0.163 HD
BRANCH  30  32
HETATM   32  C15 UNL     1      -2.778  11.334  15.781  1.00  0.00     0.217 C 
BRANCH  32  33
HETATM   33  C16 UNL     1      -2.650  12.623  14.970  1.00  0.00     0.284 C 
HETATM   34  O4  UNL     1      -1.781  12.825  14.127  1.00  0.00    -0.263 OA
BRANCH  33  35
HETATM   35  O5  UNL     1      -3.645  13.494  15.295  1.00  0.00    -0.320 OA
BRANCH  35  36
HETATM   36  C17 UNL     1      -3.246  14.856  15.503  1.00  0.00     0.174 C 
HETATM   37  C18 UNL     1      -4.057  15.776  14.610  1.00  0.00     0.034 C 
ENDBRANCH  35  36
ENDBRANCH  33  35
ENDBRANCH  32  33
BRANCH  32  38
HETATM   38  C19 UNL     1      -2.575  10.150  14.810  1.00  0.00     0.183 C 
BRANCH  38  39
HETATM   39  O6  UNL     1      -1.525   9.291  15.286  1.00  0.00    -0.388 OA
HETATM   40  H24 UNL     1      -1.735   8.383  15.001  1.00  0.00     0.210 HD
ENDBRANCH  38  39
BRANCH  38  41
HETATM   41  C20 UNL     1      -3.825   9.321  14.584  1.00  0.00    -0.027 A 
HETATM   42  C21 UNL     1      -4.018   8.620  13.383  1.00  0.00     0.010 A 
HETATM   43  C22 UNL     1      -5.167   7.853  13.188  1.00  0.00     0.001 A 
HETATM   44  C23 UNL     1      -6.136   7.780  14.186  1.00  0.00     0.000 A 
HETATM   45  C24 UNL     1      -5.958   8.475  15.380  1.00  0.00     0.001 A 
HETATM   46  C25 UNL     1      -4.809   9.242  15.580  1.00  0.00     0.010 A 
ENDBRANCH  38  41
ENDBRANCH  32  38
ENDBRANCH  30  32
ENDBRANCH  27  28
ENDBRANCH  26  27
ENDBRANCH  13  26
TORSDOF 11
ENDMDL
