MODEL 1
REMARK minimizedAffinity -5.82267714
REMARK  1 active torsions:
REMARK  status: ('A' for Active; 'I' for Inactive)
REMARK    1  A    between atoms: N1_2  and  C2_3 
ROOT
HETATM    1  C2  UNL     1      -0.853  52.834 -26.990  1.00  0.00     0.164 C 
HETATM    2  C3  UNL     1      -0.592  54.101 -27.826  1.00  0.00     0.050 C 
HETATM    3  C4  UNL     1      -0.110  51.570 -27.557  1.00  0.00     0.025 C 
HETATM    4  C5  UNL     1       1.407  51.797 -27.727  1.00  0.00     0.007 C 
HETATM    5  C6  UNL     1       1.930  51.779 -26.289  1.00  0.00     0.006 C 
HETATM    6  C7  UNL     1       0.646  51.601 -25.461  1.00  0.00    -0.004 C 
HETATM    7  C8  UNL     1      -0.120  50.619 -26.356  1.00  0.00     0.012 C 
HETATM    8  C9  UNL     1      -0.260  52.884 -25.495  1.00  0.00    -0.008 C 
HETATM    9  C10 UNL     1       0.513  54.171 -25.144  1.00  0.00     0.018 C 
HETATM   10  C11 UNL     1      -1.328  52.734 -24.376  1.00  0.00     0.018 C 
ENDROOT
BRANCH   1  11
HETATM   11  N1  UNL     1      -2.321  52.617 -26.931  1.00  0.00     0.089 N 
HETATM   12  C1  UNL     1      -2.856  51.486 -27.673  1.00  0.00     0.307 C 
HETATM   13  H4  UNL     1      -2.793  53.466 -27.244  1.00  0.00     0.316 HD
ENDBRANCH   1  11
TORSDOF 1
ENDMDL
MODEL 2
REMARK minimizedAffinity -5.67648792
REMARK  1 active torsions:
REMARK  status: ('A' for Active; 'I' for Inactive)
REMARK    1  A    between atoms: N1_2  and  C2_3 
ROOT
HETATM    1  C2  UNL     1       0.226  53.024 -26.105  1.00  0.00     0.164 C 
HETATM    2  C3  UNL     1      -0.024  54.226 -27.034  1.00  0.00     0.050 C 
HETATM    3  C4  UNL     1      -1.092  52.490 -25.436  1.00  0.00     0.025 C 
HETATM    4  C5  UNL     1      -2.188  52.151 -26.468  1.00  0.00     0.007 C 
HETATM    5  C6  UNL     1      -1.683  50.857 -27.108  1.00  0.00     0.006 C 
HETATM    6  C7  UNL     1      -0.330  50.636 -26.410  1.00  0.00    -0.004 C 
HETATM    7  C8  UNL     1      -0.683  51.083 -24.986  1.00  0.00     0.012 C 
HETATM    8  C9  UNL     1       0.742  51.695 -26.853  1.00  0.00    -0.008 C 
HETATM    9  C10 UNL     1       0.863  51.816 -28.385  1.00  0.00     0.018 C 
HETATM   10  C11 UNL     1       2.130  51.187 -26.374  1.00  0.00     0.018 C 
ENDROOT
BRANCH   1  11
HETATM   11  N1  UNL     1       1.224  53.432 -25.084  1.00  0.00     0.089 N 
HETATM   12  C1  UNL     1       0.755  54.277 -23.997  1.00  0.00     0.307 C 
HETATM   13  H4  UNL     1       2.000  53.902 -25.550  1.00  0.00     0.316 HD
ENDBRANCH   1  11
TORSDOF 1
ENDMDL
MODEL 3
REMARK minimizedAffinity -5.27724981
REMARK  1 active torsions:
REMARK  status: ('A' for Active; 'I' for Inactive)
REMARK    1  A    between atoms: N1_2  and  C2_3 
ROOT
HETATM    1  C2  UNL     1      -1.077  52.096 -25.070  1.00  0.00     0.164 C 
HETATM    2  C3  UNL     1      -0.873  51.037 -23.971  1.00  0.00     0.050 C 
HETATM    3  C4  UNL     1       0.246  52.872 -25.419  1.00  0.00     0.025 C 
HETATM    4  C5  UNL     1       1.408  51.927 -25.793  1.00  0.00     0.007 C 
HETATM    5  C6  UNL     1       1.025  51.432 -27.189  1.00  0.00     0.006 C 
HETATM    6  C7  UNL     1      -0.337  52.104 -27.428  1.00  0.00    -0.004 C 
HETATM    7  C8  UNL     1      -0.080  53.474 -26.789  1.00  0.00     0.012 C 
HETATM    8  C9  UNL     1      -1.462  51.498 -26.514  1.00  0.00    -0.008 C 
HETATM    9  C10 UNL     1      -1.525  49.959 -26.585  1.00  0.00     0.018 C 
HETATM   10  C11 UNL     1      -2.830  51.987 -27.066  1.00  0.00     0.018 C 
ENDROOT
BRANCH   1  11
HETATM   11  N1  UNL     1      -2.145  53.025 -24.621  1.00  0.00     0.089 N 
HETATM   12  C1  UNL     1      -2.959  52.605 -23.490  1.00  0.00     0.307 C 
HETATM   13  H4  UNL     1      -2.760  53.226 -25.409  1.00  0.00     0.316 HD
ENDBRANCH   1  11
TORSDOF 1
ENDMDL
MODEL 4
REMARK minimizedAffinity -5.23003435
REMARK  1 active torsions:
REMARK  status: ('A' for Active; 'I' for Inactive)
REMARK    1  A    between atoms: N1_2  and  C2_3 
ROOT
HETATM    1  C2  UNL     1      -1.367  52.537 -25.750  1.00  0.00     0.164 C 
HETATM    2  C3  UNL     1      -2.471  52.288 -26.795  1.00  0.00     0.050 C 
HETATM    3  C4  UNL     1      -0.610  51.221 -25.343  1.00  0.00     0.025 C 
HETATM    4  C5  UNL     1      -0.036  50.464 -26.560  1.00  0.00     0.007 C 
HETATM    5  C6  UNL     1       1.156  51.326 -26.981  1.00  0.00     0.006 C 
HETATM    6  C7  UNL     1       1.091  52.504 -25.995  1.00  0.00    -0.004 C 
HETATM    7  C8  UNL     1       0.677  51.765 -24.716  1.00  0.00     0.012 C 
HETATM    8  C9  UNL     1      -0.141  53.439 -26.272  1.00  0.00    -0.008 C 
HETATM    9  C10 UNL     1      -0.237  53.878 -27.747  1.00  0.00     0.018 C 
HETATM   10  C11 UNL     1       0.076  54.752 -25.470  1.00  0.00     0.018 C 
ENDROOT
BRANCH   1  11
HETATM   11  N1  UNL     1      -1.991  53.188 -24.570  1.00  0.00     0.089 N 
HETATM   12  C1  UNL     1      -2.915  52.390 -23.780  1.00  0.00     0.307 C 
HETATM   13  H4  UNL     1      -2.471  54.035 -24.876  1.00  0.00     0.316 HD
ENDBRANCH   1  11
TORSDOF 1
ENDMDL
MODEL 5
REMARK minimizedAffinity -5.08364439
REMARK  1 active torsions:
REMARK  status: ('A' for Active; 'I' for Inactive)
REMARK    1  A    between atoms: N1_2  and  C2_3 
ROOT
HETATM    1  C2  UNL     1      -1.748  50.972 -26.458  1.00  0.00     0.164 C 
HETATM    2  C3  UNL     1      -2.971  51.641 -27.111  1.00  0.00     0.050 C 
HETATM    3  C4  UNL     1      -0.413  51.255 -27.239  1.00  0.00     0.025 C 
HETATM    4  C5  UNL     1      -0.153  52.762 -27.446  1.00  0.00     0.007 C 
HETATM    5  C6  UNL     1       0.257  53.244 -26.053  1.00  0.00     0.006 C 
HETATM    6  C7  UNL     1       0.129  51.972 -25.199  1.00  0.00    -0.004 C 
HETATM    7  C8  UNL     1       0.655  50.926 -26.191  1.00  0.00     0.012 C 
HETATM    8  C9  UNL     1      -1.369  51.542 -25.001  1.00  0.00    -0.008 C 
HETATM    9  C10 UNL     1      -2.260  52.697 -24.503  1.00  0.00     0.018 C 
HETATM   10  C11 UNL     1      -1.407  50.481 -23.867  1.00  0.00     0.018 C 
ENDROOT
BRANCH   1  11
HETATM   11  N1  UNL     1      -2.018  49.515 -26.361  1.00  0.00     0.089 N 
HETATM   12  C1  UNL     1      -3.232  49.020 -26.992  1.00  0.00     0.307 C 
HETATM   13  H4  UNL     1      -2.029  49.246 -25.377  1.00  0.00     0.316 HD
ENDBRANCH   1  11
TORSDOF 1
ENDMDL
MODEL 6
REMARK minimizedAffinity -5.00184488
REMARK  1 active torsions:
REMARK  status: ('A' for Active; 'I' for Inactive)
REMARK    1  A    between atoms: N1_2  and  C2_3 
ROOT
HETATM    1  C2  UNL     1      -1.145  52.215 -26.246  1.00  0.00     0.164 C 
HETATM    2  C3  UNL     1      -0.546  51.190 -27.227  1.00  0.00     0.050 C 
HETATM    3  C4  UNL     1      -2.398  51.659 -25.477  1.00  0.00     0.025 C 
HETATM    4  C5  UNL     1      -2.108  50.328 -24.751  1.00  0.00     0.007 C 
HETATM    5  C6  UNL     1      -1.245  50.756 -23.562  1.00  0.00     0.006 C 
HETATM    6  C7  UNL     1      -1.094  52.271 -23.777  1.00  0.00    -0.004 C 
HETATM    7  C8  UNL     1      -2.500  52.615 -24.284  1.00  0.00     0.012 C 
HETATM    8  C9  UNL     1      -0.185  52.603 -25.014  1.00  0.00    -0.008 C 
HETATM    9  C10 UNL     1       1.164  51.859 -24.981  1.00  0.00     0.018 C 
HETATM   10  C11 UNL     1       0.181  54.112 -24.936  1.00  0.00     0.018 C 
ENDROOT
BRANCH   1  11
HETATM   11  N1  UNL     1      -1.482  53.442 -27.013  1.00  0.00     0.089 N 
HETATM   12  C1  UNL     1      -0.683  53.728 -28.194  1.00  0.00     0.307 C 
HETATM   13  H4  UNL     1      -1.438  54.245 -26.386  1.00  0.00     0.316 HD
ENDBRANCH   1  11
TORSDOF 1
ENDMDL
MODEL 7
REMARK minimizedAffinity -4.95084095
REMARK  1 active torsions:
REMARK  status: ('A' for Active; 'I' for Inactive)
REMARK    1  A    between atoms: N1_2  and  C2_3 
ROOT
HETATM    1  C2  UNL     1      -2.800  49.964 -24.842  1.00  0.00     0.164 C 
HETATM    2  C3  UNL     1      -3.097  48.742 -23.953  1.00  0.00     0.050 C 
HETATM    3  C4  UNL     1      -4.043  50.913 -25.004  1.00  0.00     0.025 C 
HETATM    4  C5  UNL     1      -4.627  51.365 -23.649  1.00  0.00     0.007 C 
HETATM    5  C6  UNL     1      -3.596  52.376 -23.141  1.00  0.00     0.006 C 
HETATM    6  C7  UNL     1      -2.516  52.342 -24.235  1.00  0.00    -0.004 C 
HETATM    7  C8  UNL     1      -3.398  52.217 -25.484  1.00  0.00     0.012 C 
HETATM    8  C9  UNL     1      -1.718  50.988 -24.234  1.00  0.00    -0.008 C 
HETATM    9  C10 UNL     1      -1.180  50.614 -22.839  1.00  0.00     0.018 C 
HETATM   10  C11 UNL     1      -0.456  51.187 -25.118  1.00  0.00     0.018 C 
ENDROOT
BRANCH   1  11
HETATM   11  N1  UNL     1      -2.324  49.468 -26.159  1.00  0.00     0.089 N 
HETATM   12  C1  UNL     1      -3.184  48.536 -26.870  1.00  0.00     0.307 C 
HETATM   13  H4  UNL     1      -1.407  49.038 -26.037  1.00  0.00     0.316 HD
ENDBRANCH   1  11
TORSDOF 1
ENDMDL
MODEL 8
REMARK minimizedAffinity -4.84982061
REMARK  1 active torsions:
REMARK  status: ('A' for Active; 'I' for Inactive)
REMARK    1  A    between atoms: N1_2  and  C2_3 
ROOT
HETATM    1  C2  UNL     1      -3.362  51.424 -24.952  1.00  0.00     0.164 C 
HETATM    2  C3  UNL     1      -3.087  52.578 -23.970  1.00  0.00     0.050 C 
HETATM    3  C4  UNL     1      -3.078  51.819 -26.447  1.00  0.00     0.025 C 
HETATM    4  C5  UNL     1      -1.653  52.373 -26.656  1.00  0.00     0.007 C 
HETATM    5  C6  UNL     1      -0.771  51.127 -26.548  1.00  0.00     0.006 C 
HETATM    6  C7  UNL     1      -1.786  50.016 -26.233  1.00  0.00    -0.004 C 
HETATM    7  C8  UNL     1      -2.953  50.452 -27.128  1.00  0.00     0.012 C 
HETATM    8  C9  UNL     1      -2.384  50.156 -24.787  1.00  0.00    -0.008 C 
HETATM    9  C10 UNL     1      -1.298  50.309 -23.704  1.00  0.00     0.018 C 
HETATM   10  C11 UNL     1      -3.112  48.825 -24.449  1.00  0.00     0.018 C 
ENDROOT
BRANCH   1  11
HETATM   11  N1  UNL     1      -4.769  50.988 -24.766  1.00  0.00     0.089 N 
HETATM   12  C1  UNL     1      -5.433  51.391 -23.537  1.00  0.00     0.307 C 
HETATM   13  H4  UNL     1      -4.813  49.972 -24.842  1.00  0.00     0.316 HD
ENDBRANCH   1  11
TORSDOF 1
ENDMDL
MODEL 9
REMARK minimizedAffinity -4.80683708
REMARK  1 active torsions:
REMARK  status: ('A' for Active; 'I' for Inactive)
REMARK    1  A    between atoms: N1_2  and  C2_3 
ROOT
HETATM    1  C2  UNL     1      -3.244  50.321 -24.408  1.00  0.00     0.164 C 
HETATM    2  C3  UNL     1      -2.981  48.809 -24.537  1.00  0.00     0.050 C 
HETATM    3  C4  UNL     1      -2.913  50.875 -22.974  1.00  0.00     0.025 C 
HETATM    4  C5  UNL     1      -1.474  50.540 -22.526  1.00  0.00     0.007 C 
HETATM    5  C6  UNL     1      -0.614  51.482 -23.370  1.00  0.00     0.006 C 
HETATM    6  C7  UNL     1      -1.653  52.204 -24.243  1.00  0.00    -0.004 C 
HETATM    7  C8  UNL     1      -2.788  52.380 -23.226  1.00  0.00     0.012 C 
HETATM    8  C9  UNL     1      -2.290  51.247 -25.314  1.00  0.00    -0.008 C 
HETATM    9  C10 UNL     1      -1.233  50.484 -26.137  1.00  0.00     0.018 C 
HETATM   10  C11 UNL     1      -3.046  52.132 -26.344  1.00  0.00     0.018 C 
ENDROOT
BRANCH   1  11
HETATM   11  N1  UNL     1      -4.662  50.572 -24.769  1.00  0.00     0.089 N 
HETATM   12  C1  UNL     1      -5.678  50.131 -23.826  1.00  0.00     0.307 C 
HETATM   13  H4  UNL     1      -4.853  50.146 -25.676  1.00  0.00     0.316 HD
ENDBRANCH   1  11
TORSDOF 1
ENDMDL
