MODEL 1
REMARK minimizedAffinity -8.02590275
REMARK CNNscore 0.856597424
REMARK CNNaffinity 7.46685362
REMARK  7 active torsions:
REMARK  status: ('A' for Active; 'I' for Inactive)
REMARK    1  A    between atoms: C2_2  and  C30_32 
REMARK    2  A    between atoms: C3_3  and  C4_4 
REMARK    3  A    between atoms: C4_4  and  C5_5 
REMARK    4  A    between atoms: C5_5  and  C6_6 
REMARK    5  A    between atoms: C6_6  and  C8_8 
REMARK    6  A    between atoms: C29_30  and  O2_31 
REMARK    7  A    between atoms: C30_32  and  O3_33 
ROOT
HETATM    1  C8  UNL     1       4.863  55.770  -8.455  1.00  0.00    -0.002 C 
HETATM    2  C9  UNL     1       5.680  54.694  -9.227  1.00  0.00     0.007 C 
HETATM    3  C10 UNL     1       4.682  53.829 -10.020  1.00  0.00     0.015 C 
HETATM    4  C11 UNL     1       3.368  54.624 -10.004  1.00  0.00    -0.010 C 
HETATM    5  C12 UNL     1       3.466  55.704 -11.130  1.00  0.00     0.021 C 
HETATM    6  C13 UNL     1       2.048  53.885 -10.242  1.00  0.00    -0.039 C 
HETATM    7  C14 UNL     1       0.900  54.367  -9.694  1.00  0.00    -0.066 C 
HETATM    8  C15 UNL     1       0.905  55.609  -8.793  1.00  0.00     0.036 C 
HETATM    9  C16 UNL     1       2.269  56.231  -8.429  1.00  0.00     0.015 C 
HETATM   10  C17 UNL     1       3.406  55.208  -8.535  1.00  0.00    -0.029 C 
HETATM   11  C18 UNL     1       3.211  54.122  -7.431  1.00  0.00     0.016 C 
HETATM   12  C19 UNL     1      -0.466  53.645  -9.878  1.00  0.00    -0.015 C 
HETATM   13  C20 UNL     1      -0.663  52.801  -8.597  1.00  0.00     0.020 C 
HETATM   14  C21 UNL     1      -1.635  54.650 -10.019  1.00  0.00     0.021 C 
HETATM   15  C22 UNL     1      -2.974  53.975 -10.276  1.00  0.00     0.080 C 
HETATM   16  C23 UNL     1      -2.937  53.115 -11.513  1.00  0.00     0.135 C 
HETATM   17  O1  UNL     1      -3.898  53.126 -12.287  1.00  0.00    -0.297 OA
HETATM   18  C24 UNL     1      -1.761  52.141 -11.687  1.00  0.00     0.018 C 
HETATM   19  C25 UNL     1      -1.647  51.830 -13.205  1.00  0.00     0.023 C 
HETATM   20  C26 UNL     1      -2.124  50.822 -10.986  1.00  0.00     0.023 C 
HETATM   21  C27 UNL     1      -0.426  52.807 -11.208  1.00  0.00     0.016 C 
HETATM   22  C28 UNL     1       0.779  51.849 -11.174  1.00  0.00     0.043 C 
HETATM   23  C29 UNL     1       2.094  52.633 -11.097  1.00  0.00     0.148 C 
ENDROOT
BRANCH   1  24
HETATM   24  C6  UNL     1       5.491  56.109  -7.073  1.00  0.00    -0.014 C 
HETATM   25  C7  UNL     1       5.075  57.487  -6.549  1.00  0.00     0.010 C 
BRANCH  24  26
HETATM   26  C5  UNL     1       7.040  55.966  -7.031  1.00  0.00     0.008 C 
BRANCH  26  27
HETATM   27  C4  UNL     1       7.795  56.511  -5.809  1.00  0.00     0.028 C 
BRANCH  27  28
HETATM   28  C3  UNL     1       9.112  55.850  -5.523  1.00  0.00    -0.022 C 
HETATM   29  C2  UNL     1      10.252  56.442  -5.113  1.00  0.00    -0.064 C 
HETATM   30  C1  UNL     1      10.406  57.919  -4.870  1.00  0.00     0.045 C 
BRANCH  29  31
HETATM   31  C30 UNL     1      11.491  55.627  -4.854  1.00  0.00     0.197 C 
BRANCH  31  32
HETATM   32  O3  UNL     1      12.625  56.398  -5.221  1.00  0.00    -0.397 OA
HETATM   33  H48 UNL     1      13.408  55.866  -5.004  1.00  0.00     0.209 HD
ENDBRANCH  31  32
ENDBRANCH  29  31
ENDBRANCH  27  28
ENDBRANCH  26  27
ENDBRANCH  24  26
ENDBRANCH   1  24
BRANCH  23  34
HETATM   34  O2  UNL     1       2.448  52.996 -12.431  1.00  0.00    -0.391 OA
HETATM   35  H45 UNL     1       2.009  53.840 -12.622  1.00  0.00     0.210 HD
ENDBRANCH  23  34
TORSDOF 7
ENDMDL
MODEL 2
REMARK minimizedAffinity -7.15161228
REMARK CNNscore 0.608869791
REMARK CNNaffinity 7.27975702
REMARK  7 active torsions:
REMARK  status: ('A' for Active; 'I' for Inactive)
REMARK    1  A    between atoms: C2_2  and  C30_32 
REMARK    2  A    between atoms: C3_3  and  C4_4 
REMARK    3  A    between atoms: C4_4  and  C5_5 
REMARK    4  A    between atoms: C5_5  and  C6_6 
REMARK    5  A    between atoms: C6_6  and  C8_8 
REMARK    6  A    between atoms: C29_30  and  O2_31 
REMARK    7  A    between atoms: C30_32  and  O3_33 
ROOT
HETATM    1  C8  UNL     1       5.228  56.095  -8.342  1.00  0.00    -0.002 C 
HETATM    2  C9  UNL     1       6.086  55.052  -9.115  1.00  0.00     0.007 C 
HETATM    3  C10 UNL     1       5.122  54.135  -9.890  1.00  0.00     0.015 C 
HETATM    4  C11 UNL     1       3.772  54.869  -9.865  1.00  0.00    -0.010 C 
HETATM    5  C12 UNL     1       3.807  55.943 -11.000  1.00  0.00     0.021 C 
HETATM    6  C13 UNL     1       2.485  54.067 -10.083  1.00  0.00    -0.039 C 
HETATM    7  C14 UNL     1       1.322  54.499  -9.525  1.00  0.00    -0.066 C 
HETATM    8  C15 UNL     1       1.279  55.746  -8.634  1.00  0.00     0.036 C 
HETATM    9  C16 UNL     1       2.616  56.435  -8.289  1.00  0.00     0.015 C 
HETATM   10  C17 UNL     1       3.799  55.465  -8.401  1.00  0.00    -0.029 C 
HETATM   11  C18 UNL     1       3.667  54.380  -7.288  1.00  0.00     0.016 C 
HETATM   12  C19 UNL     1      -0.010  53.713  -9.688  1.00  0.00    -0.015 C 
HETATM   13  C20 UNL     1      -0.153  52.870  -8.399  1.00  0.00     0.020 C 
HETATM   14  C21 UNL     1      -1.226  54.661  -9.823  1.00  0.00     0.021 C 
HETATM   15  C22 UNL     1      -2.536  53.923 -10.060  1.00  0.00     0.080 C 
HETATM   16  C23 UNL     1      -2.472  53.055 -11.291  1.00  0.00     0.135 C 
HETATM   17  O1  UNL     1      -3.441  53.016 -12.054  1.00  0.00    -0.297 OA
HETATM   18  C24 UNL     1      -1.254  52.136 -11.471  1.00  0.00     0.018 C 
HETATM   19  C25 UNL     1      -1.142  51.819 -12.988  1.00  0.00     0.023 C 
HETATM   20  C26 UNL     1      -1.547  50.807 -10.757  1.00  0.00     0.023 C 
HETATM   21  C27 UNL     1       0.054  52.868 -11.013  1.00  0.00     0.016 C 
HETATM   22  C28 UNL     1       1.303  51.967 -10.986  1.00  0.00     0.043 C 
HETATM   23  C29 UNL     1       2.580  52.811 -10.929  1.00  0.00     0.148 C 
ENDROOT
BRANCH   1  24
HETATM   24  C6  UNL     1       5.855  56.474  -6.969  1.00  0.00    -0.014 C 
HETATM   25  C7  UNL     1       6.134  55.256  -6.083  1.00  0.00     0.010 C 
BRANCH  24  26
HETATM   26  C5  UNL     1       5.043  57.538  -6.176  1.00  0.00     0.008 C 
BRANCH  26  27
HETATM   27  C4  UNL     1       4.290  57.095  -4.912  1.00  0.00     0.028 C 
BRANCH  27  28
HETATM   28  C3  UNL     1       2.893  57.628  -4.779  1.00  0.00    -0.022 C 
HETATM   29  C2  UNL     1       1.755  56.917  -4.650  1.00  0.00    -0.064 C 
HETATM   30  C1  UNL     1       1.689  55.413  -4.621  1.00  0.00     0.045 C 
BRANCH  29  31
HETATM   31  C30 UNL     1       0.426  57.609  -4.510  1.00  0.00     0.197 C 
BRANCH  31  32
HETATM   32  O3  UNL     1      -0.480  57.044  -5.445  1.00  0.00    -0.397 OA
HETATM   33  H48 UNL     1      -1.336  57.480  -5.304  1.00  0.00     0.209 HD
ENDBRANCH  31  32
ENDBRANCH  29  31
ENDBRANCH  27  28
ENDBRANCH  26  27
ENDBRANCH  24  26
ENDBRANCH   1  24
BRANCH  23  34
HETATM   34  O2  UNL     1       2.902  53.181 -12.270  1.00  0.00    -0.391 OA
HETATM   35  H45 UNL     1       2.422  54.002 -12.462  1.00  0.00     0.210 HD
ENDBRANCH  23  34
TORSDOF 7
ENDMDL
MODEL 3
REMARK minimizedAffinity -8.95121002
REMARK CNNscore 0.54898268
REMARK CNNaffinity 7.14958906
REMARK  7 active torsions:
REMARK  status: ('A' for Active; 'I' for Inactive)
REMARK    1  A    between atoms: C2_2  and  C30_32 
REMARK    2  A    between atoms: C3_3  and  C4_4 
REMARK    3  A    between atoms: C4_4  and  C5_5 
REMARK    4  A    between atoms: C5_5  and  C6_6 
REMARK    5  A    between atoms: C6_6  and  C8_8 
REMARK    6  A    between atoms: C29_30  and  O2_31 
REMARK    7  A    between atoms: C30_32  and  O3_33 
ROOT
HETATM    1  C8  UNL     1       0.104  51.622 -20.195  1.00  0.00    -0.002 C 
HETATM    2  C9  UNL     1      -0.628  52.517 -19.153  1.00  0.00     0.007 C 
HETATM    3  C10 UNL     1      -1.879  51.755 -18.678  1.00  0.00     0.015 C 
HETATM    4  C11 UNL     1      -1.663  50.307 -19.146  1.00  0.00    -0.010 C 
HETATM    5  C12 UNL     1      -0.730  49.616 -18.100  1.00  0.00     0.021 C 
HETATM    6  C13 UNL     1      -2.877  49.387 -19.305  1.00  0.00    -0.039 C 
HETATM    7  C14 UNL     1      -2.837  48.373 -20.210  1.00  0.00    -0.066 C 
HETATM    8  C15 UNL     1      -1.621  48.162 -21.120  1.00  0.00     0.036 C 
HETATM    9  C16 UNL     1      -0.486  49.206 -21.063  1.00  0.00     0.015 C 
HETATM   10  C17 UNL     1      -0.988  50.563 -20.554  1.00  0.00    -0.029 C 
HETATM   11  C18 UNL     1      -1.965  51.166 -21.609  1.00  0.00     0.016 C 
HETATM   12  C19 UNL     1      -4.049  47.423 -20.434  1.00  0.00    -0.015 C 
HETATM   13  C20 UNL     1      -4.790  47.985 -21.670  1.00  0.00     0.020 C 
HETATM   14  C21 UNL     1      -3.597  45.970 -20.719  1.00  0.00     0.021 C 
HETATM   15  C22 UNL     1      -4.761  45.002 -20.867  1.00  0.00     0.080 C 
HETATM   16  C23 UNL     1      -5.640  44.994 -19.643  1.00  0.00     0.135 C 
HETATM   17  O1  UNL     1      -6.072  43.920 -19.215  1.00  0.00    -0.297 OA
HETATM   18  C24 UNL     1      -6.088  46.344 -19.060  1.00  0.00     0.018 C 
HETATM   19  C25 UNL     1      -6.457  46.097 -17.571  1.00  0.00     0.023 C 
HETATM   20  C26 UNL     1      -7.378  46.770 -19.776  1.00  0.00     0.023 C 
HETATM   21  C27 UNL     1      -4.914  47.380 -19.122  1.00  0.00     0.016 C 
HETATM   22  C28 UNL     1      -5.318  48.813 -18.727  1.00  0.00     0.043 C 
HETATM   23  C29 UNL     1      -4.079  49.661 -18.420  1.00  0.00     0.148 C 
ENDROOT
BRANCH   1  24
HETATM   24  C6  UNL     1       0.778  52.457 -21.321  1.00  0.00    -0.014 C 
HETATM   25  C7  UNL     1       1.008  53.918 -20.926  1.00  0.00     0.010 C 
BRANCH  24  26
HETATM   26  C5  UNL     1       0.040  52.382 -22.690  1.00  0.00     0.008 C 
BRANCH  26  27
HETATM   27  C4  UNL     1       0.818  52.744 -23.964  1.00  0.00     0.028 C 
BRANCH  27  28
HETATM   28  C3  UNL     1       0.196  52.279 -25.248  1.00  0.00    -0.022 C 
HETATM   29  C2  UNL     1       0.823  51.739 -26.313  1.00  0.00    -0.064 C 
HETATM   30  C1  UNL     1       2.308  51.509 -26.400  1.00  0.00     0.045 C 
BRANCH  29  31
HETATM   31  C30 UNL     1       0.044  51.307 -27.526  1.00  0.00     0.197 C 
BRANCH  31  32
HETATM   32  O3  UNL     1      -0.145  52.434 -28.368  1.00  0.00    -0.397 OA
HETATM   33  H48 UNL     1      -0.612  52.118 -29.159  1.00  0.00     0.209 HD
ENDBRANCH  31  32
ENDBRANCH  29  31
ENDBRANCH  27  28
ENDBRANCH  26  27
ENDBRANCH  24  26
ENDBRANCH   1  24
BRANCH  23  34
HETATM   34  O2  UNL     1      -3.721  49.410 -17.062  1.00  0.00    -0.391 OA
HETATM   35  H45 UNL     1      -3.135  48.636 -17.060  1.00  0.00     0.210 HD
ENDBRANCH  23  34
TORSDOF 7
ENDMDL
MODEL 4
REMARK minimizedAffinity -7.34774971
REMARK CNNscore 0.491808116
REMARK CNNaffinity 6.83606958
REMARK  7 active torsions:
REMARK  status: ('A' for Active; 'I' for Inactive)
REMARK    1  A    between atoms: C2_2  and  C30_32 
REMARK    2  A    between atoms: C3_3  and  C4_4 
REMARK    3  A    between atoms: C4_4  and  C5_5 
REMARK    4  A    between atoms: C5_5  and  C6_6 
REMARK    5  A    between atoms: C6_6  and  C8_8 
REMARK    6  A    between atoms: C29_30  and  O2_31 
REMARK    7  A    between atoms: C30_32  and  O3_33 
ROOT
HETATM    1  C8  UNL     1      -4.185  49.216 -22.418  1.00  0.00    -0.002 C 
HETATM    2  C9  UNL     1      -4.637  48.340 -23.622  1.00  0.00     0.007 C 
HETATM    3  C10 UNL     1      -5.978  47.684 -23.246  1.00  0.00     0.015 C 
HETATM    4  C11 UNL     1      -6.469  48.462 -22.015  1.00  0.00    -0.010 C 
HETATM    5  C12 UNL     1      -7.149  49.770 -22.535  1.00  0.00     0.021 C 
HETATM    6  C13 UNL     1      -7.482  47.804 -21.074  1.00  0.00    -0.039 C 
HETATM    7  C14 UNL     1      -7.504  48.155 -19.760  1.00  0.00    -0.066 C 
HETATM    8  C15 UNL     1      -6.496  49.158 -19.184  1.00  0.00     0.036 C 
HETATM    9  C16 UNL     1      -5.378  49.673 -20.114  1.00  0.00     0.015 C 
HETATM   10  C17 UNL     1      -5.098  48.695 -21.261  1.00  0.00    -0.029 C 
HETATM   11  C18 UNL     1      -4.487  47.387 -20.670  1.00  0.00     0.016 C 
HETATM   12  C19 UNL     1      -8.491  47.502 -18.751  1.00  0.00    -0.015 C 
HETATM   13  C20 UNL     1      -7.683  46.388 -18.044  1.00  0.00     0.020 C 
HETATM   14  C21 UNL     1      -8.998  48.519 -17.700  1.00  0.00     0.021 C 
HETATM   15  C22 UNL     1     -10.024  47.928 -16.744  1.00  0.00     0.080 C 
HETATM   16  C23 UNL     1     -11.217  47.373 -17.480  1.00  0.00     0.135 C 
HETATM   17  O1  UNL     1     -12.349  47.566 -17.029  1.00  0.00    -0.297 OA
HETATM   18  C24 UNL     1     -10.965  46.458 -18.688  1.00  0.00     0.018 C 
HETATM   19  C25 UNL     1     -12.245  46.502 -19.568  1.00  0.00     0.023 C 
HETATM   20  C26 UNL     1     -10.823  45.016 -18.175  1.00  0.00     0.023 C 
HETATM   21  C27 UNL     1      -9.756  46.990 -19.532  1.00  0.00     0.016 C 
HETATM   22  C28 UNL     1      -9.312  46.042 -20.662  1.00  0.00     0.043 C 
HETATM   23  C29 UNL     1      -8.428  46.780 -21.673  1.00  0.00     0.148 C 
ENDROOT
BRANCH   1  24
HETATM   24  C6  UNL     1      -2.639  49.227 -22.243  1.00  0.00    -0.014 C 
HETATM   25  C7  UNL     1      -2.040  47.822 -22.124  1.00  0.00     0.010 C 
BRANCH  24  26
HETATM   26  C5  UNL     1      -2.142  50.121 -21.069  1.00  0.00     0.008 C 
BRANCH  26  27
HETATM   27  C4  UNL     1      -0.637  50.165 -20.766  1.00  0.00     0.028 C 
BRANCH  27  28
HETATM   28  C3  UNL     1      -0.112  51.500 -20.325  1.00  0.00    -0.022 C 
HETATM   29  C2  UNL     1       0.298  52.517 -21.108  1.00  0.00    -0.064 C 
HETATM   30  C1  UNL     1       0.306  52.484 -22.614  1.00  0.00     0.045 C 
BRANCH  29  31
HETATM   31  C30 UNL     1       0.786  53.807 -20.504  1.00  0.00     0.197 C 
BRANCH  31  32
HETATM   32  O3  UNL     1       1.390  53.520 -19.252  1.00  0.00    -0.397 OA
HETATM   33  H48 UNL     1       1.731  54.361 -18.906  1.00  0.00     0.209 HD
ENDBRANCH  31  32
ENDBRANCH  29  31
ENDBRANCH  27  28
ENDBRANCH  26  27
ENDBRANCH  24  26
ENDBRANCH   1  24
BRANCH  23  34
HETATM   34  O2  UNL     1      -9.297  47.437 -22.594  1.00  0.00    -0.391 OA
HETATM   35  H45 UNL     1      -9.510  48.305 -22.216  1.00  0.00     0.210 HD
ENDBRANCH  23  34
TORSDOF 7
ENDMDL
MODEL 5
REMARK minimizedAffinity -7.87944221
REMARK CNNscore 0.489583284
REMARK CNNaffinity 6.9000802
REMARK  7 active torsions:
REMARK  status: ('A' for Active; 'I' for Inactive)
REMARK    1  A    between atoms: C2_2  and  C30_32 
REMARK    2  A    between atoms: C3_3  and  C4_4 
REMARK    3  A    between atoms: C4_4  and  C5_5 
REMARK    4  A    between atoms: C5_5  and  C6_6 
REMARK    5  A    between atoms: C6_6  and  C8_8 
REMARK    6  A    between atoms: C29_30  and  O2_31 
REMARK    7  A    between atoms: C30_32  and  O3_33 
ROOT
HETATM    1  C8  UNL     1      -5.381  48.841 -24.629  1.00  0.00    -0.002 C 
HETATM    2  C9  UNL     1      -5.406  48.099 -23.261  1.00  0.00     0.007 C 
HETATM    3  C10 UNL     1      -4.310  48.716 -22.374  1.00  0.00     0.015 C 
HETATM    4  C11 UNL     1      -3.923  50.027 -23.075  1.00  0.00    -0.010 C 
HETATM    5  C12 UNL     1      -4.985  51.100 -22.668  1.00  0.00     0.021 C 
HETATM    6  C13 UNL     1      -2.556  50.653 -22.782  1.00  0.00    -0.039 C 
HETATM    7  C14 UNL     1      -1.950  51.416 -23.731  1.00  0.00    -0.066 C 
HETATM    8  C15 UNL     1      -2.581  51.622 -25.113  1.00  0.00     0.036 C 
HETATM    9  C16 UNL     1      -3.871  50.840 -25.443  1.00  0.00     0.015 C 
HETATM   10  C17 UNL     1      -4.001  49.573 -24.588  1.00  0.00    -0.029 C 
HETATM   11  C18 UNL     1      -2.873  48.575 -24.993  1.00  0.00     0.016 C 
HETATM   12  C19 UNL     1      -0.551  52.055 -23.501  1.00  0.00    -0.015 C 
HETATM   13  C20 UNL     1       0.457  51.096 -24.179  1.00  0.00     0.020 C 
HETATM   14  C21 UNL     1      -0.444  53.457 -24.148  1.00  0.00     0.021 C 
HETATM   15  C22 UNL     1       0.889  54.140 -23.877  1.00  0.00     0.080 C 
HETATM   16  C23 UNL     1       1.154  54.278 -22.399  1.00  0.00     0.135 C 
HETATM   17  O1  UNL     1       1.638  55.327 -21.967  1.00  0.00    -0.297 OA
HETATM   18  C24 UNL     1       0.948  53.045 -21.505  1.00  0.00     0.018 C 
HETATM   19  C25 UNL     1       0.722  53.564 -20.058  1.00  0.00     0.023 C 
HETATM   20  C26 UNL     1       2.256  52.239 -21.492  1.00  0.00     0.023 C 
HETATM   21  C27 UNL     1      -0.324  52.250 -21.957  1.00  0.00     0.016 C 
HETATM   22  C28 UNL     1      -0.513  50.901 -21.238  1.00  0.00     0.043 C 
HETATM   23  C29 UNL     1      -1.943  50.384 -21.420  1.00  0.00     0.148 C 
ENDROOT
BRANCH   1  24
HETATM   24  C6  UNL     1      -5.725  47.899 -25.818  1.00  0.00    -0.014 C 
HETATM   25  C7  UNL     1      -5.006  48.284 -27.114  1.00  0.00     0.010 C 
BRANCH  24  26
HETATM   26  C5  UNL     1      -7.252  47.745 -26.080  1.00  0.00     0.008 C 
BRANCH  26  27
HETATM   27  C4  UNL     1      -7.727  47.463 -27.513  1.00  0.00     0.028 C 
BRANCH  27  28
HETATM   28  C3  UNL     1      -7.779  46.013 -27.896  1.00  0.00    -0.022 C 
HETATM   29  C2  UNL     1      -7.389  45.460 -29.062  1.00  0.00    -0.064 C 
HETATM   30  C1  UNL     1      -6.820  46.232 -30.223  1.00  0.00     0.045 C 
BRANCH  29  31
HETATM   31  C30 UNL     1      -7.494  43.975 -29.283  1.00  0.00     0.197 C 
BRANCH  31  32
HETATM   32  O3  UNL     1      -6.722  43.630 -30.423  1.00  0.00    -0.397 OA
HETATM   33  H48 UNL     1      -6.774  42.665 -30.516  1.00  0.00     0.209 HD
ENDBRANCH  31  32
ENDBRANCH  29  31
ENDBRANCH  27  28
ENDBRANCH  26  27
ENDBRANCH  24  26
ENDBRANCH   1  24
BRANCH  23  34
HETATM   34  O2  UNL     1      -2.748  51.006 -20.420  1.00  0.00    -0.391 OA
HETATM   35  H45 UNL     1      -3.056  51.851 -20.786  1.00  0.00     0.210 HD
ENDBRANCH  23  34
TORSDOF 7
ENDMDL
MODEL 6
REMARK minimizedAffinity -6.81905127
REMARK CNNscore 0.444056302
REMARK CNNaffinity 5.72313356
REMARK  7 active torsions:
REMARK  status: ('A' for Active; 'I' for Inactive)
REMARK    1  A    between atoms: C2_2  and  C30_32 
REMARK    2  A    between atoms: C3_3  and  C4_4 
REMARK    3  A    between atoms: C4_4  and  C5_5 
REMARK    4  A    between atoms: C5_5  and  C6_6 
REMARK    5  A    between atoms: C6_6  and  C8_8 
REMARK    6  A    between atoms: C29_30  and  O2_31 
REMARK    7  A    between atoms: C30_32  and  O3_33 
ROOT
HETATM    1  C8  UNL     1     -14.395  46.255 -26.371  1.00  0.00    -0.002 C 
HETATM    2  C9  UNL     1     -13.525  46.492 -25.102  1.00  0.00     0.007 C 
HETATM    3  C10 UNL     1     -12.073  46.712 -25.564  1.00  0.00     0.015 C 
HETATM    4  C11 UNL     1     -12.173  46.974 -27.075  1.00  0.00    -0.010 C 
HETATM    5  C12 UNL     1     -12.557  48.478 -27.260  1.00  0.00     0.021 C 
HETATM    6  C13 UNL     1     -10.941  46.741 -27.954  1.00  0.00    -0.039 C 
HETATM    7  C14 UNL     1     -11.103  46.400 -29.261  1.00  0.00    -0.066 C 
HETATM    8  C15 UNL     1     -12.497  46.188 -29.864  1.00  0.00     0.036 C 
HETATM    9  C16 UNL     1     -13.713  46.258 -28.916  1.00  0.00     0.015 C 
HETATM   10  C17 UNL     1     -13.319  45.956 -27.464  1.00  0.00    -0.029 C 
HETATM   11  C18 UNL     1     -12.881  44.462 -27.362  1.00  0.00     0.016 C 
HETATM   12  C19 UNL     1      -9.891  46.125 -30.195  1.00  0.00    -0.015 C 
HETATM   13  C20 UNL     1      -9.723  44.587 -30.213  1.00  0.00     0.020 C 
HETATM   14  C21 UNL     1     -10.145  46.633 -31.635  1.00  0.00     0.021 C 
HETATM   15  C22 UNL     1      -8.947  46.446 -32.555  1.00  0.00     0.080 C 
HETATM   16  C23 UNL     1      -7.719  47.136 -32.018  1.00  0.00     0.135 C 
HETATM   17  O1  UNL     1      -6.984  47.753 -32.794  1.00  0.00    -0.297 OA
HETATM   18  C24 UNL     1      -7.349  46.920 -30.542  1.00  0.00     0.018 C 
HETATM   19  C25 UNL     1      -6.460  48.120 -30.115  1.00  0.00     0.023 C 
HETATM   20  C26 UNL     1      -6.475  45.659 -30.448  1.00  0.00     0.023 C 
HETATM   21  C27 UNL     1      -8.639  46.908 -29.653  1.00  0.00     0.016 C 
HETATM   22  C28 UNL     1      -8.388  46.517 -28.184  1.00  0.00     0.043 C 
HETATM   23  C29 UNL     1      -9.580  46.912 -27.306  1.00  0.00     0.148 C 
ENDROOT
BRANCH   1  24
HETATM   24  C6  UNL     1     -15.548  45.242 -26.116  1.00  0.00    -0.014 C 
HETATM   25  C7  UNL     1     -15.171  44.146 -25.115  1.00  0.00     0.010 C 
BRANCH  24  26
HETATM   26  C5  UNL     1     -16.126  44.605 -27.414  1.00  0.00     0.008 C 
BRANCH  26  27
HETATM   27  C4  UNL     1     -17.646  44.407 -27.519  1.00  0.00     0.028 C 
BRANCH  27  28
HETATM   28  C3  UNL     1     -18.469  45.278 -26.616  1.00  0.00    -0.022 C 
HETATM   29  C2  UNL     1     -19.263  44.884 -25.600  1.00  0.00    -0.064 C 
HETATM   30  C1  UNL     1     -19.471  43.451 -25.188  1.00  0.00     0.045 C 
BRANCH  29  31
HETATM   31  C30 UNL     1     -20.015  45.894 -24.775  1.00  0.00     0.197 C 
BRANCH  31  32
HETATM   32  O3  UNL     1     -19.435  47.173 -24.984  1.00  0.00    -0.397 OA
HETATM   33  H48 UNL     1     -19.964  47.807 -24.474  1.00  0.00     0.209 HD
ENDBRANCH  31  32
ENDBRANCH  29  31
ENDBRANCH  27  28
ENDBRANCH  26  27
ENDBRANCH  24  26
ENDBRANCH   1  24
BRANCH  23  34
HETATM   34  O2  UNL     1      -9.406  48.283 -26.950  1.00  0.00    -0.391 OA
HETATM   35  H45 UNL     1      -9.808  48.814 -27.656  1.00  0.00     0.210 HD
ENDBRANCH  23  34
TORSDOF 7
ENDMDL
MODEL 7
REMARK minimizedAffinity -7.25421095
REMARK CNNscore 0.385783911
REMARK CNNaffinity 5.77032995
REMARK  7 active torsions:
REMARK  status: ('A' for Active; 'I' for Inactive)
REMARK    1  A    between atoms: C2_2  and  C30_32 
REMARK    2  A    between atoms: C3_3  and  C4_4 
REMARK    3  A    between atoms: C4_4  and  C5_5 
REMARK    4  A    between atoms: C5_5  and  C6_6 
REMARK    5  A    between atoms: C6_6  and  C8_8 
REMARK    6  A    between atoms: C29_30  and  O2_31 
REMARK    7  A    between atoms: C30_32  and  O3_33 
ROOT
HETATM    1  C8  UNL     1     -10.540  46.048 -26.454  1.00  0.00    -0.002 C 
HETATM    2  C9  UNL     1     -10.578  44.996 -27.601  1.00  0.00     0.007 C 
HETATM    3  C10 UNL     1     -12.043  44.565 -27.792  1.00  0.00     0.015 C 
HETATM    4  C11 UNL     1     -12.869  45.619 -27.038  1.00  0.00    -0.010 C 
HETATM    5  C12 UNL     1     -13.014  46.856 -27.982  1.00  0.00     0.021 C 
HETATM    6  C13 UNL     1     -14.287  45.266 -26.581  1.00  0.00    -0.039 C 
HETATM    7  C14 UNL     1     -14.810  45.873 -25.482  1.00  0.00    -0.066 C 
HETATM    8  C15 UNL     1     -13.987  46.867 -24.652  1.00  0.00     0.036 C 
HETATM    9  C16 UNL     1     -12.506  47.073 -25.031  1.00  0.00     0.015 C 
HETATM   10  C17 UNL     1     -11.938  45.861 -25.782  1.00  0.00    -0.029 C 
HETATM   11  C18 UNL     1     -11.885  44.645 -24.806  1.00  0.00     0.016 C 
HETATM   12  C19 UNL     1     -16.234  45.536 -24.955  1.00  0.00    -0.015 C 
HETATM   13  C20 UNL     1     -16.021  44.513 -23.814  1.00  0.00     0.020 C 
HETATM   14  C21 UNL     1     -16.953  46.789 -24.398  1.00  0.00     0.021 C 
HETATM   15  C22 UNL     1     -18.378  46.506 -23.944  1.00  0.00     0.080 C 
HETATM   16  C23 UNL     1     -19.216  45.934 -25.059  1.00  0.00     0.135 C 
HETATM   17  O1  UNL     1     -20.377  46.324 -25.204  1.00  0.00    -0.297 OA
HETATM   18  C24 UNL     1     -18.636  44.774 -25.884  1.00  0.00     0.018 C 
HETATM   19  C25 UNL     1     -19.382  44.767 -27.247  1.00  0.00     0.023 C 
HETATM   20  C26 UNL     1     -18.987  43.458 -25.173  1.00  0.00     0.023 C 
HETATM   21  C27 UNL     1     -17.108  45.005 -26.149  1.00  0.00     0.016 C 
HETATM   22  C28 UNL     1     -16.397  43.811 -26.813  1.00  0.00     0.043 C 
HETATM   23  C29 UNL     1     -15.049  44.240 -27.400  1.00  0.00     0.148 C 
ENDROOT
BRANCH   1  24
HETATM   24  C6  UNL     1      -9.245  45.941 -25.598  1.00  0.00    -0.014 C 
HETATM   25  C7  UNL     1      -9.182  46.982 -24.476  1.00  0.00     0.010 C 
BRANCH  24  26
HETATM   26  C5  UNL     1      -7.931  45.975 -26.433  1.00  0.00     0.008 C 
BRANCH  26  27
HETATM   27  C4  UNL     1      -7.269  47.334 -26.704  1.00  0.00     0.028 C 
BRANCH  27  28
HETATM   28  C3  UNL     1      -6.861  47.574 -28.129  1.00  0.00    -0.022 C 
HETATM   29  C2  UNL     1      -5.655  47.977 -28.577  1.00  0.00    -0.064 C 
HETATM   30  C1  UNL     1      -4.473  48.272 -27.694  1.00  0.00     0.045 C 
BRANCH  29  31
HETATM   31  C30 UNL     1      -5.403  48.156 -30.050  1.00  0.00     0.197 C 
BRANCH  31  32
HETATM   32  O3  UNL     1      -6.442  48.955 -30.595  1.00  0.00    -0.397 OA
HETATM   33  H48 UNL     1      -6.231  49.088 -31.533  1.00  0.00     0.209 HD
ENDBRANCH  31  32
ENDBRANCH  29  31
ENDBRANCH  27  28
ENDBRANCH  26  27
ENDBRANCH  24  26
ENDBRANCH   1  24
BRANCH  23  34
HETATM   34  O2  UNL     1     -15.305  44.781 -28.695  1.00  0.00    -0.391 OA
HETATM   35  H45 UNL     1     -15.502  45.724 -28.577  1.00  0.00     0.210 HD
ENDBRANCH  23  34
TORSDOF 7
ENDMDL
MODEL 8
REMARK minimizedAffinity -7.20038128
REMARK CNNscore 0.382230341
REMARK CNNaffinity 6.00157356
REMARK  7 active torsions:
REMARK  status: ('A' for Active; 'I' for Inactive)
REMARK    1  A    between atoms: C2_2  and  C30_32 
REMARK    2  A    between atoms: C3_3  and  C4_4 
REMARK    3  A    between atoms: C4_4  and  C5_5 
REMARK    4  A    between atoms: C5_5  and  C6_6 
REMARK    5  A    between atoms: C6_6  and  C8_8 
REMARK    6  A    between atoms: C29_30  and  O2_31 
REMARK    7  A    between atoms: C30_32  and  O3_33 
ROOT
HETATM    1  C8  UNL     1     -14.055  45.481 -26.406  1.00  0.00    -0.002 C 
HETATM    2  C9  UNL     1     -14.940  45.612 -27.680  1.00  0.00     0.007 C 
HETATM    3  C10 UNL     1     -14.001  45.831 -28.881  1.00  0.00     0.015 C 
HETATM    4  C11 UNL     1     -12.603  45.454 -28.366  1.00  0.00    -0.010 C 
HETATM    5  C12 UNL     1     -12.486  43.897 -28.441  1.00  0.00     0.021 C 
HETATM    6  C13 UNL     1     -11.371  46.006 -29.087  1.00  0.00    -0.039 C 
HETATM    7  C14 UNL     1     -10.215  46.194 -28.395  1.00  0.00    -0.066 C 
HETATM    8  C15 UNL     1     -10.133  45.918 -26.888  1.00  0.00     0.036 C 
HETATM    9  C16 UNL     1     -11.433  45.530 -26.153  1.00  0.00     0.015 C 
HETATM   10  C17 UNL     1     -12.677  46.033 -26.896  1.00  0.00    -0.029 C 
HETATM   11  C18 UNL     1     -12.698  47.592 -26.845  1.00  0.00     0.016 C 
HETATM   12  C19 UNL     1      -8.939  46.777 -29.067  1.00  0.00    -0.015 C 
HETATM   13  C20 UNL     1      -8.941  48.285 -28.721  1.00  0.00     0.020 C 
HETATM   14  C21 UNL     1      -7.648  46.123 -28.517  1.00  0.00     0.021 C 
HETATM   15  C22 UNL     1      -6.387  46.618 -29.209  1.00  0.00     0.080 C 
HETATM   16  C23 UNL     1      -6.439  46.386 -30.697  1.00  0.00     0.135 C 
HETATM   17  O1  UNL     1      -5.430  45.983 -31.283  1.00  0.00    -0.297 OA
HETATM   18  C24 UNL     1      -7.710  46.802 -31.455  1.00  0.00     0.018 C 
HETATM   19  C25 UNL     1      -7.750  45.972 -32.768  1.00  0.00     0.023 C 
HETATM   20  C26 UNL     1      -7.564  48.276 -31.861  1.00  0.00     0.023 C 
HETATM   21  C27 UNL     1      -8.985  46.464 -30.607  1.00  0.00     0.016 C 
HETATM   22  C28 UNL     1     -10.298  47.007 -31.202  1.00  0.00     0.043 C 
HETATM   23  C29 UNL     1     -11.508  46.314 -30.567  1.00  0.00     0.148 C 
ENDROOT
BRANCH   1  24
HETATM   24  C6  UNL     1     -14.736  46.094 -25.149  1.00  0.00    -0.014 C 
HETATM   25  C7  UNL     1     -14.354  45.376 -23.852  1.00  0.00     0.010 C 
BRANCH  24  26
HETATM   26  C5  UNL     1     -16.284  46.208 -25.262  1.00  0.00     0.008 C 
BRANCH  26  27
HETATM   27  C4  UNL     1     -17.067  46.783 -24.071  1.00  0.00     0.028 C 
BRANCH  27  28
HETATM   28  C3  UNL     1     -17.936  45.800 -23.342  1.00  0.00    -0.022 C 
HETATM   29  C2  UNL     1     -19.204  45.453 -23.638  1.00  0.00    -0.064 C 
HETATM   30  C1  UNL     1     -19.995  46.017 -24.789  1.00  0.00     0.045 C 
BRANCH  29  31
HETATM   31  C30 UNL     1     -19.937  44.432 -22.810  1.00  0.00     0.197 C 
BRANCH  31  32
HETATM   32  O3  UNL     1     -19.895  44.837 -21.450  1.00  0.00    -0.397 OA
HETATM   33  H48 UNL     1     -20.409  44.184 -20.947  1.00  0.00     0.209 HD
ENDBRANCH  31  32
ENDBRANCH  29  31
ENDBRANCH  27  28
ENDBRANCH  26  27
ENDBRANCH  24  26
ENDBRANCH   1  24
BRANCH  23  34
HETATM   34  O2  UNL     1     -11.716  45.094 -31.276  1.00  0.00    -0.391 OA
HETATM   35  H45 UNL     1     -11.164  44.419 -30.850  1.00  0.00     0.210 HD
ENDBRANCH  23  34
TORSDOF 7
ENDMDL
MODEL 9
REMARK minimizedAffinity -8.86867046
REMARK CNNscore 0.346915841
REMARK CNNaffinity 6.87667608
REMARK  7 active torsions:
REMARK  status: ('A' for Active; 'I' for Inactive)
REMARK    1  A    between atoms: C2_2  and  C30_32 
REMARK    2  A    between atoms: C3_3  and  C4_4 
REMARK    3  A    between atoms: C4_4  and  C5_5 
REMARK    4  A    between atoms: C5_5  and  C6_6 
REMARK    5  A    between atoms: C6_6  and  C8_8 
REMARK    6  A    between atoms: C29_30  and  O2_31 
REMARK    7  A    between atoms: C30_32  and  O3_33 
ROOT
HETATM    1  C8  UNL     1      -0.738  51.529 -17.259  1.00  0.00    -0.002 C 
HETATM    2  C9  UNL     1       0.792  51.792 -17.363  1.00  0.00     0.007 C 
HETATM    3  C10 UNL     1       1.125  52.036 -18.847  1.00  0.00     0.015 C 
HETATM    4  C11 UNL     1      -0.232  52.285 -19.522  1.00  0.00    -0.010 C 
HETATM    5  C12 UNL     1      -0.610  53.780 -19.266  1.00  0.00     0.021 C 
HETATM    6  C13 UNL     1      -0.363  52.068 -21.032  1.00  0.00    -0.039 C 
HETATM    7  C14 UNL     1      -1.566  51.714 -21.559  1.00  0.00    -0.066 C 
HETATM    8  C15 UNL     1      -2.788  51.471 -20.665  1.00  0.00     0.036 C 
HETATM    9  C16 UNL     1      -2.587  51.525 -19.135  1.00  0.00     0.015 C 
HETATM   10  C17 UNL     1      -1.132  51.241 -18.744  1.00  0.00    -0.029 C 
HETATM   11  C18 UNL     1      -0.798  49.757 -19.089  1.00  0.00     0.016 C 
HETATM   12  C19 UNL     1      -1.754  51.454 -23.081  1.00  0.00    -0.015 C 
HETATM   13  C20 UNL     1      -1.660  49.920 -23.253  1.00  0.00     0.020 C 
HETATM   14  C21 UNL     1      -3.132  51.947 -23.584  1.00  0.00     0.021 C 
HETATM   15  C22 UNL     1      -3.316  51.775 -25.085  1.00  0.00     0.080 C 
HETATM   16  C23 UNL     1      -2.243  52.492 -25.864  1.00  0.00     0.135 C 
HETATM   17  O1  UNL     1      -2.549  53.117 -26.883  1.00  0.00    -0.297 OA
HETATM   18  C24 UNL     1      -0.779  52.294 -25.438  1.00  0.00     0.018 C 
HETATM   19  C25 UNL     1       0.021  53.514 -25.973  1.00  0.00     0.023 C 
HETATM   20  C26 UNL     1      -0.235  51.051 -26.160  1.00  0.00     0.023 C 
HETATM   21  C27 UNL     1      -0.665  52.265 -23.875  1.00  0.00     0.016 C 
HETATM   22  C28 UNL     1       0.735  51.890 -23.353  1.00  0.00     0.043 C 
HETATM   23  C29 UNL     1       0.882  52.269 -21.876  1.00  0.00     0.148 C 
ENDROOT
BRANCH   1  24
HETATM   24  C6  UNL     1      -1.086  50.496 -16.149  1.00  0.00    -0.014 C 
HETATM   25  C7  UNL     1      -2.578  50.152 -16.098  1.00  0.00     0.010 C 
BRANCH  24  26
HETATM   26  C5  UNL     1      -0.581  50.898 -14.732  1.00  0.00     0.008 C 
BRANCH  26  27
HETATM   27  C4  UNL     1       0.759  51.638 -14.613  1.00  0.00     0.028 C 
BRANCH  27  28
HETATM   28  C3  UNL     1       1.904  50.811 -14.104  1.00  0.00    -0.022 C 
HETATM   29  C2  UNL     1       3.210  50.949 -14.407  1.00  0.00    -0.064 C 
HETATM   30  C1  UNL     1       3.763  51.989 -15.345  1.00  0.00     0.045 C 
BRANCH  29  31
HETATM   31  C30 UNL     1       4.242  50.040 -13.794  1.00  0.00     0.197 C 
BRANCH  31  32
HETATM   32  O3  UNL     1       4.241  50.236 -12.388  1.00  0.00    -0.397 OA
HETATM   33  H48 UNL     1       4.884  49.610 -12.017  1.00  0.00     0.209 HD
ENDBRANCH  31  32
ENDBRANCH  29  31
ENDBRANCH  27  28
ENDBRANCH  26  27
ENDBRANCH  24  26
ENDBRANCH   1  24
BRANCH  23  34
HETATM   34  O2  UNL     1       1.255  53.646 -21.828  1.00  0.00    -0.391 OA
HETATM   35  H45 UNL     1       0.435  54.164 -21.832  1.00  0.00     0.210 HD
ENDBRANCH  23  34
TORSDOF 7
ENDMDL
