MODEL 1
REMARK minimizedAffinity -8.30132771
REMARK CNNscore 0.91002804
REMARK CNNaffinity 6.99579096
REMARK  12 active torsions:
REMARK  status: ('A' for Active; 'I' for Inactive)
REMARK    1  A    between atoms: C2_2  and  C3_3 
REMARK    2  A    between atoms: C2_2  and  C26_31 
REMARK    3  A    between atoms: C3_3  and  C4_4 
REMARK    4  A    between atoms: C4_4  and  C5_5 
REMARK    5  A    between atoms: C5_5  and  C7_7 
REMARK    6  A    between atoms: C8_8  and  O1_9 
REMARK    7  A    between atoms: C9_10  and  O2_11 
REMARK    8  A    between atoms: C11_13  and  O3_14 
REMARK    9  A    between atoms: C13_16  and  O4_17 
REMARK   10  A    between atoms: C16_20  and  O5_21 
REMARK   11  A    between atoms: C26_31  and  C28_33 
REMARK   12  A    between atoms: C28_33  and  O6_34 
ROOT
HETATM    1  C7  UNL     1      -1.039  12.035  17.623  1.00  0.00     0.029 C 
HETATM    2  C8  UNL     1      -0.024  11.968  16.472  1.00  0.00     0.152 C 
HETATM    3  C9  UNL     1       0.426  10.504  16.444  1.00  0.00     0.155 C 
HETATM    4  C10 UNL     1      -0.786   9.677  16.940  1.00  0.00     0.060 C 
HETATM    5  C11 UNL     1      -1.272   8.463  16.106  1.00  0.00     0.071 C 
HETATM    6  C12 UNL     1      -0.173   7.418  15.854  1.00  0.00     0.071 C 
HETATM    7  C13 UNL     1      -0.672   6.290  14.953  1.00  0.00     0.126 C 
HETATM    8  C14 UNL     1      -0.921   6.797  13.527  1.00  0.00     0.025 C 
HETATM    9  C15 UNL     1       0.427   6.851  12.768  1.00  0.00     0.039 C 
HETATM   10  C16 UNL     1       0.261   7.280  11.316  1.00  0.00     0.118 C 
HETATM   11  C17 UNL     1      -0.527   8.575  11.172  1.00  0.00     0.032 C 
HETATM   12  C18 UNL     1      -0.992   9.153  12.508  1.00  0.00     0.012 C 
HETATM   13  C19 UNL     1      -1.736   8.146  13.440  1.00  0.00    -0.031 C 
HETATM   14  C20 UNL     1      -3.090   7.808  12.737  1.00  0.00     0.016 C 
HETATM   15  C21 UNL     1      -2.132   8.809  14.850  1.00  0.00     0.029 C 
HETATM   16  C22 UNL     1      -2.412  10.325  14.749  1.00  0.00     0.009 C 
HETATM   17  C23 UNL     1      -2.851  10.966  16.066  1.00  0.00     0.011 C 
HETATM   18  C24 UNL     1      -1.902  10.736  17.286  1.00  0.00    -0.029 C 
HETATM   19  C25 UNL     1      -2.811  10.302  18.456  1.00  0.00     0.016 C 
ENDROOT
BRANCH   1  20
HETATM   20  C5  UNL     1      -0.474  12.076  19.101  1.00  0.00    -0.011 C 
HETATM   21  C6  UNL     1      -0.542  13.522  19.631  1.00  0.00     0.010 C 
BRANCH  20  22
HETATM   22  C4  UNL     1       0.954  11.522  19.315  1.00  0.00     0.009 C 
BRANCH  22  23
HETATM   23  C3  UNL     1       1.113  10.647  20.576  1.00  0.00     0.034 C 
BRANCH  23  24
HETATM   24  C2  UNL     1       2.296  10.969  21.484  1.00  0.00    -0.083 C 
HETATM   25  C1  UNL     1       2.637  12.226  21.826  1.00  0.00     0.015 C 
BRANCH  24  26
HETATM   26  C26 UNL     1       3.080   9.731  21.954  1.00  0.00     0.033 C 
HETATM   27  C27 UNL     1       4.441  10.040  22.594  1.00  0.00     0.017 C 
BRANCH  26  28
HETATM   28  C28 UNL     1       2.242   8.843  22.892  1.00  0.00     0.172 C 
BRANCH  28  29
HETATM   29  O6  UNL     1       1.796   7.655  22.247  1.00  0.00    -0.400 OA
HETATM   30  H48 UNL     1       2.593   7.193  21.931  1.00  0.00     0.209 HD
ENDBRANCH  28  29
ENDBRANCH  26  28
ENDBRANCH  24  26
ENDBRANCH  23  24
ENDBRANCH  22  23
ENDBRANCH  20  22
ENDBRANCH   1  20
BRANCH   2  31
HETATM   31  O1  UNL     1       1.067  12.871  16.544  1.00  0.00    -0.393 OA
HETATM   32  H13 UNL     1       1.332  13.071  15.628  1.00  0.00     0.210 HD
ENDBRANCH   2  31
BRANCH   3  33
HETATM   33  O2  UNL     1       0.903  10.176  15.150  1.00  0.00    -0.392 OA
HETATM   34  H15 UNL     1       1.792  10.568  15.084  1.00  0.00     0.210 HD
ENDBRANCH   3  33
BRANCH   5  35
HETATM   35  O3  UNL     1      -2.194   7.801  17.024  1.00  0.00    -0.389 OA
HETATM   36  H17 UNL     1      -2.334   6.895  16.672  1.00  0.00     0.210 HD
ENDBRANCH   5  35
BRANCH   7  37
HETATM   37  O4  UNL     1      -1.868   5.738  15.505  1.00  0.00    -0.395 OA
HETATM   38  H21 UNL     1      -2.360   5.261  14.801  1.00  0.00     0.210 HD
ENDBRANCH   7  37
BRANCH  10  39
HETATM   39  O5  UNL     1      -0.408   6.255  10.585  1.00  0.00    -0.396 OA
HETATM   40  H26 UNL     1       0.156   5.460  10.609  1.00  0.00     0.210 HD
ENDBRANCH  10  39
TORSDOF 12
ENDMDL
MODEL 2
REMARK minimizedAffinity -6.35981321
REMARK CNNscore 0.867815197
REMARK CNNaffinity 6.27909851
REMARK  12 active torsions:
REMARK  status: ('A' for Active; 'I' for Inactive)
REMARK    1  A    between atoms: C2_2  and  C3_3 
REMARK    2  A    between atoms: C2_2  and  C26_31 
REMARK    3  A    between atoms: C3_3  and  C4_4 
REMARK    4  A    between atoms: C4_4  and  C5_5 
REMARK    5  A    between atoms: C5_5  and  C7_7 
REMARK    6  A    between atoms: C8_8  and  O1_9 
REMARK    7  A    between atoms: C9_10  and  O2_11 
REMARK    8  A    between atoms: C11_13  and  O3_14 
REMARK    9  A    between atoms: C13_16  and  O4_17 
REMARK   10  A    between atoms: C16_20  and  O5_21 
REMARK   11  A    between atoms: C26_31  and  C28_33 
REMARK   12  A    between atoms: C28_33  and  O6_34 
ROOT
HETATM    1  C7  UNL     1      -3.600  12.226  16.383  1.00  0.00     0.029 C 
HETATM    2  C8  UNL     1      -2.731  12.569  15.164  1.00  0.00     0.152 C 
HETATM    3  C9  UNL     1      -1.423  11.808  15.401  1.00  0.00     0.155 C 
HETATM    4  C10 UNL     1      -1.808  10.540  16.203  1.00  0.00     0.060 C 
HETATM    5  C11 UNL     1      -1.316   9.152  15.714  1.00  0.00     0.071 C 
HETATM    6  C12 UNL     1       0.212   9.063  15.568  1.00  0.00     0.071 C 
HETATM    7  C13 UNL     1       0.641   7.713  14.997  1.00  0.00     0.126 C 
HETATM    8  C14 UNL     1       0.202   7.572  13.535  1.00  0.00     0.025 C 
HETATM    9  C15 UNL     1       1.216   8.313  12.630  1.00  0.00     0.039 C 
HETATM   10  C16 UNL     1       0.893   8.165  11.149  1.00  0.00     0.118 C 
HETATM   11  C17 UNL     1      -0.546   8.541  10.820  1.00  0.00     0.032 C 
HETATM   12  C18 UNL     1      -1.354   8.970  12.044  1.00  0.00     0.012 C 
HETATM   13  C19 UNL     1      -1.296   7.984  13.252  1.00  0.00    -0.031 C 
HETATM   14  C20 UNL     1      -2.041   6.686  12.802  1.00  0.00     0.016 C 
HETATM   15  C21 UNL     1      -2.113   8.536  14.522  1.00  0.00     0.029 C 
HETATM   16  C22 UNL     1      -3.322   9.415  14.128  1.00  0.00     0.009 C 
HETATM   17  C23 UNL     1      -4.152   9.900  15.317  1.00  0.00     0.011 C 
HETATM   18  C24 UNL     1      -3.363  10.650  16.438  1.00  0.00    -0.029 C 
HETATM   19  C25 UNL     1      -3.822  10.022  17.773  1.00  0.00     0.016 C 
ENDROOT
BRANCH   1  20
HETATM   20  C5  UNL     1      -3.292  12.979  17.741  1.00  0.00    -0.011 C 
HETATM   21  C6  UNL     1      -3.166  11.945  18.878  1.00  0.00     0.010 C 
BRANCH  20  22
HETATM   22  C4  UNL     1      -4.290  14.083  18.166  1.00  0.00     0.009 C 
BRANCH  22  23
HETATM   23  C3  UNL     1      -5.737  13.587  18.365  1.00  0.00     0.034 C 
BRANCH  23  24
HETATM   24  C2  UNL     1      -6.321  13.737  19.767  1.00  0.00    -0.083 C 
HETATM   25  C1  UNL     1      -5.559  13.795  20.876  1.00  0.00     0.015 C 
BRANCH  24  26
HETATM   26  C26 UNL     1      -7.858  13.791  19.804  1.00  0.00     0.033 C 
HETATM   27  C27 UNL     1      -8.494  13.129  21.034  1.00  0.00     0.017 C 
BRANCH  26  28
HETATM   28  C28 UNL     1      -8.387  15.229  19.643  1.00  0.00     0.172 C 
BRANCH  28  29
HETATM   29  O6  UNL     1      -9.104  15.667  20.792  1.00  0.00    -0.400 OA
HETATM   30  H48 UNL     1      -8.495  15.591  21.548  1.00  0.00     0.209 HD
ENDBRANCH  28  29
ENDBRANCH  26  28
ENDBRANCH  24  26
ENDBRANCH  23  24
ENDBRANCH  22  23
ENDBRANCH  20  22
ENDBRANCH   1  20
BRANCH   2  31
HETATM   31  O1  UNL     1      -2.520  13.947  14.911  1.00  0.00    -0.393 OA
HETATM   32  H13 UNL     1      -2.401  14.046  13.948  1.00  0.00     0.210 HD
ENDBRANCH   2  31
BRANCH   3  33
HETATM   33  O2  UNL     1      -0.773  11.577  14.163  1.00  0.00    -0.392 OA
HETATM   34  H15 UNL     1      -0.366  12.425  13.911  1.00  0.00     0.210 HD
ENDBRANCH   3  33
BRANCH   5  35
HETATM   35  O3  UNL     1      -1.619   8.293  16.854  1.00  0.00    -0.389 OA
HETATM   36  H17 UNL     1      -1.102   7.468  16.726  1.00  0.00     0.210 HD
ENDBRANCH   5  35
BRANCH   7  37
HETATM   37  O4  UNL     1       0.082   6.665  15.791  1.00  0.00    -0.395 OA
HETATM   38  H21 UNL     1       0.072   5.833  15.270  1.00  0.00     0.210 HD
ENDBRANCH   7  37
BRANCH  10  39
HETATM   39  O5  UNL     1       1.117   6.817  10.740  1.00  0.00    -0.396 OA
HETATM   40  H26 UNL     1       2.062   6.623  10.870  1.00  0.00     0.210 HD
ENDBRANCH  10  39
TORSDOF 12
ENDMDL
MODEL 3
REMARK minimizedAffinity -7.99374199
REMARK CNNscore 0.801765144
REMARK CNNaffinity 6.27770472
REMARK  12 active torsions:
REMARK  status: ('A' for Active; 'I' for Inactive)
REMARK    1  A    between atoms: C2_2  and  C3_3 
REMARK    2  A    between atoms: C2_2  and  C26_31 
REMARK    3  A    between atoms: C3_3  and  C4_4 
REMARK    4  A    between atoms: C4_4  and  C5_5 
REMARK    5  A    between atoms: C5_5  and  C7_7 
REMARK    6  A    between atoms: C8_8  and  O1_9 
REMARK    7  A    between atoms: C9_10  and  O2_11 
REMARK    8  A    between atoms: C11_13  and  O3_14 
REMARK    9  A    between atoms: C13_16  and  O4_17 
REMARK   10  A    between atoms: C16_20  and  O5_21 
REMARK   11  A    between atoms: C26_31  and  C28_33 
REMARK   12  A    between atoms: C28_33  and  O6_34 
ROOT
HETATM    1  C7  UNL     1       1.545   7.027  11.311  1.00  0.00     0.029 C 
HETATM    2  C8  UNL     1       0.528   5.888  11.477  1.00  0.00     0.152 C 
HETATM    3  C9  UNL     1       0.247   5.843  12.982  1.00  0.00     0.155 C 
HETATM    4  C10 UNL     1       0.420   7.297  13.490  1.00  0.00     0.060 C 
HETATM    5  C11 UNL     1      -0.699   7.940  14.352  1.00  0.00     0.071 C 
HETATM    6  C12 UNL     1      -1.037   7.132  15.614  1.00  0.00     0.071 C 
HETATM    7  C13 UNL     1      -2.203   7.753  16.380  1.00  0.00     0.126 C 
HETATM    8  C14 UNL     1      -3.511   7.617  15.590  1.00  0.00     0.025 C 
HETATM    9  C15 UNL     1      -4.085   6.196  15.805  1.00  0.00     0.039 C 
HETATM   10  C16 UNL     1      -5.425   5.996  15.110  1.00  0.00     0.118 C 
HETATM   11  C17 UNL     1      -5.385   6.378  13.636  1.00  0.00     0.032 C 
HETATM   12  C18 UNL     1      -4.019   6.890  13.180  1.00  0.00     0.012 C 
HETATM   13  C19 UNL     1      -3.407   8.019  14.066  1.00  0.00    -0.031 C 
HETATM   14  C20 UNL     1      -4.314   9.277  13.872  1.00  0.00     0.016 C 
HETATM   15  C21 UNL     1      -1.944   8.455  13.564  1.00  0.00     0.029 C 
HETATM   16  C22 UNL     1      -1.758   8.302  12.038  1.00  0.00     0.009 C 
HETATM   17  C23 UNL     1      -0.395   8.770  11.527  1.00  0.00     0.011 C 
HETATM   18  C24 UNL     1       0.850   8.133  12.225  1.00  0.00    -0.029 C 
HETATM   19  C25 UNL     1       1.794   9.307  12.564  1.00  0.00     0.016 C 
ENDROOT
BRANCH   1  20
HETATM   20  C5  UNL     1       3.054   6.727  11.686  1.00  0.00    -0.011 C 
HETATM   21  C6  UNL     1       3.458   7.589  12.898  1.00  0.00     0.010 C 
BRANCH  20  22
HETATM   22  C4  UNL     1       4.099   6.910  10.560  1.00  0.00     0.009 C 
BRANCH  22  23
HETATM   23  C3  UNL     1       4.381   5.632   9.743  1.00  0.00     0.034 C 
BRANCH  23  24
HETATM   24  C2  UNL     1       3.476   5.379   8.541  1.00  0.00    -0.083 C 
HETATM   25  C1  UNL     1       2.625   6.303   8.056  1.00  0.00     0.015 C 
BRANCH  24  26
HETATM   26  C26 UNL     1       3.604   3.965   7.946  1.00  0.00     0.033 C 
HETATM   27  C27 UNL     1       3.579   3.910   6.412  1.00  0.00     0.017 C 
BRANCH  26  28
HETATM   28  C28 UNL     1       4.844   3.226   8.483  1.00  0.00     0.172 C 
BRANCH  28  29
HETATM   29  O6  UNL     1       4.525   2.370   9.575  1.00  0.00    -0.400 OA
HETATM   30  H48 UNL     1       3.848   1.749   9.254  1.00  0.00     0.209 HD
ENDBRANCH  28  29
ENDBRANCH  26  28
ENDBRANCH  24  26
ENDBRANCH  23  24
ENDBRANCH  22  23
ENDBRANCH  20  22
ENDBRANCH   1  20
BRANCH   2  31
HETATM   31  O1  UNL     1       0.909   4.625  10.958  1.00  0.00    -0.393 OA
HETATM   32  H13 UNL     1       0.090   4.166  10.694  1.00  0.00     0.210 HD
ENDBRANCH   2  31
BRANCH   3  33
HETATM   33  O2  UNL     1      -1.025   5.261  13.214  1.00  0.00    -0.392 OA
HETATM   34  H15 UNL     1      -0.906   4.302  13.094  1.00  0.00     0.210 HD
ENDBRANCH   3  33
BRANCH   5  35
HETATM   35  O3  UNL     1      -0.049   9.145  14.859  1.00  0.00    -0.389 OA
HETATM   36  H17 UNL     1      -0.595   9.459  15.612  1.00  0.00     0.210 HD
ENDBRANCH   5  35
BRANCH   7  37
HETATM   37  O4  UNL     1      -1.918   9.127  16.643  1.00  0.00    -0.395 OA
HETATM   38  H21 UNL     1      -2.756   9.603  16.829  1.00  0.00     0.210 HD
ENDBRANCH   7  37
BRANCH  10  39
HETATM   39  O5  UNL     1      -6.425   6.781  15.757  1.00  0.00    -0.396 OA
HETATM   40  H26 UNL     1      -6.503   6.460  16.673  1.00  0.00     0.210 HD
ENDBRANCH  10  39
TORSDOF 12
ENDMDL
MODEL 4
REMARK minimizedAffinity -6.79343414
REMARK CNNscore 0.743467748
REMARK CNNaffinity 5.79678202
REMARK  12 active torsions:
REMARK  status: ('A' for Active; 'I' for Inactive)
REMARK    1  A    between atoms: C2_2  and  C3_3 
REMARK    2  A    between atoms: C2_2  and  C26_31 
REMARK    3  A    between atoms: C3_3  and  C4_4 
REMARK    4  A    between atoms: C4_4  and  C5_5 
REMARK    5  A    between atoms: C5_5  and  C7_7 
REMARK    6  A    between atoms: C8_8  and  O1_9 
REMARK    7  A    between atoms: C9_10  and  O2_11 
REMARK    8  A    between atoms: C11_13  and  O3_14 
REMARK    9  A    between atoms: C13_16  and  O4_17 
REMARK   10  A    between atoms: C16_20  and  O5_21 
REMARK   11  A    between atoms: C26_31  and  C28_33 
REMARK   12  A    between atoms: C28_33  and  O6_34 
ROOT
HETATM    1  C7  UNL     1     -13.282   7.251  22.957  1.00  0.00     0.029 C 
HETATM    2  C8  UNL     1     -12.994   8.117  21.722  1.00  0.00     0.152 C 
HETATM    3  C9  UNL     1     -13.590   9.485  22.067  1.00  0.00     0.155 C 
HETATM    4  C10 UNL     1     -13.474   9.623  23.606  1.00  0.00     0.060 C 
HETATM    5  C11 UNL     1     -12.840  10.904  24.210  1.00  0.00     0.071 C 
HETATM    6  C12 UNL     1     -13.537  12.199  23.761  1.00  0.00     0.071 C 
HETATM    7  C13 UNL     1     -12.823  13.434  24.305  1.00  0.00     0.126 C 
HETATM    8  C14 UNL     1     -11.446  13.605  23.650  1.00  0.00     0.025 C 
HETATM    9  C15 UNL     1     -11.625  14.277  22.267  1.00  0.00     0.039 C 
HETATM   10  C16 UNL     1     -10.296  14.548  21.574  1.00  0.00     0.118 C 
HETATM   11  C17 UNL     1      -9.411  13.311  21.497  1.00  0.00     0.032 C 
HETATM   12  C18 UNL     1     -10.038  12.076  22.142  1.00  0.00     0.012 C 
HETATM   13  C19 UNL     1     -10.576  12.288  23.591  1.00  0.00    -0.031 C 
HETATM   14  C20 UNL     1      -9.327  12.535  24.497  1.00  0.00     0.016 C 
HETATM   15  C21 UNL     1     -11.281  10.966  24.173  1.00  0.00     0.029 C 
HETATM   16  C22 UNL     1     -10.670   9.660  23.617  1.00  0.00     0.009 C 
HETATM   17  C23 UNL     1     -11.282   8.388  24.204  1.00  0.00     0.011 C 
HETATM   18  C24 UNL     1     -12.837   8.269  24.100  1.00  0.00    -0.029 C 
HETATM   19  C25 UNL     1     -13.325   7.843  25.502  1.00  0.00     0.016 C 
ENDROOT
BRANCH   1  20
HETATM   20  C5  UNL     1     -14.749   6.679  23.128  1.00  0.00    -0.011 C 
HETATM   21  C6  UNL     1     -15.667   7.790  23.677  1.00  0.00     0.010 C 
BRANCH  20  22
HETATM   22  C4  UNL     1     -14.904   5.413  24.003  1.00  0.00     0.009 C 
BRANCH  22  23
HETATM   23  C3  UNL     1     -13.605   4.600  24.178  1.00  0.00     0.034 C 
BRANCH  23  24
HETATM   24  C2  UNL     1     -13.489   3.317  23.360  1.00  0.00    -0.083 C 
HETATM   25  C1  UNL     1     -13.830   3.244  22.059  1.00  0.00     0.015 C 
BRANCH  24  26
HETATM   26  C26 UNL     1     -12.972   2.108  24.159  1.00  0.00     0.033 C 
HETATM   27  C27 UNL     1     -11.469   2.142  24.473  1.00  0.00     0.017 C 
BRANCH  26  28
HETATM   28  C28 UNL     1     -13.779   1.887  25.452  1.00  0.00     0.172 C 
BRANCH  28  29
HETATM   29  O6  UNL     1     -14.673   0.785  25.342  1.00  0.00    -0.400 OA
HETATM   30  H48 UNL     1     -14.132   0.007  25.119  1.00  0.00     0.209 HD
ENDBRANCH  28  29
ENDBRANCH  26  28
ENDBRANCH  24  26
ENDBRANCH  23  24
ENDBRANCH  22  23
ENDBRANCH  20  22
ENDBRANCH   1  20
BRANCH   2  31
HETATM   31  O1  UNL     1     -13.462   7.618  20.480  1.00  0.00    -0.393 OA
HETATM   32  H13 UNL     1     -12.855   7.949  19.793  1.00  0.00     0.210 HD
ENDBRANCH   2  31
BRANCH   3  33
HETATM   33  O2  UNL     1     -12.941  10.494  21.311  1.00  0.00    -0.392 OA
HETATM   34  H15 UNL     1     -13.311  10.435  20.412  1.00  0.00     0.210 HD
ENDBRANCH   3  33
BRANCH   5  35
HETATM   35  O3  UNL     1     -13.179  10.784  25.624  1.00  0.00    -0.389 OA
HETATM   36  H17 UNL     1     -13.046  11.673  26.019  1.00  0.00     0.210 HD
ENDBRANCH   5  35
BRANCH   7  37
HETATM   37  O4  UNL     1     -12.692  13.319  25.722  1.00  0.00    -0.395 OA
HETATM   38  H21 UNL     1     -11.976  13.915  26.032  1.00  0.00     0.210 HD
ENDBRANCH   7  37
BRANCH  10  39
HETATM   39  O5  UNL     1      -9.590  15.572  22.272  1.00  0.00    -0.396 OA
HETATM   40  H26 UNL     1     -10.129  16.382  22.231  1.00  0.00     0.210 HD
ENDBRANCH  10  39
TORSDOF 12
ENDMDL
MODEL 5
REMARK minimizedAffinity -6.58640146
REMARK CNNscore 0.710924089
REMARK CNNaffinity 6.02350998
REMARK  12 active torsions:
REMARK  status: ('A' for Active; 'I' for Inactive)
REMARK    1  A    between atoms: C2_2  and  C3_3 
REMARK    2  A    between atoms: C2_2  and  C26_31 
REMARK    3  A    between atoms: C3_3  and  C4_4 
REMARK    4  A    between atoms: C4_4  and  C5_5 
REMARK    5  A    between atoms: C5_5  and  C7_7 
REMARK    6  A    between atoms: C8_8  and  O1_9 
REMARK    7  A    between atoms: C9_10  and  O2_11 
REMARK    8  A    between atoms: C11_13  and  O3_14 
REMARK    9  A    between atoms: C13_16  and  O4_17 
REMARK   10  A    between atoms: C16_20  and  O5_21 
REMARK   11  A    between atoms: C26_31  and  C28_33 
REMARK   12  A    between atoms: C28_33  and  O6_34 
ROOT
HETATM    1  C7  UNL     1      -2.948  12.100  17.180  1.00  0.00     0.029 C 
HETATM    2  C8  UNL     1      -2.922  12.140  15.645  1.00  0.00     0.152 C 
HETATM    3  C9  UNL     1      -1.435  12.070  15.286  1.00  0.00     0.155 C 
HETATM    4  C10 UNL     1      -0.764  11.246  16.414  1.00  0.00     0.060 C 
HETATM    5  C11 UNL     1       0.154  10.052  16.043  1.00  0.00     0.071 C 
HETATM    6  C12 UNL     1       1.314  10.441  15.112  1.00  0.00     0.071 C 
HETATM    7  C13 UNL     1       2.133   9.220  14.700  1.00  0.00     0.126 C 
HETATM    8  C14 UNL     1       1.320   8.300  13.781  1.00  0.00     0.025 C 
HETATM    9  C15 UNL     1       1.368   8.859  12.337  1.00  0.00     0.039 C 
HETATM   10  C16 UNL     1       0.641   7.964  11.342  1.00  0.00     0.118 C 
HETATM   11  C17 UNL     1      -0.780   7.632  11.778  1.00  0.00     0.032 C 
HETATM   12  C18 UNL     1      -1.161   8.252  13.121  1.00  0.00     0.012 C 
HETATM   13  C19 UNL     1      -0.147   7.997  14.279  1.00  0.00    -0.031 C 
HETATM   14  C20 UNL     1      -0.207   6.467  14.593  1.00  0.00     0.016 C 
HETATM   15  C21 UNL     1      -0.582   8.737  15.638  1.00  0.00     0.029 C 
HETATM   16  C22 UNL     1      -2.115   8.870  15.791  1.00  0.00     0.009 C 
HETATM   17  C23 UNL     1      -2.556   9.514  17.105  1.00  0.00     0.011 C 
HETATM   18  C24 UNL     1      -1.922  10.905  17.428  1.00  0.00    -0.029 C 
HETATM   19  C25 UNL     1      -1.443  10.824  18.894  1.00  0.00     0.016 C 
ENDROOT
BRANCH   1  20
HETATM   20  C5  UNL     1      -2.596  13.434  17.957  1.00  0.00    -0.011 C 
HETATM   21  C6  UNL     1      -1.073  13.501  18.186  1.00  0.00     0.010 C 
BRANCH  20  22
HETATM   22  C4  UNL     1      -3.323  13.668  19.302  1.00  0.00     0.009 C 
BRANCH  22  23
HETATM   23  C3  UNL     1      -4.550  12.760  19.526  1.00  0.00     0.034 C 
BRANCH  23  24
HETATM   24  C2  UNL     1      -5.800  13.430  20.089  1.00  0.00    -0.083 C 
HETATM   25  C1  UNL     1      -6.694  14.078  19.319  1.00  0.00     0.015 C 
BRANCH  24  26
HETATM   26  C26 UNL     1      -5.934  13.322  21.618  1.00  0.00     0.033 C 
HETATM   27  C27 UNL     1      -5.252  14.452  22.403  1.00  0.00     0.017 C 
BRANCH  26  28
HETATM   28  C28 UNL     1      -7.404  13.184  22.057  1.00  0.00     0.172 C 
BRANCH  28  29
HETATM   29  O6  UNL     1      -7.530  13.030  23.466  1.00  0.00    -0.400 OA
HETATM   30  H48 UNL     1      -7.106  13.808  23.871  1.00  0.00     0.209 HD
ENDBRANCH  28  29
ENDBRANCH  26  28
ENDBRANCH  24  26
ENDBRANCH  23  24
ENDBRANCH  22  23
ENDBRANCH  20  22
ENDBRANCH   1  20
BRANCH   2  31
HETATM   31  O1  UNL     1      -3.577  13.239  15.033  1.00  0.00    -0.393 OA
HETATM   32  H13 UNL     1      -3.899  12.932  14.166  1.00  0.00     0.210 HD
ENDBRANCH   2  31
BRANCH   3  33
HETATM   33  O2  UNL     1      -1.283  11.550  13.976  1.00  0.00    -0.392 OA
HETATM   34  H15 UNL     1      -1.510  12.279  13.371  1.00  0.00     0.210 HD
ENDBRANCH   3  33
BRANCH   5  35
HETATM   35  O3  UNL     1       0.800   9.746  17.315  1.00  0.00    -0.389 OA
HETATM   36  H17 UNL     1       1.579   9.187  17.104  1.00  0.00     0.210 HD
ENDBRANCH   5  35
BRANCH   7  37
HETATM   37  O4  UNL     1       2.552   8.516  15.869  1.00  0.00    -0.395 OA
HETATM   38  H21 UNL     1       2.783   7.593  15.627  1.00  0.00     0.210 HD
ENDBRANCH   7  37
BRANCH  10  39
HETATM   39  O5  UNL     1       1.363   6.747  11.173  1.00  0.00    -0.396 OA
HETATM   40  H26 UNL     1       2.236   6.971  10.804  1.00  0.00     0.210 HD
ENDBRANCH  10  39
TORSDOF 12
ENDMDL
MODEL 6
REMARK minimizedAffinity -8.84024429
REMARK CNNscore 0.694009125
REMARK CNNaffinity 6.31800795
REMARK  12 active torsions:
REMARK  status: ('A' for Active; 'I' for Inactive)
REMARK    1  A    between atoms: C2_2  and  C3_3 
REMARK    2  A    between atoms: C2_2  and  C26_31 
REMARK    3  A    between atoms: C3_3  and  C4_4 
REMARK    4  A    between atoms: C4_4  and  C5_5 
REMARK    5  A    between atoms: C5_5  and  C7_7 
REMARK    6  A    between atoms: C8_8  and  O1_9 
REMARK    7  A    between atoms: C9_10  and  O2_11 
REMARK    8  A    between atoms: C11_13  and  O3_14 
REMARK    9  A    between atoms: C13_16  and  O4_17 
REMARK   10  A    between atoms: C16_20  and  O5_21 
REMARK   11  A    between atoms: C26_31  and  C28_33 
REMARK   12  A    between atoms: C28_33  and  O6_34 
ROOT
HETATM    1  C7  UNL     1       1.424   6.818  11.230  1.00  0.00     0.029 C 
HETATM    2  C8  UNL     1       0.326   5.763  11.431  1.00  0.00     0.152 C 
HETATM    3  C9  UNL     1       0.118   5.712  12.948  1.00  0.00     0.155 C 
HETATM    4  C10 UNL     1       0.436   7.136  13.469  1.00  0.00     0.060 C 
HETATM    5  C11 UNL     1      -0.581   7.852  14.397  1.00  0.00     0.071 C 
HETATM    6  C12 UNL     1      -0.921   7.050  15.662  1.00  0.00     0.071 C 
HETATM    7  C13 UNL     1      -1.992   7.750  16.496  1.00  0.00     0.126 C 
HETATM    8  C14 UNL     1      -3.345   7.737  15.773  1.00  0.00     0.025 C 
HETATM    9  C15 UNL     1      -4.023   6.363  15.996  1.00  0.00     0.039 C 
HETATM   10  C16 UNL     1      -5.408   6.288  15.367  1.00  0.00     0.118 C 
HETATM   11  C17 UNL     1      -5.411   6.694  13.899  1.00  0.00     0.032 C 
HETATM   12  C18 UNL     1      -4.032   7.101  13.382  1.00  0.00     0.012 C 
HETATM   13  C19 UNL     1      -3.285   8.158  14.253  1.00  0.00    -0.031 C 
HETATM   14  C20 UNL     1      -4.092   9.490  14.124  1.00  0.00     0.016 C 
HETATM   15  C21 UNL     1      -1.817   8.483  13.682  1.00  0.00     0.029 C 
HETATM   16  C22 UNL     1      -1.721   8.345  12.146  1.00  0.00     0.009 C 
HETATM   17  C23 UNL     1      -0.351   8.709  11.573  1.00  0.00     0.011 C 
HETATM   18  C24 UNL     1       0.870   7.959  12.196  1.00  0.00    -0.029 C 
HETATM   19  C25 UNL     1       1.923   9.045  12.504  1.00  0.00     0.016 C 
ENDROOT
BRANCH   1  20
HETATM   20  C5  UNL     1       2.920   6.388  11.522  1.00  0.00    -0.011 C 
HETATM   21  C6  UNL     1       3.606   7.477  12.369  1.00  0.00     0.010 C 
BRANCH  20  22
HETATM   22  C4  UNL     1       3.803   6.067  10.293  1.00  0.00     0.009 C 
BRANCH  22  23
HETATM   23  C3  UNL     1       3.110   6.303   8.935  1.00  0.00     0.034 C 
BRANCH  23  24
HETATM   24  C2  UNL     1       2.978   7.754   8.481  1.00  0.00    -0.083 C 
HETATM   25  C1  UNL     1       3.792   8.735   8.915  1.00  0.00     0.015 C 
BRANCH  24  26
HETATM   26  C26 UNL     1       1.816   8.002   7.503  1.00  0.00     0.033 C 
HETATM   27  C27 UNL     1       1.799   7.074   6.280  1.00  0.00     0.017 C 
BRANCH  26  28
HETATM   28  C28 UNL     1       0.450   7.969   8.213  1.00  0.00     0.172 C 
BRANCH  28  29
HETATM   29  O6  UNL     1      -0.066   9.275   8.441  1.00  0.00    -0.400 OA
HETATM   30  H48 UNL     1      -0.124   9.708   7.570  1.00  0.00     0.209 HD
ENDBRANCH  28  29
ENDBRANCH  26  28
ENDBRANCH  24  26
ENDBRANCH  23  24
ENDBRANCH  22  23
ENDBRANCH  20  22
ENDBRANCH   1  20
BRANCH   2  31
HETATM   31  O1  UNL     1       0.574   4.483  10.874  1.00  0.00    -0.393 OA
HETATM   32  H13 UNL     1      -0.292   4.099  10.645  1.00  0.00     0.210 HD
ENDBRANCH   2  31
BRANCH   3  33
HETATM   33  O2  UNL     1      -1.185   5.232  13.236  1.00  0.00    -0.392 OA
HETATM   34  H15 UNL     1      -1.152   4.268  13.095  1.00  0.00     0.210 HD
ENDBRANCH   3  33
BRANCH   5  35
HETATM   35  O3  UNL     1       0.191   8.989  14.888  1.00  0.00    -0.389 OA
HETATM   36  H17 UNL     1      -0.288   9.332  15.673  1.00  0.00     0.210 HD
ENDBRANCH   5  35
BRANCH   7  37
HETATM   37  O4  UNL     1      -1.581   9.090  16.765  1.00  0.00    -0.395 OA
HETATM   38  H21 UNL     1      -2.366   9.630  17.002  1.00  0.00     0.210 HD
ENDBRANCH   7  37
BRANCH  10  39
HETATM   39  O5  UNL     1      -6.305   7.139  16.077  1.00  0.00    -0.396 OA
HETATM   40  H26 UNL     1      -6.364   6.808  16.991  1.00  0.00     0.210 HD
ENDBRANCH  10  39
TORSDOF 12
ENDMDL
MODEL 7
REMARK minimizedAffinity -8.36915207
REMARK CNNscore 0.666434407
REMARK CNNaffinity 6.40756369
REMARK  12 active torsions:
REMARK  status: ('A' for Active; 'I' for Inactive)
REMARK    1  A    between atoms: C2_2  and  C3_3 
REMARK    2  A    between atoms: C2_2  and  C26_31 
REMARK    3  A    between atoms: C3_3  and  C4_4 
REMARK    4  A    between atoms: C4_4  and  C5_5 
REMARK    5  A    between atoms: C5_5  and  C7_7 
REMARK    6  A    between atoms: C8_8  and  O1_9 
REMARK    7  A    between atoms: C9_10  and  O2_11 
REMARK    8  A    between atoms: C11_13  and  O3_14 
REMARK    9  A    between atoms: C13_16  and  O4_17 
REMARK   10  A    between atoms: C16_20  and  O5_21 
REMARK   11  A    between atoms: C26_31  and  C28_33 
REMARK   12  A    between atoms: C28_33  and  O6_34 
ROOT
HETATM    1  C7  UNL     1      -1.505   7.498  13.589  1.00  0.00     0.029 C 
HETATM    2  C8  UNL     1      -2.625   8.545  13.486  1.00  0.00     0.152 C 
HETATM    3  C9  UNL     1      -3.724   7.850  12.676  1.00  0.00     0.155 C 
HETATM    4  C10 UNL     1      -3.604   6.340  13.005  1.00  0.00     0.060 C 
HETATM    5  C11 UNL     1      -4.868   5.554  13.441  1.00  0.00     0.071 C 
HETATM    6  C12 UNL     1      -6.017   5.633  12.423  1.00  0.00     0.071 C 
HETATM    7  C13 UNL     1      -7.268   4.924  12.936  1.00  0.00     0.126 C 
HETATM    8  C14 UNL     1      -7.880   5.680  14.122  1.00  0.00     0.025 C 
HETATM    9  C15 UNL     1      -8.729   6.858  13.585  1.00  0.00     0.039 C 
HETATM   10  C16 UNL     1      -9.432   7.625  14.698  1.00  0.00     0.118 C 
HETATM   11  C17 UNL     1      -8.479   8.065  15.801  1.00  0.00     0.032 C 
HETATM   12  C18 UNL     1      -7.034   7.631  15.562  1.00  0.00     0.012 C 
HETATM   13  C19 UNL     1      -6.844   6.118  15.230  1.00  0.00    -0.031 C 
HETATM   14  C20 UNL     1      -7.216   5.329  16.528  1.00  0.00     0.016 C 
HETATM   15  C21 UNL     1      -5.308   5.754  14.925  1.00  0.00     0.029 C 
HETATM   16  C22 UNL     1      -4.310   6.642  15.702  1.00  0.00     0.009 C 
HETATM   17  C23 UNL     1      -2.844   6.274  15.476  1.00  0.00     0.011 C 
HETATM   18  C24 UNL     1      -2.376   6.222  13.986  1.00  0.00    -0.029 C 
HETATM   19  C25 UNL     1      -1.599   4.897  13.831  1.00  0.00     0.016 C 
ENDROOT
BRANCH   1  20
HETATM   20  C5  UNL     1      -0.577   7.286  12.324  1.00  0.00    -0.011 C 
HETATM   21  C6  UNL     1       0.786   6.731  12.781  1.00  0.00     0.010 C 
BRANCH  20  22
HETATM   22  C4  UNL     1      -0.347   8.518  11.417  1.00  0.00     0.009 C 
BRANCH  22  23
HETATM   23  C3  UNL     1       0.972   8.479  10.618  1.00  0.00     0.034 C 
BRANCH  23  24
HETATM   24  C2  UNL     1       0.856   8.177   9.127  1.00  0.00    -0.083 C 
HETATM   25  C1  UNL     1      -0.280   8.361   8.427  1.00  0.00     0.015 C 
BRANCH  24  26
HETATM   26  C26 UNL     1       2.145   7.619   8.498  1.00  0.00     0.033 C 
HETATM   27  C27 UNL     1       3.145   8.687   8.032  1.00  0.00     0.017 C 
BRANCH  26  28
HETATM   28  C28 UNL     1       2.844   6.606   9.423  1.00  0.00     0.172 C 
BRANCH  28  29
HETATM   29  O6  UNL     1       2.164   5.355   9.457  1.00  0.00    -0.400 OA
HETATM   30  H48 UNL     1       2.124   5.034   8.538  1.00  0.00     0.209 HD
ENDBRANCH  28  29
ENDBRANCH  26  28
ENDBRANCH  24  26
ENDBRANCH  23  24
ENDBRANCH  22  23
ENDBRANCH  20  22
ENDBRANCH   1  20
BRANCH   2  31
HETATM   31  O1  UNL     1      -2.262   9.802  12.942  1.00  0.00    -0.393 OA
HETATM   32  H13 UNL     1      -2.847  10.468  13.346  1.00  0.00     0.210 HD
ENDBRANCH   2  31
BRANCH   3  33
HETATM   33  O2  UNL     1      -4.979   8.442  12.966  1.00  0.00    -0.392 OA
HETATM   34  H15 UNL     1      -4.997   9.285  12.479  1.00  0.00     0.210 HD
ENDBRANCH   3  33
BRANCH   5  35
HETATM   35  O3  UNL     1      -4.416   4.168  13.366  1.00  0.00    -0.389 OA
HETATM   36  H17 UNL     1      -5.225   3.611  13.369  1.00  0.00     0.210 HD
ENDBRANCH   5  35
BRANCH   7  37
HETATM   37  O4  UNL     1      -6.933   3.588  13.313  1.00  0.00    -0.395 OA
HETATM   38  H21 UNL     1      -7.617   3.242  13.927  1.00  0.00     0.210 HD
ENDBRANCH   7  37
BRANCH  10  39
HETATM   39  O5  UNL     1     -10.452   6.810  15.273  1.00  0.00    -0.396 OA
HETATM   40  H26 UNL     1     -11.102   6.616  14.575  1.00  0.00     0.210 HD
ENDBRANCH  10  39
TORSDOF 12
ENDMDL
MODEL 8
REMARK minimizedAffinity -7.86121941
REMARK CNNscore 0.614780068
REMARK CNNaffinity 5.95666695
REMARK  12 active torsions:
REMARK  status: ('A' for Active; 'I' for Inactive)
REMARK    1  A    between atoms: C2_2  and  C3_3 
REMARK    2  A    between atoms: C2_2  and  C26_31 
REMARK    3  A    between atoms: C3_3  and  C4_4 
REMARK    4  A    between atoms: C4_4  and  C5_5 
REMARK    5  A    between atoms: C5_5  and  C7_7 
REMARK    6  A    between atoms: C8_8  and  O1_9 
REMARK    7  A    between atoms: C9_10  and  O2_11 
REMARK    8  A    between atoms: C11_13  and  O3_14 
REMARK    9  A    between atoms: C13_16  and  O4_17 
REMARK   10  A    between atoms: C16_20  and  O5_21 
REMARK   11  A    between atoms: C26_31  and  C28_33 
REMARK   12  A    between atoms: C28_33  and  O6_34 
ROOT
HETATM    1  C7  UNL     1      -2.197   7.306  14.837  1.00  0.00     0.029 C 
HETATM    2  C8  UNL     1      -1.007   7.256  15.806  1.00  0.00     0.152 C 
HETATM    3  C9  UNL     1      -0.155   8.472  15.428  1.00  0.00     0.155 C 
HETATM    4  C10 UNL     1      -1.147   9.537  14.899  1.00  0.00     0.060 C 
HETATM    5  C11 UNL     1      -1.093  10.979  15.470  1.00  0.00     0.071 C 
HETATM    6  C12 UNL     1       0.288  11.638  15.329  1.00  0.00     0.071 C 
HETATM    7  C13 UNL     1       0.319  13.016  15.988  1.00  0.00     0.126 C 
HETATM    8  C14 UNL     1       0.209  12.898  17.513  1.00  0.00     0.025 C 
HETATM    9  C15 UNL     1       1.603  12.554  18.094  1.00  0.00     0.039 C 
HETATM   10  C16 UNL     1       1.599  12.485  19.615  1.00  0.00     0.118 C 
HETATM   11  C17 UNL     1       0.512  11.568  20.160  1.00  0.00     0.032 C 
HETATM   12  C18 UNL     1      -0.345  10.931  19.068  1.00  0.00     0.012 C 
HETATM   13  C19 UNL     1      -0.929  11.927  18.019  1.00  0.00    -0.031 C 
HETATM   14  C20 UNL     1      -1.968  12.814  18.780  1.00  0.00     0.016 C 
HETATM   15  C21 UNL     1      -1.760  11.175  16.868  1.00  0.00     0.029 C 
HETATM   16  C22 UNL     1      -2.443   9.880  17.362  1.00  0.00     0.009 C 
HETATM   17  C23 UNL     1      -3.291   9.179  16.300  1.00  0.00     0.011 C 
HETATM   18  C24 UNL     1      -2.566   8.852  14.955  1.00  0.00    -0.029 C 
HETATM   19  C25 UNL     1      -3.516   9.328  13.834  1.00  0.00     0.016 C 
ENDROOT
BRANCH   1  20
HETATM   20  C5  UNL     1      -1.960   6.804  13.354  1.00  0.00    -0.011 C 
HETATM   21  C6  UNL     1      -1.860   8.023  12.415  1.00  0.00     0.010 C 
BRANCH  20  22
HETATM   22  C4  UNL     1      -2.996   5.807  12.783  1.00  0.00     0.009 C 
BRANCH  22  23
HETATM   23  C3  UNL     1      -4.226   5.583  13.688  1.00  0.00     0.034 C 
BRANCH  23  24
HETATM   24  C2  UNL     1      -5.313   4.661  13.143  1.00  0.00    -0.083 C 
HETATM   25  C1  UNL     1      -5.091   3.764  12.163  1.00  0.00     0.015 C 
BRANCH  24  26
HETATM   26  C26 UNL     1      -6.692   4.864  13.794  1.00  0.00     0.033 C 
HETATM   27  C27 UNL     1      -7.591   5.888  13.087  1.00  0.00     0.017 C 
BRANCH  26  28
HETATM   28  C28 UNL     1      -7.444   3.532  13.973  1.00  0.00     0.172 C 
BRANCH  28  29
HETATM   29  O6  UNL     1      -8.583   3.443  13.124  1.00  0.00    -0.400 OA
HETATM   30  H48 UNL     1      -8.261   3.553  12.212  1.00  0.00     0.209 HD
ENDBRANCH  28  29
ENDBRANCH  26  28
ENDBRANCH  24  26
ENDBRANCH  23  24
ENDBRANCH  22  23
ENDBRANCH  20  22
ENDBRANCH   1  20
BRANCH   2  31
HETATM   31  O1  UNL     1      -0.258   6.052  15.820  1.00  0.00    -0.393 OA
HETATM   32  H13 UNL     1       0.107   5.954  16.719  1.00  0.00     0.210 HD
ENDBRANCH   2  31
BRANCH   3  33
HETATM   33  O2  UNL     1       0.634   8.867  16.538  1.00  0.00    -0.392 OA
HETATM   34  H15 UNL     1       1.367   8.227  16.587  1.00  0.00     0.210 HD
ENDBRANCH   3  33
BRANCH   5  35
HETATM   35  O3  UNL     1      -1.941  11.717  14.540  1.00  0.00    -0.389 OA
HETATM   36  H17 UNL     1      -1.743  12.669  14.679  1.00  0.00     0.210 HD
ENDBRANCH   5  35
BRANCH   7  37
HETATM   37  O4  UNL     1      -0.748  13.811  15.470  1.00  0.00    -0.395 OA
HETATM   38  H21 UNL     1      -0.938  14.546  16.093  1.00  0.00     0.210 HD
ENDBRANCH   7  37
BRANCH  10  39
HETATM   39  O5  UNL     1       1.408  13.791  20.155  1.00  0.00    -0.396 OA
HETATM   40  H26 UNL     1       2.161  14.340  19.874  1.00  0.00     0.210 HD
ENDBRANCH  10  39
TORSDOF 12
ENDMDL
MODEL 9
REMARK minimizedAffinity -8.19824409
REMARK CNNscore 0.597577691
REMARK CNNaffinity 6.11100769
REMARK  12 active torsions:
REMARK  status: ('A' for Active; 'I' for Inactive)
REMARK    1  A    between atoms: C2_2  and  C3_3 
REMARK    2  A    between atoms: C2_2  and  C26_31 
REMARK    3  A    between atoms: C3_3  and  C4_4 
REMARK    4  A    between atoms: C4_4  and  C5_5 
REMARK    5  A    between atoms: C5_5  and  C7_7 
REMARK    6  A    between atoms: C8_8  and  O1_9 
REMARK    7  A    between atoms: C9_10  and  O2_11 
REMARK    8  A    between atoms: C11_13  and  O3_14 
REMARK    9  A    between atoms: C13_16  and  O4_17 
REMARK   10  A    between atoms: C16_20  and  O5_21 
REMARK   11  A    between atoms: C26_31  and  C28_33 
REMARK   12  A    between atoms: C28_33  and  O6_34 
ROOT
HETATM    1  C7  UNL     1      -2.743   6.397  13.094  1.00  0.00     0.029 C 
HETATM    2  C8  UNL     1      -3.339   6.688  14.479  1.00  0.00     0.152 C 
HETATM    3  C9  UNL     1      -2.121   6.917  15.379  1.00  0.00     0.155 C 
HETATM    4  C10 UNL     1      -1.023   7.516  14.464  1.00  0.00     0.060 C 
HETATM    5  C11 UNL     1      -0.291   8.811  14.901  1.00  0.00     0.071 C 
HETATM    6  C12 UNL     1       0.381   8.696  16.279  1.00  0.00     0.071 C 
HETATM    7  C13 UNL     1       1.008  10.022  16.707  1.00  0.00     0.126 C 
HETATM    8  C14 UNL     1      -0.072  11.070  16.999  1.00  0.00     0.025 C 
HETATM    9  C15 UNL     1      -0.630  10.837  18.424  1.00  0.00     0.039 C 
HETATM   10  C16 UNL     1      -1.664  11.881  18.824  1.00  0.00     0.118 C 
HETATM   11  C17 UNL     1      -2.776  12.032  17.794  1.00  0.00     0.032 C 
HETATM   12  C18 UNL     1      -2.606  11.118  16.581  1.00  0.00     0.012 C 
HETATM   13  C19 UNL     1      -1.203  11.176  15.901  1.00  0.00    -0.031 C 
HETATM   14  C20 UNL     1      -1.077  12.598  15.264  1.00  0.00     0.016 C 
HETATM   15  C21 UNL     1      -1.080  10.140  14.679  1.00  0.00     0.029 C 
HETATM   16  C22 UNL     1      -2.425   9.891  13.959  1.00  0.00     0.009 C 
HETATM   17  C23 UNL     1      -2.322   8.957  12.754  1.00  0.00     0.011 C 
HETATM   18  C24 UNL     1      -1.662   7.566  13.023  1.00  0.00    -0.029 C 
HETATM   19  C25 UNL     1      -0.630   7.359  11.893  1.00  0.00     0.016 C 
ENDROOT
BRANCH   1  20
HETATM   20  C5  UNL     1      -2.156   4.949  12.835  1.00  0.00    -0.011 C 
HETATM   21  C6  UNL     1      -1.234   4.988  11.600  1.00  0.00     0.010 C 
BRANCH  20  22
HETATM   22  C4  UNL     1      -3.181   3.802  12.669  1.00  0.00     0.009 C 
BRANCH  22  23
HETATM   23  C3  UNL     1      -4.415   4.173  11.822  1.00  0.00     0.034 C 
BRANCH  23  24
HETATM   24  C2  UNL     1      -5.589   3.199  11.868  1.00  0.00    -0.083 C 
HETATM   25  C1  UNL     1      -5.670   2.111  11.079  1.00  0.00     0.015 C 
BRANCH  24  26
HETATM   26  C26 UNL     1      -6.685   3.584  12.878  1.00  0.00     0.033 C 
HETATM   27  C27 UNL     1      -6.837   5.093  13.113  1.00  0.00     0.017 C 
BRANCH  26  28
HETATM   28  C28 UNL     1      -8.046   2.963  12.513  1.00  0.00     0.172 C 
BRANCH  28  29
HETATM   29  O6  UNL     1      -8.108   1.580  12.840  1.00  0.00    -0.400 OA
HETATM   30  H48 UNL     1      -7.926   1.509  13.794  1.00  0.00     0.209 HD
ENDBRANCH  28  29
ENDBRANCH  26  28
ENDBRANCH  24  26
ENDBRANCH  23  24
ENDBRANCH  22  23
ENDBRANCH  20  22
ENDBRANCH   1  20
BRANCH   2  31
HETATM   31  O1  UNL     1      -4.224   5.711  15.001  1.00  0.00    -0.393 OA
HETATM   32  H13 UNL     1      -4.857   6.177  15.577  1.00  0.00     0.210 HD
ENDBRANCH   2  31
BRANCH   3  33
HETATM   33  O2  UNL     1      -2.491   7.712  16.492  1.00  0.00    -0.392 OA
HETATM   34  H15 UNL     1      -2.968   7.119  17.099  1.00  0.00     0.210 HD
ENDBRANCH   3  33
BRANCH   5  35
HETATM   35  O3  UNL     1       0.824   8.874  13.961  1.00  0.00    -0.389 OA
HETATM   36  H17 UNL     1       1.471   9.508  14.338  1.00  0.00     0.210 HD
ENDBRANCH   5  35
BRANCH   7  37
HETATM   37  O4  UNL     1       1.888  10.482  15.680  1.00  0.00    -0.395 OA
HETATM   38  H21 UNL     1       2.035  11.446  15.787  1.00  0.00     0.210 HD
ENDBRANCH   7  37
BRANCH  10  39
HETATM   39  O5  UNL     1      -1.028  13.146  18.997  1.00  0.00    -0.396 OA
HETATM   40  H26 UNL     1      -0.386  13.055  19.724  1.00  0.00     0.210 HD
ENDBRANCH  10  39
TORSDOF 12
ENDMDL
