MODEL 1
REMARK minimizedAffinity -9.09934807
REMARK CNNscore 0.682235241
REMARK CNNaffinity 6.84192991
REMARK  13 active torsions:
REMARK  status: ('A' for Active; 'I' for Inactive)
REMARK    1  A    between atoms: C19_21  and  O3_22 
REMARK    2  A    between atoms: C19_21  and  C20_23 
REMARK    3  A    between atoms: C20_23  and  C21_25 
REMARK    4  A    between atoms: C21_25  and  O5_26 
REMARK    5  A    between atoms: O5_26  and  C22_27 
REMARK    6  A    between atoms: C22_27  and  C23_29 
REMARK    7  A    between atoms: C23_29  and  C24_30 
REMARK    8  A    between atoms: C24_30  and  C25_31 
REMARK       I    between atoms: C25_31  and  N1_33 
REMARK    9  A    between atoms: N1_33  and  C26_34 
REMARK   10  A    between atoms: C26_34  and  C27_35 
REMARK   11  A    between atoms: C26_34  and  C36_45 
REMARK   12  A    between atoms: C27_35  and  C28_36 
REMARK   13  A    between atoms: C36_45  and  O9_47 
ROOT
HETATM    1  C21 UNL     1      -6.416  47.591 -21.448  1.00  0.00     0.260 C 
ENDROOT
BRANCH   1   2
HETATM    2  C20 UNL     1      -6.386  47.897 -22.947  1.00  0.00     0.185 C 
HETATM    3  O4  UNL     1      -6.620  47.020 -23.784  1.00  0.00    -0.292 OA
BRANCH   2   4
HETATM    4  C19 UNL     1      -5.937  49.313 -23.374  1.00  0.00     0.128 C 
HETATM    5  C14 UNL     1      -4.475  49.469 -23.918  1.00  0.00     0.005 C 
HETATM    6  C13 UNL     1      -4.266  49.077 -25.398  1.00  0.00     0.091 C 
HETATM    7  C15 UNL     1      -3.489  48.694 -23.012  1.00  0.00     0.019 C 
HETATM    8  C16 UNL     1      -4.322  51.004 -23.806  1.00  0.00     0.002 C 
HETATM    9  C12 UNL     1      -3.270  49.960 -26.154  1.00  0.00     0.133 C 
HETATM   10  C11 UNL     1      -2.267  50.760 -25.326  1.00  0.00     0.072 C 
HETATM   11  O2  UNL     1      -3.226  49.907 -27.382  1.00  0.00    -0.297 OA
HETATM   12  C2  UNL     1      -1.211  51.648 -26.079  1.00  0.00    -0.009 C 
HETATM   13  C10 UNL     1      -2.963  51.584 -24.213  1.00  0.00     0.003 C 
HETATM   14  C1  UNL     1      -0.141  50.730 -26.711  1.00  0.00     0.021 C 
HETATM   15  C3  UNL     1      -1.840  52.554 -27.167  1.00  0.00     0.022 C 
HETATM   16  C7  UNL     1      -0.526  52.559 -25.038  1.00  0.00    -0.067 C 
HETATM   17  C4  UNL     1      -0.860  53.565 -27.755  1.00  0.00     0.084 C 
HETATM   18  C5  UNL     1      -0.156  54.358 -26.683  1.00  0.00     0.149 C 
HETATM   19  O1  UNL     1       0.355  55.453 -26.912  1.00  0.00    -0.293 OA
HETATM   20  C6  UNL     1      -0.052  53.783 -25.323  1.00  0.00     0.053 C 
HETATM   21  C8  UNL     1      -0.513  52.047 -23.615  1.00  0.00     0.035 C 
HETATM   22  C9  UNL     1      -1.946  51.850 -23.084  1.00  0.00     0.010 C 
HETATM   23  C17 UNL     1      -4.889  51.360 -22.439  1.00  0.00     0.009 C 
HETATM   24  C18 UNL     1      -5.985  50.314 -22.184  1.00  0.00     0.047 C 
BRANCH   4  25
HETATM   25  O3  UNL     1      -6.876  49.769 -24.360  1.00  0.00    -0.381 OA
HETATM   26  H25 UNL     1      -7.734  49.896 -23.916  1.00  0.00     0.211 HD
ENDBRANCH   4  25
ENDBRANCH   2   4
ENDBRANCH   1   2
BRANCH   1  27
HETATM   27  O5  UNL     1      -7.746  47.323 -20.995  1.00  0.00    -0.314 OA
BRANCH  27  28
HETATM   28  C22 UNL     1      -7.889  46.134 -20.353  1.00  0.00     0.259 C 
HETATM   29  O6  UNL     1      -7.000  45.294 -20.253  1.00  0.00    -0.265 OA
BRANCH  28  30
HETATM   30  C23 UNL     1      -9.237  45.991 -19.688  1.00  0.00     0.120 C 
BRANCH  30  31
HETATM   31  C24 UNL     1      -9.809  47.275 -19.099  1.00  0.00     0.112 C 
BRANCH  31  32
HETATM   32  C25 UNL     1     -11.324  47.264 -19.081  1.00  0.00     0.218 C 
HETATM   33  O7  UNL     1     -11.992  47.626 -18.117  1.00  0.00    -0.274 OA
HETATM   34  N1  UNL     1     -11.872  46.815 -20.258  1.00  0.00    -0.346 N 
HETATM   35  H32 UNL     1     -11.282  46.283 -20.884  1.00  0.00     0.163 HD
BRANCH  34  36
HETATM   36  C26 UNL     1     -13.325  46.658 -20.403  1.00  0.00     0.186 C 
BRANCH  36  37
HETATM   37  C27 UNL     1     -13.994  46.291 -19.070  1.00  0.00     0.077 C 
BRANCH  37  38
HETATM   38  C28 UNL     1     -15.282  45.545 -19.241  1.00  0.00    -0.028 A 
HETATM   39  C29 UNL     1     -15.423  44.178 -19.372  1.00  0.00     0.096 A 
HETATM   40  N2  UNL     1     -16.756  43.890 -19.476  1.00  0.00    -0.365 N 
HETATM   41  C30 UNL     1     -17.499  45.047 -19.423  1.00  0.00     0.042 A 
HETATM   42  H37 UNL     1     -17.147  42.964 -19.576  1.00  0.00     0.165 HD
HETATM   43  C31 UNL     1     -18.886  45.230 -19.486  1.00  0.00     0.030 A 
HETATM   44  C35 UNL     1     -16.600  46.106 -19.284  1.00  0.00    -0.002 A 
HETATM   45  C32 UNL     1     -19.370  46.539 -19.413  1.00  0.00     0.002 A 
HETATM   46  C33 UNL     1     -18.502  47.619 -19.277  1.00  0.00     0.001 A 
HETATM   47  C34 UNL     1     -17.117  47.416 -19.211  1.00  0.00     0.014 A 
ENDBRANCH  37  38
ENDBRANCH  36  37
BRANCH  36  48
HETATM   48  C36 UNL     1     -13.983  47.941 -20.917  1.00  0.00     0.163 C 
HETATM   49  O8  UNL     1     -13.858  49.054 -20.432  1.00  0.00    -0.648 OA
BRANCH  48  50
HETATM   50  O9  UNL     1     -14.704  47.788 -22.051  1.00  0.00    -0.775 OA
HETATM   51  H42 UNL     1     -15.064  48.685 -22.214  1.00  0.00     0.167 HD
ENDBRANCH  48  50
ENDBRANCH  36  48
ENDBRANCH  34  36
ENDBRANCH  31  32
ENDBRANCH  30  31
ENDBRANCH  28  30
ENDBRANCH  27  28
ENDBRANCH   1  27
TORSDOF 13
ENDMDL
MODEL 2
REMARK minimizedAffinity -9.84604645
REMARK CNNscore 0.611492455
REMARK CNNaffinity 7.28943825
REMARK  13 active torsions:
REMARK  status: ('A' for Active; 'I' for Inactive)
REMARK    1  A    between atoms: C19_21  and  O3_22 
REMARK    2  A    between atoms: C19_21  and  C20_23 
REMARK    3  A    between atoms: C20_23  and  C21_25 
REMARK    4  A    between atoms: C21_25  and  O5_26 
REMARK    5  A    between atoms: O5_26  and  C22_27 
REMARK    6  A    between atoms: C22_27  and  C23_29 
REMARK    7  A    between atoms: C23_29  and  C24_30 
REMARK    8  A    between atoms: C24_30  and  C25_31 
REMARK       I    between atoms: C25_31  and  N1_33 
REMARK    9  A    between atoms: N1_33  and  C26_34 
REMARK   10  A    between atoms: C26_34  and  C27_35 
REMARK   11  A    between atoms: C26_34  and  C36_45 
REMARK   12  A    between atoms: C27_35  and  C28_36 
REMARK   13  A    between atoms: C36_45  and  O9_47 
ROOT
HETATM    1  C21 UNL     1      -2.284  51.002 -18.170  1.00  0.00     0.260 C 
ENDROOT
BRANCH   1   2
HETATM    2  C20 UNL     1      -2.935  49.870 -18.968  1.00  0.00     0.185 C 
HETATM    3  O4  UNL     1      -3.894  49.238 -18.516  1.00  0.00    -0.292 OA
BRANCH   2   4
HETATM    4  C19 UNL     1      -2.273  49.473 -20.306  1.00  0.00     0.128 C 
HETATM    5  C14 UNL     1      -2.086  50.602 -21.378  1.00  0.00     0.005 C 
HETATM    6  C13 UNL     1      -0.862  51.523 -21.173  1.00  0.00     0.091 C 
HETATM    7  C15 UNL     1      -3.380  51.443 -21.490  1.00  0.00     0.019 C 
HETATM    8  C16 UNL     1      -1.821  49.729 -22.627  1.00  0.00     0.002 C 
HETATM    9  C12 UNL     1      -0.170  51.956 -22.468  1.00  0.00     0.133 C 
HETATM   10  C11 UNL     1      -0.977  51.873 -23.762  1.00  0.00     0.072 C 
HETATM   11  O2  UNL     1       0.950  52.462 -22.414  1.00  0.00    -0.297 OA
HETATM   12  C2  UNL     1      -0.301  52.343 -25.100  1.00  0.00    -0.009 C 
HETATM   13  C10 UNL     1      -1.623  50.477 -23.950  1.00  0.00     0.003 C 
HETATM   14  C1  UNL     1      -0.219  53.886 -25.108  1.00  0.00     0.021 C 
HETATM   15  C3  UNL     1       1.109  51.739 -25.317  1.00  0.00     0.022 C 
HETATM   16  C7  UNL     1      -1.199  51.892 -26.272  1.00  0.00    -0.067 C 
HETATM   17  C4  UNL     1       1.683  52.022 -26.702  1.00  0.00     0.084 C 
HETATM   18  C5  UNL     1       0.720  51.644 -27.801  1.00  0.00     0.149 C 
HETATM   19  O1  UNL     1       1.098  51.415 -28.948  1.00  0.00    -0.293 OA
HETATM   20  C6  UNL     1      -0.725  51.578 -27.489  1.00  0.00     0.053 C 
HETATM   21  C8  UNL     1      -2.663  51.701 -25.949  1.00  0.00     0.035 C 
HETATM   22  C9  UNL     1      -2.857  50.622 -24.866  1.00  0.00     0.010 C 
HETATM   23  C17 UNL     1      -2.860  48.619 -22.563  1.00  0.00     0.009 C 
HETATM   24  C18 UNL     1      -3.104  48.397 -21.062  1.00  0.00     0.047 C 
BRANCH   4  25
HETATM   25  O3  UNL     1      -1.001  48.889 -19.986  1.00  0.00    -0.381 OA
HETATM   26  H25 UNL     1      -1.169  48.047 -19.525  1.00  0.00     0.211 HD
ENDBRANCH   4  25
ENDBRANCH   2   4
ENDBRANCH   1   2
BRANCH   1  27
HETATM   27  O5  UNL     1      -1.040  50.589 -17.597  1.00  0.00    -0.314 OA
BRANCH  27  28
HETATM   28  C22 UNL     1      -0.064  51.534 -17.640  1.00  0.00     0.259 C 
HETATM   29  O6  UNL     1      -0.084  52.511 -18.381  1.00  0.00    -0.265 OA
BRANCH  28  30
HETATM   30  C23 UNL     1       1.013  51.305 -16.607  1.00  0.00     0.120 C 
BRANCH  30  31
HETATM   31  C24 UNL     1       2.081  52.389 -16.531  1.00  0.00     0.112 C 
BRANCH  31  32
HETATM   32  C25 UNL     1       3.071  52.133 -15.413  1.00  0.00     0.218 C 
HETATM   33  O7  UNL     1       4.282  52.287 -15.533  1.00  0.00    -0.274 OA
HETATM   34  N1  UNL     1       2.470  51.719 -14.249  1.00  0.00    -0.346 N 
HETATM   35  H32 UNL     1       1.529  51.353 -14.304  1.00  0.00     0.163 HD
BRANCH  34  36
HETATM   36  C26 UNL     1       3.272  51.345 -13.077  1.00  0.00     0.186 C 
BRANCH  36  37
HETATM   37  C27 UNL     1       2.455  51.426 -11.779  1.00  0.00     0.077 C 
BRANCH  37  38
HETATM   38  C28 UNL     1       2.148  52.832 -11.360  1.00  0.00    -0.028 A 
HETATM   39  C29 UNL     1       0.936  53.479 -11.499  1.00  0.00     0.096 A 
HETATM   40  N2  UNL     1       1.055  54.735 -10.970  1.00  0.00    -0.365 N 
HETATM   41  C30 UNL     1       2.330  54.931 -10.490  1.00  0.00     0.042 A 
HETATM   42  H37 UNL     1       0.317  55.425 -10.932  1.00  0.00     0.165 HD
HETATM   43  C31 UNL     1       2.895  56.052  -9.868  1.00  0.00     0.030 A 
HETATM   44  C35 UNL     1       3.043  53.756 -10.729  1.00  0.00    -0.002 A 
HETATM   45  C32 UNL     1       4.236  55.971  -9.484  1.00  0.00     0.002 A 
HETATM   46  C33 UNL     1       4.979  54.815  -9.710  1.00  0.00     0.001 A 
HETATM   47  C34 UNL     1       4.395  53.702 -10.329  1.00  0.00     0.014 A 
ENDBRANCH  37  38
ENDBRANCH  36  37
BRANCH  36  48
HETATM   48  C36 UNL     1       3.817  49.921 -13.196  1.00  0.00     0.163 C 
HETATM   49  O8  UNL     1       4.908  49.606 -13.645  1.00  0.00    -0.648 OA
BRANCH  48  50
HETATM   50  O9  UNL     1       3.010  48.964 -12.683  1.00  0.00    -0.775 OA
HETATM   51  H42 UNL     1       3.498  48.134 -12.866  1.00  0.00     0.167 HD
ENDBRANCH  48  50
ENDBRANCH  36  48
ENDBRANCH  34  36
ENDBRANCH  31  32
ENDBRANCH  30  31
ENDBRANCH  28  30
ENDBRANCH  27  28
ENDBRANCH   1  27
TORSDOF 13
ENDMDL
MODEL 3
REMARK minimizedAffinity -9.19066429
REMARK CNNscore 0.597620904
REMARK CNNaffinity 6.82447863
REMARK  13 active torsions:
REMARK  status: ('A' for Active; 'I' for Inactive)
REMARK    1  A    between atoms: C19_21  and  O3_22 
REMARK    2  A    between atoms: C19_21  and  C20_23 
REMARK    3  A    between atoms: C20_23  and  C21_25 
REMARK    4  A    between atoms: C21_25  and  O5_26 
REMARK    5  A    between atoms: O5_26  and  C22_27 
REMARK    6  A    between atoms: C22_27  and  C23_29 
REMARK    7  A    between atoms: C23_29  and  C24_30 
REMARK    8  A    between atoms: C24_30  and  C25_31 
REMARK       I    between atoms: C25_31  and  N1_33 
REMARK    9  A    between atoms: N1_33  and  C26_34 
REMARK   10  A    between atoms: C26_34  and  C27_35 
REMARK   11  A    between atoms: C26_34  and  C36_45 
REMARK   12  A    between atoms: C27_35  and  C28_36 
REMARK   13  A    between atoms: C36_45  and  O9_47 
ROOT
HETATM    1  C21 UNL     1      -8.024  47.766 -22.100  1.00  0.00     0.260 C 
ENDROOT
BRANCH   1   2
HETATM    2  C20 UNL     1      -6.956  47.825 -23.194  1.00  0.00     0.185 C 
HETATM    3  O4  UNL     1      -6.470  46.796 -23.671  1.00  0.00    -0.292 OA
BRANCH   2   4
HETATM    4  C19 UNL     1      -6.425  49.221 -23.592  1.00  0.00     0.128 C 
HETATM    5  C14 UNL     1      -4.918  49.321 -24.014  1.00  0.00     0.005 C 
HETATM    6  C13 UNL     1      -4.601  48.908 -25.469  1.00  0.00     0.091 C 
HETATM    7  C15 UNL     1      -4.037  48.523 -23.024  1.00  0.00     0.019 C 
HETATM    8  C16 UNL     1      -4.721  50.851 -23.901  1.00  0.00     0.002 C 
HETATM    9  C12 UNL     1      -3.516  49.748 -26.146  1.00  0.00     0.133 C 
HETATM   10  C11 UNL     1      -2.557  50.523 -25.244  1.00  0.00     0.072 C 
HETATM   11  O2  UNL     1      -3.373  49.682 -27.366  1.00  0.00    -0.297 OA
HETATM   12  C2  UNL     1      -1.413  51.367 -25.913  1.00  0.00    -0.009 C 
HETATM   13  C10 UNL     1      -3.314  51.381 -24.199  1.00  0.00     0.003 C 
HETATM   14  C1  UNL     1      -0.326  50.407 -26.448  1.00  0.00     0.021 C 
HETATM   15  C3  UNL     1      -1.918  52.282 -27.056  1.00  0.00     0.022 C 
HETATM   16  C7  UNL     1      -0.784  52.264 -24.825  1.00  0.00    -0.067 C 
HETATM   17  C4  UNL     1      -0.858  53.253 -27.568  1.00  0.00     0.084 C 
HETATM   18  C5  UNL     1      -0.218  54.033 -26.447  1.00  0.00     0.149 C 
HETATM   19  O1  UNL     1       0.347  55.107 -26.641  1.00  0.00    -0.293 OA
HETATM   20  C6  UNL     1      -0.247  53.468 -25.079  1.00  0.00     0.053 C 
HETATM   21  C8  UNL     1      -0.907  51.766 -23.403  1.00  0.00     0.035 C 
HETATM   22  C9  UNL     1      -2.385  51.623 -22.990  1.00  0.00     0.010 C 
HETATM   23  C17 UNL     1      -5.386  51.241 -22.588  1.00  0.00     0.009 C 
HETATM   24  C18 UNL     1      -6.535  50.234 -22.418  1.00  0.00     0.047 C 
BRANCH   4  25
HETATM   25  O3  UNL     1      -7.262  49.699 -24.655  1.00  0.00    -0.381 OA
HETATM   26  H25 UNL     1      -8.149  49.860 -24.285  1.00  0.00     0.211 HD
ENDBRANCH   4  25
ENDBRANCH   2   4
ENDBRANCH   1   2
BRANCH   1  27
HETATM   27  O5  UNL     1      -9.107  46.909 -22.473  1.00  0.00    -0.314 OA
BRANCH  27  28
HETATM   28  C22 UNL     1      -9.848  46.457 -21.427  1.00  0.00     0.259 C 
HETATM   29  O6  UNL     1      -9.436  46.378 -20.275  1.00  0.00    -0.265 OA
BRANCH  28  30
HETATM   30  C23 UNL     1     -11.273  46.145 -21.817  1.00  0.00     0.120 C 
BRANCH  30  31
HETATM   31  C24 UNL     1     -11.435  45.355 -23.110  1.00  0.00     0.112 C 
BRANCH  31  32
HETATM   32  C25 UNL     1     -12.314  46.078 -24.110  1.00  0.00     0.218 C 
HETATM   33  O7  UNL     1     -12.742  47.214 -23.938  1.00  0.00    -0.274 OA
HETATM   34  N1  UNL     1     -12.574  45.331 -25.234  1.00  0.00    -0.346 N 
HETATM   35  H32 UNL     1     -12.429  44.332 -25.183  1.00  0.00     0.163 HD
BRANCH  34  36
HETATM   36  C26 UNL     1     -13.473  45.831 -26.281  1.00  0.00     0.186 C 
BRANCH  36  37
HETATM   37  C27 UNL     1     -14.725  46.494 -25.688  1.00  0.00     0.077 C 
BRANCH  37  38
HETATM   38  C28 UNL     1     -16.005  45.900 -26.193  1.00  0.00    -0.028 A 
HETATM   39  C29 UNL     1     -16.150  45.108 -27.315  1.00  0.00     0.096 A 
HETATM   40  N2  UNL     1     -17.465  44.744 -27.417  1.00  0.00    -0.365 N 
HETATM   41  C30 UNL     1     -18.192  45.289 -26.384  1.00  0.00     0.042 A 
HETATM   42  H37 UNL     1     -17.853  44.158 -28.144  1.00  0.00     0.165 HD
HETATM   43  C31 UNL     1     -19.557  45.181 -26.089  1.00  0.00     0.030 A 
HETATM   44  C35 UNL     1     -17.304  46.029 -25.603  1.00  0.00    -0.002 A 
HETATM   45  C32 UNL     1     -20.031  45.857 -24.962  1.00  0.00     0.002 A 
HETATM   46  C33 UNL     1     -19.174  46.606 -24.161  1.00  0.00     0.001 A 
HETATM   47  C34 UNL     1     -17.809  46.699 -24.469  1.00  0.00     0.014 A 
ENDBRANCH  37  38
ENDBRANCH  36  37
BRANCH  36  48
HETATM   48  C36 UNL     1     -12.780  46.861 -27.176  1.00  0.00     0.163 C 
HETATM   49  O8  UNL     1     -12.140  46.617 -28.187  1.00  0.00    -0.648 OA
BRANCH  48  50
HETATM   50  O9  UNL     1     -12.980  48.148 -26.812  1.00  0.00    -0.775 OA
HETATM   51  H42 UNL     1     -12.454  48.654 -27.467  1.00  0.00     0.167 HD
ENDBRANCH  48  50
ENDBRANCH  36  48
ENDBRANCH  34  36
ENDBRANCH  31  32
ENDBRANCH  30  31
ENDBRANCH  28  30
ENDBRANCH  27  28
ENDBRANCH   1  27
TORSDOF 13
ENDMDL
MODEL 4
REMARK minimizedAffinity -9.67757416
REMARK CNNscore 0.500121176
REMARK CNNaffinity 6.81813097
REMARK  13 active torsions:
REMARK  status: ('A' for Active; 'I' for Inactive)
REMARK    1  A    between atoms: C19_21  and  O3_22 
REMARK    2  A    between atoms: C19_21  and  C20_23 
REMARK    3  A    between atoms: C20_23  and  C21_25 
REMARK    4  A    between atoms: C21_25  and  O5_26 
REMARK    5  A    between atoms: O5_26  and  C22_27 
REMARK    6  A    between atoms: C22_27  and  C23_29 
REMARK    7  A    between atoms: C23_29  and  C24_30 
REMARK    8  A    between atoms: C24_30  and  C25_31 
REMARK       I    between atoms: C25_31  and  N1_33 
REMARK    9  A    between atoms: N1_33  and  C26_34 
REMARK   10  A    between atoms: C26_34  and  C27_35 
REMARK   11  A    between atoms: C26_34  and  C36_45 
REMARK   12  A    between atoms: C27_35  and  C28_36 
REMARK   13  A    between atoms: C36_45  and  O9_47 
ROOT
HETATM    1  C21 UNL     1       6.258  65.091 -34.784  1.00  0.00     0.260 C 
ENDROOT
BRANCH   1   2
HETATM    2  C20 UNL     1       5.639  66.269 -35.540  1.00  0.00     0.185 C 
HETATM    3  O4  UNL     1       6.117  67.404 -35.458  1.00  0.00    -0.292 OA
BRANCH   2   4
HETATM    4  C19 UNL     1       4.328  66.006 -36.314  1.00  0.00     0.128 C 
HETATM    5  C14 UNL     1       3.743  67.190 -37.158  1.00  0.00     0.005 C 
HETATM    6  C13 UNL     1       4.388  67.406 -38.546  1.00  0.00     0.091 C 
HETATM    7  C15 UNL     1       3.787  68.499 -36.334  1.00  0.00     0.019 C 
HETATM    8  C16 UNL     1       2.306  66.663 -37.379  1.00  0.00     0.002 C 
HETATM    9  C12 UNL     1       3.409  67.835 -39.641  1.00  0.00     0.133 C 
HETATM   10  C11 UNL     1       2.086  68.459 -39.202  1.00  0.00     0.072 C 
HETATM   11  O2  UNL     1       3.758  67.779 -40.820  1.00  0.00    -0.297 OA
HETATM   12  C2  UNL     1       1.077  68.939 -40.307  1.00  0.00    -0.009 C 
HETATM   13  C10 UNL     1       1.355  67.582 -38.154  1.00  0.00     0.003 C 
HETATM   14  C1  UNL     1       1.615  70.237 -40.949  1.00  0.00     0.021 C 
HETATM   15  C3  UNL     1       0.821  67.874 -41.403  1.00  0.00     0.022 C 
HETATM   16  C7  UNL     1      -0.270  69.250 -39.620  1.00  0.00    -0.067 C 
HETATM   17  C4  UNL     1      -0.308  68.248 -42.359  1.00  0.00     0.084 C 
HETATM   18  C5  UNL     1      -1.568  68.631 -41.623  1.00  0.00     0.149 C 
HETATM   19  O1  UNL     1      -2.674  68.583 -42.157  1.00  0.00    -0.293 OA
HETATM   20  C6  UNL     1      -1.460  69.107 -40.226  1.00  0.00     0.053 C 
HETATM   21  C8  UNL     1      -0.197  69.623 -38.157  1.00  0.00     0.035 C 
HETATM   22  C9  UNL     1       0.416  68.482 -37.323  1.00  0.00     0.010 C 
HETATM   23  C17 UNL     1       1.865  66.131 -36.022  1.00  0.00     0.009 C 
HETATM   24  C18 UNL     1       3.159  65.637 -35.357  1.00  0.00     0.047 C 
BRANCH   4  25
HETATM   25  O3  UNL     1       4.564  64.872 -37.163  1.00  0.00    -0.381 OA
HETATM   26  H25 UNL     1       4.683  64.092 -36.591  1.00  0.00     0.211 HD
ENDBRANCH   4  25
ENDBRANCH   2   4
ENDBRANCH   1   2
BRANCH   1  27
HETATM   27  O5  UNL     1       5.468  64.725 -33.649  1.00  0.00    -0.314 OA
BRANCH  27  28
HETATM   28  C22 UNL     1       5.258  63.388 -33.522  1.00  0.00     0.259 C 
HETATM   29  O6  UNL     1       4.807  62.855 -32.514  1.00  0.00    -0.265 OA
BRANCH  28  30
HETATM   30  C23 UNL     1       5.555  62.629 -34.793  1.00  0.00     0.120 C 
BRANCH  30  31
HETATM   31  C24 UNL     1       6.008  61.188 -34.598  1.00  0.00     0.112 C 
BRANCH  31  32
HETATM   32  C25 UNL     1       7.516  61.053 -34.666  1.00  0.00     0.218 C 
HETATM   33  O7  UNL     1       8.087  60.071 -35.129  1.00  0.00    -0.274 OA
HETATM   34  N1  UNL     1       8.176  62.147 -34.161  1.00  0.00    -0.346 N 
HETATM   35  H32 UNL     1       7.662  62.774 -33.557  1.00  0.00     0.163 HD
BRANCH  34  36
HETATM   36  C26 UNL     1       9.641  62.168 -34.068  1.00  0.00     0.186 C 
BRANCH  36  37
HETATM   37  C27 UNL     1      10.246  63.324 -34.878  1.00  0.00     0.077 C 
BRANCH  37  38
HETATM   38  C28 UNL     1      10.961  62.869 -36.115  1.00  0.00    -0.028 A 
HETATM   39  C29 UNL     1      10.674  61.739 -36.854  1.00  0.00     0.096 A 
HETATM   40  N2  UNL     1      11.531  61.692 -37.920  1.00  0.00    -0.365 N 
HETATM   41  C30 UNL     1      12.384  62.772 -37.893  1.00  0.00     0.042 A 
HETATM   42  H37 UNL     1      11.540  60.973 -38.630  1.00  0.00     0.165 HD
HETATM   43  C31 UNL     1      13.409  63.131 -38.776  1.00  0.00     0.030 A 
HETATM   44  C35 UNL     1      12.057  63.525 -36.765  1.00  0.00    -0.002 A 
HETATM   45  C32 UNL     1      14.129  64.295 -38.493  1.00  0.00     0.002 A 
HETATM   46  C33 UNL     1      13.832  65.069 -37.375  1.00  0.00     0.001 A 
HETATM   47  C34 UNL     1      12.798  64.697 -36.505  1.00  0.00     0.014 A 
ENDBRANCH  37  38
ENDBRANCH  36  37
BRANCH  36  48
HETATM   48  C36 UNL     1      10.113  62.317 -32.620  1.00  0.00     0.163 C 
HETATM   49  O8  UNL     1      10.816  63.215 -32.184  1.00  0.00    -0.648 OA
BRANCH  48  50
HETATM   50  O9  UNL     1       9.628  61.382 -31.772  1.00  0.00    -0.775 OA
HETATM   51  H42 UNL     1      10.046  61.614 -30.916  1.00  0.00     0.167 HD
ENDBRANCH  48  50
ENDBRANCH  36  48
ENDBRANCH  34  36
ENDBRANCH  31  32
ENDBRANCH  30  31
ENDBRANCH  28  30
ENDBRANCH  27  28
ENDBRANCH   1  27
TORSDOF 13
ENDMDL
MODEL 5
REMARK minimizedAffinity -9.14887619
REMARK CNNscore 0.493756682
REMARK CNNaffinity 6.9047904
REMARK  13 active torsions:
REMARK  status: ('A' for Active; 'I' for Inactive)
REMARK    1  A    between atoms: C19_21  and  O3_22 
REMARK    2  A    between atoms: C19_21  and  C20_23 
REMARK    3  A    between atoms: C20_23  and  C21_25 
REMARK    4  A    between atoms: C21_25  and  O5_26 
REMARK    5  A    between atoms: O5_26  and  C22_27 
REMARK    6  A    between atoms: C22_27  and  C23_29 
REMARK    7  A    between atoms: C23_29  and  C24_30 
REMARK    8  A    between atoms: C24_30  and  C25_31 
REMARK       I    between atoms: C25_31  and  N1_33 
REMARK    9  A    between atoms: N1_33  and  C26_34 
REMARK   10  A    between atoms: C26_34  and  C27_35 
REMARK   11  A    between atoms: C26_34  and  C36_45 
REMARK   12  A    between atoms: C27_35  and  C28_36 
REMARK   13  A    between atoms: C36_45  and  O9_47 
ROOT
HETATM    1  C21 UNL     1      -7.570  47.294 -28.616  1.00  0.00     0.260 C 
ENDROOT
BRANCH   1   2
HETATM    2  C20 UNL     1      -8.918  47.890 -28.205  1.00  0.00     0.185 C 
HETATM    3  O4  UNL     1      -9.000  48.729 -27.303  1.00  0.00    -0.292 OA
BRANCH   2   4
HETATM    4  C19 UNL     1     -10.183  47.315 -28.881  1.00  0.00     0.128 C 
HETATM    5  C14 UNL     1     -11.093  46.374 -28.019  1.00  0.00     0.005 C 
HETATM    6  C13 UNL     1     -12.068  47.086 -27.053  1.00  0.00     0.091 C 
HETATM    7  C15 UNL     1     -10.220  45.355 -27.248  1.00  0.00     0.019 C 
HETATM    8  C16 UNL     1     -11.930  45.724 -29.145  1.00  0.00     0.002 C 
HETATM    9  C12 UNL     1     -13.430  46.404 -26.910  1.00  0.00     0.133 C 
HETATM   10  C11 UNL     1     -13.527  44.929 -27.296  1.00  0.00     0.072 C 
HETATM   11  O2  UNL     1     -14.360  47.015 -26.384  1.00  0.00    -0.297 OA
HETATM   12  C2  UNL     1     -14.906  44.197 -27.127  1.00  0.00    -0.009 C 
HETATM   13  C10 UNL     1     -12.950  44.665 -28.710  1.00  0.00     0.003 C 
HETATM   14  C1  UNL     1     -15.161  43.944 -25.624  1.00  0.00     0.021 C 
HETATM   15  C3  UNL     1     -16.094  44.982 -27.739  1.00  0.00     0.022 C 
HETATM   16  C7  UNL     1     -14.814  42.834 -27.846  1.00  0.00    -0.067 C 
HETATM   17  C4  UNL     1     -17.397  44.188 -27.764  1.00  0.00     0.084 C 
HETATM   18  C5  UNL     1     -17.218  42.830 -28.397  1.00  0.00     0.149 C 
HETATM   19  O1  UNL     1     -18.163  42.203 -28.870  1.00  0.00    -0.293 OA
HETATM   20  C6  UNL     1     -15.867  42.226 -28.417  1.00  0.00     0.053 C 
HETATM   21  C8  UNL     1     -13.426  42.252 -27.987  1.00  0.00     0.035 C 
HETATM   22  C9  UNL     1     -12.510  43.188 -28.797  1.00  0.00     0.010 C 
HETATM   23  C17 UNL     1     -10.925  45.368 -30.231  1.00  0.00     0.009 C 
HETATM   24  C18 UNL     1      -9.827  46.437 -30.114  1.00  0.00     0.047 C 
BRANCH   4  25
HETATM   25  O3  UNL     1     -10.949  48.434 -29.355  1.00  0.00    -0.381 OA
HETATM   26  H25 UNL     1     -10.444  48.855 -30.074  1.00  0.00     0.211 HD
ENDBRANCH   4  25
ENDBRANCH   2   4
ENDBRANCH   1   2
BRANCH   1  27
HETATM   27  O5  UNL     1      -6.481  48.015 -28.033  1.00  0.00    -0.314 OA
BRANCH  27  28
HETATM   28  C22 UNL     1      -5.342  48.004 -28.775  1.00  0.00     0.259 C 
HETATM   29  O6  UNL     1      -5.217  47.398 -29.835  1.00  0.00    -0.265 OA
BRANCH  28  30
HETATM   30  C23 UNL     1      -4.266  48.895 -28.203  1.00  0.00     0.120 C 
BRANCH  30  31
HETATM   31  C24 UNL     1      -4.041  48.759 -26.702  1.00  0.00     0.112 C 
BRANCH  31  32
HETATM   32  C25 UNL     1      -2.838  49.553 -26.234  1.00  0.00     0.218 C 
HETATM   33  O7  UNL     1      -2.065  49.162 -25.366  1.00  0.00    -0.274 OA
HETATM   34  N1  UNL     1      -2.701  50.753 -26.889  1.00  0.00    -0.346 N 
HETATM   35  H32 UNL     1      -3.507  51.125 -27.372  1.00  0.00     0.163 HD
BRANCH  34  36
HETATM   36  C26 UNL     1      -1.640  51.698 -26.517  1.00  0.00     0.186 C 
BRANCH  36  37
HETATM   37  C27 UNL     1      -1.210  51.524 -25.053  1.00  0.00     0.077 C 
BRANCH  37  38
HETATM   38  C28 UNL     1      -0.328  52.631 -24.560  1.00  0.00    -0.028 A 
HETATM   39  C29 UNL     1       0.145  53.692 -25.307  1.00  0.00     0.096 A 
HETATM   40  N2  UNL     1       0.890  54.496 -24.488  1.00  0.00    -0.365 N 
HETATM   41  C30 UNL     1       0.923  53.979 -23.214  1.00  0.00     0.042 A 
HETATM   42  H37 UNL     1       1.351  55.350 -24.771  1.00  0.00     0.165 HD
HETATM   43  C31 UNL     1       1.556  54.463 -22.062  1.00  0.00     0.030 A 
HETATM   44  C35 UNL     1       0.175  52.801 -23.229  1.00  0.00    -0.002 A 
HETATM   45  C32 UNL     1       1.424  53.716 -20.888  1.00  0.00     0.002 A 
HETATM   46  C33 UNL     1       0.687  52.536 -20.868  1.00  0.00     0.001 A 
HETATM   47  C34 UNL     1       0.057  52.068 -22.030  1.00  0.00     0.014 A 
ENDBRANCH  37  38
ENDBRANCH  36  37
BRANCH  36  48
HETATM   48  C36 UNL     1      -0.396  51.525 -27.391  1.00  0.00     0.163 C 
HETATM   49  O8  UNL     1       0.494  50.707 -27.218  1.00  0.00    -0.648 OA
BRANCH  48  50
HETATM   50  O9  UNL     1      -0.357  52.327 -28.480  1.00  0.00    -0.775 OA
HETATM   51  H42 UNL     1       0.500  52.101 -28.898  1.00  0.00     0.167 HD
ENDBRANCH  48  50
ENDBRANCH  36  48
ENDBRANCH  34  36
ENDBRANCH  31  32
ENDBRANCH  30  31
ENDBRANCH  28  30
ENDBRANCH  27  28
ENDBRANCH   1  27
TORSDOF 13
ENDMDL
MODEL 6
REMARK minimizedAffinity -10.4216986
REMARK CNNscore 0.405030429
REMARK CNNaffinity 6.39023352
REMARK  13 active torsions:
REMARK  status: ('A' for Active; 'I' for Inactive)
REMARK    1  A    between atoms: C19_21  and  O3_22 
REMARK    2  A    between atoms: C19_21  and  C20_23 
REMARK    3  A    between atoms: C20_23  and  C21_25 
REMARK    4  A    between atoms: C21_25  and  O5_26 
REMARK    5  A    between atoms: O5_26  and  C22_27 
REMARK    6  A    between atoms: C22_27  and  C23_29 
REMARK    7  A    between atoms: C23_29  and  C24_30 
REMARK    8  A    between atoms: C24_30  and  C25_31 
REMARK       I    between atoms: C25_31  and  N1_33 
REMARK    9  A    between atoms: N1_33  and  C26_34 
REMARK   10  A    between atoms: C26_34  and  C27_35 
REMARK   11  A    between atoms: C26_34  and  C36_45 
REMARK   12  A    between atoms: C27_35  and  C28_36 
REMARK   13  A    between atoms: C36_45  and  O9_47 
ROOT
HETATM    1  C21 UNL     1      -8.397  47.694 -28.206  1.00  0.00     0.260 C 
ENDROOT
BRANCH   1   2
HETATM    2  C20 UNL     1      -9.221  47.546 -26.925  1.00  0.00     0.185 C 
HETATM    3  O4  UNL     1      -8.734  47.050 -25.904  1.00  0.00    -0.292 OA
BRANCH   2   4
HETATM    4  C19 UNL     1     -10.716  47.930 -26.994  1.00  0.00     0.128 C 
HETATM    5  C14 UNL     1     -11.750  46.896 -26.430  1.00  0.00     0.005 C 
HETATM    6  C13 UNL     1     -11.934  46.902 -24.895  1.00  0.00     0.091 C 
HETATM    7  C15 UNL     1     -11.397  45.472 -26.924  1.00  0.00     0.019 C 
HETATM    8  C16 UNL     1     -13.045  47.454 -27.066  1.00  0.00     0.002 C 
HETATM    9  C12 UNL     1     -13.370  46.654 -24.427  1.00  0.00     0.133 C 
HETATM   10  C11 UNL     1     -14.324  45.970 -25.405  1.00  0.00     0.072 C 
HETATM   11  O2  UNL     1     -13.676  46.896 -23.260  1.00  0.00    -0.297 OA
HETATM   12  C2  UNL     1     -15.794  45.674 -24.937  1.00  0.00    -0.009 C 
HETATM   13  C10 UNL     1     -14.333  46.670 -26.787  1.00  0.00     0.003 C 
HETATM   14  C1  UNL     1     -15.777  44.493 -23.940  1.00  0.00     0.021 C 
HETATM   15  C3  UNL     1     -16.488  46.900 -24.292  1.00  0.00     0.022 C 
HETATM   16  C7  UNL     1     -16.615  45.259 -26.177  1.00  0.00    -0.067 C 
HETATM   17  C4  UNL     1     -17.976  46.684 -24.027  1.00  0.00     0.084 C 
HETATM   18  C5  UNL     1     -18.702  46.191 -25.253  1.00  0.00     0.149 C 
HETATM   19  O1  UNL     1     -19.917  46.324 -25.388  1.00  0.00    -0.293 OA
HETATM   20  C6  UNL     1     -17.930  45.498 -26.309  1.00  0.00     0.053 C 
HETATM   21  C8  UNL     1     -15.829  44.658 -27.321  1.00  0.00     0.035 C 
HETATM   22  C9  UNL     1     -14.780  45.651 -27.856  1.00  0.00     0.010 C 
HETATM   23  C17 UNL     1     -12.675  47.763 -28.510  1.00  0.00     0.009 C 
HETATM   24  C18 UNL     1     -11.187  48.143 -28.461  1.00  0.00     0.047 C 
BRANCH   4  25
HETATM   25  O3  UNL     1     -10.857  49.184 -26.309  1.00  0.00    -0.381 OA
HETATM   26  H25 UNL     1     -10.395  49.863 -26.833  1.00  0.00     0.211 HD
ENDBRANCH   4  25
ENDBRANCH   2   4
ENDBRANCH   1   2
BRANCH   1  27
HETATM   27  O5  UNL     1      -7.247  46.844 -28.188  1.00  0.00    -0.314 OA
BRANCH  27  28
HETATM   28  C22 UNL     1      -6.102  47.444 -28.609  1.00  0.00     0.259 C 
HETATM   29  O6  UNL     1      -5.739  47.489 -29.780  1.00  0.00    -0.265 OA
BRANCH  28  30
HETATM   30  C23 UNL     1      -5.363  48.136 -27.489  1.00  0.00     0.120 C 
BRANCH  30  31
HETATM   31  C24 UNL     1      -3.846  48.151 -27.625  1.00  0.00     0.112 C 
BRANCH  31  32
HETATM   32  C25 UNL     1      -3.250  49.478 -27.199  1.00  0.00     0.218 C 
HETATM   33  O7  UNL     1      -2.923  50.358 -27.988  1.00  0.00    -0.274 OA
HETATM   34  N1  UNL     1      -3.123  49.595 -25.835  1.00  0.00    -0.346 N 
HETATM   35  H32 UNL     1      -3.147  48.749 -25.282  1.00  0.00     0.163 HD
BRANCH  34  36
HETATM   36  C26 UNL     1      -2.492  50.777 -25.235  1.00  0.00     0.186 C 
BRANCH  36  37
HETATM   37  C27 UNL     1      -1.054  50.972 -25.738  1.00  0.00     0.077 C 
BRANCH  37  38
HETATM   38  C28 UNL     1      -0.284  51.984 -24.945  1.00  0.00    -0.028 A 
HETATM   39  C29 UNL     1       0.384  53.082 -25.452  1.00  0.00     0.096 A 
HETATM   40  N2  UNL     1       0.935  53.771 -24.406  1.00  0.00    -0.365 N 
HETATM   41  C30 UNL     1       0.648  53.142 -23.217  1.00  0.00     0.042 A 
HETATM   42  H37 UNL     1       1.475  54.621 -24.488  1.00  0.00     0.165 HD
HETATM   43  C31 UNL     1       1.000  53.490 -21.907  1.00  0.00     0.030 A 
HETATM   44  C35 UNL     1      -0.109  52.010 -23.523  1.00  0.00    -0.002 A 
HETATM   45  C32 UNL     1       0.570  52.649 -20.876  1.00  0.00     0.002 A 
HETATM   46  C33 UNL     1      -0.184  51.511 -21.146  1.00  0.00     0.001 A 
HETATM   47  C34 UNL     1      -0.531  51.181 -22.463  1.00  0.00     0.014 A 
ENDBRANCH  37  38
ENDBRANCH  36  37
BRANCH  36  48
HETATM   48  C36 UNL     1      -3.273  52.055 -25.550  1.00  0.00     0.163 C 
HETATM   49  O8  UNL     1      -3.020  52.848 -26.443  1.00  0.00    -0.648 OA
BRANCH  48  50
HETATM   50  O9  UNL     1      -4.374  52.244 -24.787  1.00  0.00    -0.775 OA
HETATM   51  H42 UNL     1      -4.725  53.103 -25.105  1.00  0.00     0.167 HD
ENDBRANCH  48  50
ENDBRANCH  36  48
ENDBRANCH  34  36
ENDBRANCH  31  32
ENDBRANCH  30  31
ENDBRANCH  28  30
ENDBRANCH  27  28
ENDBRANCH   1  27
TORSDOF 13
ENDMDL
MODEL 7
REMARK minimizedAffinity -9.26586533
REMARK CNNscore 0.395193219
REMARK CNNaffinity 6.42614365
REMARK  13 active torsions:
REMARK  status: ('A' for Active; 'I' for Inactive)
REMARK    1  A    between atoms: C19_21  and  O3_22 
REMARK    2  A    between atoms: C19_21  and  C20_23 
REMARK    3  A    between atoms: C20_23  and  C21_25 
REMARK    4  A    between atoms: C21_25  and  O5_26 
REMARK    5  A    between atoms: O5_26  and  C22_27 
REMARK    6  A    between atoms: C22_27  and  C23_29 
REMARK    7  A    between atoms: C23_29  and  C24_30 
REMARK    8  A    between atoms: C24_30  and  C25_31 
REMARK       I    between atoms: C25_31  and  N1_33 
REMARK    9  A    between atoms: N1_33  and  C26_34 
REMARK   10  A    between atoms: C26_34  and  C27_35 
REMARK   11  A    between atoms: C26_34  and  C36_45 
REMARK   12  A    between atoms: C27_35  and  C28_36 
REMARK   13  A    between atoms: C36_45  and  O9_47 
ROOT
HETATM    1  C21 UNL     1      -7.921  47.741 -22.542  1.00  0.00     0.260 C 
ENDROOT
BRANCH   1   2
HETATM    2  C20 UNL     1      -6.453  47.918 -22.938  1.00  0.00     0.185 C 
HETATM    3  O4  UNL     1      -5.636  47.004 -22.793  1.00  0.00    -0.292 OA
BRANCH   2   4
HETATM    4  C19 UNL     1      -6.010  49.320 -23.414  1.00  0.00     0.128 C 
HETATM    5  C14 UNL     1      -4.530  49.476 -23.908  1.00  0.00     0.005 C 
HETATM    6  C13 UNL     1      -4.257  49.019 -25.359  1.00  0.00     0.091 C 
HETATM    7  C15 UNL     1      -3.568  48.761 -22.929  1.00  0.00     0.019 C 
HETATM    8  C16 UNL     1      -4.406  51.016 -23.863  1.00  0.00     0.002 C 
HETATM    9  C12 UNL     1      -3.246  49.882 -26.116  1.00  0.00     0.133 C 
HETATM   10  C11 UNL     1      -2.288  50.738 -25.290  1.00  0.00     0.072 C 
HETATM   11  O2  UNL     1      -3.154  49.773 -27.339  1.00  0.00    -0.297 OA
HETATM   12  C2  UNL     1      -1.218  51.608 -26.042  1.00  0.00    -0.009 C 
HETATM   13  C10 UNL     1      -3.040  51.600 -24.245  1.00  0.00     0.003 C 
HETATM   14  C1  UNL     1      -0.110  50.680 -26.589  1.00  0.00     0.021 C 
HETATM   15  C3  UNL     1      -1.818  52.451 -27.196  1.00  0.00     0.022 C 
HETATM   16  C7  UNL     1      -0.588  52.578 -25.020  1.00  0.00    -0.067 C 
HETATM   17  C4  UNL     1      -0.831  53.450 -27.793  1.00  0.00     0.084 C 
HETATM   18  C5  UNL     1      -0.182  54.305 -26.733  1.00  0.00     0.149 C 
HETATM   19  O1  UNL     1       0.320  55.396 -26.994  1.00  0.00    -0.293 OA
HETATM   20  C6  UNL     1      -0.123  53.795 -25.345  1.00  0.00     0.053 C 
HETATM   21  C8  UNL     1      -0.624  52.134 -23.576  1.00  0.00     0.035 C 
HETATM   22  C9  UNL     1      -2.073  51.936 -23.091  1.00  0.00     0.010 C 
HETATM   23  C17 UNL     1      -5.031  51.427 -22.537  1.00  0.00     0.009 C 
HETATM   24  C18 UNL     1      -6.120  50.374 -22.276  1.00  0.00     0.047 C 
BRANCH   4  25
HETATM   25  O3  UNL     1      -6.916  49.713 -24.455  1.00  0.00    -0.381 OA
HETATM   26  H25 UNL     1      -7.793  49.846 -24.052  1.00  0.00     0.211 HD
ENDBRANCH   4  25
ENDBRANCH   2   4
ENDBRANCH   1   2
BRANCH   1  27
HETATM   27  O5  UNL     1      -8.768  47.676 -23.692  1.00  0.00    -0.314 OA
BRANCH  27  28
HETATM   28  C22 UNL     1      -9.259  46.436 -23.955  1.00  0.00     0.259 C 
HETATM   29  O6  UNL     1      -9.645  45.652 -23.095  1.00  0.00    -0.265 OA
BRANCH  28  30
HETATM   30  C23 UNL     1      -9.368  46.156 -25.435  1.00  0.00     0.120 C 
BRANCH  30  31
HETATM   31  C24 UNL     1      -9.936  47.296 -26.271  1.00  0.00     0.112 C 
BRANCH  31  32
HETATM   32  C25 UNL     1     -11.452  47.282 -26.293  1.00  0.00     0.218 C 
HETATM   33  O7  UNL     1     -12.136  48.297 -26.367  1.00  0.00    -0.274 OA
HETATM   34  N1  UNL     1     -11.978  46.014 -26.230  1.00  0.00    -0.346 N 
HETATM   35  H32 UNL     1     -11.382  45.270 -25.895  1.00  0.00     0.163 HD
BRANCH  34  36
HETATM   36  C26 UNL     1     -13.429  45.802 -26.159  1.00  0.00     0.186 C 
BRANCH  36  37
HETATM   37  C27 UNL     1     -14.153  47.015 -25.555  1.00  0.00     0.077 C 
BRANCH  37  38
HETATM   38  C28 UNL     1     -14.827  46.711 -24.252  1.00  0.00    -0.028 A 
HETATM   39  C29 UNL     1     -14.201  46.442 -23.051  1.00  0.00     0.096 A 
HETATM   40  N2  UNL     1     -15.162  46.246 -22.098  1.00  0.00    -0.365 N 
HETATM   41  C30 UNL     1     -16.415  46.376 -22.651  1.00  0.00     0.042 A 
HETATM   42  H37 UNL     1     -14.986  46.038 -21.125  1.00  0.00     0.165 HD
HETATM   43  C31 UNL     1     -17.678  46.264 -22.056  1.00  0.00     0.030 A 
HETATM   44  C35 UNL     1     -16.238  46.659 -24.006  1.00  0.00    -0.002 A 
HETATM   45  C32 UNL     1     -18.797  46.440 -22.875  1.00  0.00     0.002 A 
HETATM   46  C33 UNL     1     -18.657  46.721 -24.231  1.00  0.00     0.001 A 
HETATM   47  C34 UNL     1     -17.385  46.834 -24.808  1.00  0.00     0.014 A 
ENDBRANCH  37  38
ENDBRANCH  36  37
BRANCH  36  48
HETATM   48  C36 UNL     1     -14.030  45.543 -27.543  1.00  0.00     0.163 C 
HETATM   49  O8  UNL     1     -14.098  46.349 -28.457  1.00  0.00    -0.648 OA
BRANCH  48  50
HETATM   50  O9  UNL     1     -14.448  44.273 -27.745  1.00  0.00    -0.775 OA
HETATM   51  H42 UNL     1     -14.817  44.298 -28.653  1.00  0.00     0.167 HD
ENDBRANCH  48  50
ENDBRANCH  36  48
ENDBRANCH  34  36
ENDBRANCH  31  32
ENDBRANCH  30  31
ENDBRANCH  28  30
ENDBRANCH  27  28
ENDBRANCH   1  27
TORSDOF 13
ENDMDL
MODEL 8
REMARK minimizedAffinity -10.1656866
REMARK CNNscore 0.349326998
REMARK CNNaffinity 6.3088851
REMARK  13 active torsions:
REMARK  status: ('A' for Active; 'I' for Inactive)
REMARK    1  A    between atoms: C19_21  and  O3_22 
REMARK    2  A    between atoms: C19_21  and  C20_23 
REMARK    3  A    between atoms: C20_23  and  C21_25 
REMARK    4  A    between atoms: C21_25  and  O5_26 
REMARK    5  A    between atoms: O5_26  and  C22_27 
REMARK    6  A    between atoms: C22_27  and  C23_29 
REMARK    7  A    between atoms: C23_29  and  C24_30 
REMARK    8  A    between atoms: C24_30  and  C25_31 
REMARK       I    between atoms: C25_31  and  N1_33 
REMARK    9  A    between atoms: N1_33  and  C26_34 
REMARK   10  A    between atoms: C26_34  and  C27_35 
REMARK   11  A    between atoms: C26_34  and  C36_45 
REMARK   12  A    between atoms: C27_35  and  C28_36 
REMARK   13  A    between atoms: C36_45  and  O9_47 
ROOT
HETATM    1  C21 UNL     1      -8.728  48.007 -25.688  1.00  0.00     0.260 C 
ENDROOT
BRANCH   1   2
HETATM    2  C20 UNL     1      -9.452  47.471 -26.925  1.00  0.00     0.185 C 
HETATM    3  O4  UNL     1      -8.839  46.881 -27.820  1.00  0.00    -0.292 OA
BRANCH   2   4
HETATM    4  C19 UNL     1     -10.955  47.800 -27.066  1.00  0.00     0.128 C 
HETATM    5  C14 UNL     1     -11.973  46.798 -26.418  1.00  0.00     0.005 C 
HETATM    6  C13 UNL     1     -12.194  46.959 -24.896  1.00  0.00     0.091 C 
HETATM    7  C15 UNL     1     -11.567  45.343 -26.752  1.00  0.00     0.019 C 
HETATM    8  C16 UNL     1     -13.267  47.246 -27.136  1.00  0.00     0.002 C 
HETATM    9  C12 UNL     1     -13.633  46.717 -24.435  1.00  0.00     0.133 C 
HETATM   10  C11 UNL     1     -14.542  45.906 -25.355  1.00  0.00     0.072 C 
HETATM   11  O2  UNL     1     -13.973  47.071 -23.307  1.00  0.00    -0.297 OA
HETATM   12  C2  UNL     1     -16.015  45.614 -24.890  1.00  0.00    -0.009 C 
HETATM   13  C10 UNL     1     -14.538  46.456 -26.803  1.00  0.00     0.003 C 
HETATM   14  C1  UNL     1     -15.987  44.546 -23.774  1.00  0.00     0.021 C 
HETATM   15  C3  UNL     1     -16.759  46.879 -24.392  1.00  0.00     0.022 C 
HETATM   16  C7  UNL     1     -16.792  45.046 -26.096  1.00  0.00    -0.067 C 
HETATM   17  C4  UNL     1     -18.245  46.646 -24.136  1.00  0.00     0.084 C 
HETATM   18  C5  UNL     1     -18.928  46.004 -25.319  1.00  0.00     0.149 C 
HETATM   19  O1  UNL     1     -20.142  46.085 -25.493  1.00  0.00    -0.293 OA
HETATM   20  C6  UNL     1     -18.110  45.229 -26.279  1.00  0.00     0.053 C 
HETATM   21  C8  UNL     1     -15.963  44.354 -27.153  1.00  0.00     0.035 C 
HETATM   22  C9  UNL     1     -14.930  45.317 -27.768  1.00  0.00     0.010 C 
HETATM   23  C17 UNL     1     -12.872  47.414 -28.597  1.00  0.00     0.009 C 
HETATM   24  C18 UNL     1     -11.397  47.843 -28.556  1.00  0.00     0.047 C 
BRANCH   4  25
HETATM   25  O3  UNL     1     -11.149  49.113 -26.520  1.00  0.00    -0.381 OA
HETATM   26  H25 UNL     1     -10.694  49.747 -27.104  1.00  0.00     0.211 HD
ENDBRANCH   4  25
ENDBRANCH   2   4
ENDBRANCH   1   2
BRANCH   1  27
HETATM   27  O5  UNL     1      -7.317  47.789 -25.773  1.00  0.00    -0.314 OA
BRANCH  27  28
HETATM   28  C22 UNL     1      -6.684  47.755 -24.571  1.00  0.00     0.259 C 
HETATM   29  O6  UNL     1      -7.198  47.352 -23.533  1.00  0.00    -0.265 OA
BRANCH  28  30
HETATM   30  C23 UNL     1      -5.238  48.182 -24.663  1.00  0.00     0.120 C 
BRANCH  30  31
HETATM   31  C24 UNL     1      -4.697  48.338 -26.079  1.00  0.00     0.112 C 
BRANCH  31  32
HETATM   32  C25 UNL     1      -3.549  49.325 -26.143  1.00  0.00     0.218 C 
HETATM   33  O7  UNL     1      -2.405  49.013 -26.458  1.00  0.00    -0.274 OA
HETATM   34  N1  UNL     1      -3.925  50.607 -25.820  1.00  0.00    -0.346 N 
HETATM   35  H32 UNL     1      -4.790  50.734 -25.312  1.00  0.00     0.163 HD
BRANCH  34  36
HETATM   36  C26 UNL     1      -2.935  51.688 -25.748  1.00  0.00     0.186 C 
BRANCH  36  37
HETATM   37  C27 UNL     1      -1.626  51.219 -25.094  1.00  0.00     0.077 C 
BRANCH  37  38
HETATM   38  C28 UNL     1      -1.659  51.282 -23.597  1.00  0.00    -0.028 A 
HETATM   39  C29 UNL     1      -2.574  50.657 -22.773  1.00  0.00     0.096 A 
HETATM   40  N2  UNL     1      -2.246  50.936 -21.475  1.00  0.00    -0.365 N 
HETATM   41  C30 UNL     1      -1.131  51.741 -21.428  1.00  0.00     0.042 A 
HETATM   42  H37 UNL     1      -2.744  50.600 -20.662  1.00  0.00     0.165 HD
HETATM   43  C31 UNL     1      -0.447  52.266 -20.325  1.00  0.00     0.030 A 
HETATM   44  C35 UNL     1      -0.744  51.984 -22.746  1.00  0.00    -0.002 A 
HETATM   45  C32 UNL     1       0.667  53.072 -20.578  1.00  0.00     0.002 A 
HETATM   46  C33 UNL     1       1.080  53.337 -21.881  1.00  0.00     0.001 A 
HETATM   47  C34 UNL     1       0.384  52.799 -22.972  1.00  0.00     0.014 A 
ENDBRANCH  37  38
ENDBRANCH  36  37
BRANCH  36  48
HETATM   48  C36 UNL     1      -2.592  52.233 -27.136  1.00  0.00     0.163 C 
HETATM   49  O8  UNL     1      -2.091  53.321 -27.376  1.00  0.00    -0.648 OA
BRANCH  48  50
HETATM   50  O9  UNL     1      -2.821  51.370 -28.152  1.00  0.00    -0.775 OA
HETATM   51  H42 UNL     1      -2.573  51.886 -28.948  1.00  0.00     0.167 HD
ENDBRANCH  48  50
ENDBRANCH  36  48
ENDBRANCH  34  36
ENDBRANCH  31  32
ENDBRANCH  30  31
ENDBRANCH  28  30
ENDBRANCH  27  28
ENDBRANCH   1  27
TORSDOF 13
ENDMDL
MODEL 9
REMARK minimizedAffinity -9.71275711
REMARK CNNscore 0.340164065
REMARK CNNaffinity 6.60470629
REMARK  13 active torsions:
REMARK  status: ('A' for Active; 'I' for Inactive)
REMARK    1  A    between atoms: C19_21  and  O3_22 
REMARK    2  A    between atoms: C19_21  and  C20_23 
REMARK    3  A    between atoms: C20_23  and  C21_25 
REMARK    4  A    between atoms: C21_25  and  O5_26 
REMARK    5  A    between atoms: O5_26  and  C22_27 
REMARK    6  A    between atoms: C22_27  and  C23_29 
REMARK    7  A    between atoms: C23_29  and  C24_30 
REMARK    8  A    between atoms: C24_30  and  C25_31 
REMARK       I    between atoms: C25_31  and  N1_33 
REMARK    9  A    between atoms: N1_33  and  C26_34 
REMARK   10  A    between atoms: C26_34  and  C27_35 
REMARK   11  A    between atoms: C26_34  and  C36_45 
REMARK   12  A    between atoms: C27_35  and  C28_36 
REMARK   13  A    between atoms: C36_45  and  O9_47 
ROOT
HETATM    1  C21 UNL     1      -7.602  47.053 -23.942  1.00  0.00     0.260 C 
ENDROOT
BRANCH   1   2
HETATM    2  C20 UNL     1      -6.387  47.635 -23.217  1.00  0.00     0.185 C 
HETATM    3  O4  UNL     1      -5.835  47.020 -22.299  1.00  0.00    -0.292 OA
BRANCH   2   4
HETATM    4  C19 UNL     1      -5.952  49.068 -23.597  1.00  0.00     0.128 C 
HETATM    5  C14 UNL     1      -4.475  49.264 -24.085  1.00  0.00     0.005 C 
HETATM    6  C13 UNL     1      -4.207  48.909 -25.565  1.00  0.00     0.091 C 
HETATM    7  C15 UNL     1      -3.506  48.489 -23.161  1.00  0.00     0.019 C 
HETATM    8  C16 UNL     1      -4.357  50.799 -23.935  1.00  0.00     0.002 C 
HETATM    9  C12 UNL     1      -3.202  49.827 -26.265  1.00  0.00     0.133 C 
HETATM   10  C11 UNL     1      -2.245  50.629 -25.386  1.00  0.00     0.072 C 
HETATM   11  O2  UNL     1      -3.114  49.803 -27.492  1.00  0.00    -0.297 OA
HETATM   12  C2  UNL     1      -1.181  51.553 -26.081  1.00  0.00    -0.009 C 
HETATM   13  C10 UNL     1      -2.996  51.414 -24.281  1.00  0.00     0.003 C 
HETATM   14  C1  UNL     1      -0.071  50.671 -26.694  1.00  0.00     0.021 C 
HETATM   15  C3  UNL     1      -1.790  52.471 -27.171  1.00  0.00     0.022 C 
HETATM   16  C7  UNL     1      -0.552  52.454 -24.997  1.00  0.00    -0.067 C 
HETATM   17  C4  UNL     1      -0.810  53.513 -27.703  1.00  0.00     0.084 C 
HETATM   18  C5  UNL     1      -0.160  54.296 -26.589  1.00  0.00     0.149 C 
HETATM   19  O1  UNL     1       0.336  55.405 -26.776  1.00  0.00    -0.293 OA
HETATM   20  C6  UNL     1      -0.093  53.693 -25.239  1.00  0.00     0.053 C 
HETATM   21  C8  UNL     1      -0.579  51.911 -23.586  1.00  0.00     0.035 C 
HETATM   22  C9  UNL     1      -2.025  51.674 -23.110  1.00  0.00     0.010 C 
HETATM   23  C17 UNL     1      -4.979  51.114 -22.581  1.00  0.00     0.009 C 
HETATM   24  C18 UNL     1      -6.062  50.041 -22.389  1.00  0.00     0.047 C 
BRANCH   4  25
HETATM   25  O3  UNL     1      -6.864  49.527 -24.606  1.00  0.00    -0.381 OA
HETATM   26  H25 UNL     1      -7.740  49.628 -24.190  1.00  0.00     0.211 HD
ENDBRANCH   4  25
ENDBRANCH   2   4
ENDBRANCH   1   2
BRANCH   1  27
HETATM   27  O5  UNL     1      -7.635  45.626 -23.846  1.00  0.00    -0.314 OA
BRANCH  27  28
HETATM   28  C22 UNL     1      -8.647  45.042 -24.541  1.00  0.00     0.259 C 
HETATM   29  O6  UNL     1      -9.449  44.251 -24.056  1.00  0.00    -0.265 OA
BRANCH  28  30
HETATM   30  C23 UNL     1      -8.739  45.543 -25.963  1.00  0.00     0.120 C 
BRANCH  30  31
HETATM   31  C24 UNL     1      -9.171  44.504 -26.990  1.00  0.00     0.112 C 
BRANCH  31  32
HETATM   32  C25 UNL     1     -10.599  44.719 -27.450  1.00  0.00     0.218 C 
HETATM   33  O7  UNL     1     -11.315  43.820 -27.878  1.00  0.00    -0.274 OA
HETATM   34  N1  UNL     1     -11.009  46.025 -27.331  1.00  0.00    -0.346 N 
HETATM   35  H32 UNL     1     -10.299  46.739 -27.242  1.00  0.00     0.163 HD
BRANCH  34  36
HETATM   36  C26 UNL     1     -12.336  46.445 -27.801  1.00  0.00     0.186 C 
BRANCH  36  37
HETATM   37  C27 UNL     1     -13.394  46.328 -26.694  1.00  0.00     0.077 C 
BRANCH  37  38
HETATM   38  C28 UNL     1     -14.702  45.783 -27.182  1.00  0.00    -0.028 A 
HETATM   39  C29 UNL     1     -14.934  45.193 -28.410  1.00  0.00     0.096 A 
HETATM   40  N2  UNL     1     -16.244  44.803 -28.459  1.00  0.00    -0.365 N 
HETATM   41  C30 UNL     1     -16.884  45.130 -27.286  1.00  0.00     0.042 A 
HETATM   42  H37 UNL     1     -16.685  44.338 -29.241  1.00  0.00     0.165 HD
HETATM   43  C31 UNL     1     -18.212  44.920 -26.896  1.00  0.00     0.030 A 
HETATM   44  C35 UNL     1     -15.943  45.756 -26.467  1.00  0.00    -0.002 A 
HETATM   45  C32 UNL     1     -18.594  45.371 -25.630  1.00  0.00     0.002 A 
HETATM   46  C33 UNL     1     -17.683  46.001 -24.787  1.00  0.00     0.001 A 
HETATM   47  C34 UNL     1     -16.356  46.199 -25.193  1.00  0.00     0.014 A 
ENDBRANCH  37  38
ENDBRANCH  36  37
BRANCH  36  48
HETATM   48  C36 UNL     1     -12.329  47.895 -28.289  1.00  0.00     0.163 C 
HETATM   49  O8  UNL     1     -12.194  48.261 -29.446  1.00  0.00    -0.648 OA
BRANCH  48  50
HETATM   50  O9  UNL     1     -12.566  48.814 -27.326  1.00  0.00    -0.775 OA
HETATM   51  H42 UNL     1     -12.501  49.667 -27.805  1.00  0.00     0.167 HD
ENDBRANCH  48  50
ENDBRANCH  36  48
ENDBRANCH  34  36
ENDBRANCH  31  32
ENDBRANCH  30  31
ENDBRANCH  28  30
ENDBRANCH  27  28
ENDBRANCH   1  27
TORSDOF 13
ENDMDL
