MODEL 1
REMARK minimizedAffinity -8.21230221
REMARK CNNscore 0.387826741
REMARK CNNaffinity 7.11869431
REMARK  15 active torsions:
REMARK  status: ('A' for Active; 'I' for Inactive)
REMARK    1  A    between atoms: O1_2  and  C2_3 
REMARK    2  A    between atoms: C10_14  and  C11_15 
REMARK    3  A    between atoms: C11_15  and  C12_16 
REMARK    4  A    between atoms: C12_16  and  O5_17 
REMARK    5  A    between atoms: C12_16  and  C13_18 
REMARK    6  A    between atoms: C13_18  and  C14_19 
REMARK    7  A    between atoms: C15_20  and  C16_21 
REMARK    8  A    between atoms: C17_22  and  C19_24 
REMARK    9  A    between atoms: C19_24  and  C20_25 
REMARK   10  A    between atoms: C21_26  and  C22_27 
REMARK   11  A    between atoms: C23_28  and  C24_29 
REMARK   12  A    between atoms: C24_29  and  C25_30 
REMARK   13  A    between atoms: C25_30  and  O6_31 
REMARK   14  A    between atoms: C32_39  and  O8_40 
REMARK   15  A    between atoms: C33_41  and  O9_42 
ROOT
HETATM    1  C2  UNL     1      -0.722  51.106 -21.042  1.00  0.00     0.192 C 
HETATM    2  C3  UNL     1      -0.176  52.316 -21.858  1.00  0.00     0.074 C 
HETATM    3  C4  UNL     1      -1.153  52.923 -22.874  1.00  0.00     0.037 C 
HETATM    4  C5  UNL     1      -1.050  52.258 -24.243  1.00  0.00     0.122 C 
HETATM    5  C6  UNL     1       0.133  52.688 -25.091  1.00  0.00     0.035 C 
HETATM    6  C7  UNL     1      -0.348  52.440 -26.517  1.00  0.00     0.045 C 
HETATM    7  C8  UNL     1      -1.841  52.136 -26.378  1.00  0.00     0.221 C 
HETATM    8  O2  UNL     1      -2.181  52.605 -25.057  1.00  0.00    -0.371 OA
HETATM    9  C9  UNL     1      -2.152  50.634 -26.475  1.00  0.00     0.288 C 
HETATM   10  O3  UNL     1      -1.378  49.774 -26.877  1.00  0.00    -0.262 OA
HETATM   11  O4  UNL     1      -3.404  50.383 -25.990  1.00  0.00    -0.314 OA
HETATM   12  C10 UNL     1      -3.605  49.088 -25.392  1.00  0.00     0.134 C 
HETATM   13  C26 UNL     1      -3.864  49.367 -23.894  1.00  0.00     0.033 C 
HETATM   14  C27 UNL     1      -3.683  48.139 -22.997  1.00  0.00     0.005 C 
HETATM   15  C28 UNL     1      -2.281  47.978 -22.377  1.00  0.00     0.032 C 
HETATM   16  C29 UNL     1      -1.850  48.986 -21.285  1.00  0.00     0.131 C 
HETATM   17  O7  UNL     1      -1.315  50.151 -21.931  1.00  0.00    -0.347 OA
HETATM   18  C30 UNL     1      -2.937  49.357 -20.265  1.00  0.00     0.042 C 
HETATM   19  C31 UNL     1      -3.441  48.132 -19.489  1.00  0.00     0.015 C 
HETATM   20  C32 UNL     1      -2.414  50.411 -19.282  1.00  0.00     0.158 C 
HETATM   21  C33 UNL     1      -1.772  51.601 -20.008  1.00  0.00     0.209 C 
ENDROOT
BRANCH  12  22
HETATM   22  C11 UNL     1      -4.812  48.393 -26.041  1.00  0.00     0.064 C 
BRANCH  22  23
HETATM   23  C12 UNL     1      -4.875  48.483 -27.575  1.00  0.00     0.124 C 
BRANCH  23  24
HETATM   24  O5  UNL     1      -3.575  48.107 -28.059  1.00  0.00    -0.395 OA
HETATM   25  H18 UNL     1      -3.676  47.685 -28.928  1.00  0.00     0.210 HD
ENDBRANCH  23  24
BRANCH  23  26
HETATM   26  C13 UNL     1      -5.966  47.653 -28.281  1.00  0.00     0.059 C 
BRANCH  26  27
HETATM   27  C14 UNL     1      -6.207  48.022 -29.720  1.00  0.00    -0.024 C 
HETATM   28  C15 UNL     1      -7.164  47.584 -30.554  1.00  0.00    -0.004 C 
BRANCH  28  29
HETATM   29  C16 UNL     1      -8.221  46.649 -30.252  1.00  0.00     0.002 C 
HETATM   30  C17 UNL     1      -8.106  45.313 -30.107  1.00  0.00    -0.080 C 
HETATM   31  C18 UNL     1      -9.351  44.495 -29.851  1.00  0.00     0.043 C 
BRANCH  30  32
HETATM   32  C19 UNL     1      -6.817  44.515 -30.218  1.00  0.00     0.060 C 
BRANCH  32  33
HETATM   33  C20 UNL     1      -6.528  44.042 -31.620  1.00  0.00    -0.022 C 
HETATM   34  C21 UNL     1      -5.531  44.440 -32.426  1.00  0.00    -0.004 C 
BRANCH  34  35
HETATM   35  C22 UNL     1      -4.474  45.363 -32.064  1.00  0.00    -0.004 C 
HETATM   36  C23 UNL     1      -4.262  46.583 -32.576  1.00  0.00    -0.025 C 
BRANCH  36  37
HETATM   37  C24 UNL     1      -5.090  47.330 -33.591  1.00  0.00     0.053 C 
BRANCH  37  38
HETATM   38  C25 UNL     1      -4.294  48.459 -34.255  1.00  0.00     0.168 C 
BRANCH  38  39
HETATM   39  O6  UNL     1      -4.989  48.975 -35.392  1.00  0.00    -0.401 OA
HETATM   40  H37 UNL     1      -5.869  49.265 -35.094  1.00  0.00     0.209 HD
ENDBRANCH  38  39
ENDBRANCH  37  38
ENDBRANCH  36  37
ENDBRANCH  34  35
ENDBRANCH  32  33
ENDBRANCH  30  32
ENDBRANCH  28  29
ENDBRANCH  26  27
ENDBRANCH  23  26
ENDBRANCH  22  23
ENDBRANCH  12  22
BRANCH   1  41
HETATM   41  O1  UNL     1       0.345  50.523 -20.252  1.00  0.00    -0.358 OA
HETATM   42  C1  UNL     1       0.148  50.558 -18.844  1.00  0.00     0.205 C 
ENDBRANCH   1  41
BRANCH  20  43
HETATM   43  O8  UNL     1      -3.520  50.882 -18.496  1.00  0.00    -0.392 OA
HETATM   44  H50 UNL     1      -3.286  50.757 -17.552  1.00  0.00     0.210 HD
ENDBRANCH  20  43
BRANCH  21  45
HETATM   45  O9  UNL     1      -1.143  52.460 -19.030  1.00  0.00    -0.387 OA
HETATM   46  H52 UNL     1      -0.329  51.988 -18.763  1.00  0.00     0.210 HD
ENDBRANCH  21  45
TORSDOF 15
ENDMDL
MODEL 2
REMARK minimizedAffinity -8.13315582
REMARK CNNscore 0.280066222
REMARK CNNaffinity 6.61072922
REMARK  15 active torsions:
REMARK  status: ('A' for Active; 'I' for Inactive)
REMARK    1  A    between atoms: O1_2  and  C2_3 
REMARK    2  A    between atoms: C10_14  and  C11_15 
REMARK    3  A    between atoms: C11_15  and  C12_16 
REMARK    4  A    between atoms: C12_16  and  O5_17 
REMARK    5  A    between atoms: C12_16  and  C13_18 
REMARK    6  A    between atoms: C13_18  and  C14_19 
REMARK    7  A    between atoms: C15_20  and  C16_21 
REMARK    8  A    between atoms: C17_22  and  C19_24 
REMARK    9  A    between atoms: C19_24  and  C20_25 
REMARK   10  A    between atoms: C21_26  and  C22_27 
REMARK   11  A    between atoms: C23_28  and  C24_29 
REMARK   12  A    between atoms: C24_29  and  C25_30 
REMARK   13  A    between atoms: C25_30  and  O6_31 
REMARK   14  A    between atoms: C32_39  and  O8_40 
REMARK   15  A    between atoms: C33_41  and  O9_42 
ROOT
HETATM    1  C2  UNL     1      -1.594  52.029 -25.363  1.00  0.00     0.192 C 
HETATM    2  C3  UNL     1      -0.210  52.744 -25.372  1.00  0.00     0.074 C 
HETATM    3  C4  UNL     1       0.826  52.194 -24.382  1.00  0.00     0.037 C 
HETATM    4  C5  UNL     1       0.746  52.881 -23.022  1.00  0.00     0.122 C 
HETATM    5  C6  UNL     1       1.377  54.259 -22.948  1.00  0.00     0.035 C 
HETATM    6  C7  UNL     1       1.750  54.397 -21.476  1.00  0.00     0.045 C 
HETATM    7  C8  UNL     1       1.539  53.000 -20.888  1.00  0.00     0.221 C 
HETATM    8  O2  UNL     1       1.477  52.132 -22.038  1.00  0.00    -0.371 OA
HETATM    9  C9  UNL     1       0.227  52.881 -20.096  1.00  0.00     0.288 C 
HETATM   10  O3  UNL     1      -0.466  53.822 -19.727  1.00  0.00    -0.262 OA
HETATM   11  O4  UNL     1      -0.090  51.566 -19.910  1.00  0.00    -0.314 OA
HETATM   12  C10 UNL     1      -1.495  51.259 -19.821  1.00  0.00     0.134 C 
HETATM   13  C26 UNL     1      -1.807  50.412 -21.077  1.00  0.00     0.033 C 
HETATM   14  C27 UNL     1      -3.299  50.333 -21.413  1.00  0.00     0.005 C 
HETATM   15  C28 UNL     1      -3.806  51.389 -22.414  1.00  0.00     0.032 C 
HETATM   16  C29 UNL     1      -3.348  51.271 -23.887  1.00  0.00     0.131 C 
HETATM   17  O7  UNL     1      -2.070  51.915 -24.016  1.00  0.00    -0.347 OA
HETATM   18  C30 UNL     1      -3.319  49.845 -24.455  1.00  0.00     0.042 C 
HETATM   19  C31 UNL     1      -4.705  49.184 -24.423  1.00  0.00     0.015 C 
HETATM   20  C32 UNL     1      -2.784  49.849 -25.892  1.00  0.00     0.158 C 
HETATM   21  C33 UNL     1      -1.461  50.620 -26.006  1.00  0.00     0.209 C 
ENDROOT
BRANCH  12  22
HETATM   22  C11 UNL     1      -1.778  50.466 -18.536  1.00  0.00     0.064 C 
BRANCH  22  23
HETATM   23  C12 UNL     1      -1.299  51.132 -17.235  1.00  0.00     0.124 C 
BRANCH  23  24
HETATM   24  O5  UNL     1      -2.282  50.824 -16.234  1.00  0.00    -0.395 OA
HETATM   25  H18 UNL     1      -1.842  50.773 -15.370  1.00  0.00     0.210 HD
ENDBRANCH  23  24
BRANCH  23  26
HETATM   26  C13 UNL     1       0.109  50.754 -16.733  1.00  0.00     0.059 C 
BRANCH  26  27
HETATM   27  C14 UNL     1       1.059  51.913 -16.587  1.00  0.00    -0.024 C 
HETATM   28  C15 UNL     1       2.036  52.094 -15.685  1.00  0.00    -0.004 C 
BRANCH  28  29
HETATM   29  C16 UNL     1       2.425  51.190 -14.630  1.00  0.00     0.002 C 
HETATM   30  C17 UNL     1       2.002  51.207 -13.348  1.00  0.00    -0.080 C 
HETATM   31  C18 UNL     1       2.579  50.205 -12.375  1.00  0.00     0.043 C 
BRANCH  30  32
HETATM   32  C19 UNL     1       1.003  52.186 -12.756  1.00  0.00     0.060 C 
BRANCH  32  33
HETATM   33  C20 UNL     1      -0.409  51.957 -13.233  1.00  0.00    -0.022 C 
HETATM   34  C21 UNL     1      -1.545  52.159 -12.548  1.00  0.00    -0.004 C 
BRANCH  34  35
HETATM   35  C22 UNL     1      -1.636  52.721 -11.215  1.00  0.00    -0.004 C 
HETATM   36  C23 UNL     1      -2.755  52.967 -10.520  1.00  0.00    -0.025 C 
BRANCH  36  37
HETATM   37  C24 UNL     1      -4.181  52.664 -10.904  1.00  0.00     0.053 C 
BRANCH  37  38
HETATM   38  C25 UNL     1      -4.569  51.222 -10.557  1.00  0.00     0.168 C 
BRANCH  38  39
HETATM   39  O6  UNL     1      -3.906  50.786  -9.368  1.00  0.00    -0.401 OA
HETATM   40  H37 UNL     1      -4.127  51.413  -8.659  1.00  0.00     0.209 HD
ENDBRANCH  38  39
ENDBRANCH  37  38
ENDBRANCH  36  37
ENDBRANCH  34  35
ENDBRANCH  32  33
ENDBRANCH  30  32
ENDBRANCH  28  29
ENDBRANCH  26  27
ENDBRANCH  23  26
ENDBRANCH  22  23
ENDBRANCH  12  22
BRANCH   1  41
HETATM   41  O1  UNL     1      -2.526  52.748 -26.209  1.00  0.00    -0.358 OA
HETATM   42  C1  UNL     1      -1.962  53.335 -27.375  1.00  0.00     0.205 C 
ENDBRANCH   1  41
BRANCH  20  43
HETATM   43  O8  UNL     1      -2.570  48.489 -26.299  1.00  0.00    -0.392 OA
HETATM   44  H50 UNL     1      -3.075  48.345 -27.126  1.00  0.00     0.210 HD
ENDBRANCH  20  43
BRANCH  21  45
HETATM   45  O9  UNL     1      -1.110  50.741 -27.403  1.00  0.00    -0.387 OA
HETATM   46  H52 UNL     1      -1.715  51.423 -27.760  1.00  0.00     0.210 HD
ENDBRANCH  21  45
TORSDOF 15
ENDMDL
MODEL 3
REMARK minimizedAffinity -8.42434692
REMARK CNNscore 0.271251053
REMARK CNNaffinity 6.15677595
REMARK  15 active torsions:
REMARK  status: ('A' for Active; 'I' for Inactive)
REMARK    1  A    between atoms: O1_2  and  C2_3 
REMARK    2  A    between atoms: C10_14  and  C11_15 
REMARK    3  A    between atoms: C11_15  and  C12_16 
REMARK    4  A    between atoms: C12_16  and  O5_17 
REMARK    5  A    between atoms: C12_16  and  C13_18 
REMARK    6  A    between atoms: C13_18  and  C14_19 
REMARK    7  A    between atoms: C15_20  and  C16_21 
REMARK    8  A    between atoms: C17_22  and  C19_24 
REMARK    9  A    between atoms: C19_24  and  C20_25 
REMARK   10  A    between atoms: C21_26  and  C22_27 
REMARK   11  A    between atoms: C23_28  and  C24_29 
REMARK   12  A    between atoms: C24_29  and  C25_30 
REMARK   13  A    between atoms: C25_30  and  O6_31 
REMARK   14  A    between atoms: C32_39  and  O8_40 
REMARK   15  A    between atoms: C33_41  and  O9_42 
ROOT
HETATM    1  C2  UNL     1      -0.313  52.996 -24.287  1.00  0.00     0.192 C 
HETATM    2  C3  UNL     1       0.791  53.357 -23.249  1.00  0.00     0.074 C 
HETATM    3  C4  UNL     1       1.118  52.263 -22.224  1.00  0.00     0.037 C 
HETATM    4  C5  UNL     1       0.247  52.360 -20.976  1.00  0.00     0.122 C 
HETATM    5  C6  UNL     1       0.644  53.437 -19.984  1.00  0.00     0.035 C 
HETATM    6  C7  UNL     1       0.114  52.906 -18.656  1.00  0.00     0.045 C 
HETATM    7  C8  UNL     1      -0.310  51.467 -18.954  1.00  0.00     0.221 C 
HETATM    8  O2  UNL     1       0.338  51.153 -20.203  1.00  0.00    -0.371 OA
HETATM    9  C9  UNL     1      -1.830  51.318 -19.123  1.00  0.00     0.288 C 
HETATM   10  O3  UNL     1      -2.664  52.159 -18.808  1.00  0.00    -0.262 OA
HETATM   11  O4  UNL     1      -2.120  50.131 -19.733  1.00  0.00    -0.314 OA
HETATM   12  C10 UNL     1      -3.309  50.110 -20.545  1.00  0.00     0.134 C 
HETATM   13  C26 UNL     1      -2.810  49.907 -21.995  1.00  0.00     0.033 C 
HETATM   14  C27 UNL     1      -3.846  50.274 -23.061  1.00  0.00     0.005 C 
HETATM   15  C28 UNL     1      -3.761  51.718 -23.593  1.00  0.00     0.032 C 
HETATM   16  C29 UNL     1      -2.546  52.097 -24.473  1.00  0.00     0.131 C 
HETATM   17  O7  UNL     1      -1.458  52.462 -23.610  1.00  0.00    -0.347 OA
HETATM   18  C30 UNL     1      -2.119  51.035 -25.498  1.00  0.00     0.042 C 
HETATM   19  C31 UNL     1      -3.241  50.715 -26.496  1.00  0.00     0.015 C 
HETATM   20  C32 UNL     1      -0.868  51.494 -26.257  1.00  0.00     0.158 C 
HETATM   21  C33 UNL     1       0.241  51.958 -25.303  1.00  0.00     0.209 C 
ENDROOT
BRANCH  12  22
HETATM   22  C11 UNL     1      -4.221  48.952 -20.109  1.00  0.00     0.064 C 
BRANCH  22  23
HETATM   23  C12 UNL     1      -3.491  47.660 -19.704  1.00  0.00     0.124 C 
BRANCH  23  24
HETATM   24  O5  UNL     1      -2.661  47.295 -20.819  1.00  0.00    -0.395 OA
HETATM   25  H18 UNL     1      -1.871  46.838 -20.483  1.00  0.00     0.210 HD
ENDBRANCH  23  24
BRANCH  23  26
HETATM   26  C13 UNL     1      -2.655  47.704 -18.409  1.00  0.00     0.059 C 
BRANCH  26  27
HETATM   27  C14 UNL     1      -3.369  48.283 -17.217  1.00  0.00    -0.024 C 
HETATM   28  C15 UNL     1      -2.871  49.025 -16.215  1.00  0.00    -0.004 C 
BRANCH  28  29
HETATM   29  C16 UNL     1      -1.507  49.466 -16.053  1.00  0.00     0.002 C 
HETATM   30  C17 UNL     1      -0.894  49.800 -14.898  1.00  0.00    -0.080 C 
HETATM   31  C18 UNL     1       0.532  50.300 -14.946  1.00  0.00     0.043 C 
BRANCH  30  32
HETATM   32  C19 UNL     1      -1.521  49.759 -13.515  1.00  0.00     0.060 C 
BRANCH  32  33
HETATM   33  C20 UNL     1      -1.056  50.879 -12.618  1.00  0.00    -0.022 C 
HETATM   34  C21 UNL     1      -1.730  51.993 -12.288  1.00  0.00    -0.004 C 
BRANCH  34  35
HETATM   35  C22 UNL     1      -3.091  52.300 -12.678  1.00  0.00    -0.004 C 
HETATM   36  C23 UNL     1      -3.959  53.083 -12.022  1.00  0.00    -0.025 C 
BRANCH  36  37
HETATM   37  C24 UNL     1      -3.728  53.891 -10.770  1.00  0.00     0.053 C 
BRANCH  37  38
HETATM   38  C25 UNL     1      -2.239  53.988 -10.421  1.00  0.00     0.168 C 
BRANCH  38  39
HETATM   39  O6  UNL     1      -1.750  55.315 -10.628  1.00  0.00    -0.401 OA
HETATM   40  H37 UNL     1      -2.297  55.918 -10.096  1.00  0.00     0.209 HD
ENDBRANCH  38  39
ENDBRANCH  37  38
ENDBRANCH  36  37
ENDBRANCH  34  35
ENDBRANCH  32  33
ENDBRANCH  30  32
ENDBRANCH  28  29
ENDBRANCH  26  27
ENDBRANCH  23  26
ENDBRANCH  22  23
ENDBRANCH  12  22
BRANCH   1  41
HETATM   41  O1  UNL     1      -0.646  54.164 -25.079  1.00  0.00    -0.358 OA
HETATM   42  C1  UNL     1       0.303  55.222 -25.033  1.00  0.00     0.205 C 
ENDBRANCH   1  41
BRANCH  20  43
HETATM   43  O8  UNL     1      -0.384  50.390 -27.038  1.00  0.00    -0.392 OA
HETATM   44  H50 UNL     1      -0.325  50.689 -27.969  1.00  0.00     0.210 HD
ENDBRANCH  20  43
BRANCH  21  45
HETATM   45  O9  UNL     1       1.310  52.543 -26.080  1.00  0.00    -0.387 OA
HETATM   46  H52 UNL     1       0.974  53.418 -26.359  1.00  0.00     0.210 HD
ENDBRANCH  21  45
TORSDOF 15
ENDMDL
MODEL 4
REMARK minimizedAffinity -7.60256386
REMARK CNNscore 0.260573268
REMARK CNNaffinity 6.01246595
REMARK  15 active torsions:
REMARK  status: ('A' for Active; 'I' for Inactive)
REMARK    1  A    between atoms: O1_2  and  C2_3 
REMARK    2  A    between atoms: C10_14  and  C11_15 
REMARK    3  A    between atoms: C11_15  and  C12_16 
REMARK    4  A    between atoms: C12_16  and  O5_17 
REMARK    5  A    between atoms: C12_16  and  C13_18 
REMARK    6  A    between atoms: C13_18  and  C14_19 
REMARK    7  A    between atoms: C15_20  and  C16_21 
REMARK    8  A    between atoms: C17_22  and  C19_24 
REMARK    9  A    between atoms: C19_24  and  C20_25 
REMARK   10  A    between atoms: C21_26  and  C22_27 
REMARK   11  A    between atoms: C23_28  and  C24_29 
REMARK   12  A    between atoms: C24_29  and  C25_30 
REMARK   13  A    between atoms: C25_30  and  O6_31 
REMARK   14  A    between atoms: C32_39  and  O8_40 
REMARK   15  A    between atoms: C33_41  and  O9_42 
ROOT
HETATM    1  C2  UNL     1      -3.644  49.766 -23.333  1.00  0.00     0.192 C 
HETATM    2  C3  UNL     1      -5.078  49.189 -23.143  1.00  0.00     0.074 C 
HETATM    3  C4  UNL     1      -5.832  49.683 -21.902  1.00  0.00     0.037 C 
HETATM    4  C5  UNL     1      -5.574  48.805 -20.681  1.00  0.00     0.122 C 
HETATM    5  C6  UNL     1      -6.336  47.494 -20.647  1.00  0.00     0.035 C 
HETATM    6  C7  UNL     1      -6.433  47.182 -19.157  1.00  0.00     0.045 C 
HETATM    7  C8  UNL     1      -5.949  48.455 -18.460  1.00  0.00     0.221 C 
HETATM    8  O2  UNL     1      -6.008  49.469 -19.483  1.00  0.00    -0.371 OA
HETATM    9  C9  UNL     1      -4.505  48.340 -17.947  1.00  0.00     0.288 C 
HETATM   10  O3  UNL     1      -3.870  47.297 -17.846  1.00  0.00    -0.262 OA
HETATM   11  O4  UNL     1      -4.005  49.580 -17.672  1.00  0.00    -0.314 OA
HETATM   12  C10 UNL     1      -2.584  49.742 -17.839  1.00  0.00     0.134 C 
HETATM   13  C26 UNL     1      -2.421  50.728 -19.019  1.00  0.00     0.033 C 
HETATM   14  C27 UNL     1      -1.022  50.718 -19.643  1.00  0.00     0.005 C 
HETATM   15  C28 UNL     1      -0.846  49.775 -20.848  1.00  0.00     0.032 C 
HETATM   16  C29 UNL     1      -1.562  50.142 -22.170  1.00  0.00     0.131 C 
HETATM   17  O7  UNL     1      -2.907  49.643 -22.110  1.00  0.00    -0.347 OA
HETATM   18  C30 UNL     1      -1.530  51.632 -22.542  1.00  0.00     0.042 C 
HETATM   19  C31 UNL     1      -0.097  52.152 -22.716  1.00  0.00     0.015 C 
HETATM   20  C32 UNL     1      -2.329  51.881 -23.827  1.00  0.00     0.158 C 
HETATM   21  C33 UNL     1      -3.731  51.259 -23.759  1.00  0.00     0.209 C 
ENDROOT
BRANCH  12  22
HETATM   22  C11 UNL     1      -1.967  50.315 -16.553  1.00  0.00     0.064 C 
BRANCH  22  23
HETATM   23  C12 UNL     1      -2.910  50.363 -15.338  1.00  0.00     0.124 C 
BRANCH  23  24
HETATM   24  O5  UNL     1      -3.125  49.000 -14.935  1.00  0.00    -0.395 OA
HETATM   25  H18 UNL     1      -3.269  48.979 -13.974  1.00  0.00     0.210 HD
ENDBRANCH  23  24
BRANCH  23  26
HETATM   26  C13 UNL     1      -2.456  51.210 -14.133  1.00  0.00     0.059 C 
BRANCH  26  27
HETATM   27  C14 UNL     1      -3.325  52.402 -13.836  1.00  0.00    -0.024 C 
HETATM   28  C15 UNL     1      -3.740  52.868 -12.647  1.00  0.00    -0.004 C 
BRANCH  28  29
HETATM   29  C16 UNL     1      -3.426  52.332 -11.344  1.00  0.00     0.002 C 
HETATM   30  C17 UNL     1      -2.303  52.544 -10.628  1.00  0.00    -0.080 C 
HETATM   31  C18 UNL     1      -2.136  51.837  -9.303  1.00  0.00     0.043 C 
BRANCH  30  32
HETATM   32  C19 UNL     1      -1.133  53.418 -11.049  1.00  0.00     0.060 C 
BRANCH  32  33
HETATM   33  C20 UNL     1      -1.172  54.797 -10.440  1.00  0.00    -0.022 C 
HETATM   34  C21 UNL     1      -0.439  55.258  -9.415  1.00  0.00    -0.004 C 
BRANCH  34  35
HETATM   35  C22 UNL     1       0.608  54.524  -8.732  1.00  0.00    -0.004 C 
HETATM   36  C23 UNL     1       1.841  54.270  -9.189  1.00  0.00    -0.025 C 
BRANCH  36  37
HETATM   37  C24 UNL     1       2.476  54.730 -10.478  1.00  0.00     0.053 C 
BRANCH  37  38
HETATM   38  C25 UNL     1       3.263  56.032 -10.290  1.00  0.00     0.168 C 
BRANCH  38  39
HETATM   39  O6  UNL     1       3.254  56.812 -11.488  1.00  0.00    -0.401 OA
HETATM   40  H37 UNL     1       2.326  56.969 -11.732  1.00  0.00     0.209 HD
ENDBRANCH  38  39
ENDBRANCH  37  38
ENDBRANCH  36  37
ENDBRANCH  34  35
ENDBRANCH  32  33
ENDBRANCH  30  32
ENDBRANCH  28  29
ENDBRANCH  26  27
ENDBRANCH  23  26
ENDBRANCH  22  23
ENDBRANCH  12  22
BRANCH   1  41
HETATM   41  O1  UNL     1      -2.983  49.094 -24.434  1.00  0.00    -0.358 OA
HETATM   42  C1  UNL     1      -3.848  48.449 -25.361  1.00  0.00     0.205 C 
ENDBRANCH   1  41
BRANCH  20  43
HETATM   43  O8  UNL     1      -2.455  53.300 -24.012  1.00  0.00    -0.392 OA
HETATM   44  H50 UNL     1      -2.106  53.514 -24.902  1.00  0.00     0.210 HD
ENDBRANCH  20  43
BRANCH  21  45
HETATM   45  O9  UNL     1      -4.355  51.371 -25.057  1.00  0.00    -0.387 OA
HETATM   46  H52 UNL     1      -3.916  50.695 -25.611  1.00  0.00     0.210 HD
ENDBRANCH  21  45
TORSDOF 15
ENDMDL
MODEL 5
REMARK minimizedAffinity -7.68518019
REMARK CNNscore 0.257248402
REMARK CNNaffinity 6.47896147
REMARK  15 active torsions:
REMARK  status: ('A' for Active; 'I' for Inactive)
REMARK    1  A    between atoms: O1_2  and  C2_3 
REMARK    2  A    between atoms: C10_14  and  C11_15 
REMARK    3  A    between atoms: C11_15  and  C12_16 
REMARK    4  A    between atoms: C12_16  and  O5_17 
REMARK    5  A    between atoms: C12_16  and  C13_18 
REMARK    6  A    between atoms: C13_18  and  C14_19 
REMARK    7  A    between atoms: C15_20  and  C16_21 
REMARK    8  A    between atoms: C17_22  and  C19_24 
REMARK    9  A    between atoms: C19_24  and  C20_25 
REMARK   10  A    between atoms: C21_26  and  C22_27 
REMARK   11  A    between atoms: C23_28  and  C24_29 
REMARK   12  A    between atoms: C24_29  and  C25_30 
REMARK   13  A    between atoms: C25_30  and  O6_31 
REMARK   14  A    between atoms: C32_39  and  O8_40 
REMARK   15  A    between atoms: C33_41  and  O9_42 
ROOT
HETATM    1  C2  UNL     1      -2.976  50.502 -22.767  1.00  0.00     0.192 C 
HETATM    2  C3  UNL     1      -1.989  51.159 -23.777  1.00  0.00     0.074 C 
HETATM    3  C4  UNL     1      -0.502  51.058 -23.409  1.00  0.00     0.037 C 
HETATM    4  C5  UNL     1      -0.038  52.234 -22.555  1.00  0.00     0.122 C 
HETATM    5  C6  UNL     1       0.214  53.528 -23.307  1.00  0.00     0.035 C 
HETATM    6  C7  UNL     1       1.236  54.249 -22.434  1.00  0.00     0.045 C 
HETATM    7  C8  UNL     1       1.671  53.207 -21.402  1.00  0.00     0.221 C 
HETATM    8  O2  UNL     1       1.236  51.949 -21.956  1.00  0.00    -0.371 OA
HETATM    9  C9  UNL     1       1.004  53.412 -20.033  1.00  0.00     0.288 C 
HETATM   10  O3  UNL     1       0.399  54.418 -19.682  1.00  0.00    -0.262 OA
HETATM   11  O4  UNL     1       1.129  52.281 -19.277  1.00  0.00    -0.314 OA
HETATM   12  C10 UNL     1       0.072  52.031 -18.331  1.00  0.00     0.134 C 
HETATM   13  C26 UNL     1      -0.630  50.748 -18.835  1.00  0.00     0.033 C 
HETATM   14  C27 UNL     1      -2.025  50.534 -18.241  1.00  0.00     0.005 C 
HETATM   15  C28 UNL     1      -3.191  51.095 -19.079  1.00  0.00     0.032 C 
HETATM   16  C29 UNL     1      -3.524  50.396 -20.419  1.00  0.00     0.131 C 
HETATM   17  O7  UNL     1      -2.669  50.938 -21.437  1.00  0.00    -0.347 OA
HETATM   18  C30 UNL     1      -3.465  48.862 -20.392  1.00  0.00     0.042 C 
HETATM   19  C31 UNL     1      -4.455  48.265 -19.382  1.00  0.00     0.015 C 
HETATM   20  C32 UNL     1      -3.743  48.289 -21.787  1.00  0.00     0.158 C 
HETATM   21  C33 UNL     1      -2.872  48.954 -22.862  1.00  0.00     0.209 C 
ENDROOT
BRANCH  12  22
HETATM   22  C11 UNL     1       0.663  51.821 -16.928  1.00  0.00     0.064 C 
BRANCH  22  23
HETATM   23  C12 UNL     1      -0.163  50.919 -15.997  1.00  0.00     0.124 C 
BRANCH  23  24
HETATM   24  O5  UNL     1       0.641  49.756 -15.737  1.00  0.00    -0.395 OA
HETATM   25  H18 UNL     1       0.431  49.424 -14.848  1.00  0.00     0.210 HD
ENDBRANCH  23  24
BRANCH  23  26
HETATM   26  C13 UNL     1      -0.648  51.538 -14.670  1.00  0.00     0.059 C 
BRANCH  26  27
HETATM   27  C14 UNL     1      -1.505  50.633 -13.827  1.00  0.00    -0.024 C 
HETATM   28  C15 UNL     1      -2.200  50.924 -12.716  1.00  0.00    -0.004 C 
BRANCH  28  29
HETATM   29  C16 UNL     1      -2.305  52.208 -12.066  1.00  0.00     0.002 C 
HETATM   30  C17 UNL     1      -3.311  52.640 -11.278  1.00  0.00    -0.080 C 
HETATM   31  C18 UNL     1      -3.264  54.051 -10.738  1.00  0.00     0.043 C 
BRANCH  30  32
HETATM   32  C19 UNL     1      -4.546  51.841 -10.896  1.00  0.00     0.060 C 
BRANCH  32  33
HETATM   33  C20 UNL     1      -4.244  50.682  -9.979  1.00  0.00    -0.022 C 
HETATM   34  C21 UNL     1      -4.903  49.515  -9.895  1.00  0.00    -0.004 C 
BRANCH  34  35
HETATM   35  C22 UNL     1      -6.006  49.108 -10.742  1.00  0.00    -0.004 C 
HETATM   36  C23 UNL     1      -7.313  49.216 -10.467  1.00  0.00    -0.025 C 
BRANCH  36  37
HETATM   37  C24 UNL     1      -7.968  49.841  -9.261  1.00  0.00     0.053 C 
BRANCH  37  38
HETATM   38  C25 UNL     1      -9.199  49.048  -8.808  1.00  0.00     0.168 C 
BRANCH  38  39
HETATM   39  O6  UNL     1      -9.746  49.595  -7.606  1.00  0.00    -0.401 OA
HETATM   40  H37 UNL     1      -9.946  50.532  -7.771  1.00  0.00     0.209 HD
ENDBRANCH  38  39
ENDBRANCH  37  38
ENDBRANCH  36  37
ENDBRANCH  34  35
ENDBRANCH  32  33
ENDBRANCH  30  32
ENDBRANCH  28  29
ENDBRANCH  26  27
ENDBRANCH  23  26
ENDBRANCH  22  23
ENDBRANCH  12  22
BRANCH   1  41
HETATM   41  O1  UNL     1      -4.342  50.815 -23.139  1.00  0.00    -0.358 OA
HETATM   42  C1  UNL     1      -4.635  52.201 -23.272  1.00  0.00     0.205 C 
ENDBRANCH   1  41
BRANCH  20  43
HETATM   43  O8  UNL     1      -3.464  46.881 -21.761  1.00  0.00    -0.392 OA
HETATM   44  H50 UNL     1      -4.269  46.414 -22.067  1.00  0.00     0.210 HD
ENDBRANCH  20  43
BRANCH  21  45
HETATM   45  O9  UNL     1      -3.311  48.503 -24.163  1.00  0.00    -0.387 OA
HETATM   46  H52 UNL     1      -4.148  48.981 -24.329  1.00  0.00     0.210 HD
ENDBRANCH  21  45
TORSDOF 15
ENDMDL
MODEL 6
REMARK minimizedAffinity -8.01985073
REMARK CNNscore 0.251099765
REMARK CNNaffinity 6.54660797
REMARK  15 active torsions:
REMARK  status: ('A' for Active; 'I' for Inactive)
REMARK    1  A    between atoms: O1_2  and  C2_3 
REMARK    2  A    between atoms: C10_14  and  C11_15 
REMARK    3  A    between atoms: C11_15  and  C12_16 
REMARK    4  A    between atoms: C12_16  and  O5_17 
REMARK    5  A    between atoms: C12_16  and  C13_18 
REMARK    6  A    between atoms: C13_18  and  C14_19 
REMARK    7  A    between atoms: C15_20  and  C16_21 
REMARK    8  A    between atoms: C17_22  and  C19_24 
REMARK    9  A    between atoms: C19_24  and  C20_25 
REMARK   10  A    between atoms: C21_26  and  C22_27 
REMARK   11  A    between atoms: C23_28  and  C24_29 
REMARK   12  A    between atoms: C24_29  and  C25_30 
REMARK   13  A    between atoms: C25_30  and  O6_31 
REMARK   14  A    between atoms: C32_39  and  O8_40 
REMARK   15  A    between atoms: C33_41  and  O9_42 
ROOT
HETATM    1  C2  UNL     1      -9.645  45.917 -31.157  1.00  0.00     0.192 C 
HETATM    2  C3  UNL     1     -11.195  46.058 -31.223  1.00  0.00     0.074 C 
HETATM    3  C4  UNL     1     -11.780  47.277 -30.497  1.00  0.00     0.037 C 
HETATM    4  C5  UNL     1     -12.108  46.977 -29.038  1.00  0.00     0.122 C 
HETATM    5  C6  UNL     1     -13.388  46.197 -28.802  1.00  0.00     0.035 C 
HETATM    6  C7  UNL     1     -13.798  46.611 -27.393  1.00  0.00     0.045 C 
HETATM    7  C8  UNL     1     -12.871  47.776 -27.043  1.00  0.00     0.221 C 
HETATM    8  O2  UNL     1     -12.329  48.197 -28.311  1.00  0.00    -0.371 OA
HETATM    9  C9  UNL     1     -11.718  47.359 -26.116  1.00  0.00     0.288 C 
HETATM   10  O3  UNL     1     -11.654  46.305 -25.494  1.00  0.00    -0.262 OA
HETATM   11  O4  UNL     1     -10.739  48.311 -26.129  1.00  0.00    -0.314 OA
HETATM   12  C10 UNL     1      -9.395  47.842 -25.909  1.00  0.00     0.134 C 
HETATM   13  C26 UNL     1      -8.653  48.090 -27.242  1.00  0.00     0.033 C 
HETATM   14  C27 UNL     1      -7.352  47.293 -27.383  1.00  0.00     0.005 C 
HETATM   15  C28 UNL     1      -7.486  45.936 -28.100  1.00  0.00     0.032 C 
HETATM   16  C29 UNL     1      -7.784  45.943 -29.619  1.00  0.00     0.131 C 
HETATM   17  O7  UNL     1      -9.204  46.061 -29.801  1.00  0.00    -0.347 OA
HETATM   18  C30 UNL     1      -7.023  47.000 -30.433  1.00  0.00     0.042 C 
HETATM   19  C31 UNL     1      -5.502  46.818 -30.334  1.00  0.00     0.015 C 
HETATM   20  C32 UNL     1      -7.453  46.957 -31.904  1.00  0.00     0.158 C 
HETATM   21  C33 UNL     1      -8.980  46.997 -32.055  1.00  0.00     0.209 C 
ENDROOT
BRANCH  12  22
HETATM   22  C11 UNL     1      -8.746  48.631 -24.761  1.00  0.00     0.064 C 
BRANCH  22  23
HETATM   23  C12 UNL     1      -8.487  47.826 -23.476  1.00  0.00     0.124 C 
BRANCH  23  24
HETATM   24  O5  UNL     1      -9.364  46.689 -23.524  1.00  0.00    -0.395 OA
HETATM   25  H18 UNL     1      -8.939  45.948 -23.061  1.00  0.00     0.210 HD
ENDBRANCH  23  24
BRANCH  23  26
HETATM   26  C13 UNL     1      -7.037  47.371 -23.216  1.00  0.00     0.059 C 
BRANCH  26  27
HETATM   27  C14 UNL     1      -6.076  48.481 -22.885  1.00  0.00    -0.024 C 
HETATM   28  C15 UNL     1      -5.019  48.919 -23.587  1.00  0.00    -0.004 C 
BRANCH  28  29
HETATM   29  C16 UNL     1      -4.556  48.425 -24.861  1.00  0.00     0.002 C 
HETATM   30  C17 UNL     1      -3.998  49.145 -25.857  1.00  0.00    -0.080 C 
HETATM   31  C18 UNL     1      -3.634  48.449 -27.148  1.00  0.00     0.043 C 
BRANCH  30  32
HETATM   32  C19 UNL     1      -3.725  50.640 -25.827  1.00  0.00     0.060 C 
BRANCH  32  33
HETATM   33  C20 UNL     1      -3.145  51.164 -27.117  1.00  0.00    -0.022 C 
HETATM   34  C21 UNL     1      -1.954  51.757 -27.294  1.00  0.00    -0.004 C 
BRANCH  34  35
HETATM   35  C22 UNL     1      -0.945  51.942 -26.270  1.00  0.00    -0.004 C 
HETATM   36  C23 UNL     1       0.385  51.901 -26.435  1.00  0.00    -0.025 C 
BRANCH  36  37
HETATM   37  C24 UNL     1       1.165  51.727 -27.714  1.00  0.00     0.053 C 
BRANCH  37  38
HETATM   38  C25 UNL     1       2.615  51.312 -27.442  1.00  0.00     0.168 C 
BRANCH  38  39
HETATM   39  O6  UNL     1       3.446  52.457 -27.240  1.00  0.00    -0.401 OA
HETATM   40  H37 UNL     1       3.064  52.975 -26.511  1.00  0.00     0.209 HD
ENDBRANCH  38  39
ENDBRANCH  37  38
ENDBRANCH  36  37
ENDBRANCH  34  35
ENDBRANCH  32  33
ENDBRANCH  30  32
ENDBRANCH  28  29
ENDBRANCH  26  27
ENDBRANCH  23  26
ENDBRANCH  22  23
ENDBRANCH  12  22
BRANCH   1  41
HETATM   41  O1  UNL     1      -9.241  44.646 -31.726  1.00  0.00    -0.358 OA
HETATM   42  C1  UNL     1     -10.039  43.530 -31.352  1.00  0.00     0.205 C 
ENDBRANCH   1  41
BRANCH  20  43
HETATM   43  O8  UNL     1      -6.885  48.093 -32.574  1.00  0.00    -0.392 OA
HETATM   44  H50 UNL     1      -6.371  47.760 -33.338  1.00  0.00     0.210 HD
ENDBRANCH  20  43
BRANCH  21  45
HETATM   45  O9  UNL     1      -9.319  46.770 -33.442  1.00  0.00    -0.387 OA
HETATM   46  H52 UNL     1      -9.177  45.813 -33.585  1.00  0.00     0.210 HD
ENDBRANCH  21  45
TORSDOF 15
ENDMDL
MODEL 7
REMARK minimizedAffinity -7.41531277
REMARK CNNscore 0.245772004
REMARK CNNaffinity 6.2157197
REMARK  15 active torsions:
REMARK  status: ('A' for Active; 'I' for Inactive)
REMARK    1  A    between atoms: O1_2  and  C2_3 
REMARK    2  A    between atoms: C10_14  and  C11_15 
REMARK    3  A    between atoms: C11_15  and  C12_16 
REMARK    4  A    between atoms: C12_16  and  O5_17 
REMARK    5  A    between atoms: C12_16  and  C13_18 
REMARK    6  A    between atoms: C13_18  and  C14_19 
REMARK    7  A    between atoms: C15_20  and  C16_21 
REMARK    8  A    between atoms: C17_22  and  C19_24 
REMARK    9  A    between atoms: C19_24  and  C20_25 
REMARK   10  A    between atoms: C21_26  and  C22_27 
REMARK   11  A    between atoms: C23_28  and  C24_29 
REMARK   12  A    between atoms: C24_29  and  C25_30 
REMARK   13  A    between atoms: C25_30  and  O6_31 
REMARK   14  A    between atoms: C32_39  and  O8_40 
REMARK   15  A    between atoms: C33_41  and  O9_42 
ROOT
HETATM    1  C2  UNL     1      -3.108  48.905 -20.122  1.00  0.00     0.192 C 
HETATM    2  C3  UNL     1      -2.529  49.259 -21.524  1.00  0.00     0.074 C 
HETATM    3  C4  UNL     1      -1.010  49.470 -21.579  1.00  0.00     0.037 C 
HETATM    4  C5  UNL     1      -0.618  50.920 -21.313  1.00  0.00     0.122 C 
HETATM    5  C6  UNL     1      -0.813  51.873 -22.477  1.00  0.00     0.035 C 
HETATM    6  C7  UNL     1       0.208  52.973 -22.207  1.00  0.00     0.045 C 
HETATM    7  C8  UNL     1       1.069  52.433 -21.063  1.00  0.00     0.221 C 
HETATM    8  O2  UNL     1       0.789  51.018 -21.041  1.00  0.00    -0.371 OA
HETATM    9  C9  UNL     1       0.699  53.042 -19.702  1.00  0.00     0.288 C 
HETATM   10  O3  UNL     1      -0.005  54.031 -19.536  1.00  0.00    -0.262 OA
HETATM   11  O4  UNL     1       1.221  52.284 -18.692  1.00  0.00    -0.314 OA
HETATM   12  C10 UNL     1       0.479  52.274 -17.458  1.00  0.00     0.134 C 
HETATM   13  C26 UNL     1      -0.040  50.825 -17.306  1.00  0.00     0.033 C 
HETATM   14  C27 UNL     1      -1.191  50.683 -16.307  1.00  0.00     0.005 C 
HETATM   15  C28 UNL     1      -2.605  50.765 -16.914  1.00  0.00     0.032 C 
HETATM   16  C29 UNL     1      -3.080  49.595 -17.809  1.00  0.00     0.131 C 
HETATM   17  O7  UNL     1      -2.606  49.825 -19.145  1.00  0.00    -0.347 OA
HETATM   18  C30 UNL     1      -2.702  48.192 -17.311  1.00  0.00     0.042 C 
HETATM   19  C31 UNL     1      -3.295  47.892 -15.928  1.00  0.00     0.015 C 
HETATM   20  C32 UNL     1      -3.163  47.125 -18.312  1.00  0.00     0.158 C 
HETATM   21  C33 UNL     1      -2.711  47.450 -19.743  1.00  0.00     0.209 C 
ENDROOT
BRANCH  12  22
HETATM   22  C11 UNL     1       1.400  52.656 -16.289  1.00  0.00     0.064 C 
BRANCH  22  23
HETATM   23  C12 UNL     1       2.177  51.489 -15.659  1.00  0.00     0.124 C 
BRANCH  23  24
HETATM   24  O5  UNL     1       3.562  51.872 -15.664  1.00  0.00    -0.395 OA
HETATM   25  H18 UNL     1       4.002  51.463 -14.900  1.00  0.00     0.210 HD
ENDBRANCH  23  24
BRANCH  23  26
HETATM   26  C13 UNL     1       1.752  51.048 -14.243  1.00  0.00     0.059 C 
BRANCH  26  27
HETATM   27  C14 UNL     1       1.444  52.178 -13.297  1.00  0.00    -0.024 C 
HETATM   28  C15 UNL     1       0.254  52.580 -12.823  1.00  0.00    -0.004 C 
BRANCH  28  29
HETATM   29  C16 UNL     1      -1.036  51.997 -13.103  1.00  0.00     0.002 C 
HETATM   30  C17 UNL     1      -1.907  51.486 -12.208  1.00  0.00    -0.080 C 
HETATM   31  C18 UNL     1      -3.189  50.862 -12.711  1.00  0.00     0.043 C 
BRANCH  30  32
HETATM   32  C19 UNL     1      -1.709  51.438 -10.703  1.00  0.00     0.060 C 
BRANCH  32  33
HETATM   33  C20 UNL     1      -2.806  52.132  -9.936  1.00  0.00    -0.022 C 
HETATM   34  C21 UNL     1      -3.057  53.450  -9.883  1.00  0.00    -0.004 C 
BRANCH  34  35
HETATM   35  C22 UNL     1      -2.352  54.471 -10.632  1.00  0.00    -0.004 C 
HETATM   36  C23 UNL     1      -1.301  55.191 -10.216  1.00  0.00    -0.025 C 
BRANCH  36  37
HETATM   37  C24 UNL     1      -0.546  55.081  -8.915  1.00  0.00     0.053 C 
BRANCH  37  38
HETATM   38  C25 UNL     1       0.970  55.134  -9.132  1.00  0.00     0.168 C 
BRANCH  38  39
HETATM   39  O6  UNL     1       1.595  53.930  -8.680  1.00  0.00    -0.401 OA
HETATM   40  H37 UNL     1       1.177  53.187  -9.148  1.00  0.00     0.209 HD
ENDBRANCH  38  39
ENDBRANCH  37  38
ENDBRANCH  36  37
ENDBRANCH  34  35
ENDBRANCH  32  33
ENDBRANCH  30  32
ENDBRANCH  28  29
ENDBRANCH  26  27
ENDBRANCH  23  26
ENDBRANCH  22  23
ENDBRANCH  12  22
BRANCH   1  41
HETATM   41  O1  UNL     1      -4.557  48.903 -20.172  1.00  0.00    -0.358 OA
HETATM   42  C1  UNL     1      -5.140  49.950 -20.938  1.00  0.00     0.205 C 
ENDBRANCH   1  41
BRANCH  20  43
HETATM   43  O8  UNL     1      -2.601  45.864 -17.918  1.00  0.00    -0.392 OA
HETATM   44  H50 UNL     1      -3.340  45.229 -17.818  1.00  0.00     0.210 HD
ENDBRANCH  20  43
BRANCH  21  45
HETATM   45  O9  UNL     1      -3.329  46.512 -20.652  1.00  0.00    -0.387 OA
HETATM   46  H52 UNL     1      -4.262  46.798 -20.718  1.00  0.00     0.210 HD
ENDBRANCH  21  45
TORSDOF 15
ENDMDL
MODEL 8
REMARK minimizedAffinity -8.21129131
REMARK CNNscore 0.245655462
REMARK CNNaffinity 5.2504468
REMARK  15 active torsions:
REMARK  status: ('A' for Active; 'I' for Inactive)
REMARK    1  A    between atoms: O1_2  and  C2_3 
REMARK    2  A    between atoms: C10_14  and  C11_15 
REMARK    3  A    between atoms: C11_15  and  C12_16 
REMARK    4  A    between atoms: C12_16  and  O5_17 
REMARK    5  A    between atoms: C12_16  and  C13_18 
REMARK    6  A    between atoms: C13_18  and  C14_19 
REMARK    7  A    between atoms: C15_20  and  C16_21 
REMARK    8  A    between atoms: C17_22  and  C19_24 
REMARK    9  A    between atoms: C19_24  and  C20_25 
REMARK   10  A    between atoms: C21_26  and  C22_27 
REMARK   11  A    between atoms: C23_28  and  C24_29 
REMARK   12  A    between atoms: C24_29  and  C25_30 
REMARK   13  A    between atoms: C25_30  and  O6_31 
REMARK   14  A    between atoms: C32_39  and  O8_40 
REMARK   15  A    between atoms: C33_41  and  O9_42 
ROOT
HETATM    1  C2  UNL     1      -0.059  53.151 -24.353  1.00  0.00     0.192 C 
HETATM    2  C3  UNL     1       1.005  53.352 -23.233  1.00  0.00     0.074 C 
HETATM    3  C4  UNL     1       1.177  52.175 -22.264  1.00  0.00     0.037 C 
HETATM    4  C5  UNL     1       0.241  52.275 -21.063  1.00  0.00     0.122 C 
HETATM    5  C6  UNL     1       0.666  53.252 -19.983  1.00  0.00     0.035 C 
HETATM    6  C7  UNL     1       0.012  52.692 -18.724  1.00  0.00     0.045 C 
HETATM    7  C8  UNL     1      -0.512  51.315 -19.137  1.00  0.00     0.221 C 
HETATM    8  O2  UNL     1       0.183  51.020 -20.366  1.00  0.00    -0.371 OA
HETATM    9  C9  UNL     1      -2.026  51.310 -19.400  1.00  0.00     0.288 C 
HETATM   10  O3  UNL     1      -2.804  52.201 -19.079  1.00  0.00    -0.262 OA
HETATM   11  O4  UNL     1      -2.376  50.192 -20.101  1.00  0.00    -0.314 OA
HETATM   12  C10 UNL     1      -3.511  50.322 -20.978  1.00  0.00     0.134 C 
HETATM   13  C26 UNL     1      -2.942  50.163 -22.407  1.00  0.00     0.033 C 
HETATM   14  C27 UNL     1      -3.876  50.681 -23.504  1.00  0.00     0.005 C 
HETATM   15  C28 UNL     1      -3.638  52.141 -23.937  1.00  0.00     0.032 C 
HETATM   16  C29 UNL     1      -2.344  52.464 -24.721  1.00  0.00     0.131 C 
HETATM   17  O7  UNL     1      -1.284  52.681 -23.777  1.00  0.00    -0.347 OA
HETATM   18  C30 UNL     1      -1.946  51.431 -25.786  1.00  0.00     0.042 C 
HETATM   19  C31 UNL     1      -3.026  51.270 -26.864  1.00  0.00     0.015 C 
HETATM   20  C32 UNL     1      -0.616  51.823 -26.443  1.00  0.00     0.158 C 
HETATM   21  C33 UNL     1       0.468  52.131 -25.401  1.00  0.00     0.209 C 
ENDROOT
BRANCH  12  22
HETATM   22  C11 UNL     1      -4.541  49.224 -20.668  1.00  0.00     0.064 C 
BRANCH  22  23
HETATM   23  C12 UNL     1      -5.825  49.707 -19.974  1.00  0.00     0.124 C 
BRANCH  23  24
HETATM   24  O5  UNL     1      -6.409  50.696 -20.838  1.00  0.00    -0.395 OA
HETATM   25  H18 UNL     1      -7.374  50.671 -20.733  1.00  0.00     0.210 HD
ENDBRANCH  23  24
BRANCH  23  26
HETATM   26  C13 UNL     1      -6.871  48.633 -19.611  1.00  0.00     0.059 C 
BRANCH  26  27
HETATM   27  C14 UNL     1      -7.943  48.422 -20.647  1.00  0.00    -0.024 C 
HETATM   28  C15 UNL     1      -9.211  48.017 -20.476  1.00  0.00    -0.004 C 
BRANCH  28  29
HETATM   29  C16 UNL     1      -9.864  47.699 -19.229  1.00  0.00     0.002 C 
HETATM   30  C17 UNL     1     -11.191  47.605 -19.008  1.00  0.00    -0.080 C 
HETATM   31  C18 UNL     1     -11.681  47.321 -17.607  1.00  0.00     0.043 C 
BRANCH  30  32
HETATM   32  C19 UNL     1     -12.281  47.800 -20.048  1.00  0.00     0.060 C 
BRANCH  32  33
HETATM   33  C20 UNL     1     -12.180  46.837 -21.204  1.00  0.00    -0.022 C 
HETATM   34  C21 UNL     1     -13.179  46.164 -21.796  1.00  0.00    -0.004 C 
BRANCH  34  35
HETATM   35  C22 UNL     1     -14.587  46.296 -21.478  1.00  0.00    -0.004 C 
HETATM   36  C23 UNL     1     -15.539  46.831 -22.254  1.00  0.00    -0.025 C 
BRANCH  36  37
HETATM   37  C24 UNL     1     -15.413  47.362 -23.660  1.00  0.00     0.053 C 
BRANCH  37  38
HETATM   38  C25 UNL     1     -15.564  46.249 -24.703  1.00  0.00     0.168 C 
BRANCH  38  39
HETATM   39  O6  UNL     1     -14.877  46.583 -25.911  1.00  0.00    -0.401 OA
HETATM   40  H37 UNL     1     -13.947  46.758 -25.684  1.00  0.00     0.209 HD
ENDBRANCH  38  39
ENDBRANCH  37  38
ENDBRANCH  36  37
ENDBRANCH  34  35
ENDBRANCH  32  33
ENDBRANCH  30  32
ENDBRANCH  28  29
ENDBRANCH  26  27
ENDBRANCH  23  26
ENDBRANCH  22  23
ENDBRANCH  12  22
BRANCH   1  41
HETATM   41  O1  UNL     1      -0.244  54.389 -25.085  1.00  0.00    -0.358 OA
HETATM   42  C1  UNL     1       0.623  55.453 -24.712  1.00  0.00     0.205 C 
ENDBRANCH   1  41
BRANCH  20  43
HETATM   43  O8  UNL     1      -0.180  50.729 -27.264  1.00  0.00    -0.392 OA
HETATM   44  H50 UNL     1      -0.038  51.076 -28.170  1.00  0.00     0.210 HD
ENDBRANCH  20  43
BRANCH  21  45
HETATM   45  O9  UNL     1       1.628  52.665 -26.078  1.00  0.00    -0.387 OA
HETATM   46  H52 UNL     1       1.383  53.581 -26.318  1.00  0.00     0.210 HD
ENDBRANCH  21  45
TORSDOF 15
ENDMDL
MODEL 9
REMARK minimizedAffinity -7.52734232
REMARK CNNscore 0.239862368
REMARK CNNaffinity 5.86431265
REMARK  15 active torsions:
REMARK  status: ('A' for Active; 'I' for Inactive)
REMARK    1  A    between atoms: O1_2  and  C2_3 
REMARK    2  A    between atoms: C10_14  and  C11_15 
REMARK    3  A    between atoms: C11_15  and  C12_16 
REMARK    4  A    between atoms: C12_16  and  O5_17 
REMARK    5  A    between atoms: C12_16  and  C13_18 
REMARK    6  A    between atoms: C13_18  and  C14_19 
REMARK    7  A    between atoms: C15_20  and  C16_21 
REMARK    8  A    between atoms: C17_22  and  C19_24 
REMARK    9  A    between atoms: C19_24  and  C20_25 
REMARK   10  A    between atoms: C21_26  and  C22_27 
REMARK   11  A    between atoms: C23_28  and  C24_29 
REMARK   12  A    between atoms: C24_29  and  C25_30 
REMARK   13  A    between atoms: C25_30  and  O6_31 
REMARK   14  A    between atoms: C32_39  and  O8_40 
REMARK   15  A    between atoms: C33_41  and  O9_42 
ROOT
HETATM    1  C2  UNL     1     -10.778  45.605 -30.145  1.00  0.00     0.192 C 
HETATM    2  C3  UNL     1     -12.317  45.770 -29.965  1.00  0.00     0.074 C 
HETATM    3  C4  UNL     1     -12.756  46.913 -29.041  1.00  0.00     0.037 C 
HETATM    4  C5  UNL     1     -12.873  46.468 -27.587  1.00  0.00     0.122 C 
HETATM    5  C6  UNL     1     -14.125  45.682 -27.243  1.00  0.00     0.035 C 
HETATM    6  C7  UNL     1     -14.313  45.951 -25.754  1.00  0.00     0.045 C 
HETATM    7  C8  UNL     1     -13.313  47.063 -25.430  1.00  0.00     0.221 C 
HETATM    8  O2  UNL     1     -12.952  47.607 -26.716  1.00  0.00    -0.371 OA
HETATM    9  C9  UNL     1     -12.048  46.539 -24.732  1.00  0.00     0.288 C 
HETATM   10  O3  UNL     1     -11.921  45.426 -24.237  1.00  0.00    -0.262 OA
HETATM   11  O4  UNL     1     -11.056  47.477 -24.795  1.00  0.00    -0.314 OA
HETATM   12  C10 UNL     1      -9.707  46.972 -24.826  1.00  0.00     0.134 C 
HETATM   13  C26 UNL     1      -9.163  47.349 -26.223  1.00  0.00     0.033 C 
HETATM   14  C27 UNL     1      -7.919  46.556 -26.636  1.00  0.00     0.005 C 
HETATM   15  C28 UNL     1      -8.194  45.282 -27.459  1.00  0.00     0.032 C 
HETATM   16  C29 UNL     1      -8.712  45.451 -28.908  1.00  0.00     0.131 C 
HETATM   17  O7  UNL     1     -10.139  45.603 -28.863  1.00  0.00    -0.347 OA
HETATM   18  C30 UNL     1      -8.050  46.578 -29.715  1.00  0.00     0.042 C 
HETATM   19  C31 UNL     1      -6.537  46.369 -29.863  1.00  0.00     0.015 C 
HETATM   20  C32 UNL     1      -8.693  46.692 -31.102  1.00  0.00     0.158 C 
HETATM   21  C33 UNL     1     -10.224  46.766 -31.019  1.00  0.00     0.209 C 
ENDROOT
BRANCH  12  22
HETATM   22  C11 UNL     1      -8.876  47.630 -23.714  1.00  0.00     0.064 C 
BRANCH  22  23
HETATM   23  C12 UNL     1      -8.177  48.942 -24.107  1.00  0.00     0.124 C 
BRANCH  23  24
HETATM   24  O5  UNL     1      -9.187  49.783 -24.690  1.00  0.00    -0.395 OA
HETATM   25  H18 UNL     1      -8.964  50.710 -24.507  1.00  0.00     0.210 HD
ENDBRANCH  23  24
BRANCH  23  26
HETATM   26  C13 UNL     1      -7.433  49.701 -22.989  1.00  0.00     0.059 C 
BRANCH  26  27
HETATM   27  C14 UNL     1      -6.683  48.824 -22.023  1.00  0.00    -0.024 C 
HETATM   28  C15 UNL     1      -5.565  48.110 -22.226  1.00  0.00    -0.004 C 
BRANCH  28  29
HETATM   29  C16 UNL     1      -4.793  48.028 -23.442  1.00  0.00     0.002 C 
HETATM   30  C17 UNL     1      -3.841  48.889 -23.859  1.00  0.00    -0.080 C 
HETATM   31  C18 UNL     1      -3.186  48.661 -25.202  1.00  0.00     0.043 C 
BRANCH  30  32
HETATM   32  C19 UNL     1      -3.371  50.125 -23.110  1.00  0.00     0.060 C 
BRANCH  32  33
HETATM   33  C20 UNL     1      -1.882  50.147 -22.872  1.00  0.00    -0.022 C 
HETATM   34  C21 UNL     1      -0.997  51.052 -23.319  1.00  0.00    -0.004 C 
BRANCH  34  35
HETATM   35  C22 UNL     1      -1.323  52.248 -24.069  1.00  0.00    -0.004 C 
HETATM   36  C23 UNL     1      -0.482  52.995 -24.797  1.00  0.00    -0.025 C 
BRANCH  36  37
HETATM   37  C24 UNL     1       0.980  52.753 -25.080  1.00  0.00     0.053 C 
BRANCH  37  38
HETATM   38  C25 UNL     1       1.192  52.094 -26.447  1.00  0.00     0.168 C 
BRANCH  38  39
HETATM   39  O6  UNL     1       0.845  50.708 -26.406  1.00  0.00    -0.401 OA
HETATM   40  H37 UNL     1      -0.075  50.642 -26.099  1.00  0.00     0.209 HD
ENDBRANCH  38  39
ENDBRANCH  37  38
ENDBRANCH  36  37
ENDBRANCH  34  35
ENDBRANCH  32  33
ENDBRANCH  30  32
ENDBRANCH  28  29
ENDBRANCH  26  27
ENDBRANCH  23  26
ENDBRANCH  22  23
ENDBRANCH  12  22
BRANCH   1  41
HETATM   41  O1  UNL     1     -10.496  44.396 -30.894  1.00  0.00    -0.358 OA
HETATM   42  C1  UNL     1     -11.313  44.185 -32.040  1.00  0.00     0.205 C 
ENDBRANCH   1  41
BRANCH  20  43
HETATM   43  O8  UNL     1      -8.200  47.885 -31.731  1.00  0.00    -0.392 OA
HETATM   44  H50 UNL     1      -7.813  47.627 -32.593  1.00  0.00     0.210 HD
ENDBRANCH  20  43
BRANCH  21  45
HETATM   45  O9  UNL     1     -10.769  46.687 -32.356  1.00  0.00    -0.387 OA
HETATM   46  H52 UNL     1     -10.676  45.748 -32.614  1.00  0.00     0.210 HD
ENDBRANCH  21  45
TORSDOF 15
ENDMDL
