MODEL 1
REMARK minimizedAffinity -8.04554558
REMARK CNNscore 0.695600808
REMARK CNNaffinity 7.81575918
REMARK  14 active torsions:
REMARK  status: ('A' for Active; 'I' for Inactive)
REMARK    1  A    between atoms: C2_2  and  O2_4 
REMARK    2  A    between atoms: O2_4  and  C3_5 
REMARK    3  A    between atoms: C3_5  and  C4_6 
REMARK    4  A    between atoms: C4_6  and  C5_8 
REMARK    5  A    between atoms: C5_8  and  O4_9 
REMARK    6  A    between atoms: O4_9  and  C6_10 
REMARK    7  A    between atoms: C6_10  and  C7_12 
REMARK    8  A    between atoms: C7_12  and  C8_13 
REMARK    9  A    between atoms: C8_13  and  C9_14 
REMARK       I    between atoms: C9_14  and  N1_16 
REMARK   10  A    between atoms: N1_16  and  C10_17 
REMARK   11  A    between atoms: C10_17  and  C11_18 
REMARK   12  A    between atoms: C10_17  and  C18_25 
REMARK   13  A    between atoms: C11_18  and  C12_19 
REMARK   14  A    between atoms: C18_25  and  O8_27 
ROOT
HETATM    1  C3  UNL     1      -6.152   5.293  13.997  1.00  0.00     0.140 C 
HETATM    2  C19 UNL     1      -5.584   5.846  15.360  1.00  0.00     0.048 C 
HETATM    3  C20 UNL     1      -6.580   6.914  15.877  1.00  0.00     0.009 C 
HETATM    4  C21 UNL     1      -7.755   6.769  14.928  1.00  0.00     0.002 C 
HETATM    5  C22 UNL     1      -8.869   7.802  14.787  1.00  0.00    -0.004 C 
HETATM    6  C23 UNL     1      -9.270   8.554  16.063  1.00  0.00     0.010 C 
HETATM    7  C24 UNL     1     -10.728   8.370  16.477  1.00  0.00     0.035 C 
HETATM    8  C25 UNL     1     -11.733   8.447  15.347  1.00  0.00    -0.068 C 
HETATM    9  C26 UNL     1     -12.997   8.811  15.626  1.00  0.00     0.053 C 
HETATM   10  C27 UNL     1     -14.076   8.714  14.615  1.00  0.00     0.149 C 
HETATM   11  O9  UNL     1     -15.168   9.222  14.856  1.00  0.00    -0.293 OA
HETATM   12  C28 UNL     1     -13.799   7.991  13.319  1.00  0.00     0.084 C 
HETATM   13  C29 UNL     1     -12.503   7.177  13.354  1.00  0.00     0.022 C 
HETATM   14  C30 UNL     1     -11.306   7.959  13.956  1.00  0.00    -0.016 C 
HETATM   15  C31 UNL     1     -10.970   9.173  13.060  1.00  0.00     0.020 C 
HETATM   16  C32 UNL     1     -10.057   7.035  14.133  1.00  0.00     0.002 C 
HETATM   17  C33 UNL     1      -9.615   6.187  12.904  1.00  0.00     0.007 C 
HETATM   18  C34 UNL     1      -8.143   6.282  12.462  1.00  0.00     0.013 C 
HETATM   19  C35 UNL     1      -7.071   6.495  13.557  1.00  0.00    -0.001 C 
HETATM   20  C36 UNL     1      -6.198   7.709  13.085  1.00  0.00     0.019 C 
ENDROOT
BRANCH   1  21
HETATM   21  O2  UNL     1      -6.954   4.146  14.392  1.00  0.00    -0.301 OA
BRANCH  21  22
HETATM   22  C2  UNL     1      -7.460   3.295  13.465  1.00  0.00     0.256 C 
HETATM   23  C1  UNL     1      -6.369   2.429  12.920  1.00  0.00     0.126 C 
HETATM   24  O1  UNL     1      -8.625   3.250  13.104  1.00  0.00    -0.266 OA
ENDBRANCH  21  22
ENDBRANCH   1  21
BRANCH   1  25
HETATM   25  C4  UNL     1      -4.957   4.921  13.069  1.00  0.00     0.186 C 
HETATM   26  O3  UNL     1      -5.104   4.618  11.885  1.00  0.00    -0.292 OA
BRANCH  25  27
HETATM   27  C5  UNL     1      -3.570   4.961  13.716  1.00  0.00     0.260 C 
BRANCH  27  28
HETATM   28  O4  UNL     1      -2.593   5.433  12.788  1.00  0.00    -0.314 OA
BRANCH  28  29
HETATM   29  C6  UNL     1      -2.103   6.663  13.078  1.00  0.00     0.259 C 
HETATM   30  O5  UNL     1      -2.542   7.709  12.614  1.00  0.00    -0.265 OA
BRANCH  29  31
HETATM   31  C7  UNL     1      -0.994   6.596  14.096  1.00  0.00     0.120 C 
BRANCH  31  32
HETATM   32  C8  UNL     1       0.107   5.618  13.703  1.00  0.00     0.112 C 
BRANCH  32  33
HETATM   33  C9  UNL     1       1.407   6.330  13.403  1.00  0.00     0.218 C 
HETATM   34  O6  UNL     1       1.988   7.055  14.201  1.00  0.00    -0.274 OA
HETATM   35  N1  UNL     1       1.869   6.095  12.132  1.00  0.00    -0.346 N 
HETATM   36  H10 UNL     1       1.374   5.460  11.512  1.00  0.00     0.163 HD
BRANCH  35  37
HETATM   37  C10 UNL     1       3.105   6.697  11.625  1.00  0.00     0.186 C 
BRANCH  37  38
HETATM   38  C11 UNL     1       2.881   8.069  10.965  1.00  0.00     0.074 C 
BRANCH  38  39
HETATM   39  C12 UNL     1       2.164   8.021   9.632  1.00  0.00    -0.056 A 
HETATM   40  C13 UNL     1       0.773   8.176   9.567  1.00  0.00     0.007 A 
HETATM   41  C14 UNL     1       0.109   8.107   8.342  1.00  0.00     0.001 A 
HETATM   42  C15 UNL     1       0.830   7.882   7.171  1.00  0.00     0.000 A 
HETATM   43  C16 UNL     1       2.216   7.733   7.222  1.00  0.00     0.001 A 
HETATM   44  C17 UNL     1       2.880   7.804   8.446  1.00  0.00     0.007 A 
ENDBRANCH  38  39
ENDBRANCH  37  38
BRANCH  37  45
HETATM   45  C18 UNL     1       3.772   5.708  10.674  1.00  0.00     0.163 C 
HETATM   46  O7  UNL     1       4.929   5.754  10.273  1.00  0.00    -0.648 OA
BRANCH  45  47
HETATM   47  O8  UNL     1       2.947   4.731  10.241  1.00  0.00    -0.775 OA
HETATM   48  H19 UNL     1       3.508   4.210   9.629  1.00  0.00     0.167 HD
ENDBRANCH  45  47
ENDBRANCH  37  45
ENDBRANCH  35  37
ENDBRANCH  32  33
ENDBRANCH  31  32
ENDBRANCH  29  31
ENDBRANCH  28  29
ENDBRANCH  27  28
ENDBRANCH  25  27
ENDBRANCH   1  25
TORSDOF 14
ENDMDL
MODEL 2
REMARK minimizedAffinity -10.4000406
REMARK CNNscore 0.604890347
REMARK CNNaffinity 7.67388535
REMARK  14 active torsions:
REMARK  status: ('A' for Active; 'I' for Inactive)
REMARK    1  A    between atoms: C2_2  and  O2_4 
REMARK    2  A    between atoms: O2_4  and  C3_5 
REMARK    3  A    between atoms: C3_5  and  C4_6 
REMARK    4  A    between atoms: C4_6  and  C5_8 
REMARK    5  A    between atoms: C5_8  and  O4_9 
REMARK    6  A    between atoms: O4_9  and  C6_10 
REMARK    7  A    between atoms: C6_10  and  C7_12 
REMARK    8  A    between atoms: C7_12  and  C8_13 
REMARK    9  A    between atoms: C8_13  and  C9_14 
REMARK       I    between atoms: C9_14  and  N1_16 
REMARK   10  A    between atoms: N1_16  and  C10_17 
REMARK   11  A    between atoms: C10_17  and  C11_18 
REMARK   12  A    between atoms: C10_17  and  C18_25 
REMARK   13  A    between atoms: C11_18  and  C12_19 
REMARK   14  A    between atoms: C18_25  and  O8_27 
ROOT
HETATM    1  C3  UNL     1      -2.059   6.802  13.458  1.00  0.00     0.140 C 
HETATM    2  C19 UNL     1      -2.171   5.559  12.495  1.00  0.00     0.048 C 
HETATM    3  C20 UNL     1      -3.624   5.029  12.591  1.00  0.00     0.009 C 
HETATM    4  C21 UNL     1      -4.321   6.098  13.411  1.00  0.00     0.002 C 
HETATM    5  C22 UNL     1      -5.683   5.910  14.075  1.00  0.00    -0.004 C 
HETATM    6  C23 UNL     1      -6.694   5.031  13.327  1.00  0.00     0.010 C 
HETATM    7  C24 UNL     1      -7.990   5.741  12.944  1.00  0.00     0.035 C 
HETATM    8  C25 UNL     1      -8.584   6.624  14.020  1.00  0.00    -0.068 C 
HETATM    9  C26 UNL     1      -9.907   6.866  14.005  1.00  0.00     0.053 C 
HETATM   10  C27 UNL     1     -10.524   7.874  14.898  1.00  0.00     0.149 C 
HETATM   11  O9  UNL     1     -11.748   7.933  14.977  1.00  0.00    -0.293 OA
HETATM   12  C28 UNL     1      -9.626   8.800  15.684  1.00  0.00     0.084 C 
HETATM   13  C29 UNL     1      -8.172   8.769  15.208  1.00  0.00     0.022 C 
HETATM   14  C30 UNL     1      -7.631   7.331  14.993  1.00  0.00    -0.016 C 
HETATM   15  C31 UNL     1      -7.608   6.573  16.340  1.00  0.00     0.020 C 
HETATM   16  C32 UNL     1      -6.208   7.352  14.343  1.00  0.00     0.002 C 
HETATM   17  C33 UNL     1      -5.134   8.267  15.002  1.00  0.00     0.007 C 
HETATM   18  C34 UNL     1      -3.781   7.630  15.368  1.00  0.00     0.013 C 
HETATM   19  C35 UNL     1      -3.241   6.503  14.456  1.00  0.00    -0.001 C 
HETATM   20  C36 UNL     1      -2.869   5.311  15.406  1.00  0.00     0.019 C 
ENDROOT
BRANCH   1  21
HETATM   21  O2  UNL     1      -2.377   7.935  12.605  1.00  0.00    -0.301 OA
BRANCH  21  22
HETATM   22  C2  UNL     1      -1.487   8.943  12.422  1.00  0.00     0.256 C 
HETATM   23  C1  UNL     1      -0.564   8.608  11.292  1.00  0.00     0.126 C 
HETATM   24  O1  UNL     1      -1.424   9.963  13.087  1.00  0.00    -0.266 OA
ENDBRANCH  21  22
ENDBRANCH   1  21
BRANCH   1  25
HETATM   25  C4  UNL     1      -0.617   6.853  14.043  1.00  0.00     0.186 C 
HETATM   26  O3  UNL     1       0.312   6.189  13.583  1.00  0.00    -0.292 OA
BRANCH  25  27
HETATM   27  C5  UNL     1      -0.410   7.793  15.234  1.00  0.00     0.260 C 
BRANCH  27  28
HETATM   28  O4  UNL     1       0.692   7.363  16.033  1.00  0.00    -0.314 OA
BRANCH  28  29
HETATM   29  C6  UNL     1       1.719   8.247  16.081  1.00  0.00     0.259 C 
HETATM   30  O5  UNL     1       2.198   8.694  17.117  1.00  0.00    -0.265 OA
BRANCH  29  31
HETATM   31  C7  UNL     1       2.247   8.563  14.706  1.00  0.00     0.120 C 
BRANCH  31  32
HETATM   32  C8  UNL     1       3.751   8.345  14.588  1.00  0.00     0.112 C 
BRANCH  32  33
HETATM   33  C9  UNL     1       4.206   8.348  13.147  1.00  0.00     0.218 C 
HETATM   34  O6  UNL     1       4.464   9.366  12.515  1.00  0.00    -0.274 OA
HETATM   35  N1  UNL     1       4.288   7.091  12.604  1.00  0.00    -0.346 N 
HETATM   36  H10 UNL     1       4.097   6.270  13.173  1.00  0.00     0.163 HD
BRANCH  35  37
HETATM   37  C10 UNL     1       4.695   6.862  11.215  1.00  0.00     0.186 C 
BRANCH  37  38
HETATM   38  C11 UNL     1       3.774   5.880  10.471  1.00  0.00     0.074 C 
BRANCH  38  39
HETATM   39  C12 UNL     1       3.120   6.443   9.227  1.00  0.00    -0.056 A 
HETATM   40  C13 UNL     1       2.641   7.760   9.211  1.00  0.00     0.007 A 
HETATM   41  C14 UNL     1       2.015   8.272   8.073  1.00  0.00     0.001 A 
HETATM   42  C15 UNL     1       1.863   7.471   6.942  1.00  0.00     0.000 A 
HETATM   43  C16 UNL     1       2.343   6.162   6.944  1.00  0.00     0.001 A 
HETATM   44  C17 UNL     1       2.970   5.650   8.081  1.00  0.00     0.007 A 
ENDBRANCH  38  39
ENDBRANCH  37  38
BRANCH  37  45
HETATM   45  C18 UNL     1       6.150   6.401  11.205  1.00  0.00     0.163 C 
HETATM   46  O7  UNL     1       7.125   7.072  11.518  1.00  0.00    -0.648 OA
BRANCH  45  47
HETATM   47  O8  UNL     1       6.315   5.135  10.766  1.00  0.00    -0.775 OA
HETATM   48  H19 UNL     1       7.286   5.007  10.791  1.00  0.00     0.167 HD
ENDBRANCH  45  47
ENDBRANCH  37  45
ENDBRANCH  35  37
ENDBRANCH  32  33
ENDBRANCH  31  32
ENDBRANCH  29  31
ENDBRANCH  28  29
ENDBRANCH  27  28
ENDBRANCH  25  27
ENDBRANCH   1  25
TORSDOF 14
ENDMDL
MODEL 3
REMARK minimizedAffinity -9.98093605
REMARK CNNscore 0.452144504
REMARK CNNaffinity 7.33807039
REMARK  14 active torsions:
REMARK  status: ('A' for Active; 'I' for Inactive)
REMARK    1  A    between atoms: C2_2  and  O2_4 
REMARK    2  A    between atoms: O2_4  and  C3_5 
REMARK    3  A    between atoms: C3_5  and  C4_6 
REMARK    4  A    between atoms: C4_6  and  C5_8 
REMARK    5  A    between atoms: C5_8  and  O4_9 
REMARK    6  A    between atoms: O4_9  and  C6_10 
REMARK    7  A    between atoms: C6_10  and  C7_12 
REMARK    8  A    between atoms: C7_12  and  C8_13 
REMARK    9  A    between atoms: C8_13  and  C9_14 
REMARK       I    between atoms: C9_14  and  N1_16 
REMARK   10  A    between atoms: N1_16  and  C10_17 
REMARK   11  A    between atoms: C10_17  and  C11_18 
REMARK   12  A    between atoms: C10_17  and  C18_25 
REMARK   13  A    between atoms: C11_18  and  C12_19 
REMARK   14  A    between atoms: C18_25  and  O8_27 
ROOT
HETATM    1  C3  UNL     1      -2.206   7.286  13.913  1.00  0.00     0.140 C 
HETATM    2  C19 UNL     1      -2.104   6.046  12.944  1.00  0.00     0.048 C 
HETATM    3  C20 UNL     1      -3.500   5.375  12.904  1.00  0.00     0.009 C 
HETATM    4  C21 UNL     1      -4.373   6.363  13.653  1.00  0.00     0.002 C 
HETATM    5  C22 UNL     1      -5.766   6.037  14.186  1.00  0.00    -0.004 C 
HETATM    6  C23 UNL     1      -6.610   5.069  13.347  1.00  0.00     0.010 C 
HETATM    7  C24 UNL     1      -7.928   5.651  12.842  1.00  0.00     0.035 C 
HETATM    8  C25 UNL     1      -8.705   6.462  13.856  1.00  0.00    -0.068 C 
HETATM    9  C26 UNL     1     -10.038   6.572  13.717  1.00  0.00     0.053 C 
HETATM   10  C27 UNL     1     -10.833   7.508  14.546  1.00  0.00     0.149 C 
HETATM   11  O9  UNL     1     -12.060   7.445  14.510  1.00  0.00    -0.293 OA
HETATM   12  C28 UNL     1     -10.110   8.512  15.412  1.00  0.00     0.084 C 
HETATM   13  C29 UNL     1      -8.622   8.627  15.076  1.00  0.00     0.022 C 
HETATM   14  C30 UNL     1      -7.922   7.251  14.914  1.00  0.00    -0.016 C 
HETATM   15  C31 UNL     1      -7.952   6.489  16.259  1.00  0.00     0.020 C 
HETATM   16  C32 UNL     1      -6.455   7.418  14.401  1.00  0.00     0.002 C 
HETATM   17  C33 UNL     1      -5.543   8.429  15.158  1.00  0.00     0.007 C 
HETATM   18  C34 UNL     1      -4.174   7.926  15.650  1.00  0.00     0.013 C 
HETATM   19  C35 UNL     1      -3.442   6.864  14.795  1.00  0.00    -0.001 C 
HETATM   20  C36 UNL     1      -3.045   5.708  15.777  1.00  0.00     0.019 C 
ENDROOT
BRANCH   1  21
HETATM   21  O2  UNL     1      -2.553   8.390  13.032  1.00  0.00    -0.301 OA
BRANCH  21  22
HETATM   22  C2  UNL     1      -1.630   9.321  12.682  1.00  0.00     0.256 C 
HETATM   23  C1  UNL     1      -0.895   8.873  11.458  1.00  0.00     0.126 C 
HETATM   24  O1  UNL     1      -1.408  10.360  13.282  1.00  0.00    -0.266 OA
ENDBRANCH  21  22
ENDBRANCH   1  21
BRANCH   1  25
HETATM   25  C4  UNL     1      -0.837   7.475  14.631  1.00  0.00     0.186 C 
HETATM   26  O3  UNL     1       0.199   6.940  14.238  1.00  0.00    -0.292 OA
BRANCH  25  27
HETATM   27  C5  UNL     1      -0.848   8.380  15.866  1.00  0.00     0.260 C 
BRANCH  27  28
HETATM   28  O4  UNL     1       0.434   8.397  16.492  1.00  0.00    -0.314 OA
BRANCH  28  29
HETATM   29  C6  UNL     1       1.035   9.613  16.489  1.00  0.00     0.259 C 
HETATM   30  O5  UNL     1       1.561  10.121  15.506  1.00  0.00    -0.265 OA
BRANCH  29  31
HETATM   31  C7  UNL     1       0.919  10.295  17.827  1.00  0.00     0.120 C 
BRANCH  31  32
HETATM   32  C8  UNL     1       2.237  10.317  18.594  1.00  0.00     0.112 C 
BRANCH  32  33
HETATM   33  C9  UNL     1       2.018  10.511  20.077  1.00  0.00     0.218 C 
HETATM   34  O6  UNL     1       1.114  11.190  20.550  1.00  0.00    -0.274 OA
HETATM   35  N1  UNL     1       2.948   9.862  20.849  1.00  0.00    -0.346 N 
HETATM   36  H10 UNL     1       3.663   9.282  20.417  1.00  0.00     0.163 HD
BRANCH  35  37
HETATM   37  C10 UNL     1       2.934   9.927  22.313  1.00  0.00     0.186 C 
BRANCH  37  38
HETATM   38  C11 UNL     1       4.327  10.168  22.919  1.00  0.00     0.074 C 
BRANCH  38  39
HETATM   39  C12 UNL     1       4.773  11.615  22.926  1.00  0.00    -0.056 A 
HETATM   40  C13 UNL     1       6.135  11.938  22.995  1.00  0.00     0.007 A 
HETATM   41  C14 UNL     1       6.546  13.272  23.027  1.00  0.00     0.001 A 
HETATM   42  C15 UNL     1       5.598  14.293  22.990  1.00  0.00     0.000 A 
HETATM   43  C16 UNL     1       4.240  13.983  22.915  1.00  0.00     0.001 A 
HETATM   44  C17 UNL     1       3.829  12.650  22.881  1.00  0.00     0.007 A 
ENDBRANCH  38  39
ENDBRANCH  37  38
BRANCH  37  45
HETATM   45  C18 UNL     1       2.291   8.651  22.849  1.00  0.00     0.163 C 
HETATM   46  O7  UNL     1       1.809   7.746  22.180  1.00  0.00    -0.648 OA
BRANCH  45  47
HETATM   47  O8  UNL     1       2.247   8.590  24.197  1.00  0.00    -0.775 OA
HETATM   48  H19 UNL     1       1.786   7.744  24.375  1.00  0.00     0.167 HD
ENDBRANCH  45  47
ENDBRANCH  37  45
ENDBRANCH  35  37
ENDBRANCH  32  33
ENDBRANCH  31  32
ENDBRANCH  29  31
ENDBRANCH  28  29
ENDBRANCH  27  28
ENDBRANCH  25  27
ENDBRANCH   1  25
TORSDOF 14
ENDMDL
MODEL 4
REMARK minimizedAffinity -9.55530834
REMARK CNNscore 0.41369462
REMARK CNNaffinity 7.18356943
REMARK  14 active torsions:
REMARK  status: ('A' for Active; 'I' for Inactive)
REMARK    1  A    between atoms: C2_2  and  O2_4 
REMARK    2  A    between atoms: O2_4  and  C3_5 
REMARK    3  A    between atoms: C3_5  and  C4_6 
REMARK    4  A    between atoms: C4_6  and  C5_8 
REMARK    5  A    between atoms: C5_8  and  O4_9 
REMARK    6  A    between atoms: O4_9  and  C6_10 
REMARK    7  A    between atoms: C6_10  and  C7_12 
REMARK    8  A    between atoms: C7_12  and  C8_13 
REMARK    9  A    between atoms: C8_13  and  C9_14 
REMARK       I    between atoms: C9_14  and  N1_16 
REMARK   10  A    between atoms: N1_16  and  C10_17 
REMARK   11  A    between atoms: C10_17  and  C11_18 
REMARK   12  A    between atoms: C10_17  and  C18_25 
REMARK   13  A    between atoms: C11_18  and  C12_19 
REMARK   14  A    between atoms: C18_25  and  O8_27 
ROOT
HETATM    1  C3  UNL     1      -1.134   8.876  13.421  1.00  0.00     0.140 C 
HETATM    2  C19 UNL     1      -0.069   7.723  13.273  1.00  0.00     0.048 C 
HETATM    3  C20 UNL     1      -0.823   6.376  13.412  1.00  0.00     0.009 C 
HETATM    4  C21 UNL     1      -2.279   6.801  13.410  1.00  0.00     0.002 C 
HETATM    5  C22 UNL     1      -3.430   5.901  13.850  1.00  0.00    -0.004 C 
HETATM    6  C23 UNL     1      -3.283   4.404  13.545  1.00  0.00     0.010 C 
HETATM    7  C24 UNL     1      -4.375   3.830  12.645  1.00  0.00     0.035 C 
HETATM    8  C25 UNL     1      -5.782   4.281  12.971  1.00  0.00    -0.068 C 
HETATM    9  C26 UNL     1      -6.814   3.492  12.624  1.00  0.00     0.053 C 
HETATM   10  C27 UNL     1      -8.218   3.955  12.727  1.00  0.00     0.149 C 
HETATM   11  O9  UNL     1      -9.128   3.145  12.571  1.00  0.00    -0.293 OA
HETATM   12  C28 UNL     1      -8.486   5.412  13.020  1.00  0.00     0.084 C 
HETATM   13  C29 UNL     1      -7.243   6.291  12.868  1.00  0.00     0.022 C 
HETATM   14  C30 UNL     1      -5.983   5.690  13.546  1.00  0.00    -0.016 C 
HETATM   15  C31 UNL     1      -6.203   5.601  15.073  1.00  0.00     0.020 C 
HETATM   16  C32 UNL     1      -4.706   6.530  13.216  1.00  0.00     0.002 C 
HETATM   17  C33 UNL     1      -4.786   8.070  13.438  1.00  0.00     0.007 C 
HETATM   18  C34 UNL     1      -3.687   8.726  14.293  1.00  0.00     0.013 C 
HETATM   19  C35 UNL     1      -2.262   8.126  14.226  1.00  0.00    -0.001 C 
HETATM   20  C36 UNL     1      -1.815   7.894  15.711  1.00  0.00     0.019 C 
ENDROOT
BRANCH   1  21
HETATM   21  O2  UNL     1      -1.559   9.137  12.055  1.00  0.00    -0.301 OA
BRANCH  21  22
HETATM   22  C2  UNL     1      -0.717   8.935  11.012  1.00  0.00     0.256 C 
HETATM   23  C1  UNL     1       0.698   8.901  11.499  1.00  0.00     0.126 C 
HETATM   24  O1  UNL     1      -1.049   8.820   9.843  1.00  0.00    -0.266 OA
ENDBRANCH  21  22
ENDBRANCH   1  21
BRANCH   1  25
HETATM   25  C4  UNL     1      -0.455  10.101  14.102  1.00  0.00     0.186 C 
HETATM   26  O3  UNL     1      -1.053  11.153  14.326  1.00  0.00    -0.292 OA
BRANCH  25  27
HETATM   27  C5  UNL     1       1.015   9.922  14.490  1.00  0.00     0.260 C 
BRANCH  27  28
HETATM   28  O4  UNL     1       1.130   9.454  15.834  1.00  0.00    -0.314 OA
BRANCH  28  29
HETATM   29  C6  UNL     1       2.403   9.195  16.223  1.00  0.00     0.259 C 
HETATM   30  O5  UNL     1       3.075   9.939  16.928  1.00  0.00    -0.265 OA
BRANCH  29  31
HETATM   31  C7  UNL     1       2.872   7.848  15.738  1.00  0.00     0.120 C 
BRANCH  31  32
HETATM   32  C8  UNL     1       4.184   7.924  14.966  1.00  0.00     0.112 C 
BRANCH  32  33
HETATM   33  C9  UNL     1       3.976   7.706  13.485  1.00  0.00     0.218 C 
HETATM   34  O6  UNL     1       2.950   7.242  13.001  1.00  0.00    -0.274 OA
HETATM   35  N1  UNL     1       5.063   8.065  12.728  1.00  0.00    -0.346 N 
HETATM   36  H10 UNL     1       5.883   8.476  13.166  1.00  0.00     0.163 HD
BRANCH  35  37
HETATM   37  C10 UNL     1       5.084   7.923  11.270  1.00  0.00     0.186 C 
BRANCH  37  38
HETATM   38  C11 UNL     1       4.272   6.716  10.770  1.00  0.00     0.074 C 
BRANCH  38  39
HETATM   39  C12 UNL     1       3.543   6.941   9.462  1.00  0.00    -0.056 A 
HETATM   40  C13 UNL     1       3.246   8.240   9.029  1.00  0.00     0.007 A 
HETATM   41  C14 UNL     1       2.551   8.447   7.836  1.00  0.00     0.001 A 
HETATM   42  C15 UNL     1       2.148   7.357   7.066  1.00  0.00     0.000 A 
HETATM   43  C16 UNL     1       2.445   6.060   7.484  1.00  0.00     0.001 A 
HETATM   44  C17 UNL     1       3.141   5.853   8.675  1.00  0.00     0.007 A 
ENDBRANCH  38  39
ENDBRANCH  37  38
BRANCH  37  45
HETATM   45  C18 UNL     1       6.537   7.865  10.809  1.00  0.00     0.163 C 
HETATM   46  O7  UNL     1       7.169   6.854  10.528  1.00  0.00    -0.648 OA
BRANCH  45  47
HETATM   47  O8  UNL     1       7.140   9.072  10.760  1.00  0.00    -0.775 OA
HETATM   48  H19 UNL     1       8.056   8.861  10.482  1.00  0.00     0.167 HD
ENDBRANCH  45  47
ENDBRANCH  37  45
ENDBRANCH  35  37
ENDBRANCH  32  33
ENDBRANCH  31  32
ENDBRANCH  29  31
ENDBRANCH  28  29
ENDBRANCH  27  28
ENDBRANCH  25  27
ENDBRANCH   1  25
TORSDOF 14
ENDMDL
MODEL 5
REMARK minimizedAffinity -9.43057823
REMARK CNNscore 0.406489879
REMARK CNNaffinity 7.42002869
REMARK  14 active torsions:
REMARK  status: ('A' for Active; 'I' for Inactive)
REMARK    1  A    between atoms: C2_2  and  O2_4 
REMARK    2  A    between atoms: O2_4  and  C3_5 
REMARK    3  A    between atoms: C3_5  and  C4_6 
REMARK    4  A    between atoms: C4_6  and  C5_8 
REMARK    5  A    between atoms: C5_8  and  O4_9 
REMARK    6  A    between atoms: O4_9  and  C6_10 
REMARK    7  A    between atoms: C6_10  and  C7_12 
REMARK    8  A    between atoms: C7_12  and  C8_13 
REMARK    9  A    between atoms: C8_13  and  C9_14 
REMARK       I    between atoms: C9_14  and  N1_16 
REMARK   10  A    between atoms: N1_16  and  C10_17 
REMARK   11  A    between atoms: C10_17  and  C11_18 
REMARK   12  A    between atoms: C10_17  and  C18_25 
REMARK   13  A    between atoms: C11_18  and  C12_19 
REMARK   14  A    between atoms: C18_25  and  O8_27 
ROOT
HETATM    1  C3  UNL     1      -1.996   6.754  13.277  1.00  0.00     0.140 C 
HETATM    2  C19 UNL     1      -2.144   5.475  12.367  1.00  0.00     0.048 C 
HETATM    3  C20 UNL     1      -3.593   4.953  12.535  1.00  0.00     0.009 C 
HETATM    4  C21 UNL     1      -4.259   6.054  13.337  1.00  0.00     0.002 C 
HETATM    5  C22 UNL     1      -5.597   5.896  14.055  1.00  0.00    -0.004 C 
HETATM    6  C23 UNL     1      -6.634   4.991  13.378  1.00  0.00     0.010 C 
HETATM    7  C24 UNL     1      -7.942   5.689  13.013  1.00  0.00     0.035 C 
HETATM    8  C25 UNL     1      -8.497   6.614  14.074  1.00  0.00    -0.068 C 
HETATM    9  C26 UNL     1      -9.820   6.858  14.097  1.00  0.00     0.053 C 
HETATM   10  C27 UNL     1     -10.404   7.902  14.971  1.00  0.00     0.149 C 
HETATM   11  O9  UNL     1     -11.625   7.967  15.091  1.00  0.00    -0.293 OA
HETATM   12  C28 UNL     1      -9.478   8.856  15.688  1.00  0.00     0.084 C 
HETATM   13  C29 UNL     1      -8.042   8.802  15.163  1.00  0.00     0.022 C 
HETATM   14  C30 UNL     1      -7.510   7.356  14.985  1.00  0.00    -0.016 C 
HETATM   15  C31 UNL     1      -7.441   6.651  16.359  1.00  0.00     0.020 C 
HETATM   16  C32 UNL     1      -6.111   7.349  14.285  1.00  0.00     0.002 C 
HETATM   17  C33 UNL     1      -5.014   8.286  14.870  1.00  0.00     0.007 C 
HETATM   18  C34 UNL     1      -3.649   7.661  15.212  1.00  0.00     0.013 C 
HETATM   19  C35 UNL     1      -3.143   6.497  14.326  1.00  0.00    -0.001 C 
HETATM   20  C36 UNL     1      -2.738   5.343  15.308  1.00  0.00     0.019 C 
ENDROOT
BRANCH   1  21
HETATM   21  O2  UNL     1      -2.343   7.855  12.392  1.00  0.00    -0.301 OA
BRANCH  21  22
HETATM   22  C2  UNL     1      -1.515   8.919  12.243  1.00  0.00     0.256 C 
HETATM   23  C1  UNL     1      -0.613   8.702  11.068  1.00  0.00     0.126 C 
HETATM   24  O1  UNL     1      -1.484   9.901  12.967  1.00  0.00    -0.266 OA
ENDBRANCH  21  22
ENDBRANCH   1  21
BRANCH   1  25
HETATM   25  C4  UNL     1      -0.534   6.825  13.808  1.00  0.00     0.186 C 
HETATM   26  O3  UNL     1      -0.161   7.676  14.616  1.00  0.00    -0.292 OA
BRANCH  25  27
HETATM   27  C5  UNL     1       0.426   5.761  13.271  1.00  0.00     0.260 C 
BRANCH  27  28
HETATM   28  O4  UNL     1       1.374   6.341  12.375  1.00  0.00    -0.314 OA
BRANCH  28  29
HETATM   29  C6  UNL     1       1.536   5.653  11.218  1.00  0.00     0.259 C 
HETATM   30  O5  UNL     1       0.972   4.596  10.958  1.00  0.00    -0.265 OA
BRANCH  29  31
HETATM   31  C7  UNL     1       2.444   6.378  10.259  1.00  0.00     0.120 C 
BRANCH  31  32
HETATM   32  C8  UNL     1       3.801   5.700  10.106  1.00  0.00     0.112 C 
BRANCH  32  33
HETATM   33  C9  UNL     1       4.907   6.512  10.741  1.00  0.00     0.218 C 
HETATM   34  O6  UNL     1       6.099   6.331  10.518  1.00  0.00    -0.274 OA
HETATM   35  N1  UNL     1       4.445   7.467  11.610  1.00  0.00    -0.346 N 
HETATM   36  H10 UNL     1       3.447   7.606  11.741  1.00  0.00     0.163 HD
BRANCH  35  37
HETATM   37  C10 UNL     1       5.346   8.357  12.347  1.00  0.00     0.186 C 
BRANCH  37  38
HETATM   38  C11 UNL     1       5.526   7.948  13.819  1.00  0.00     0.074 C 
BRANCH  38  39
HETATM   39  C12 UNL     1       6.948   8.032  14.331  1.00  0.00    -0.056 A 
HETATM   40  C13 UNL     1       8.029   7.797  13.470  1.00  0.00     0.007 A 
HETATM   41  C14 UNL     1       9.339   7.849  13.947  1.00  0.00     0.001 A 
HETATM   42  C15 UNL     1       9.581   8.138  15.288  1.00  0.00     0.000 A 
HETATM   43  C16 UNL     1       8.514   8.382  16.153  1.00  0.00     0.001 A 
HETATM   44  C17 UNL     1       7.204   8.332  15.676  1.00  0.00     0.007 A 
ENDBRANCH  38  39
ENDBRANCH  37  38
BRANCH  37  45
HETATM   45  C18 UNL     1       4.835   9.788  12.210  1.00  0.00     0.163 C 
HETATM   46  O7  UNL     1       3.989  10.326  12.913  1.00  0.00    -0.648 OA
BRANCH  45  47
HETATM   47  O8  UNL     1       5.379  10.462  11.175  1.00  0.00    -0.775 OA
HETATM   48  H19 UNL     1       4.932  11.334  11.206  1.00  0.00     0.167 HD
ENDBRANCH  45  47
ENDBRANCH  37  45
ENDBRANCH  35  37
ENDBRANCH  32  33
ENDBRANCH  31  32
ENDBRANCH  29  31
ENDBRANCH  28  29
ENDBRANCH  27  28
ENDBRANCH  25  27
ENDBRANCH   1  25
TORSDOF 14
ENDMDL
MODEL 6
REMARK minimizedAffinity -7.7592535
REMARK CNNscore 0.386397332
REMARK CNNaffinity 7.22343636
REMARK  14 active torsions:
REMARK  status: ('A' for Active; 'I' for Inactive)
REMARK    1  A    between atoms: C2_2  and  O2_4 
REMARK    2  A    between atoms: O2_4  and  C3_5 
REMARK    3  A    between atoms: C3_5  and  C4_6 
REMARK    4  A    between atoms: C4_6  and  C5_8 
REMARK    5  A    between atoms: C5_8  and  O4_9 
REMARK    6  A    between atoms: O4_9  and  C6_10 
REMARK    7  A    between atoms: C6_10  and  C7_12 
REMARK    8  A    between atoms: C7_12  and  C8_13 
REMARK    9  A    between atoms: C8_13  and  C9_14 
REMARK       I    between atoms: C9_14  and  N1_16 
REMARK   10  A    between atoms: N1_16  and  C10_17 
REMARK   11  A    between atoms: C10_17  and  C11_18 
REMARK   12  A    between atoms: C10_17  and  C18_25 
REMARK   13  A    between atoms: C11_18  and  C12_19 
REMARK   14  A    between atoms: C18_25  and  O8_27 
ROOT
HETATM    1  C3  UNL     1      -1.451   9.947  16.007  1.00  0.00     0.140 C 
HETATM    2  C19 UNL     1      -0.250   8.935  15.867  1.00  0.00     0.048 C 
HETATM    3  C20 UNL     1      -0.853   7.537  15.579  1.00  0.00     0.009 C 
HETATM    4  C21 UNL     1      -2.321   7.842  15.351  1.00  0.00     0.002 C 
HETATM    5  C22 UNL     1      -3.423   6.785  15.355  1.00  0.00    -0.004 C 
HETATM    6  C23 UNL     1      -3.046   5.404  14.803  1.00  0.00     0.010 C 
HETATM    7  C24 UNL     1      -3.869   4.955  13.599  1.00  0.00     0.035 C 
HETATM    8  C25 UNL     1      -5.356   5.219  13.700  1.00  0.00    -0.068 C 
HETATM    9  C26 UNL     1      -6.203   4.447  12.996  1.00  0.00     0.053 C 
HETATM   10  C27 UNL     1      -7.645   4.771  12.887  1.00  0.00     0.149 C 
HETATM   11  O9  UNL     1      -8.407   3.947  12.388  1.00  0.00    -0.293 OA
HETATM   12  C28 UNL     1      -8.133   6.108  13.393  1.00  0.00     0.084 C 
HETATM   13  C29 UNL     1      -6.995   7.089  13.682  1.00  0.00     0.022 C 
HETATM   14  C30 UNL     1      -5.827   6.453  14.482  1.00  0.00    -0.016 C 
HETATM   15  C31 UNL     1      -6.324   6.023  15.881  1.00  0.00     0.020 C 
HETATM   16  C32 UNL     1      -4.618   7.438  14.599  1.00  0.00     0.002 C 
HETATM   17  C33 UNL     1      -4.919   8.884  15.093  1.00  0.00     0.007 C 
HETATM   18  C34 UNL     1      -4.088   9.423  16.272  1.00  0.00     0.013 C 
HETATM   19  C35 UNL     1      -2.617   8.959  16.394  1.00  0.00    -0.001 C 
HETATM   20  C36 UNL     1      -2.439   8.450  17.866  1.00  0.00     0.019 C 
ENDROOT
BRANCH   1  21
HETATM   21  O2  UNL     1      -1.634  10.460  14.660  1.00  0.00    -0.301 OA
BRANCH  21  22
HETATM   22  C2  UNL     1      -1.138  11.671  14.301  1.00  0.00     0.256 C 
HETATM   23  C1  UNL     1       0.358  11.623  14.286  1.00  0.00     0.126 C 
HETATM   24  O1  UNL     1      -1.800  12.664  14.049  1.00  0.00    -0.266 OA
ENDBRANCH  21  22
ENDBRANCH   1  21
BRANCH   1  25
HETATM   25  C4  UNL     1      -1.063  11.045  17.041  1.00  0.00     0.186 C 
HETATM   26  O3  UNL     1      -1.694  12.095  17.163  1.00  0.00    -0.292 OA
BRANCH  25  27
HETATM   27  C5  UNL     1       0.157  10.742  17.914  1.00  0.00     0.260 C 
BRANCH  27  28
HETATM   28  O4  UNL     1       1.349  11.245  17.310  1.00  0.00    -0.314 OA
BRANCH  28  29
HETATM   29  C6  UNL     1       2.414  10.413  17.413  1.00  0.00     0.259 C 
HETATM   30  O5  UNL     1       2.653   9.713  18.390  1.00  0.00    -0.265 OA
BRANCH  29  31
HETATM   31  C7  UNL     1       3.236  10.401  16.150  1.00  0.00     0.120 C 
BRANCH  31  32
HETATM   32  C8  UNL     1       3.363   9.009  15.543  1.00  0.00     0.112 C 
BRANCH  32  33
HETATM   33  C9  UNL     1       3.522   9.065  14.041  1.00  0.00     0.218 C 
HETATM   34  O6  UNL     1       3.459  10.099  13.387  1.00  0.00    -0.274 OA
HETATM   35  N1  UNL     1       3.727   7.833  13.473  1.00  0.00    -0.346 N 
HETATM   36  H10 UNL     1       3.805   7.004  14.055  1.00  0.00     0.163 HD
BRANCH  35  37
HETATM   37  C10 UNL     1       3.892   7.654  12.028  1.00  0.00     0.186 C 
BRANCH  37  38
HETATM   38  C11 UNL     1       2.911   6.630  11.432  1.00  0.00     0.074 C 
BRANCH  38  39
HETATM   39  C12 UNL     1       2.496   6.908  10.003  1.00  0.00    -0.056 A 
HETATM   40  C13 UNL     1       1.637   7.976   9.707  1.00  0.00     0.007 A 
HETATM   41  C14 UNL     1       1.235   8.217   8.392  1.00  0.00     0.001 A 
HETATM   42  C15 UNL     1       1.687   7.394   7.363  1.00  0.00     0.000 A 
HETATM   43  C16 UNL     1       2.548   6.333   7.644  1.00  0.00     0.001 A 
HETATM   44  C17 UNL     1       2.953   6.093   8.958  1.00  0.00     0.007 A 
ENDBRANCH  38  39
ENDBRANCH  37  38
BRANCH  37  45
HETATM   45  C18 UNL     1       5.345   7.283  11.748  1.00  0.00     0.163 C 
HETATM   46  O7  UNL     1       6.156   7.953  11.121  1.00  0.00    -0.648 OA
BRANCH  45  47
HETATM   47  O8  UNL     1       5.701   6.074  12.232  1.00  0.00    -0.775 OA
HETATM   48  H19 UNL     1       6.633   5.976  11.946  1.00  0.00     0.167 HD
ENDBRANCH  45  47
ENDBRANCH  37  45
ENDBRANCH  35  37
ENDBRANCH  32  33
ENDBRANCH  31  32
ENDBRANCH  29  31
ENDBRANCH  28  29
ENDBRANCH  27  28
ENDBRANCH  25  27
ENDBRANCH   1  25
TORSDOF 14
ENDMDL
MODEL 7
REMARK minimizedAffinity -9.3672905
REMARK CNNscore 0.352423519
REMARK CNNaffinity 6.91472626
REMARK  14 active torsions:
REMARK  status: ('A' for Active; 'I' for Inactive)
REMARK    1  A    between atoms: C2_2  and  O2_4 
REMARK    2  A    between atoms: O2_4  and  C3_5 
REMARK    3  A    between atoms: C3_5  and  C4_6 
REMARK    4  A    between atoms: C4_6  and  C5_8 
REMARK    5  A    between atoms: C5_8  and  O4_9 
REMARK    6  A    between atoms: O4_9  and  C6_10 
REMARK    7  A    between atoms: C6_10  and  C7_12 
REMARK    8  A    between atoms: C7_12  and  C8_13 
REMARK    9  A    between atoms: C8_13  and  C9_14 
REMARK       I    between atoms: C9_14  and  N1_16 
REMARK   10  A    between atoms: N1_16  and  C10_17 
REMARK   11  A    between atoms: C10_17  and  C11_18 
REMARK   12  A    between atoms: C10_17  and  C18_25 
REMARK   13  A    between atoms: C11_18  and  C12_19 
REMARK   14  A    between atoms: C18_25  and  O8_27 
ROOT
HETATM    1  C3  UNL     1       0.310   6.052  11.567  1.00  0.00     0.140 C 
HETATM    2  C19 UNL     1       0.232   4.553  11.083  1.00  0.00     0.048 C 
HETATM    3  C20 UNL     1      -1.089   3.957  11.632  1.00  0.00     0.009 C 
HETATM    4  C21 UNL     1      -1.797   5.171  12.202  1.00  0.00     0.002 C 
HETATM    5  C22 UNL     1      -2.988   5.095  13.153  1.00  0.00    -0.004 C 
HETATM    6  C23 UNL     1      -3.962   3.929  12.938  1.00  0.00     0.010 C 
HETATM    7  C24 UNL     1      -5.396   4.349  12.624  1.00  0.00     0.035 C 
HETATM    8  C25 UNL     1      -5.934   5.484  13.468  1.00  0.00    -0.068 C 
HETATM    9  C26 UNL     1      -7.263   5.586  13.648  1.00  0.00     0.053 C 
HETATM   10  C27 UNL     1      -7.873   6.775  14.288  1.00  0.00     0.149 C 
HETATM   11  O9  UNL     1      -9.063   6.746  14.592  1.00  0.00    -0.293 OA
HETATM   12  C28 UNL     1      -7.010   7.988  14.546  1.00  0.00     0.084 C 
HETATM   13  C29 UNL     1      -5.665   7.930  13.820  1.00  0.00     0.022 C 
HETATM   14  C30 UNL     1      -4.954   6.558  13.958  1.00  0.00    -0.016 C 
HETATM   15  C31 UNL     1      -4.599   6.301  15.440  1.00  0.00     0.020 C 
HETATM   16  C32 UNL     1      -3.676   6.489  13.059  1.00  0.00     0.002 C 
HETATM   17  C33 UNL     1      -2.661   7.665  13.168  1.00  0.00     0.007 C 
HETATM   18  C34 UNL     1      -1.185   7.312  13.431  1.00  0.00     0.013 C 
HETATM   19  C35 UNL     1      -0.636   5.998  12.826  1.00  0.00    -0.001 C 
HETATM   20  C36 UNL     1       0.062   5.232  14.004  1.00  0.00     0.019 C 
ENDROOT
BRANCH   1  21
HETATM   21  O2  UNL     1      -0.311   6.801  10.486  1.00  0.00    -0.301 OA
BRANCH  21  22
HETATM   22  C2  UNL     1       0.076   8.070  10.205  1.00  0.00     0.256 C 
HETATM   23  C1  UNL     1      -0.034   8.321   8.733  1.00  0.00     0.126 C 
HETATM   24  O1  UNL     1       0.478   8.886  11.017  1.00  0.00    -0.266 OA
ENDBRANCH  21  22
ENDBRANCH   1  21
BRANCH   1  25
HETATM   25  C4  UNL     1       1.803   6.426  11.801  1.00  0.00     0.186 C 
HETATM   26  O3  UNL     1       2.168   7.165  12.716  1.00  0.00    -0.292 OA
BRANCH  25  27
HETATM   27  C5  UNL     1       2.809   5.812  10.823  1.00  0.00     0.260 C 
BRANCH  27  28
HETATM   28  O4  UNL     1       3.227   6.776   9.857  1.00  0.00    -0.314 OA
BRANCH  28  29
HETATM   29  C6  UNL     1       4.304   7.508  10.236  1.00  0.00     0.259 C 
HETATM   30  O5  UNL     1       4.465   8.692   9.965  1.00  0.00    -0.265 OA
BRANCH  29  31
HETATM   31  C7  UNL     1       5.250   6.706  11.091  1.00  0.00     0.120 C 
BRANCH  31  32
HETATM   32  C8  UNL     1       6.706   7.121  10.906  1.00  0.00     0.112 C 
BRANCH  32  33
HETATM   33  C9  UNL     1       7.158   8.073  11.990  1.00  0.00     0.218 C 
HETATM   34  O6  UNL     1       7.476   9.239  11.784  1.00  0.00    -0.274 OA
HETATM   35  N1  UNL     1       7.194   7.497  13.234  1.00  0.00    -0.346 N 
HETATM   36  H10 UNL     1       6.891   6.536  13.367  1.00  0.00     0.163 HD
BRANCH  35  37
HETATM   37  C10 UNL     1       7.618   8.235  14.427  1.00  0.00     0.186 C 
BRANCH  37  38
HETATM   38  C11 UNL     1       9.025   7.844  14.911  1.00  0.00     0.074 C 
BRANCH  38  39
HETATM   39  C12 UNL     1      10.052   8.953  14.834  1.00  0.00    -0.056 A 
HETATM   40  C13 UNL     1       9.921  10.100  15.628  1.00  0.00     0.007 A 
HETATM   41  C14 UNL     1      10.855  11.133  15.539  1.00  0.00     0.001 A 
HETATM   42  C15 UNL     1      11.927  11.029  14.655  1.00  0.00     0.000 A 
HETATM   43  C16 UNL     1      12.072   9.889  13.865  1.00  0.00     0.001 A 
HETATM   44  C17 UNL     1      11.140   8.855  13.955  1.00  0.00     0.007 A 
ENDBRANCH  38  39
ENDBRANCH  37  38
BRANCH  37  45
HETATM   45  C18 UNL     1       6.565   8.044  15.516  1.00  0.00     0.163 C 
HETATM   46  O7  UNL     1       5.370   7.842  15.341  1.00  0.00    -0.648 OA
BRANCH  45  47
HETATM   47  O8  UNL     1       7.055   8.152  16.769  1.00  0.00    -0.775 OA
HETATM   48  H19 UNL     1       6.264   8.037  17.336  1.00  0.00     0.167 HD
ENDBRANCH  45  47
ENDBRANCH  37  45
ENDBRANCH  35  37
ENDBRANCH  32  33
ENDBRANCH  31  32
ENDBRANCH  29  31
ENDBRANCH  28  29
ENDBRANCH  27  28
ENDBRANCH  25  27
ENDBRANCH   1  25
TORSDOF 14
ENDMDL
MODEL 8
REMARK minimizedAffinity -7.27454376
REMARK CNNscore 0.307766438
REMARK CNNaffinity 7.18120813
REMARK  14 active torsions:
REMARK  status: ('A' for Active; 'I' for Inactive)
REMARK    1  A    between atoms: C2_2  and  O2_4 
REMARK    2  A    between atoms: O2_4  and  C3_5 
REMARK    3  A    between atoms: C3_5  and  C4_6 
REMARK    4  A    between atoms: C4_6  and  C5_8 
REMARK    5  A    between atoms: C5_8  and  O4_9 
REMARK    6  A    between atoms: O4_9  and  C6_10 
REMARK    7  A    between atoms: C6_10  and  C7_12 
REMARK    8  A    between atoms: C7_12  and  C8_13 
REMARK    9  A    between atoms: C8_13  and  C9_14 
REMARK       I    between atoms: C9_14  and  N1_16 
REMARK   10  A    between atoms: N1_16  and  C10_17 
REMARK   11  A    between atoms: C10_17  and  C11_18 
REMARK   12  A    between atoms: C10_17  and  C18_25 
REMARK   13  A    between atoms: C11_18  and  C12_19 
REMARK   14  A    between atoms: C18_25  and  O8_27 
ROOT
HETATM    1  C3  UNL     1      -6.548   5.425  14.333  1.00  0.00     0.140 C 
HETATM    2  C19 UNL     1      -6.085   5.833  15.784  1.00  0.00     0.048 C 
HETATM    3  C20 UNL     1      -7.086   6.893  16.308  1.00  0.00     0.009 C 
HETATM    4  C21 UNL     1      -8.175   6.882  15.252  1.00  0.00     0.002 C 
HETATM    5  C22 UNL     1      -9.236   7.970  15.110  1.00  0.00    -0.004 C 
HETATM    6  C23 UNL     1      -9.723   8.625  16.409  1.00  0.00     0.010 C 
HETATM    7  C24 UNL     1     -11.218   8.468  16.677  1.00  0.00     0.035 C 
HETATM    8  C25 UNL     1     -12.114   8.685  15.477  1.00  0.00    -0.068 C 
HETATM    9  C26 UNL     1     -13.385   9.077  15.677  1.00  0.00     0.053 C 
HETATM   10  C27 UNL     1     -14.371   9.114  14.572  1.00  0.00     0.149 C 
HETATM   11  O9  UNL     1     -15.462   9.646  14.763  1.00  0.00    -0.293 OA
HETATM   12  C28 UNL     1     -14.004   8.495  13.245  1.00  0.00     0.084 C 
HETATM   13  C29 UNL     1     -12.746   7.627  13.318  1.00  0.00     0.022 C 
HETATM   14  C30 UNL     1     -11.582   8.302  14.089  1.00  0.00    -0.016 C 
HETATM   15  C31 UNL     1     -11.125   9.574  13.339  1.00  0.00     0.020 C 
HETATM   16  C32 UNL     1     -10.386   7.314  14.289  1.00  0.00     0.002 C 
HETATM   17  C33 UNL     1      -9.866   6.557  13.031  1.00  0.00     0.007 C 
HETATM   18  C34 UNL     1      -8.358   6.628  12.728  1.00  0.00     0.013 C 
HETATM   19  C35 UNL     1      -7.381   6.699  13.926  1.00  0.00    -0.001 C 
HETATM   20  C36 UNL     1      -6.427   7.911  13.642  1.00  0.00     0.019 C 
ENDROOT
BRANCH   1  21
HETATM   21  O2  UNL     1      -7.421   4.284  14.553  1.00  0.00    -0.301 OA
BRANCH  21  22
HETATM   22  C2  UNL     1      -7.464   3.257  13.667  1.00  0.00     0.256 C 
HETATM   23  C1  UNL     1      -8.572   3.477  12.686  1.00  0.00     0.126 C 
HETATM   24  O1  UNL     1      -6.730   2.283  13.674  1.00  0.00    -0.266 OA
ENDBRANCH  21  22
ENDBRANCH   1  21
BRANCH   1  25
HETATM   25  C4  UNL     1      -5.288   5.085  13.482  1.00  0.00     0.186 C 
HETATM   26  O3  UNL     1      -5.343   4.864  12.273  1.00  0.00    -0.292 OA
BRANCH  25  27
HETATM   27  C5  UNL     1      -3.958   5.047  14.240  1.00  0.00     0.260 C 
BRANCH  27  28
HETATM   28  O4  UNL     1      -2.857   5.084  13.332  1.00  0.00    -0.314 OA
BRANCH  28  29
HETATM   29  C6  UNL     1      -2.187   6.262  13.323  1.00  0.00     0.259 C 
HETATM   30  O5  UNL     1      -2.352   7.145  12.489  1.00  0.00    -0.265 OA
BRANCH  29  31
HETATM   31  C7  UNL     1      -1.259   6.385  14.504  1.00  0.00     0.120 C 
BRANCH  31  32
HETATM   32  C8  UNL     1       0.188   6.062  14.151  1.00  0.00     0.112 C 
BRANCH  32  33
HETATM   33  C9  UNL     1       0.379   5.900  12.660  1.00  0.00     0.218 C 
HETATM   34  O6  UNL     1       0.348   4.820  12.082  1.00  0.00    -0.274 OA
HETATM   35  N1  UNL     1       0.608   7.088  12.014  1.00  0.00    -0.346 N 
HETATM   36  H10 UNL     1       0.593   7.966  12.526  1.00  0.00     0.163 HD
BRANCH  35  37
HETATM   37  C10 UNL     1       0.835   7.162  10.568  1.00  0.00     0.186 C 
BRANCH  37  38
HETATM   38  C11 UNL     1       2.326   7.199  10.192  1.00  0.00     0.074 C 
BRANCH  38  39
HETATM   39  C12 UNL     1       2.737   6.200   9.132  1.00  0.00    -0.056 A 
HETATM   40  C13 UNL     1       2.409   6.414   7.787  1.00  0.00     0.007 A 
HETATM   41  C14 UNL     1       2.766   5.480   6.813  1.00  0.00     0.001 A 
HETATM   42  C15 UNL     1       3.455   4.324   7.177  1.00  0.00     0.000 A 
HETATM   43  C16 UNL     1       3.794   4.104   8.511  1.00  0.00     0.001 A 
HETATM   44  C17 UNL     1       3.439   5.038   9.485  1.00  0.00     0.007 A 
ENDBRANCH  38  39
ENDBRANCH  37  38
BRANCH  37  45
HETATM   45  C18 UNL     1       0.076   8.367  10.018  1.00  0.00     0.163 C 
HETATM   46  O7  UNL     1       0.196   8.850   8.899  1.00  0.00    -0.648 OA
BRANCH  45  47
HETATM   47  O8  UNL     1      -0.765   8.931  10.910  1.00  0.00    -0.775 OA
HETATM   48  H19 UNL     1      -1.142   9.693  10.422  1.00  0.00     0.167 HD
ENDBRANCH  45  47
ENDBRANCH  37  45
ENDBRANCH  35  37
ENDBRANCH  32  33
ENDBRANCH  31  32
ENDBRANCH  29  31
ENDBRANCH  28  29
ENDBRANCH  27  28
ENDBRANCH  25  27
ENDBRANCH   1  25
TORSDOF 14
ENDMDL
MODEL 9
REMARK minimizedAffinity -7.40398455
REMARK CNNscore 0.228945911
REMARK CNNaffinity 5.68760538
REMARK  14 active torsions:
REMARK  status: ('A' for Active; 'I' for Inactive)
REMARK    1  A    between atoms: C2_2  and  O2_4 
REMARK    2  A    between atoms: O2_4  and  C3_5 
REMARK    3  A    between atoms: C3_5  and  C4_6 
REMARK    4  A    between atoms: C4_6  and  C5_8 
REMARK    5  A    between atoms: C5_8  and  O4_9 
REMARK    6  A    between atoms: O4_9  and  C6_10 
REMARK    7  A    between atoms: C6_10  and  C7_12 
REMARK    8  A    between atoms: C7_12  and  C8_13 
REMARK    9  A    between atoms: C8_13  and  C9_14 
REMARK       I    between atoms: C9_14  and  N1_16 
REMARK   10  A    between atoms: N1_16  and  C10_17 
REMARK   11  A    between atoms: C10_17  and  C11_18 
REMARK   12  A    between atoms: C10_17  and  C18_25 
REMARK   13  A    between atoms: C11_18  and  C12_19 
REMARK   14  A    between atoms: C18_25  and  O8_27 
ROOT
HETATM    1  C3  UNL     1       1.535  10.660  17.166  1.00  0.00     0.140 C 
HETATM    2  C19 UNL     1       1.084  12.171  17.185  1.00  0.00     0.048 C 
HETATM    3  C20 UNL     1      -0.298  12.250  16.490  1.00  0.00     0.009 C 
HETATM    4  C21 UNL     1      -0.670  10.791  16.308  1.00  0.00     0.002 C 
HETATM    5  C22 UNL     1      -1.781  10.304  15.381  1.00  0.00    -0.004 C 
HETATM    6  C23 UNL     1      -3.008  11.215  15.246  1.00  0.00     0.010 C 
HETATM    7  C24 UNL     1      -4.325  10.574  15.676  1.00  0.00     0.035 C 
HETATM    8  C25 UNL     1      -4.532   9.150  15.208  1.00  0.00    -0.068 C 
HETATM    9  C26 UNL     1      -5.787   8.686  15.072  1.00  0.00     0.053 C 
HETATM   10  C27 UNL     1      -6.064   7.254  14.815  1.00  0.00     0.149 C 
HETATM   11  O9  UNL     1      -7.207   6.909  14.521  1.00  0.00    -0.293 OA
HETATM   12  C28 UNL     1      -4.932   6.260  14.924  1.00  0.00     0.084 C 
HETATM   13  C29 UNL     1      -3.688   6.844  15.595  1.00  0.00     0.022 C 
HETATM   14  C30 UNL     1      -3.302   8.246  15.054  1.00  0.00    -0.016 C 
HETATM   15  C31 UNL     1      -2.917   8.142  13.560  1.00  0.00     0.020 C 
HETATM   16  C32 UNL     1      -2.136   8.874  15.887  1.00  0.00     0.002 C 
HETATM   17  C33 UNL     1      -0.874   7.994  16.126  1.00  0.00     0.007 C 
HETATM   18  C34 UNL     1       0.496   8.597  15.764  1.00  0.00     0.013 C 
HETATM   19  C35 UNL     1       0.688  10.121  15.951  1.00  0.00    -0.001 C 
HETATM   20  C36 UNL     1       1.269  10.658  14.597  1.00  0.00     0.019 C 
ENDROOT
BRANCH   1  21
HETATM   21  O2  UNL     1       1.031  10.129  18.422  1.00  0.00    -0.301 OA
BRANCH  21  22
HETATM   22  C2  UNL     1       1.705  10.327  19.583  1.00  0.00     0.256 C 
HETATM   23  C1  UNL     1       1.126  11.497  20.315  1.00  0.00     0.126 C 
HETATM   24  O1  UNL     1       2.657   9.671  19.972  1.00  0.00    -0.266 OA
ENDBRANCH  21  22
ENDBRANCH   1  21
BRANCH   1  25
HETATM   25  C4  UNL     1       3.087  10.601  17.047  1.00  0.00     0.186 C 
HETATM   26  O3  UNL     1       3.686   9.597  16.663  1.00  0.00    -0.292 OA
BRANCH  25  27
HETATM   27  C5  UNL     1       3.837  11.879  17.431  1.00  0.00     0.260 C 
BRANCH  27  28
HETATM   28  O4  UNL     1       5.244  11.712  17.258  1.00  0.00    -0.314 OA
BRANCH  28  29
HETATM   29  C6  UNL     1       5.924  11.520  18.415  1.00  0.00     0.259 C 
HETATM   30  O5  UNL     1       5.405  11.195  19.476  1.00  0.00    -0.265 OA
BRANCH  29  31
HETATM   31  C7  UNL     1       7.409  11.690  18.223  1.00  0.00     0.120 C 
BRANCH  31  32
HETATM   32  C8  UNL     1       7.903  13.070  18.640  1.00  0.00     0.112 C 
BRANCH  32  33
HETATM   33  C9  UNL     1       8.288  13.109  20.101  1.00  0.00     0.218 C 
HETATM   34  O6  UNL     1       9.045  12.302  20.628  1.00  0.00    -0.274 OA
HETATM   35  N1  UNL     1       7.692  14.135  20.790  1.00  0.00    -0.346 N 
HETATM   36  H10 UNL     1       7.096  14.802  20.307  1.00  0.00     0.163 HD
BRANCH  35  37
HETATM   37  C10 UNL     1       7.913  14.350  22.222  1.00  0.00     0.186 C 
BRANCH  37  38
HETATM   38  C11 UNL     1       6.609  14.560  23.010  1.00  0.00     0.074 C 
BRANCH  38  39
HETATM   39  C12 UNL     1       5.669  13.373  23.007  1.00  0.00    -0.056 A 
HETATM   40  C13 UNL     1       6.175  12.066  23.027  1.00  0.00     0.007 A 
HETATM   41  C14 UNL     1       5.309  10.972  22.999  1.00  0.00     0.001 A 
HETATM   42  C15 UNL     1       3.931  11.175  22.951  1.00  0.00     0.000 A 
HETATM   43  C16 UNL     1       3.417  12.470  22.938  1.00  0.00     0.001 A 
HETATM   44  C17 UNL     1       4.281  13.565  22.968  1.00  0.00     0.007 A 
ENDBRANCH  38  39
ENDBRANCH  37  38
BRANCH  37  45
HETATM   45  C18 UNL     1       8.879  15.520  22.393  1.00  0.00     0.163 C 
HETATM   46  O7  UNL     1      10.032  15.574  21.983  1.00  0.00    -0.648 OA
BRANCH  45  47
HETATM   47  O8  UNL     1       8.366  16.548  23.102  1.00  0.00    -0.775 OA
HETATM   48  H19 UNL     1       9.106  17.189  23.147  1.00  0.00     0.167 HD
ENDBRANCH  45  47
ENDBRANCH  37  45
ENDBRANCH  35  37
ENDBRANCH  32  33
ENDBRANCH  31  32
ENDBRANCH  29  31
ENDBRANCH  28  29
ENDBRANCH  27  28
ENDBRANCH  25  27
ENDBRANCH   1  25
TORSDOF 14
ENDMDL
