MODEL 1
REMARK minimizedAffinity -9.86483479
REMARK  11 active torsions:
REMARK  status: ('A' for Active; 'I' for Inactive)
REMARK    1  A    between atoms: C4_4  and  C5_5 
REMARK    2  A    between atoms: C15_15  and  C16_16 
REMARK    3  A    between atoms: C16_16  and  C18_18 
REMARK    4  A    between atoms: C19_19  and  C20_20 
REMARK    5  A    between atoms: C20_20  and  O1_21 
REMARK    6  A    between atoms: C20_20  and  C21_22 
REMARK    7  A    between atoms: C20_20  and  C22_24 
REMARK    8  A    between atoms: C21_22  and  O2_23 
REMARK    9  A    between atoms: C22_24  and  O3_27 
REMARK   10  A    between atoms: C26_29  and  O4_30 
REMARK   11  A    between atoms: C28_32  and  O5_33 
ROOT
HETATM    1  C5  UNL     1      -0.869  50.508 -23.774  1.00  0.00     0.004 C 
HETATM    2  C6  UNL     1      -1.434  50.746 -22.571  1.00  0.00    -0.075 C 
HETATM    3  C7  UNL     1      -2.748  51.462 -22.352  1.00  0.00     0.034 C 
HETATM    4  C8  UNL     1      -3.662  50.779 -21.328  1.00  0.00     0.005 C 
HETATM    5  C9  UNL     1      -3.121  49.448 -20.816  1.00  0.00     0.010 C 
HETATM    6  C10 UNL     1      -1.659  49.515 -20.287  1.00  0.00    -0.032 C 
HETATM    7  C11 UNL     1      -1.184  48.056 -20.177  1.00  0.00     0.016 C 
HETATM    8  C12 UNL     1      -0.728  50.258 -21.306  1.00  0.00     0.023 C 
HETATM    9  C13 UNL     1      -0.074  51.400 -20.528  1.00  0.00     0.010 C 
HETATM   10  C14 UNL     1      -1.048  51.730 -19.419  1.00  0.00     0.007 C 
HETATM   11  C15 UNL     1      -1.594  50.363 -18.947  1.00  0.00     0.002 C 
ENDROOT
BRANCH  11  12
HETATM   12  C16 UNL     1      -0.769  49.803 -17.735  1.00  0.00     0.009 C 
HETATM   13  C17 UNL     1      -1.514  48.732 -16.922  1.00  0.00     0.014 C 
BRANCH  12  14
HETATM   14  C18 UNL     1      -0.334  50.858 -16.723  1.00  0.00    -0.023 C 
HETATM   15  C19 UNL     1       0.892  50.979 -16.177  1.00  0.00     0.012 C 
BRANCH  15  16
HETATM   16  C20 UNL     1       1.350  52.031 -15.166  1.00  0.00     0.126 C 
BRANCH  16  17
HETATM   17  O1  UNL     1       1.396  53.303 -15.837  1.00  0.00    -0.381 OA
HETATM   18  H26 UNL     1       0.980  53.958 -15.246  1.00  0.00     0.211 HD
ENDBRANCH  16  17
BRANCH  16  19
HETATM   19  C21 UNL     1       0.268  52.104 -14.047  1.00  0.00     0.209 C 
BRANCH  19  20
HETATM   20  O2  UNL     1       0.664  53.002 -12.998  1.00  0.00    -0.397 OA
HETATM   21  H29 UNL     1       1.353  53.592 -13.365  1.00  0.00     0.209 HD
ENDBRANCH  19  20
ENDBRANCH  16  19
BRANCH  16  22
HETATM   22  C22 UNL     1       2.780  51.684 -14.597  1.00  0.00     0.087 C 
HETATM   23  C23 UNL     1       2.869  50.226 -14.106  1.00  0.00     0.049 C 
HETATM   24  C24 UNL     1       3.887  51.881 -15.646  1.00  0.00     0.049 C 
BRANCH  22  25
HETATM   25  O3  UNL     1       3.105  52.555 -13.501  1.00  0.00    -0.387 OA
HETATM   26  H36 UNL     1       2.704  52.183 -12.696  1.00  0.00     0.210 HD
ENDBRANCH  22  25
ENDBRANCH  16  22
ENDBRANCH  15  16
ENDBRANCH  12  14
ENDBRANCH  11  12
BRANCH   1  27
HETATM   27  C4  UNL     1      -1.363  50.927 -25.072  1.00  0.00     0.008 C 
HETATM   28  C3  UNL     1      -0.752  51.751 -25.949  1.00  0.00    -0.048 C 
HETATM   29  C2  UNL     1       0.548  52.381 -25.758  1.00  0.00    -0.033 C 
HETATM   30  C25 UNL     1      -1.378  52.026 -27.311  1.00  0.00     0.071 C 
HETATM   31  C1  UNL     1       0.788  53.239 -24.752  1.00  0.00     0.022 C 
HETATM   32  C28 UNL     1       1.579  52.102 -26.833  1.00  0.00     0.153 C 
HETATM   33  C27 UNL     1       0.977  51.564 -28.139  1.00  0.00     0.068 C 
HETATM   34  C26 UNL     1      -0.359  52.228 -28.451  1.00  0.00     0.125 C 
BRANCH  32  35
HETATM   35  O5  UNL     1       2.521  51.143 -26.346  1.00  0.00    -0.391 OA
HETATM   36  H44 UNL     1       2.011  50.504 -25.817  1.00  0.00     0.210 HD
ENDBRANCH  32  35
BRANCH  34  37
HETATM   37  O4  UNL     1      -0.161  53.626 -28.676  1.00  0.00    -0.395 OA
HETATM   38  H40 UNL     1       0.390  53.723 -29.472  1.00  0.00     0.210 HD
ENDBRANCH  34  37
ENDBRANCH   1  27
TORSDOF 11
ENDMDL
MODEL 2
REMARK minimizedAffinity -9.60809422
REMARK  11 active torsions:
REMARK  status: ('A' for Active; 'I' for Inactive)
REMARK    1  A    between atoms: C4_4  and  C5_5 
REMARK    2  A    between atoms: C15_15  and  C16_16 
REMARK    3  A    between atoms: C16_16  and  C18_18 
REMARK    4  A    between atoms: C19_19  and  C20_20 
REMARK    5  A    between atoms: C20_20  and  O1_21 
REMARK    6  A    between atoms: C20_20  and  C21_22 
REMARK    7  A    between atoms: C20_20  and  C22_24 
REMARK    8  A    between atoms: C21_22  and  O2_23 
REMARK    9  A    between atoms: C22_24  and  O3_27 
REMARK   10  A    between atoms: C26_29  and  O4_30 
REMARK   11  A    between atoms: C28_32  and  O5_33 
ROOT
HETATM    1  C5  UNL     1      -0.827  50.261 -17.893  1.00  0.00     0.004 C 
HETATM    2  C6  UNL     1      -1.030  50.042 -19.211  1.00  0.00    -0.075 C 
HETATM    3  C7  UNL     1      -0.685  48.765 -19.945  1.00  0.00     0.034 C 
HETATM    4  C8  UNL     1      -1.783  48.285 -20.900  1.00  0.00     0.005 C 
HETATM    5  C9  UNL     1      -3.057  49.120 -20.839  1.00  0.00     0.010 C 
HETATM    6  C10 UNL     1      -2.824  50.650 -20.997  1.00  0.00    -0.032 C 
HETATM    7  C11 UNL     1      -4.130  51.325 -20.542  1.00  0.00     0.016 C 
HETATM    8  C12 UNL     1      -1.667  51.141 -20.061  1.00  0.00     0.023 C 
HETATM    9  C13 UNL     1      -0.652  51.837 -20.968  1.00  0.00     0.010 C 
HETATM   10  C14 UNL     1      -0.829  51.190 -22.324  1.00  0.00     0.007 C 
HETATM   11  C15 UNL     1      -2.354  50.988 -22.475  1.00  0.00     0.002 C 
ENDROOT
BRANCH  11  12
HETATM   12  C16 UNL     1      -3.021  52.195 -23.225  1.00  0.00     0.009 C 
HETATM   13  C17 UNL     1      -4.261  51.804 -24.045  1.00  0.00     0.014 C 
BRANCH  12  14
HETATM   14  C18 UNL     1      -2.099  52.924 -24.198  1.00  0.00    -0.023 C 
HETATM   15  C19 UNL     1      -1.391  52.361 -25.196  1.00  0.00     0.012 C 
BRANCH  15  16
HETATM   16  C20 UNL     1      -0.466  53.073 -26.184  1.00  0.00     0.126 C 
BRANCH  16  17
HETATM   17  O1  UNL     1      -1.281  53.661 -27.214  1.00  0.00    -0.381 OA
HETATM   18  H26 UNL     1      -0.953  54.566 -27.363  1.00  0.00     0.211 HD
ENDBRANCH  16  17
BRANCH  16  19
HETATM   19  C21 UNL     1       0.249  54.220 -25.409  1.00  0.00     0.209 C 
BRANCH  19  20
HETATM   20  O2  UNL     1       0.245  55.441 -26.166  1.00  0.00    -0.397 OA
HETATM   21  H29 UNL     1      -0.464  55.366 -26.836  1.00  0.00     0.209 HD
ENDBRANCH  19  20
ENDBRANCH  16  19
BRANCH  16  22
HETATM   22  C22 UNL     1       0.554  52.060 -26.834  1.00  0.00     0.087 C 
HETATM   23  C23 UNL     1       0.317  50.614 -26.358  1.00  0.00     0.049 C 
HETATM   24  C24 UNL     1       0.471  52.055 -28.370  1.00  0.00     0.049 C 
BRANCH  22  25
HETATM   25  O3  UNL     1       1.903  52.434 -26.507  1.00  0.00    -0.387 OA
HETATM   26  H36 UNL     1       2.109  52.064 -25.629  1.00  0.00     0.210 HD
ENDBRANCH  22  25
ENDBRANCH  16  22
ENDBRANCH  15  16
ENDBRANCH  12  14
ENDBRANCH  11  12
BRANCH   1  27
HETATM   27  C4  UNL     1      -0.203  49.361 -16.941  1.00  0.00     0.008 C 
HETATM   28  C3  UNL     1       0.619  49.696 -15.925  1.00  0.00    -0.048 C 
HETATM   29  C2  UNL     1       1.035  51.049 -15.579  1.00  0.00    -0.033 C 
HETATM   30  C25 UNL     1       1.128  48.628 -14.964  1.00  0.00     0.071 C 
HETATM   31  C1  UNL     1       1.735  51.823 -16.426  1.00  0.00     0.022 C 
HETATM   32  C28 UNL     1       0.735  51.488 -14.159  1.00  0.00     0.153 C 
HETATM   33  C27 UNL     1       0.434  50.323 -13.206  1.00  0.00     0.068 C 
HETATM   34  C26 UNL     1       1.309  49.113 -13.511  1.00  0.00     0.125 C 
BRANCH  32  35
HETATM   35  O5  UNL     1      -0.395  52.364 -14.165  1.00  0.00    -0.391 OA
HETATM   36  H44 UNL     1      -1.011  52.011 -14.832  1.00  0.00     0.210 HD
ENDBRANCH  32  35
BRANCH  34  37
HETATM   37  O4  UNL     1       2.682  49.442 -13.282  1.00  0.00    -0.395 OA
HETATM   38  H40 UNL     1       2.788  49.628 -12.333  1.00  0.00     0.210 HD
ENDBRANCH  34  37
ENDBRANCH   1  27
TORSDOF 11
ENDMDL
MODEL 3
REMARK minimizedAffinity -9.40878391
REMARK  11 active torsions:
REMARK  status: ('A' for Active; 'I' for Inactive)
REMARK    1  A    between atoms: C4_4  and  C5_5 
REMARK    2  A    between atoms: C15_15  and  C16_16 
REMARK    3  A    between atoms: C16_16  and  C18_18 
REMARK    4  A    between atoms: C19_19  and  C20_20 
REMARK    5  A    between atoms: C20_20  and  O1_21 
REMARK    6  A    between atoms: C20_20  and  C21_22 
REMARK    7  A    between atoms: C20_20  and  C22_24 
REMARK    8  A    between atoms: C21_22  and  O2_23 
REMARK    9  A    between atoms: C22_24  and  O3_27 
REMARK   10  A    between atoms: C26_29  and  O4_30 
REMARK   11  A    between atoms: C28_32  and  O5_33 
ROOT
HETATM    1  C5  UNL     1      -3.022  51.380 -23.417  1.00  0.00     0.004 C 
HETATM    2  C6  UNL     1      -3.525  50.136 -23.261  1.00  0.00    -0.075 C 
HETATM    3  C7  UNL     1      -2.704  48.888 -23.021  1.00  0.00     0.034 C 
HETATM    4  C8  UNL     1      -3.269  47.978 -21.924  1.00  0.00     0.005 C 
HETATM    5  C9  UNL     1      -4.481  48.563 -21.207  1.00  0.00     0.010 C 
HETATM    6  C10 UNL     1      -5.615  49.042 -22.159  1.00  0.00    -0.032 C 
HETATM    7  C11 UNL     1      -6.546  49.914 -21.299  1.00  0.00     0.016 C 
HETATM    8  C12 UNL     1      -5.039  49.932 -23.313  1.00  0.00     0.023 C 
HETATM    9  C13 UNL     1      -5.493  49.279 -24.619  1.00  0.00     0.010 C 
HETATM   10  C14 UNL     1      -5.673  47.815 -24.285  1.00  0.00     0.007 C 
HETATM   11  C15 UNL     1      -6.300  47.801 -22.872  1.00  0.00     0.002 C 
ENDROOT
BRANCH  11  12
HETATM   12  C16 UNL     1      -7.867  47.736 -22.940  1.00  0.00     0.009 C 
HETATM   13  C17 UNL     1      -8.425  46.304 -22.965  1.00  0.00     0.014 C 
BRANCH  12  14
HETATM   14  C18 UNL     1      -8.478  48.436 -24.149  1.00  0.00    -0.023 C 
HETATM   15  C19 UNL     1      -9.033  47.836 -25.220  1.00  0.00     0.012 C 
BRANCH  15  16
HETATM   16  C20 UNL     1      -9.656  48.519 -26.439  1.00  0.00     0.126 C 
BRANCH  16  17
HETATM   17  O1  UNL     1      -9.718  49.932 -26.175  1.00  0.00    -0.381 OA
HETATM   18  H26 UNL     1      -9.405  50.391 -26.976  1.00  0.00     0.211 HD
ENDBRANCH  16  17
BRANCH  16  19
HETATM   19  C21 UNL     1      -8.696  48.285 -27.644  1.00  0.00     0.209 C 
BRANCH  19  20
HETATM   20  O2  UNL     1      -8.670  49.425 -28.518  1.00  0.00    -0.397 OA
HETATM   21  H29 UNL     1      -9.002  50.191 -28.007  1.00  0.00     0.209 HD
ENDBRANCH  19  20
ENDBRANCH  16  19
BRANCH  16  22
HETATM   22  C22 UNL     1     -11.109  47.970 -26.714  1.00  0.00     0.087 C 
HETATM   23  C23 UNL     1     -11.163  47.075 -27.968  1.00  0.00     0.049 C 
HETATM   24  C24 UNL     1     -11.650  47.140 -25.538  1.00  0.00     0.049 C 
BRANCH  22  25
HETATM   25  O3  UNL     1     -12.028  49.060 -26.891  1.00  0.00    -0.387 OA
HETATM   26  H36 UNL     1     -11.971  49.349 -27.820  1.00  0.00     0.210 HD
ENDBRANCH  22  25
ENDBRANCH  16  22
ENDBRANCH  15  16
ENDBRANCH  12  14
ENDBRANCH  11  12
BRANCH   1  27
HETATM   27  C4  UNL     1      -1.622  51.762 -23.439  1.00  0.00     0.008 C 
HETATM   28  C3  UNL     1      -0.809  51.807 -24.515  1.00  0.00    -0.048 C 
HETATM   29  C2  UNL     1      -1.190  51.482 -25.883  1.00  0.00    -0.033 C 
HETATM   30  C25 UNL     1       0.623  52.310 -24.375  1.00  0.00     0.071 C 
HETATM   31  C1  UNL     1      -1.623  50.260 -26.236  1.00  0.00     0.022 C 
HETATM   32  C28 UNL     1      -0.955  52.574 -26.909  1.00  0.00     0.153 C 
HETATM   33  C27 UNL     1       0.017  53.663 -26.436  1.00  0.00     0.068 C 
HETATM   34  C26 UNL     1       1.153  53.075 -25.606  1.00  0.00     0.125 C 
BRANCH  32  35
HETATM   35  O5  UNL     1      -2.202  53.196 -27.229  1.00  0.00    -0.391 OA
HETATM   36  H44 UNL     1      -2.704  53.247 -26.397  1.00  0.00     0.210 HD
ENDBRANCH  32  35
BRANCH  34  37
HETATM   37  O4  UNL     1       1.937  52.195 -26.417  1.00  0.00    -0.395 OA
HETATM   38  H40 UNL     1       2.352  52.729 -27.116  1.00  0.00     0.210 HD
ENDBRANCH  34  37
ENDBRANCH   1  27
TORSDOF 11
ENDMDL
MODEL 4
REMARK minimizedAffinity -9.25035
REMARK  11 active torsions:
REMARK  status: ('A' for Active; 'I' for Inactive)
REMARK    1  A    between atoms: C4_4  and  C5_5 
REMARK    2  A    between atoms: C15_15  and  C16_16 
REMARK    3  A    between atoms: C16_16  and  C18_18 
REMARK    4  A    between atoms: C19_19  and  C20_20 
REMARK    5  A    between atoms: C20_20  and  O1_21 
REMARK    6  A    between atoms: C20_20  and  C21_22 
REMARK    7  A    between atoms: C20_20  and  C22_24 
REMARK    8  A    between atoms: C21_22  and  O2_23 
REMARK    9  A    between atoms: C22_24  and  O3_27 
REMARK   10  A    between atoms: C26_29  and  O4_30 
REMARK   11  A    between atoms: C28_32  and  O5_33 
ROOT
HETATM    1  C5  UNL     1      -0.474  52.080 -18.802  1.00  0.00     0.004 C 
HETATM    2  C6  UNL     1      -0.726  51.302 -19.877  1.00  0.00    -0.075 C 
HETATM    3  C7  UNL     1      -0.204  49.897 -20.077  1.00  0.00     0.034 C 
HETATM    4  C8  UNL     1      -1.259  48.912 -20.594  1.00  0.00     0.005 C 
HETATM    5  C9  UNL     1      -2.658  49.510 -20.695  1.00  0.00     0.010 C 
HETATM    6  C10 UNL     1      -2.724  50.849 -21.485  1.00  0.00    -0.032 C 
HETATM    7  C11 UNL     1      -4.096  51.463 -21.160  1.00  0.00     0.016 C 
HETATM    8  C12 UNL     1      -1.614  51.843 -20.998  1.00  0.00     0.023 C 
HETATM    9  C13 UNL     1      -0.812  52.226 -22.242  1.00  0.00     0.010 C 
HETATM   10  C14 UNL     1      -0.962  51.053 -23.184  1.00  0.00     0.007 C 
HETATM   11  C15 UNL     1      -2.430  50.597 -23.024  1.00  0.00     0.002 C 
ENDROOT
BRANCH  11  12
HETATM   12  C16 UNL     1      -3.360  51.272 -24.094  1.00  0.00     0.009 C 
HETATM   13  C17 UNL     1      -4.589  50.427 -24.465  1.00  0.00     0.014 C 
BRANCH  12  14
HETATM   14  C18 UNL     1      -2.673  51.599 -25.415  1.00  0.00    -0.023 C 
HETATM   15  C19 UNL     1      -1.782  52.588 -25.624  1.00  0.00     0.012 C 
BRANCH  15  16
HETATM   16  C20 UNL     1      -1.078  52.930 -26.938  1.00  0.00     0.126 C 
BRANCH  16  17
HETATM   17  O1  UNL     1      -2.050  53.509 -27.827  1.00  0.00    -0.381 OA
HETATM   18  H26 UNL     1      -1.639  54.293 -28.237  1.00  0.00     0.211 HD
ENDBRANCH  16  17
BRANCH  16  19
HETATM   19  C21 UNL     1       0.002  54.008 -26.620  1.00  0.00     0.209 C 
BRANCH  19  20
HETATM   20  O2  UNL     1      -0.268  55.236 -27.317  1.00  0.00    -0.397 OA
HETATM   21  H29 UNL     1      -1.212  55.224 -27.573  1.00  0.00     0.209 HD
ENDBRANCH  19  20
ENDBRANCH  16  19
BRANCH  16  22
HETATM   22  C22 UNL     1      -0.460  51.640 -27.602  1.00  0.00     0.087 C 
HETATM   23  C23 UNL     1       0.710  51.977 -28.546  1.00  0.00     0.049 C 
HETATM   24  C24 UNL     1       0.070  50.645 -26.556  1.00  0.00     0.049 C 
BRANCH  22  25
HETATM   25  O3  UNL     1      -1.464  50.936 -28.352  1.00  0.00    -0.387 OA
HETATM   26  H36 UNL     1      -1.521  51.349 -29.232  1.00  0.00     0.210 HD
ENDBRANCH  22  25
ENDBRANCH  16  22
ENDBRANCH  15  16
ENDBRANCH  12  14
ENDBRANCH  11  12
BRANCH   1  27
HETATM   27  C4  UNL     1       0.371  51.759 -17.668  1.00  0.00     0.008 C 
HETATM   28  C3  UNL     1       0.054  50.982 -16.612  1.00  0.00    -0.048 C 
HETATM   29  C2  UNL     1      -1.216  50.297 -16.411  1.00  0.00    -0.033 C 
HETATM   30  C25 UNL     1       1.094  50.682 -15.538  1.00  0.00     0.071 C 
HETATM   31  C1  UNL     1      -2.379  50.961 -16.296  1.00  0.00     0.022 C 
HETATM   32  C28 UNL     1      -1.132  48.795 -16.220  1.00  0.00     0.153 C 
HETATM   33  C27 UNL     1       0.273  48.300 -15.849  1.00  0.00     0.068 C 
HETATM   34  C26 UNL     1       0.979  49.276 -14.914  1.00  0.00     0.125 C 
BRANCH  32  35
HETATM   35  O5  UNL     1      -1.531  48.142 -17.428  1.00  0.00    -0.391 OA
HETATM   36  H44 UNL     1      -1.177  48.680 -18.159  1.00  0.00     0.210 HD
ENDBRANCH  32  35
BRANCH  34  37
HETATM   37  O4  UNL     1       0.269  49.356 -13.676  1.00  0.00    -0.395 OA
HETATM   38  H40 UNL     1       0.315  48.482 -13.251  1.00  0.00     0.210 HD
ENDBRANCH  34  37
ENDBRANCH   1  27
TORSDOF 11
ENDMDL
MODEL 5
REMARK minimizedAffinity -9.08764076
REMARK  11 active torsions:
REMARK  status: ('A' for Active; 'I' for Inactive)
REMARK    1  A    between atoms: C4_4  and  C5_5 
REMARK    2  A    between atoms: C15_15  and  C16_16 
REMARK    3  A    between atoms: C16_16  and  C18_18 
REMARK    4  A    between atoms: C19_19  and  C20_20 
REMARK    5  A    between atoms: C20_20  and  O1_21 
REMARK    6  A    between atoms: C20_20  and  C21_22 
REMARK    7  A    between atoms: C20_20  and  C22_24 
REMARK    8  A    between atoms: C21_22  and  O2_23 
REMARK    9  A    between atoms: C22_24  and  O3_27 
REMARK   10  A    between atoms: C26_29  and  O4_30 
REMARK   11  A    between atoms: C28_32  and  O5_33 
ROOT
HETATM    1  C5  UNL     1      -4.733  48.454 -27.115  1.00  0.00     0.004 C 
HETATM    2  C6  UNL     1      -3.793  49.231 -26.534  1.00  0.00    -0.075 C 
HETATM    3  C7  UNL     1      -2.621  49.863 -27.252  1.00  0.00     0.034 C 
HETATM    4  C8  UNL     1      -2.379  51.328 -26.870  1.00  0.00     0.005 C 
HETATM    5  C9  UNL     1      -3.436  51.899 -25.930  1.00  0.00     0.010 C 
HETATM    6  C10 UNL     1      -3.693  51.036 -24.661  1.00  0.00    -0.032 C 
HETATM    7  C11 UNL     1      -5.009  51.557 -24.057  1.00  0.00     0.016 C 
HETATM    8  C12 UNL     1      -3.891  49.528 -25.038  1.00  0.00     0.023 C 
HETATM    9  C13 UNL     1      -2.860  48.748 -24.222  1.00  0.00     0.010 C 
HETATM   10  C14 UNL     1      -1.734  49.726 -23.972  1.00  0.00     0.007 C 
HETATM   11  C15 UNL     1      -2.431  51.078 -23.699  1.00  0.00     0.002 C 
ENDROOT
BRANCH  11  12
HETATM   12  C16 UNL     1      -2.656  51.308 -22.163  1.00  0.00     0.009 C 
HETATM   13  C17 UNL     1      -4.013  51.945 -21.825  1.00  0.00     0.014 C 
BRANCH  12  14
HETATM   14  C18 UNL     1      -1.609  52.195 -21.496  1.00  0.00    -0.023 C 
HETATM   15  C19 UNL     1      -0.291  51.933 -21.397  1.00  0.00     0.012 C 
BRANCH  15  16
HETATM   16  C20 UNL     1       0.775  52.809 -20.738  1.00  0.00     0.126 C 
BRANCH  16  17
HETATM   17  O1  UNL     1       2.063  52.231 -21.020  1.00  0.00    -0.381 OA
HETATM   18  H26 UNL     1       2.655  52.958 -21.284  1.00  0.00     0.211 HD
ENDBRANCH  16  17
BRANCH  16  19
HETATM   19  C21 UNL     1       0.707  54.212 -21.411  1.00  0.00     0.209 C 
BRANCH  19  20
HETATM   20  O2  UNL     1       2.022  54.720 -21.691  1.00  0.00    -0.397 OA
HETATM   21  H29 UNL     1       2.634  53.957 -21.689  1.00  0.00     0.209 HD
ENDBRANCH  19  20
ENDBRANCH  16  19
BRANCH  16  22
HETATM   22  C22 UNL     1       0.561  52.881 -19.176  1.00  0.00     0.087 C 
HETATM   23  C23 UNL     1      -0.260  51.689 -18.649  1.00  0.00     0.049 C 
HETATM   24  C24 UNL     1       1.892  52.895 -18.407  1.00  0.00     0.049 C 
BRANCH  22  25
HETATM   25  O3  UNL     1      -0.119  54.097 -18.823  1.00  0.00    -0.387 OA
HETATM   26  H36 UNL     1      -1.075  53.947 -18.938  1.00  0.00     0.210 HD
ENDBRANCH  22  25
ENDBRANCH  16  22
ENDBRANCH  15  16
ENDBRANCH  12  14
ENDBRANCH  11  12
BRANCH   1  27
HETATM   27  C4  UNL     1      -4.786  48.031 -28.501  1.00  0.00     0.008 C 
HETATM   28  C3  UNL     1      -5.869  47.592 -29.177  1.00  0.00    -0.048 C 
HETATM   29  C2  UNL     1      -7.216  47.466 -28.635  1.00  0.00    -0.033 C 
HETATM   30  C25 UNL     1      -5.767  47.259 -30.661  1.00  0.00     0.071 C 
HETATM   31  C1  UNL     1      -7.501  46.650 -27.606  1.00  0.00     0.022 C 
HETATM   32  C28 UNL     1      -8.298  48.222 -29.379  1.00  0.00     0.153 C 
HETATM   33  C27 UNL     1      -7.890  48.643 -30.798  1.00  0.00     0.068 C 
HETATM   34  C26 UNL     1      -7.039  47.574 -31.474  1.00  0.00     0.125 C 
BRANCH  32  35
HETATM   35  O5  UNL     1      -8.641  49.400 -28.645  1.00  0.00    -0.391 OA
HETATM   36  H44 UNL     1      -7.809  49.744 -28.276  1.00  0.00     0.210 HD
ENDBRANCH  32  35
BRANCH  34  37
HETATM   37  O4  UNL     1      -7.809  46.380 -31.641  1.00  0.00    -0.395 OA
HETATM   38  H40 UNL     1      -8.538  46.582 -32.253  1.00  0.00     0.210 HD
ENDBRANCH  34  37
ENDBRANCH   1  27
TORSDOF 11
ENDMDL
MODEL 6
REMARK minimizedAffinity -9.03384876
REMARK  11 active torsions:
REMARK  status: ('A' for Active; 'I' for Inactive)
REMARK    1  A    between atoms: C4_4  and  C5_5 
REMARK    2  A    between atoms: C15_15  and  C16_16 
REMARK    3  A    between atoms: C16_16  and  C18_18 
REMARK    4  A    between atoms: C19_19  and  C20_20 
REMARK    5  A    between atoms: C20_20  and  O1_21 
REMARK    6  A    between atoms: C20_20  and  C21_22 
REMARK    7  A    between atoms: C20_20  and  C22_24 
REMARK    8  A    between atoms: C21_22  and  O2_23 
REMARK    9  A    between atoms: C22_24  and  O3_27 
REMARK   10  A    between atoms: C26_29  and  O4_30 
REMARK   11  A    between atoms: C28_32  and  O5_33 
ROOT
HETATM    1  C5  UNL     1       0.428  52.339 -23.134  1.00  0.00     0.004 C 
HETATM    2  C6  UNL     1      -0.535  51.970 -22.261  1.00  0.00    -0.075 C 
HETATM    3  C7  UNL     1      -1.984  52.400 -22.330  1.00  0.00     0.034 C 
HETATM    4  C8  UNL     1      -2.979  51.259 -22.092  1.00  0.00     0.005 C 
HETATM    5  C9  UNL     1      -2.321  49.891 -21.949  1.00  0.00     0.010 C 
HETATM    6  C10 UNL     1      -1.172  49.843 -20.902  1.00  0.00    -0.032 C 
HETATM    7  C11 UNL     1      -0.412  48.532 -21.170  1.00  0.00     0.016 C 
HETATM    8  C12 UNL     1      -0.177  51.036 -21.106  1.00  0.00     0.023 C 
HETATM    9  C13 UNL     1      -0.112  51.768 -19.765  1.00  0.00     0.010 C 
HETATM   10  C14 UNL     1      -1.440  51.488 -19.099  1.00  0.00     0.007 C 
HETATM   11  C15 UNL     1      -1.753  50.013 -19.435  1.00  0.00     0.002 C 
ENDROOT
BRANCH  11  12
HETATM   12  C16 UNL     1      -1.251  49.047 -18.303  1.00  0.00     0.009 C 
HETATM   13  C17 UNL     1      -2.252  47.937 -17.949  1.00  0.00     0.014 C 
BRANCH  12  14
HETATM   14  C18 UNL     1      -0.917  49.737 -16.985  1.00  0.00    -0.023 C 
HETATM   15  C19 UNL     1       0.293  49.782 -16.395  1.00  0.00     0.012 C 
BRANCH  15  16
HETATM   16  C20 UNL     1       0.651  50.471 -15.077  1.00  0.00     0.126 C 
BRANCH  16  17
HETATM   17  O1  UNL     1      -0.575  50.858 -14.430  1.00  0.00    -0.381 OA
HETATM   18  H26 UNL     1      -0.498  50.611 -13.490  1.00  0.00     0.211 HD
ENDBRANCH  16  17
BRANCH  16  19
HETATM   19  C21 UNL     1       1.369  49.418 -14.181  1.00  0.00     0.209 C 
BRANCH  19  20
HETATM   20  O2  UNL     1       1.052  48.079 -14.596  1.00  0.00    -0.397 OA
HETATM   21  H29 UNL     1       0.724  48.130 -15.517  1.00  0.00     0.209 HD
ENDBRANCH  19  20
ENDBRANCH  16  19
BRANCH  16  22
HETATM   22  C22 UNL     1       1.539  51.750 -15.330  1.00  0.00     0.087 C 
HETATM   23  C23 UNL     1       2.966  51.583 -14.773  1.00  0.00     0.049 C 
HETATM   24  C24 UNL     1       1.668  52.082 -16.826  1.00  0.00     0.049 C 
BRANCH  22  25
HETATM   25  O3  UNL     1       0.941  52.903 -14.714  1.00  0.00    -0.387 OA
HETATM   26  H36 UNL     1       1.209  52.912 -13.778  1.00  0.00     0.210 HD
ENDBRANCH  22  25
ENDBRANCH  16  22
ENDBRANCH  15  16
ENDBRANCH  12  14
ENDBRANCH  11  12
BRANCH   1  27
HETATM   27  C4  UNL     1       0.290  53.244 -24.259  1.00  0.00     0.008 C 
HETATM   28  C3  UNL     1       0.187  52.910 -25.563  1.00  0.00    -0.048 C 
HETATM   29  C2  UNL     1       0.186  51.554 -26.096  1.00  0.00    -0.033 C 
HETATM   30  C25 UNL     1      -0.032  53.989 -26.618  1.00  0.00     0.071 C 
HETATM   31  C1  UNL     1       1.231  50.723 -25.945  1.00  0.00     0.022 C 
HETATM   32  C28 UNL     1      -1.020  51.177 -26.934  1.00  0.00     0.153 C 
HETATM   33  C27 UNL     1      -1.823  52.386 -27.435  1.00  0.00     0.068 C 
HETATM   34  C26 UNL     1      -0.909  53.547 -27.808  1.00  0.00     0.125 C 
BRANCH  32  35
HETATM   35  O5  UNL     1      -1.892  50.349 -26.161  1.00  0.00    -0.391 OA
HETATM   36  H44 UNL     1      -1.874  50.704 -25.255  1.00  0.00     0.210 HD
ENDBRANCH  32  35
BRANCH  34  37
HETATM   37  O4  UNL     1      -0.073  53.169 -28.905  1.00  0.00    -0.395 OA
HETATM   38  H40 UNL     1      -0.648  53.011 -29.674  1.00  0.00     0.210 HD
ENDBRANCH  34  37
ENDBRANCH   1  27
TORSDOF 11
ENDMDL
MODEL 7
REMARK minimizedAffinity -9.03191376
REMARK  11 active torsions:
REMARK  status: ('A' for Active; 'I' for Inactive)
REMARK    1  A    between atoms: C4_4  and  C5_5 
REMARK    2  A    between atoms: C15_15  and  C16_16 
REMARK    3  A    between atoms: C16_16  and  C18_18 
REMARK    4  A    between atoms: C19_19  and  C20_20 
REMARK    5  A    between atoms: C20_20  and  O1_21 
REMARK    6  A    between atoms: C20_20  and  C21_22 
REMARK    7  A    between atoms: C20_20  and  C22_24 
REMARK    8  A    between atoms: C21_22  and  O2_23 
REMARK    9  A    between atoms: C22_24  and  O3_27 
REMARK   10  A    between atoms: C26_29  and  O4_30 
REMARK   11  A    between atoms: C28_32  and  O5_33 
ROOT
HETATM    1  C5  UNL     1      -4.709  48.645 -27.037  1.00  0.00     0.004 C 
HETATM    2  C6  UNL     1      -3.753  49.346 -26.391  1.00  0.00    -0.075 C 
HETATM    3  C7  UNL     1      -2.435  49.782 -26.992  1.00  0.00     0.034 C 
HETATM    4  C8  UNL     1      -2.058  51.232 -26.670  1.00  0.00     0.005 C 
HETATM    5  C9  UNL     1      -3.137  51.991 -25.906  1.00  0.00     0.010 C 
HETATM    6  C10 UNL     1      -3.647  51.262 -24.630  1.00  0.00    -0.032 C 
HETATM    7  C11 UNL     1      -4.948  51.977 -24.227  1.00  0.00     0.016 C 
HETATM    8  C12 UNL     1      -3.986  49.763 -24.939  1.00  0.00     0.023 C 
HETATM    9  C13 UNL     1      -3.165  48.930 -23.955  1.00  0.00     0.010 C 
HETATM   10  C14 UNL     1      -1.962  49.785 -23.625  1.00  0.00     0.007 C 
HETATM   11  C15 UNL     1      -2.511  51.226 -23.522  1.00  0.00     0.002 C 
ENDROOT
BRANCH  11  12
HETATM   12  C16 UNL     1      -2.883  51.594 -22.042  1.00  0.00     0.009 C 
HETATM   13  C17 UNL     1      -1.977  50.931 -20.993  1.00  0.00     0.014 C 
BRANCH  12  14
HETATM   14  C18 UNL     1      -4.310  51.235 -21.640  1.00  0.00    -0.023 C 
HETATM   15  C19 UNL     1      -4.732  50.036 -21.193  1.00  0.00     0.012 C 
BRANCH  15  16
HETATM   16  C20 UNL     1      -6.155  49.655 -20.780  1.00  0.00     0.126 C 
BRANCH  16  17
HETATM   17  O1  UNL     1      -6.780  50.820 -20.211  1.00  0.00    -0.381 OA
HETATM   18  H26 UNL     1      -7.676  50.882 -20.589  1.00  0.00     0.211 HD
ENDBRANCH  16  17
BRANCH  16  19
HETATM   19  C21 UNL     1      -6.927  49.266 -22.076  1.00  0.00     0.209 C 
BRANCH  19  20
HETATM   20  O2  UNL     1      -7.545  50.415 -22.678  1.00  0.00    -0.397 OA
HETATM   21  H29 UNL     1      -7.089  51.207 -22.329  1.00  0.00     0.209 HD
ENDBRANCH  19  20
ENDBRANCH  16  19
BRANCH  16  22
HETATM   22  C22 UNL     1      -6.142  48.491 -19.716  1.00  0.00     0.087 C 
HETATM   23  C23 UNL     1      -7.553  48.183 -19.178  1.00  0.00     0.049 C 
HETATM   24  C24 UNL     1      -5.578  47.182 -20.293  1.00  0.00     0.049 C 
BRANCH  22  25
HETATM   25  O3  UNL     1      -5.296  48.838 -18.607  1.00  0.00    -0.387 OA
HETATM   26  H36 UNL     1      -5.820  49.382 -17.992  1.00  0.00     0.210 HD
ENDBRANCH  22  25
ENDBRANCH  16  22
ENDBRANCH  15  16
ENDBRANCH  12  14
ENDBRANCH  11  12
BRANCH   1  27
HETATM   27  C4  UNL     1      -4.652  48.129 -28.392  1.00  0.00     0.008 C 
HETATM   28  C3  UNL     1      -5.673  47.619 -29.111  1.00  0.00    -0.048 C 
HETATM   29  C2  UNL     1      -7.053  47.497 -28.660  1.00  0.00    -0.033 C 
HETATM   30  C25 UNL     1      -5.456  47.191 -30.558  1.00  0.00     0.071 C 
HETATM   31  C1  UNL     1      -7.397  46.744 -27.601  1.00  0.00     0.022 C 
HETATM   32  C28 UNL     1      -8.093  48.175 -29.530  1.00  0.00     0.153 C 
HETATM   33  C27 UNL     1      -7.591  48.510 -30.941  1.00  0.00     0.068 C 
HETATM   34  C26 UNL     1      -6.672  47.419 -31.480  1.00  0.00     0.125 C 
BRANCH  32  35
HETATM   35  O5  UNL     1      -8.512  49.390 -28.904  1.00  0.00    -0.391 OA
HETATM   36  H44 UNL     1      -7.716  49.778 -28.500  1.00  0.00     0.210 HD
ENDBRANCH  32  35
BRANCH  34  37
HETATM   37  O4  UNL     1      -7.404  46.199 -31.620  1.00  0.00    -0.395 OA
HETATM   38  H40 UNL     1      -8.090  46.341 -32.295  1.00  0.00     0.210 HD
ENDBRANCH  34  37
ENDBRANCH   1  27
TORSDOF 11
ENDMDL
MODEL 8
REMARK minimizedAffinity -8.79747581
REMARK  11 active torsions:
REMARK  status: ('A' for Active; 'I' for Inactive)
REMARK    1  A    between atoms: C4_4  and  C5_5 
REMARK    2  A    between atoms: C15_15  and  C16_16 
REMARK    3  A    between atoms: C16_16  and  C18_18 
REMARK    4  A    between atoms: C19_19  and  C20_20 
REMARK    5  A    between atoms: C20_20  and  O1_21 
REMARK    6  A    between atoms: C20_20  and  C21_22 
REMARK    7  A    between atoms: C20_20  and  C22_24 
REMARK    8  A    between atoms: C21_22  and  O2_23 
REMARK    9  A    between atoms: C22_24  and  O3_27 
REMARK   10  A    between atoms: C26_29  and  O4_30 
REMARK   11  A    between atoms: C28_32  and  O5_33 
ROOT
HETATM    1  C5  UNL     1      -4.683  48.549 -27.039  1.00  0.00     0.004 C 
HETATM    2  C6  UNL     1      -3.767  49.353 -26.457  1.00  0.00    -0.075 C 
HETATM    3  C7  UNL     1      -2.616  50.023 -27.174  1.00  0.00     0.034 C 
HETATM    4  C8  UNL     1      -2.419  51.493 -26.788  1.00  0.00     0.005 C 
HETATM    5  C9  UNL     1      -3.492  52.029 -25.846  1.00  0.00     0.010 C 
HETATM    6  C10 UNL     1      -3.721  51.156 -24.579  1.00  0.00    -0.032 C 
HETATM    7  C11 UNL     1      -5.052  51.634 -23.973  1.00  0.00     0.016 C 
HETATM    8  C12 UNL     1      -3.872  49.643 -24.960  1.00  0.00     0.023 C 
HETATM    9  C13 UNL     1      -2.817  48.893 -24.146  1.00  0.00     0.010 C 
HETATM   10  C14 UNL     1      -1.721  49.905 -23.895  1.00  0.00     0.007 C 
HETATM   11  C15 UNL     1      -2.460  51.234 -23.618  1.00  0.00     0.002 C 
ENDROOT
BRANCH  11  12
HETATM   12  C16 UNL     1      -2.691  51.453 -22.081  1.00  0.00     0.009 C 
HETATM   13  C17 UNL     1      -1.408  51.795 -21.306  1.00  0.00     0.014 C 
BRANCH  12  14
HETATM   14  C18 UNL     1      -3.304  50.260 -21.356  1.00  0.00    -0.023 C 
HETATM   15  C19 UNL     1      -2.629  49.294 -20.703  1.00  0.00     0.012 C 
BRANCH  15  16
HETATM   16  C20 UNL     1      -3.224  48.092 -19.966  1.00  0.00     0.126 C 
BRANCH  16  17
HETATM   17  O1  UNL     1      -4.651  48.264 -19.913  1.00  0.00    -0.381 OA
HETATM   18  H26 UNL     1      -5.055  47.408 -20.147  1.00  0.00     0.211 HD
ENDBRANCH  16  17
BRANCH  16  19
HETATM   19  C21 UNL     1      -2.911  46.824 -20.815  1.00  0.00     0.209 C 
BRANCH  19  20
HETATM   20  O2  UNL     1      -1.673  46.970 -21.531  1.00  0.00    -0.397 OA
HETATM   21  H29 UNL     1      -1.162  47.677 -21.088  1.00  0.00     0.209 HD
ENDBRANCH  19  20
ENDBRANCH  16  19
BRANCH  16  22
HETATM   22  C22 UNL     1      -2.651  47.989 -18.500  1.00  0.00     0.087 C 
HETATM   23  C23 UNL     1      -1.329  48.763 -18.338  1.00  0.00     0.049 C 
HETATM   24  C24 UNL     1      -3.633  48.539 -17.451  1.00  0.00     0.049 C 
BRANCH  22  25
HETATM   25  O3  UNL     1      -2.421  46.614 -18.150  1.00  0.00    -0.387 OA
HETATM   26  H36 UNL     1      -1.547  46.361 -18.500  1.00  0.00     0.210 HD
ENDBRANCH  22  25
ENDBRANCH  16  22
ENDBRANCH  15  16
ENDBRANCH  12  14
ENDBRANCH  11  12
BRANCH   1  27
HETATM   27  C4  UNL     1      -4.724  48.128 -28.426  1.00  0.00     0.008 C 
HETATM   28  C3  UNL     1      -5.792  47.654 -29.101  1.00  0.00    -0.048 C 
HETATM   29  C2  UNL     1      -7.133  47.481 -28.557  1.00  0.00    -0.033 C 
HETATM   30  C25 UNL     1      -5.681  47.329 -30.586  1.00  0.00     0.071 C 
HETATM   31  C1  UNL     1      -7.389  46.653 -27.530  1.00  0.00     0.022 C 
HETATM   32  C28 UNL     1      -8.242  48.203 -29.298  1.00  0.00     0.153 C 
HETATM   33  C27 UNL     1      -7.851  48.641 -30.716  1.00  0.00     0.068 C 
HETATM   34  C26 UNL     1      -6.965  47.602 -31.396  1.00  0.00     0.125 C 
BRANCH  32  35
HETATM   35  O5  UNL     1      -8.623  49.366 -28.560  1.00  0.00    -0.391 OA
HETATM   36  H44 UNL     1      -7.802  49.737 -28.191  1.00  0.00     0.210 HD
ENDBRANCH  32  35
BRANCH  34  37
HETATM   37  O4  UNL     1      -7.695  46.384 -31.565  1.00  0.00    -0.395 OA
HETATM   38  H40 UNL     1      -8.431  46.563 -32.176  1.00  0.00     0.210 HD
ENDBRANCH  34  37
ENDBRANCH   1  27
TORSDOF 11
ENDMDL
MODEL 9
REMARK minimizedAffinity -8.75667667
REMARK  11 active torsions:
REMARK  status: ('A' for Active; 'I' for Inactive)
REMARK    1  A    between atoms: C4_4  and  C5_5 
REMARK    2  A    between atoms: C15_15  and  C16_16 
REMARK    3  A    between atoms: C16_16  and  C18_18 
REMARK    4  A    between atoms: C19_19  and  C20_20 
REMARK    5  A    between atoms: C20_20  and  O1_21 
REMARK    6  A    between atoms: C20_20  and  C21_22 
REMARK    7  A    between atoms: C20_20  and  C22_24 
REMARK    8  A    between atoms: C21_22  and  O2_23 
REMARK    9  A    between atoms: C22_24  and  O3_27 
REMARK   10  A    between atoms: C26_29  and  O4_30 
REMARK   11  A    between atoms: C28_32  and  O5_33 
ROOT
HETATM    1  C5  UNL     1      -4.997  48.511 -26.767  1.00  0.00     0.004 C 
HETATM    2  C6  UNL     1      -3.973  48.896 -25.975  1.00  0.00    -0.075 C 
HETATM    3  C7  UNL     1      -2.514  48.892 -26.374  1.00  0.00     0.034 C 
HETATM    4  C8  UNL     1      -1.757  50.161 -25.966  1.00  0.00     0.005 C 
HETATM    5  C9  UNL     1      -2.647  51.231 -25.342  1.00  0.00     0.010 C 
HETATM    6  C10 UNL     1      -3.532  50.719 -24.169  1.00  0.00    -0.032 C 
HETATM    7  C11 UNL     1      -4.593  51.808 -23.935  1.00  0.00     0.016 C 
HETATM    8  C12 UNL     1      -4.269  49.393 -24.560  1.00  0.00     0.023 C 
HETATM    9  C13 UNL     1      -3.892  48.366 -23.492  1.00  0.00     0.010 C 
HETATM   10  C14 UNL     1      -2.543  48.814 -22.975  1.00  0.00     0.007 C 
HETATM   11  C15 UNL     1      -2.631  50.356 -22.914  1.00  0.00     0.002 C 
ENDROOT
BRANCH  11  12
HETATM   12  C16 UNL     1      -3.076  50.850 -21.492  1.00  0.00     0.009 C 
HETATM   13  C17 UNL     1      -1.939  51.480 -20.672  1.00  0.00     0.014 C 
BRANCH  12  14
HETATM   14  C18 UNL     1      -3.673  49.764 -20.603  1.00  0.00    -0.023 C 
HETATM   15  C19 UNL     1      -3.472  49.622 -19.278  1.00  0.00     0.012 C 
BRANCH  15  16
HETATM   16  C20 UNL     1      -4.063  48.545 -18.367  1.00  0.00     0.126 C 
BRANCH  16  17
HETATM   17  O1  UNL     1      -4.067  49.053 -17.021  1.00  0.00    -0.381 OA
HETATM   18  H26 UNL     1      -4.936  48.841 -16.633  1.00  0.00     0.211 HD
ENDBRANCH  16  17
BRANCH  16  19
HETATM   19  C21 UNL     1      -5.539  48.318 -18.812  1.00  0.00     0.209 C 
BRANCH  19  20
HETATM   20  O2  UNL     1      -6.447  48.498 -17.712  1.00  0.00    -0.397 OA
HETATM   21  H29 UNL     1      -5.978  49.021 -17.030  1.00  0.00     0.209 HD
ENDBRANCH  19  20
ENDBRANCH  16  19
BRANCH  16  22
HETATM   22  C22 UNL     1      -3.208  47.221 -18.428  1.00  0.00     0.087 C 
HETATM   23  C23 UNL     1      -3.302  46.410 -17.121  1.00  0.00     0.049 C 
HETATM   24  C24 UNL     1      -3.651  46.295 -19.573  1.00  0.00     0.049 C 
BRANCH  22  25
HETATM   25  O3  UNL     1      -1.826  47.531 -18.675  1.00  0.00    -0.387 OA
HETATM   26  H36 UNL     1      -1.413  47.748 -17.820  1.00  0.00     0.210 HD
ENDBRANCH  22  25
ENDBRANCH  16  22
ENDBRANCH  15  16
ENDBRANCH  12  14
ENDBRANCH  11  12
BRANCH   1  27
HETATM   27  C4  UNL     1      -4.911  47.976 -28.113  1.00  0.00     0.008 C 
HETATM   28  C3  UNL     1      -5.927  47.516 -28.871  1.00  0.00    -0.048 C 
HETATM   29  C2  UNL     1      -7.330  47.476 -28.479  1.00  0.00    -0.033 C 
HETATM   30  C25 UNL     1      -5.673  47.059 -30.303  1.00  0.00     0.071 C 
HETATM   31  C1  UNL     1      -7.762  46.757 -27.429  1.00  0.00     0.022 C 
HETATM   32  C28 UNL     1      -8.292  48.201 -29.400  1.00  0.00     0.153 C 
HETATM   33  C27 UNL     1      -7.712  48.491 -30.791  1.00  0.00     0.068 C 
HETATM   34  C26 UNL     1      -6.833  47.344 -31.279  1.00  0.00     0.125 C 
BRANCH  32  35
HETATM   35  O5  UNL     1      -8.668  49.445 -28.805  1.00  0.00    -0.391 OA
HETATM   36  H44 UNL     1      -7.870  49.793 -28.370  1.00  0.00     0.210 HD
ENDBRANCH  32  35
BRANCH  34  37
HETATM   37  O4  UNL     1      -7.626  46.165 -31.439  1.00  0.00    -0.395 OA
HETATM   38  H40 UNL     1      -8.274  46.337 -32.145  1.00  0.00     0.210 HD
ENDBRANCH  34  37
ENDBRANCH   1  27
TORSDOF 11
ENDMDL
