MODEL 1
REMARK minimizedAffinity -10.1140032
REMARK CNNscore 0.588098288
REMARK CNNaffinity 7.21680212
REMARK  5 active torsions:
REMARK  status: ('A' for Active; 'I' for Inactive)
REMARK    1  A    between atoms: C3_3  and  C4_4 
REMARK    2  A    between atoms: C4_4  and  C5_5 
REMARK       I    between atoms: C5_5  and  N1_7 
REMARK    3  A    between atoms: N1_7  and  C6_8 
REMARK    4  A    between atoms: C6_8  and  C7_9 
REMARK    5  A    between atoms: C7_9  and  C8_10 
ROOT
HETATM    1  C1  UNL     1      -2.981   4.859  13.788  1.00  0.00     0.050 C 
HETATM    2  C2  UNL     1      -4.246   4.375  13.127  1.00  0.00    -0.036 A 
HETATM    3  C3  UNL     1      -4.305   3.289  12.324  1.00  0.00     0.033 A 
HETATM    4  C16 UNL     1      -5.591   2.817  11.741  1.00  0.00     0.295 A 
HETATM    5  O2  UNL     1      -5.647   1.795  11.059  1.00  0.00    -0.259 OA
HETATM    6  O3  UNL     1      -6.724   3.565  11.993  1.00  0.00    -0.274 OA
HETATM    7  C17 UNL     1      -6.677   4.701  12.813  1.00  0.00     0.093 A 
HETATM    8  C18 UNL     1      -7.889   5.364  13.016  1.00  0.00     0.075 A 
HETATM    9  C19 UNL     1      -7.928   6.488  13.831  1.00  0.00     0.079 A 
HETATM   10  C20 UNL     1      -6.755   6.963  14.420  1.00  0.00    -0.024 A 
HETATM   11  C21 UNL     1      -5.546   6.273  14.206  1.00  0.00     0.024 A 
HETATM   12  C22 UNL     1      -5.488   5.129  13.396  1.00  0.00     0.005 A 
HETATM   13  C23 UNL     1      -6.776   8.174  15.304  1.00  0.00     0.044 C 
HETATM   14  C24 UNL     1      -8.044   8.981  15.072  1.00  0.00     0.042 C 
HETATM   15  C25 UNL     1      -9.279   8.071  15.012  1.00  0.00     0.061 C 
HETATM   16  C26 UNL     1     -10.500   8.920  14.628  1.00  0.00     0.046 C 
HETATM   17  C27 UNL     1      -9.573   7.374  16.350  1.00  0.00     0.046 C 
HETATM   18  O4  UNL     1      -9.154   7.073  13.982  1.00  0.00    -0.340 OA
ENDROOT
BRANCH   3  19
HETATM   19  C4  UNL     1      -3.127   2.442  11.914  1.00  0.00     0.148 C 
BRANCH  19  20
HETATM   20  C5  UNL     1      -2.084   3.309  11.232  1.00  0.00     0.222 C 
HETATM   21  O1  UNL     1      -2.183   3.646  10.054  1.00  0.00    -0.273 OA
HETATM   22  N1  UNL     1      -1.037   3.680  12.040  1.00  0.00    -0.360 N 
HETATM   23  H6  UNL     1      -1.013   3.338  12.999  1.00  0.00     0.162 HD
BRANCH  22  24
HETATM   24  C6  UNL     1       0.107   4.422  11.546  1.00  0.00     0.127 C 
BRANCH  24  25
HETATM   25  C7  UNL     1       0.009   5.931  11.802  1.00  0.00     0.060 C 
BRANCH  25  26
HETATM   26  C8  UNL     1       1.297   6.653  11.539  1.00  0.00    -0.029 A 
HETATM   27  C9  UNL     1       2.249   7.005  12.477  1.00  0.00     0.096 A 
HETATM   28  N2  UNL     1       3.283   7.624  11.830  1.00  0.00    -0.365 N 
HETATM   29  C10 UNL     1       3.031   7.688  10.479  1.00  0.00     0.043 A 
HETATM   30  H12 UNL     1       4.118   7.981  12.274  1.00  0.00     0.165 HD
HETATM   31  C11 UNL     1       3.807   8.219   9.442  1.00  0.00     0.032 A 
HETATM   32  C15 UNL     1       1.785   7.098  10.267  1.00  0.00    -0.000 A 
HETATM   33  C12 UNL     1       3.292   8.140   8.144  1.00  0.00     0.026 A 
HETATM   34  C13 UNL     1       2.048   7.560   7.906  1.00  0.00     0.035 A 
HETATM   35 CL1  UNL     1       1.446   7.472   6.294  1.00  0.00    -0.084 Cl
HETATM   36  C14 UNL     1       1.280   7.041   8.951  1.00  0.00     0.038 A 
ENDBRANCH  25  26
ENDBRANCH  24  25
ENDBRANCH  22  24
ENDBRANCH  19  20
ENDBRANCH   3  19
TORSDOF 5
ENDMDL
MODEL 2
REMARK minimizedAffinity -10.1368027
REMARK CNNscore 0.305024862
REMARK CNNaffinity 6.63302994
REMARK  5 active torsions:
REMARK  status: ('A' for Active; 'I' for Inactive)
REMARK    1  A    between atoms: C3_3  and  C4_4 
REMARK    2  A    between atoms: C4_4  and  C5_5 
REMARK       I    between atoms: C5_5  and  N1_7 
REMARK    3  A    between atoms: N1_7  and  C6_8 
REMARK    4  A    between atoms: C6_8  and  C7_9 
REMARK    5  A    between atoms: C7_9  and  C8_10 
ROOT
HETATM    1  C1  UNL     1       0.770   7.274  14.741  1.00  0.00     0.050 C 
HETATM    2  C2  UNL     1      -0.166   7.992  13.801  1.00  0.00    -0.036 A 
HETATM    3  C3  UNL     1      -1.259   8.674  14.208  1.00  0.00     0.033 A 
HETATM    4  C16 UNL     1      -2.122   9.415  13.246  1.00  0.00     0.295 A 
HETATM    5  O2  UNL     1      -3.081  10.082  13.629  1.00  0.00    -0.259 OA
HETATM    6  O3  UNL     1      -1.806   9.331  11.905  1.00  0.00    -0.274 OA
HETATM    7  C17 UNL     1      -0.682   8.618  11.466  1.00  0.00     0.093 A 
HETATM    8  C18 UNL     1      -0.449   8.623  10.090  1.00  0.00     0.075 A 
HETATM    9  C19 UNL     1       0.655   7.952   9.577  1.00  0.00     0.079 A 
HETATM   10  C20 UNL     1       1.508   7.257  10.437  1.00  0.00    -0.024 A 
HETATM   11  C21 UNL     1       1.256   7.272  11.822  1.00  0.00     0.024 A 
HETATM   12  C22 UNL     1       0.154   7.954  12.360  1.00  0.00     0.005 A 
HETATM   13  C23 UNL     1       2.706   6.528   9.905  1.00  0.00     0.044 C 
HETATM   14  C24 UNL     1       2.565   6.291   8.410  1.00  0.00     0.042 C 
HETATM   15  C25 UNL     1       2.071   7.555   7.690  1.00  0.00     0.061 C 
HETATM   16  C26 UNL     1       1.806   7.214   6.217  1.00  0.00     0.046 C 
HETATM   17  C27 UNL     1       3.086   8.709   7.747  1.00  0.00     0.046 C 
HETATM   18  O4  UNL     1       0.814   8.012   8.222  1.00  0.00    -0.340 OA
ENDROOT
BRANCH   3  19
HETATM   19  C4  UNL     1      -1.748   8.771  15.631  1.00  0.00     0.148 C 
BRANCH  19  20
HETATM   20  C5  UNL     1      -2.920   7.826  15.838  1.00  0.00     0.222 C 
HETATM   21  O1  UNL     1      -2.761   6.639  16.114  1.00  0.00    -0.273 OA
HETATM   22  N1  UNL     1      -4.153   8.412  15.694  1.00  0.00    -0.360 N 
HETATM   23  H6  UNL     1      -4.202   9.397  15.439  1.00  0.00     0.162 HD
BRANCH  22  24
HETATM   24  C6  UNL     1      -5.390   7.656  15.753  1.00  0.00     0.127 C 
BRANCH  24  25
HETATM   25  C7  UNL     1      -6.380   8.022  14.640  1.00  0.00     0.060 C 
BRANCH  25  26
HETATM   26  C8  UNL     1      -7.274   6.881  14.256  1.00  0.00    -0.029 A 
HETATM   27  C9  UNL     1      -8.649   6.834  14.385  1.00  0.00     0.096 A 
HETATM   28  N2  UNL     1      -9.087   5.633  13.898  1.00  0.00    -0.365 N 
HETATM   29  C10 UNL     1      -8.025   4.885  13.448  1.00  0.00     0.043 A 
HETATM   30  H12 UNL     1     -10.053   5.335  13.865  1.00  0.00     0.165 HD
HETATM   31  C11 UNL     1      -8.002   3.612  12.866  1.00  0.00     0.032 A 
HETATM   32  C15 UNL     1      -6.871   5.636  13.672  1.00  0.00    -0.000 A 
HETATM   33  C12 UNL     1      -6.757   3.092  12.497  1.00  0.00     0.026 A 
HETATM   34  C13 UNL     1      -5.589   3.819  12.715  1.00  0.00     0.035 A 
HETATM   35 CL1  UNL     1      -4.073   3.154  12.241  1.00  0.00    -0.084 Cl
HETATM   36  C14 UNL     1      -5.625   5.086  13.304  1.00  0.00     0.038 A 
ENDBRANCH  25  26
ENDBRANCH  24  25
ENDBRANCH  22  24
ENDBRANCH  19  20
ENDBRANCH   3  19
TORSDOF 5
ENDMDL
MODEL 3
REMARK minimizedAffinity -9.13310719
REMARK CNNscore 0.248655364
REMARK CNNaffinity 6.90829706
REMARK  5 active torsions:
REMARK  status: ('A' for Active; 'I' for Inactive)
REMARK    1  A    between atoms: C3_3  and  C4_4 
REMARK    2  A    between atoms: C4_4  and  C5_5 
REMARK       I    between atoms: C5_5  and  N1_7 
REMARK    3  A    between atoms: N1_7  and  C6_8 
REMARK    4  A    between atoms: C6_8  and  C7_9 
REMARK    5  A    between atoms: C7_9  and  C8_10 
ROOT
HETATM    1  C1  UNL     1      -5.054   6.052  14.510  1.00  0.00     0.050 C 
HETATM    2  C2  UNL     1      -4.755   5.008  13.464  1.00  0.00    -0.036 A 
HETATM    3  C3  UNL     1      -5.612   4.021  13.124  1.00  0.00     0.033 A 
HETATM    4  C16 UNL     1      -5.295   3.047  12.042  1.00  0.00     0.295 A 
HETATM    5  O2  UNL     1      -6.103   2.187  11.698  1.00  0.00    -0.259 OA
HETATM    6  O3  UNL     1      -4.059   3.143  11.435  1.00  0.00    -0.274 OA
HETATM    7  C17 UNL     1      -3.153   4.154  11.786  1.00  0.00     0.093 A 
HETATM    8  C18 UNL     1      -1.944   4.165  11.088  1.00  0.00     0.075 A 
HETATM    9  C19 UNL     1      -1.000   5.147  11.366  1.00  0.00     0.079 A 
HETATM   10  C20 UNL     1      -1.255   6.097  12.356  1.00  0.00    -0.024 A 
HETATM   11  C21 UNL     1      -2.485   6.069  13.042  1.00  0.00     0.024 A 
HETATM   12  C22 UNL     1      -3.455   5.094  12.767  1.00  0.00     0.005 A 
HETATM   13  C23 UNL     1      -0.251   7.167  12.670  1.00  0.00     0.044 C 
HETATM   14  C24 UNL     1       1.121   6.781  12.140  1.00  0.00     0.042 C 
HETATM   15  C25 UNL     1       1.030   6.230  10.709  1.00  0.00     0.061 C 
HETATM   16  C26 UNL     1       2.416   5.720  10.287  1.00  0.00     0.046 C 
HETATM   17  C27 UNL     1       0.568   7.285   9.692  1.00  0.00     0.046 C 
HETATM   18  O4  UNL     1       0.152   5.092  10.634  1.00  0.00    -0.340 OA
ENDROOT
BRANCH   3  19
HETATM   19  C4  UNL     1      -6.952   3.768  13.767  1.00  0.00     0.148 C 
BRANCH  19  20
HETATM   20  C5  UNL     1      -8.064   4.187  12.820  1.00  0.00     0.222 C 
HETATM   21  O1  UNL     1      -8.921   3.398  12.428  1.00  0.00    -0.273 OA
HETATM   22  N1  UNL     1      -8.027   5.510  12.452  1.00  0.00    -0.360 N 
HETATM   23  H6  UNL     1      -7.268   6.095  12.800  1.00  0.00     0.162 HD
BRANCH  22  24
HETATM   24  C6  UNL     1      -8.940   6.076  11.478  1.00  0.00     0.127 C 
BRANCH  24  25
HETATM   25  C7  UNL     1     -10.396   6.108  11.958  1.00  0.00     0.060 C 
BRANCH  25  26
HETATM   26  C8  UNL     1     -10.721   7.335  12.758  1.00  0.00    -0.029 A 
HETATM   27  C9  UNL     1     -11.629   8.320  12.420  1.00  0.00     0.096 A 
HETATM   28  N2  UNL     1     -11.649   9.250  13.423  1.00  0.00    -0.365 N 
HETATM   29  C10 UNL     1     -10.770   8.896  14.419  1.00  0.00     0.043 A 
HETATM   30  H12 UNL     1     -12.229  10.078  13.439  1.00  0.00     0.165 HD
HETATM   31  C11 UNL     1     -10.471   9.536  15.628  1.00  0.00     0.032 A 
HETATM   32  C15 UNL     1     -10.162   7.704  14.024  1.00  0.00    -0.000 A 
HETATM   33  C12 UNL     1      -9.522   8.935  16.462  1.00  0.00     0.026 A 
HETATM   34  C13 UNL     1      -8.897   7.748  16.088  1.00  0.00     0.035 A 
HETATM   35 CL1  UNL     1      -7.739   7.030  17.141  1.00  0.00    -0.084 Cl
HETATM   36  C14 UNL     1      -9.198   7.123  14.875  1.00  0.00     0.038 A 
ENDBRANCH  25  26
ENDBRANCH  24  25
ENDBRANCH  22  24
ENDBRANCH  19  20
ENDBRANCH   3  19
TORSDOF 5
ENDMDL
MODEL 4
REMARK minimizedAffinity -9.1423769
REMARK CNNscore 0.24514465
REMARK CNNaffinity 5.62478447
REMARK  5 active torsions:
REMARK  status: ('A' for Active; 'I' for Inactive)
REMARK    1  A    between atoms: C3_3  and  C4_4 
REMARK    2  A    between atoms: C4_4  and  C5_5 
REMARK       I    between atoms: C5_5  and  N1_7 
REMARK    3  A    between atoms: N1_7  and  C6_8 
REMARK    4  A    between atoms: C6_8  and  C7_9 
REMARK    5  A    between atoms: C7_9  and  C8_10 
ROOT
HETATM    1  C1  UNL     1       1.477   7.815  15.092  1.00  0.00     0.050 C 
HETATM    2  C2  UNL     1       0.404   8.365  14.186  1.00  0.00    -0.036 A 
HETATM    3  C3  UNL     1      -0.705   8.993  14.634  1.00  0.00     0.033 A 
HETATM    4  C16 UNL     1      -1.709   9.571  13.697  1.00  0.00     0.295 A 
HETATM    5  O2  UNL     1      -2.686  10.192  14.110  1.00  0.00    -0.259 OA
HETATM    6  O3  UNL     1      -1.504   9.388  12.344  1.00  0.00    -0.274 OA
HETATM    7  C17 UNL     1      -0.364   8.727  11.864  1.00  0.00     0.093 A 
HETATM    8  C18 UNL     1      -0.252   8.622  10.477  1.00  0.00     0.075 A 
HETATM    9  C19 UNL     1       0.858   7.997   9.922  1.00  0.00     0.079 A 
HETATM   10  C20 UNL     1       1.839   7.455  10.755  1.00  0.00    -0.024 A 
HETATM   11  C21 UNL     1       1.707   7.579  12.151  1.00  0.00     0.024 A 
HETATM   12  C22 UNL     1       0.600   8.218  12.729  1.00  0.00     0.005 A 
HETATM   13  C23 UNL     1       3.046   6.777  10.177  1.00  0.00     0.044 C 
HETATM   14  C24 UNL     1       2.797   6.391   8.727  1.00  0.00     0.042 C 
HETATM   15  C25 UNL     1       2.135   7.539   7.952  1.00  0.00     0.061 C 
HETATM   16  C26 UNL     1       1.774   7.042   6.544  1.00  0.00     0.046 C 
HETATM   17  C27 UNL     1       3.046   8.770   7.814  1.00  0.00     0.046 C 
HETATM   18  O4  UNL     1       0.894   7.943   8.558  1.00  0.00    -0.340 OA
ENDROOT
BRANCH   3  19
HETATM   19  C4  UNL     1      -1.076   9.184  16.083  1.00  0.00     0.148 C 
BRANCH  19  20
HETATM   20  C5  UNL     1      -0.382  10.419  16.632  1.00  0.00     0.222 C 
HETATM   21  O1  UNL     1      -0.637  11.549  16.221  1.00  0.00    -0.273 OA
HETATM   22  N1  UNL     1       0.539  10.161  17.617  1.00  0.00    -0.360 N 
HETATM   23  H6  UNL     1       0.713   9.193  17.885  1.00  0.00     0.162 HD
BRANCH  22  24
HETATM   24  C6  UNL     1       1.376  11.195  18.195  1.00  0.00     0.127 C 
BRANCH  24  25
HETATM   25  C7  UNL     1       2.873  10.866  18.140  1.00  0.00     0.060 C 
BRANCH  25  26
HETATM   26  C8  UNL     1       3.614  11.308  19.367  1.00  0.00    -0.029 A 
HETATM   27  C9  UNL     1       4.502  12.363  19.456  1.00  0.00     0.096 A 
HETATM   28  N2  UNL     1       4.939  12.451  20.749  1.00  0.00    -0.365 N 
HETATM   29  C10 UNL     1       4.355  11.471  21.517  1.00  0.00     0.043 A 
HETATM   30  H12 UNL     1       5.593  13.138  21.098  1.00  0.00     0.165 HD
HETATM   31  C11 UNL     1       4.497  11.191  22.882  1.00  0.00     0.032 A 
HETATM   32  C15 UNL     1       3.527  10.729  20.674  1.00  0.00    -0.000 A 
HETATM   33  C12 UNL     1       3.765  10.118  23.401  1.00  0.00     0.026 A 
HETATM   34  C13 UNL     1       2.936   9.358  22.580  1.00  0.00     0.035 A 
HETATM   35 CL1  UNL     1       2.042   8.049  23.253  1.00  0.00    -0.084 Cl
HETATM   36  C14 UNL     1       2.809   9.644  21.218  1.00  0.00     0.038 A 
ENDBRANCH  25  26
ENDBRANCH  24  25
ENDBRANCH  22  24
ENDBRANCH  19  20
ENDBRANCH   3  19
TORSDOF 5
ENDMDL
MODEL 5
REMARK minimizedAffinity -10.5745468
REMARK CNNscore 0.215834275
REMARK CNNaffinity 6.70308542
REMARK  5 active torsions:
REMARK  status: ('A' for Active; 'I' for Inactive)
REMARK    1  A    between atoms: C3_3  and  C4_4 
REMARK    2  A    between atoms: C4_4  and  C5_5 
REMARK       I    between atoms: C5_5  and  N1_7 
REMARK    3  A    between atoms: N1_7  and  C6_8 
REMARK    4  A    between atoms: C6_8  and  C7_9 
REMARK    5  A    between atoms: C7_9  and  C8_10 
ROOT
HETATM    1  C1  UNL     1      -5.237   5.953  14.370  1.00  0.00     0.050 C 
HETATM    2  C2  UNL     1      -4.931   4.925  13.310  1.00  0.00    -0.036 A 
HETATM    3  C3  UNL     1      -5.815   3.993  12.891  1.00  0.00     0.033 A 
HETATM    4  C16 UNL     1      -5.484   3.036  11.799  1.00  0.00     0.295 A 
HETATM    5  O2  UNL     1      -6.313   2.229  11.383  1.00  0.00    -0.259 OA
HETATM    6  O3  UNL     1      -4.212   3.086  11.266  1.00  0.00    -0.274 OA
HETATM    7  C17 UNL     1      -3.279   4.039  11.698  1.00  0.00     0.093 A 
HETATM    8  C18 UNL     1      -2.033   4.009  11.070  1.00  0.00     0.075 A 
HETATM    9  C19 UNL     1      -1.059   4.933  11.431  1.00  0.00     0.079 A 
HETATM   10  C20 UNL     1      -1.324   5.866  12.435  1.00  0.00    -0.024 A 
HETATM   11  C21 UNL     1      -2.591   5.881  13.049  1.00  0.00     0.024 A 
HETATM   12  C22 UNL     1      -3.591   4.965  12.690  1.00  0.00     0.005 A 
HETATM   13  C23 UNL     1      -0.288   6.873  12.838  1.00  0.00     0.044 C 
HETATM   14  C24 UNL     1       1.092   6.433  12.374  1.00  0.00     0.042 C 
HETATM   15  C25 UNL     1       1.056   5.929  10.924  1.00  0.00     0.061 C 
HETATM   16  C26 UNL     1       2.437   5.362  10.563  1.00  0.00     0.046 C 
HETATM   17  C27 UNL     1       0.706   7.035   9.916  1.00  0.00     0.046 C 
HETATM   18  O4  UNL     1       0.129   4.840  10.763  1.00  0.00    -0.340 OA
ENDROOT
BRANCH   3  19
HETATM   19  C4  UNL     1      -7.201   3.791  13.451  1.00  0.00     0.148 C 
BRANCH  19  20
HETATM   20  C5  UNL     1      -8.103   4.932  13.013  1.00  0.00     0.222 C 
HETATM   21  O1  UNL     1      -8.368   5.139  11.831  1.00  0.00    -0.273 OA
HETATM   22  N1  UNL     1      -8.590   5.697  14.045  1.00  0.00    -0.360 N 
HETATM   23  H6  UNL     1      -8.303   5.477  14.997  1.00  0.00     0.162 HD
BRANCH  22  24
HETATM   24  C6  UNL     1      -9.385   6.890  13.825  1.00  0.00     0.127 C 
BRANCH  24  25
HETATM   25  C7  UNL     1     -10.692   6.906  14.627  1.00  0.00     0.060 C 
BRANCH  25  26
HETATM   26  C8  UNL     1     -11.855   7.430  13.838  1.00  0.00    -0.029 A 
HETATM   27  C9  UNL     1     -11.845   8.511  12.978  1.00  0.00     0.096 A 
HETATM   28  N2  UNL     1     -13.095   8.645  12.439  1.00  0.00    -0.365 N 
HETATM   29  C10 UNL     1     -13.932   7.671  12.928  1.00  0.00     0.043 A 
HETATM   30  H12 UNL     1     -13.368   9.354  11.771  1.00  0.00     0.165 HD
HETATM   31  C11 UNL     1     -15.281   7.418  12.650  1.00  0.00     0.032 A 
HETATM   32  C15 UNL     1     -13.186   6.900  13.820  1.00  0.00    -0.000 A 
HETATM   33  C12 UNL     1     -15.885   6.339  13.303  1.00  0.00     0.026 A 
HETATM   34  C13 UNL     1     -15.163   5.557  14.202  1.00  0.00     0.035 A 
HETATM   35 CL1  UNL     1     -15.935   4.230  14.983  1.00  0.00    -0.084 Cl
HETATM   36  C14 UNL     1     -13.820   5.825  14.477  1.00  0.00     0.038 A 
ENDBRANCH  25  26
ENDBRANCH  24  25
ENDBRANCH  22  24
ENDBRANCH  19  20
ENDBRANCH   3  19
TORSDOF 5
ENDMDL
MODEL 6
REMARK minimizedAffinity -8.60917377
REMARK CNNscore 0.2104128
REMARK CNNaffinity 5.8785634
REMARK  5 active torsions:
REMARK  status: ('A' for Active; 'I' for Inactive)
REMARK    1  A    between atoms: C3_3  and  C4_4 
REMARK    2  A    between atoms: C4_4  and  C5_5 
REMARK       I    between atoms: C5_5  and  N1_7 
REMARK    3  A    between atoms: N1_7  and  C6_8 
REMARK    4  A    between atoms: C6_8  and  C7_9 
REMARK    5  A    between atoms: C7_9  and  C8_10 
ROOT
HETATM    1  C1  UNL     1      -3.082  10.568  18.579  1.00  0.00     0.050 C 
HETATM    2  C2  UNL     1      -2.082  10.883  17.495  1.00  0.00    -0.036 A 
HETATM    3  C3  UNL     1      -2.412  11.047  16.195  1.00  0.00     0.033 A 
HETATM    4  C16 UNL     1      -1.395  11.415  15.171  1.00  0.00     0.295 A 
HETATM    5  O2  UNL     1      -1.711  11.619  14.001  1.00  0.00    -0.259 OA
HETATM    6  O3  UNL     1      -0.081  11.521  15.581  1.00  0.00    -0.274 OA
HETATM    7  C17 UNL     1       0.279  11.342  16.924  1.00  0.00     0.093 A 
HETATM    8  C18 UNL     1       1.634  11.496  17.223  1.00  0.00     0.075 A 
HETATM    9  C19 UNL     1       2.067  11.352  18.536  1.00  0.00     0.079 A 
HETATM   10  C20 UNL     1       1.153  11.027  19.539  1.00  0.00    -0.024 A 
HETATM   11  C21 UNL     1      -0.209  10.882  19.213  1.00  0.00     0.024 A 
HETATM   12  C22 UNL     1      -0.669  11.037  17.897  1.00  0.00     0.005 A 
HETATM   13  C23 UNL     1       1.599  10.868  20.962  1.00  0.00     0.044 C 
HETATM   14  C24 UNL     1       3.104  10.656  21.027  1.00  0.00     0.042 C 
HETATM   15  C25 UNL     1       3.845  11.640  20.111  1.00  0.00     0.061 C 
HETATM   16  C26 UNL     1       5.339  11.280  20.104  1.00  0.00     0.046 C 
HETATM   17  C27 UNL     1       3.699  13.102  20.562  1.00  0.00     0.046 C 
HETATM   18  O4  UNL     1       3.406  11.527  18.745  1.00  0.00    -0.340 OA
ENDROOT
BRANCH   3  19
HETATM   19  C4  UNL     1      -3.794  10.880  15.618  1.00  0.00     0.148 C 
BRANCH  19  20
HETATM   20  C5  UNL     1      -4.050   9.414  15.313  1.00  0.00     0.222 C 
HETATM   21  O1  UNL     1      -3.179   8.682  14.847  1.00  0.00    -0.273 OA
HETATM   22  N1  UNL     1      -5.322   8.987  15.606  1.00  0.00    -0.360 N 
HETATM   23  H6  UNL     1      -5.995   9.662  15.966  1.00  0.00     0.162 HD
BRANCH  22  24
HETATM   24  C6  UNL     1      -5.789   7.650  15.294  1.00  0.00     0.127 C 
BRANCH  24  25
HETATM   25  C7  UNL     1      -6.346   7.517  13.871  1.00  0.00     0.060 C 
BRANCH  25  26
HETATM   26  C8  UNL     1      -7.112   6.245  13.660  1.00  0.00    -0.029 A 
HETATM   27  C9  UNL     1      -8.459   6.049  13.894  1.00  0.00     0.096 A 
HETATM   28  N2  UNL     1      -8.773   4.762  13.552  1.00  0.00    -0.365 N 
HETATM   29  C10 UNL     1      -7.655   4.104  13.096  1.00  0.00     0.043 A 
HETATM   30  H12 UNL     1      -9.694   4.349  13.617  1.00  0.00     0.165 HD
HETATM   31  C11 UNL     1      -7.509   2.791  12.633  1.00  0.00     0.032 A 
HETATM   32  C15 UNL     1      -6.593   5.005  13.164  1.00  0.00    -0.000 A 
HETATM   33  C12 UNL     1      -6.233   2.388  12.223  1.00  0.00     0.026 A 
HETATM   34  C13 UNL     1      -5.155   3.267  12.286  1.00  0.00     0.035 A 
HETATM   35 CL1  UNL     1      -3.599   2.742  11.766  1.00  0.00    -0.084 Cl
HETATM   36  C14 UNL     1      -5.313   4.573  12.758  1.00  0.00     0.038 A 
ENDBRANCH  25  26
ENDBRANCH  24  25
ENDBRANCH  22  24
ENDBRANCH  19  20
ENDBRANCH   3  19
TORSDOF 5
ENDMDL
MODEL 7
REMARK minimizedAffinity -9.3683567
REMARK CNNscore 0.194999248
REMARK CNNaffinity 6.68852758
REMARK  5 active torsions:
REMARK  status: ('A' for Active; 'I' for Inactive)
REMARK    1  A    between atoms: C3_3  and  C4_4 
REMARK    2  A    between atoms: C4_4  and  C5_5 
REMARK       I    between atoms: C5_5  and  N1_7 
REMARK    3  A    between atoms: N1_7  and  C6_8 
REMARK    4  A    between atoms: C6_8  and  C7_9 
REMARK    5  A    between atoms: C7_9  and  C8_10 
ROOT
HETATM    1  C1  UNL     1      -6.285   4.375  12.148  1.00  0.00     0.050 C 
HETATM    2  C2  UNL     1      -6.033   5.254  13.347  1.00  0.00    -0.036 A 
HETATM    3  C3  UNL     1      -4.832   5.367  13.955  1.00  0.00     0.033 A 
HETATM    4  C16 UNL     1      -4.619   6.293  15.102  1.00  0.00     0.295 A 
HETATM    5  O2  UNL     1      -3.510   6.435  15.613  1.00  0.00    -0.259 OA
HETATM    6  O3  UNL     1      -5.712   6.993  15.572  1.00  0.00    -0.274 OA
HETATM    7  C17 UNL     1      -6.969   6.877  14.960  1.00  0.00     0.093 A 
HETATM    8  C18 UNL     1      -7.993   7.650  15.509  1.00  0.00     0.075 A 
HETATM    9  C19 UNL     1      -9.264   7.604  14.947  1.00  0.00     0.079 A 
HETATM   10  C20 UNL     1      -9.513   6.768  13.858  1.00  0.00    -0.024 A 
HETATM   11  C21 UNL     1      -8.462   6.003  13.318  1.00  0.00     0.024 A 
HETATM   12  C22 UNL     1      -7.169   6.045  13.863  1.00  0.00     0.005 A 
HETATM   13  C23 UNL     1     -10.876   6.705  13.235  1.00  0.00     0.044 C 
HETATM   14  C24 UNL     1     -11.923   7.259  14.189  1.00  0.00     0.042 C 
HETATM   15  C25 UNL     1     -11.450   8.570  14.834  1.00  0.00     0.061 C 
HETATM   16  C26 UNL     1     -12.477   8.999  15.893  1.00  0.00     0.046 C 
HETATM   17  C27 UNL     1     -11.292   9.712  13.818  1.00  0.00     0.046 C 
HETATM   18  O4  UNL     1     -10.207   8.396  15.539  1.00  0.00    -0.340 OA
ENDROOT
BRANCH   3  19
HETATM   19  C4  UNL     1      -3.589   4.599  13.582  1.00  0.00     0.148 C 
BRANCH  19  20
HETATM   20  C5  UNL     1      -2.478   5.567  13.215  1.00  0.00     0.222 C 
HETATM   21  O1  UNL     1      -2.647   6.482  12.411  1.00  0.00    -0.273 OA
HETATM   22  N1  UNL     1      -1.286   5.332  13.856  1.00  0.00    -0.360 N 
HETATM   23  H6  UNL     1      -1.218   4.537  14.489  1.00  0.00     0.162 HD
BRANCH  22  24
HETATM   24  C6  UNL     1      -0.081   6.084  13.564  1.00  0.00     0.127 C 
BRANCH  24  25
HETATM   25  C7  UNL     1       0.528   5.750  12.197  1.00  0.00     0.060 C 
BRANCH  25  26
HETATM   26  C8  UNL     1       1.684   6.636  11.840  1.00  0.00    -0.029 A 
HETATM   27  C9  UNL     1       2.610   7.172  12.714  1.00  0.00     0.096 A 
HETATM   28  N2  UNL     1       3.515   7.900  11.992  1.00  0.00    -0.365 N 
HETATM   29  C10 UNL     1       3.203   7.854  10.653  1.00  0.00     0.043 A 
HETATM   30  H12 UNL     1       4.305   8.398  12.379  1.00  0.00     0.165 HD
HETATM   31  C11 UNL     1       3.851   8.437   9.557  1.00  0.00     0.032 A 
HETATM   32  C15 UNL     1       2.050   7.079  10.527  1.00  0.00    -0.000 A 
HETATM   33  C12 UNL     1       3.302   8.215   8.289  1.00  0.00     0.026 A 
HETATM   34  C13 UNL     1       2.149   7.449   8.137  1.00  0.00     0.035 A 
HETATM   35 CL1  UNL     1       1.504   7.188   6.561  1.00  0.00    -0.084 Cl
HETATM   36  C14 UNL     1       1.508   6.880   9.241  1.00  0.00     0.038 A 
ENDBRANCH  25  26
ENDBRANCH  24  25
ENDBRANCH  22  24
ENDBRANCH  19  20
ENDBRANCH   3  19
TORSDOF 5
ENDMDL
MODEL 8
REMARK minimizedAffinity -8.48336792
REMARK CNNscore 0.155927896
REMARK CNNaffinity 5.88377619
REMARK  5 active torsions:
REMARK  status: ('A' for Active; 'I' for Inactive)
REMARK    1  A    between atoms: C3_3  and  C4_4 
REMARK    2  A    between atoms: C4_4  and  C5_5 
REMARK       I    between atoms: C5_5  and  N1_7 
REMARK    3  A    between atoms: N1_7  and  C6_8 
REMARK    4  A    between atoms: C6_8  and  C7_9 
REMARK    5  A    between atoms: C7_9  and  C8_10 
ROOT
HETATM    1  C1  UNL     1       0.772  10.371  15.093  1.00  0.00     0.050 C 
HETATM    2  C2  UNL     1      -0.157  10.618  16.255  1.00  0.00    -0.036 A 
HETATM    3  C3  UNL     1      -1.502  10.681  16.139  1.00  0.00     0.033 A 
HETATM    4  C16 UNL     1      -2.382  10.869  17.326  1.00  0.00     0.295 A 
HETATM    5  O2  UNL     1      -3.607  10.867  17.221  1.00  0.00    -0.259 OA
HETATM    6  O3  UNL     1      -1.774  11.046  18.553  1.00  0.00    -0.274 OA
HETATM    7  C17 UNL     1      -0.379  10.996  18.688  1.00  0.00     0.093 A 
HETATM    8  C18 UNL     1       0.119  11.165  19.980  1.00  0.00     0.075 A 
HETATM    9  C19 UNL     1       1.491  11.111  20.199  1.00  0.00     0.079 A 
HETATM   10  C20 UNL     1       2.360  10.916  19.124  1.00  0.00    -0.024 A 
HETATM   11  C21 UNL     1       1.832  10.742  17.831  1.00  0.00     0.024 A 
HETATM   12  C22 UNL     1       0.450  10.781  17.591  1.00  0.00     0.005 A 
HETATM   13  C23 UNL     1       3.843  10.853  19.339  1.00  0.00     0.044 C 
HETATM   14  C24 UNL     1       4.213  11.461  20.683  1.00  0.00     0.042 C 
HETATM   15  C25 UNL     1       3.270  10.974  21.793  1.00  0.00     0.061 C 
HETATM   16  C26 UNL     1       3.597  11.732  23.088  1.00  0.00     0.046 C 
HETATM   17  C27 UNL     1       3.400   9.467  22.066  1.00  0.00     0.046 C 
HETATM   18  O4  UNL     1       1.896  11.278  21.493  1.00  0.00    -0.340 OA
ENDROOT
BRANCH   3  19
HETATM   19  C4  UNL     1      -2.272  10.581  14.846  1.00  0.00     0.148 C 
BRANCH  19  20
HETATM   20  C5  UNL     1      -2.687   9.140  14.605  1.00  0.00     0.222 C 
HETATM   21  O1  UNL     1      -1.905   8.301  14.161  1.00  0.00    -0.273 OA
HETATM   22  N1  UNL     1      -3.993   8.863  14.928  1.00  0.00    -0.360 N 
HETATM   23  H6  UNL     1      -4.585   9.620  15.266  1.00  0.00     0.162 HD
BRANCH  22  24
HETATM   24  C6  UNL     1      -4.604   7.573  14.675  1.00  0.00     0.127 C 
BRANCH  24  25
HETATM   25  C7  UNL     1      -5.581   7.583  13.493  1.00  0.00     0.060 C 
BRANCH  25  26
HETATM   26  C8  UNL     1      -6.628   6.514  13.591  1.00  0.00    -0.029 A 
HETATM   27  C9  UNL     1      -7.905   6.658  14.099  1.00  0.00     0.096 A 
HETATM   28  N2  UNL     1      -8.552   5.457  13.986  1.00  0.00    -0.365 N 
HETATM   29  C10 UNL     1      -7.723   4.522  13.413  1.00  0.00     0.043 A 
HETATM   30  H12 UNL     1      -9.504   5.279  14.276  1.00  0.00     0.165 HD
HETATM   31  C11 UNL     1      -7.962   3.179  13.099  1.00  0.00     0.032 A 
HETATM   32  C15 UNL     1      -6.503   5.152  13.166  1.00  0.00    -0.000 A 
HETATM   33  C12 UNL     1      -6.919   2.457  12.508  1.00  0.00     0.026 A 
HETATM   34  C13 UNL     1      -5.690   3.061  12.256  1.00  0.00     0.035 A 
HETATM   35 CL1  UNL     1      -4.429   2.146  11.521  1.00  0.00    -0.084 Cl
HETATM   36  C14 UNL     1      -5.462   4.400  12.582  1.00  0.00     0.038 A 
ENDBRANCH  25  26
ENDBRANCH  24  25
ENDBRANCH  22  24
ENDBRANCH  19  20
ENDBRANCH   3  19
TORSDOF 5
ENDMDL
MODEL 9
REMARK minimizedAffinity -8.6263113
REMARK CNNscore 0.149918884
REMARK CNNaffinity 6.30194712
REMARK  5 active torsions:
REMARK  status: ('A' for Active; 'I' for Inactive)
REMARK    1  A    between atoms: C3_3  and  C4_4 
REMARK    2  A    between atoms: C4_4  and  C5_5 
REMARK       I    between atoms: C5_5  and  N1_7 
REMARK    3  A    between atoms: N1_7  and  C6_8 
REMARK    4  A    between atoms: C6_8  and  C7_9 
REMARK    5  A    between atoms: C7_9  and  C8_10 
ROOT
HETATM    1  C1  UNL     1      -7.469   4.096  13.734  1.00  0.00     0.050 C 
HETATM    2  C2  UNL     1      -6.904   5.484  13.901  1.00  0.00    -0.036 A 
HETATM    3  C3  UNL     1      -7.598   6.518  14.426  1.00  0.00     0.033 A 
HETATM    4  C16 UNL     1      -6.977   7.857  14.624  1.00  0.00     0.295 A 
HETATM    5  O2  UNL     1      -7.596   8.777  15.156  1.00  0.00    -0.259 OA
HETATM    6  O3  UNL     1      -5.678   8.031  14.192  1.00  0.00    -0.274 OA
HETATM    7  C17 UNL     1      -4.948   6.972  13.634  1.00  0.00     0.093 A 
HETATM    8  C18 UNL     1      -3.636   7.261  13.255  1.00  0.00     0.075 A 
HETATM    9  C19 UNL     1      -2.842   6.259  12.710  1.00  0.00     0.079 A 
HETATM   10  C20 UNL     1      -3.368   4.980  12.521  1.00  0.00    -0.024 A 
HETATM   11  C21 UNL     1      -4.692   4.711  12.917  1.00  0.00     0.024 A 
HETATM   12  C22 UNL     1      -5.506   5.706  13.480  1.00  0.00     0.005 A 
HETATM   13  C23 UNL     1      -2.528   3.884  11.936  1.00  0.00     0.044 C 
HETATM   14  C24 UNL     1      -1.321   4.465  11.216  1.00  0.00     0.042 C 
HETATM   15  C25 UNL     1      -0.650   5.563  12.052  1.00  0.00     0.061 C 
HETATM   16  C26 UNL     1       0.464   6.212  11.215  1.00  0.00     0.046 C 
HETATM   17  C27 UNL     1      -0.031   5.028  13.354  1.00  0.00     0.046 C 
HETATM   18  O4  UNL     1      -1.569   6.623  12.373  1.00  0.00    -0.340 OA
ENDROOT
BRANCH   3  19
HETATM   19  C4  UNL     1      -9.042   6.469  14.859  1.00  0.00     0.148 C 
BRANCH  19  20
HETATM   20  C5  UNL     1      -9.929   7.010  13.751  1.00  0.00     0.222 C 
HETATM   21  O1  UNL     1      -9.942   6.517  12.625  1.00  0.00    -0.273 OA
HETATM   22  N1  UNL     1     -10.706   8.081  14.118  1.00  0.00    -0.360 N 
HETATM   23  H6  UNL     1     -10.619   8.449  15.064  1.00  0.00     0.162 HD
BRANCH  22  24
HETATM   24  C6  UNL     1     -11.543   8.799  13.176  1.00  0.00     0.127 C 
BRANCH  24  25
HETATM   25  C7  UNL     1     -12.926   8.166  12.987  1.00  0.00     0.060 C 
BRANCH  25  26
HETATM   26  C8  UNL     1     -13.753   8.183  14.238  1.00  0.00    -0.029 A 
HETATM   27  C9  UNL     1     -13.920   9.252  15.099  1.00  0.00     0.096 A 
HETATM   28  N2  UNL     1     -14.766   8.869  16.103  1.00  0.00    -0.365 N 
HETATM   29  C10 UNL     1     -15.162   7.564  15.921  1.00  0.00     0.043 A 
HETATM   30  H12 UNL     1     -15.066   9.457  16.868  1.00  0.00     0.165 HD
HETATM   31  C11 UNL     1     -16.023   6.769  16.686  1.00  0.00     0.032 A 
HETATM   32  C15 UNL     1     -14.531   7.102  14.765  1.00  0.00    -0.000 A 
HETATM   33  C12 UNL     1     -16.248   5.458  16.253  1.00  0.00     0.026 A 
HETATM   34  C13 UNL     1     -15.627   4.971  15.106  1.00  0.00     0.035 A 
HETATM   35 CL1  UNL     1     -15.933   3.355  14.595  1.00  0.00    -0.084 Cl
HETATM   36  C14 UNL     1     -14.764   5.773  14.355  1.00  0.00     0.038 A 
ENDBRANCH  25  26
ENDBRANCH  24  25
ENDBRANCH  22  24
ENDBRANCH  19  20
ENDBRANCH   3  19
TORSDOF 5
ENDMDL
