MODEL 1
REMARK minimizedAffinity -10.3854036
REMARK CNNscore 0.817562878
REMARK CNNaffinity 7.81064034
REMARK  12 active torsions:
REMARK  status: ('A' for Active; 'I' for Inactive)
REMARK    1  A    between atoms: C2_2  and  C4_4 
REMARK    2  A    between atoms: C4_4  and  C6_6 
REMARK    3  A    between atoms: C7_8  and  C8_9 
REMARK    4  A    between atoms: C8_9  and  O2_11 
REMARK    5  A    between atoms: C8_9  and  C10_12 
REMARK    6  A    between atoms: C13_15  and  O3_16 
REMARK    7  A    between atoms: C19_23  and  O5_24 
REMARK    8  A    between atoms: C20_25  and  O6_26 
REMARK    9  A    between atoms: C27_33  and  C28_34 
REMARK   10  A    between atoms: C28_34  and  C29_35 
REMARK   11  A    between atoms: C29_35  and  C30_36 
REMARK   12  A    between atoms: C34_40  and  O7_41 
ROOT
HETATM    1  C10 UNL     1      -3.349   7.699  14.991  1.00  0.00     0.034 C 
HETATM    2  C11 UNL     1      -3.095   6.367  15.756  1.00  0.00     0.012 C 
HETATM    3  C12 UNL     1      -1.908   5.673  15.054  1.00  0.00     0.044 C 
HETATM    4  C13 UNL     1      -1.311   6.769  14.167  1.00  0.00     0.090 C 
HETATM    5  C14 UNL     1      -0.360   6.469  13.033  1.00  0.00    -0.037 C 
HETATM    6  C15 UNL     1      -0.056   5.224  12.638  1.00  0.00     0.057 C 
HETATM    7  C16 UNL     1       0.713   4.983  11.400  1.00  0.00     0.154 C 
HETATM    8  O4  UNL     1       1.107   3.840  11.176  1.00  0.00    -0.293 OA
HETATM    9  C17 UNL     1       0.942   6.160  10.451  1.00  0.00     0.071 C 
HETATM   10  C18 UNL     1       2.033   5.818   9.414  1.00  0.00     0.047 C 
HETATM   11  C19 UNL     1       3.464   5.943   9.947  1.00  0.00     0.147 C 
HETATM   12  C20 UNL     1       3.552   6.166  11.461  1.00  0.00     0.147 C 
HETATM   13  C21 UNL     1       2.647   7.296  11.973  1.00  0.00     0.044 C 
HETATM   14  C22 UNL     1       1.264   7.446  11.249  1.00  0.00    -0.023 C 
HETATM   15  C23 UNL     1       1.374   8.653  10.282  1.00  0.00     0.016 C 
HETATM   16  C24 UNL     1       0.140   7.732  12.321  1.00  0.00     0.027 C 
HETATM   17  C25 UNL     1      -1.089   8.545  11.829  1.00  0.00     0.011 C 
HETATM   18  C26 UNL     1      -2.119   8.817  12.951  1.00  0.00     0.014 C 
HETATM   19  C27 UNL     1      -2.600   7.508  13.623  1.00  0.00     0.002 C 
ENDROOT
BRANCH   1  20
HETATM   20  C8  UNL     1      -4.800   8.246  15.101  1.00  0.00     0.087 C 
HETATM   21  C9  UNL     1      -5.471   8.142  13.716  1.00  0.00     0.049 C 
BRANCH  20  22
HETATM   22  C7  UNL     1      -4.883   9.654  15.666  1.00  0.00     0.185 A 
HETATM   23  C6  UNL     1      -3.759  10.363  16.410  1.00  0.00     0.158 A 
HETATM   24  O1  UNL     1      -3.992  10.588  15.017  1.00  0.00    -0.372 OA
BRANCH  23  25
HETATM   25  C4  UNL     1      -3.981  11.551  17.323  1.00  0.00     0.017 C 
HETATM   26  C5  UNL     1      -3.814  12.913  16.639  1.00  0.00     0.013 C 
BRANCH  25  27
HETATM   27  C2  UNL     1      -3.124  11.404  18.616  1.00  0.00    -0.016 C 
HETATM   28  C1  UNL     1      -1.890  12.312  18.595  1.00  0.00     0.010 C 
HETATM   29  C3  UNL     1      -2.700   9.962  18.906  1.00  0.00     0.010 C 
ENDBRANCH  25  27
ENDBRANCH  23  25
ENDBRANCH  20  22
BRANCH  20  30
HETATM   30  O2  UNL     1      -5.547   7.381  15.958  1.00  0.00    -0.387 OA
HETATM   31  H17 UNL     1      -6.391   7.839  16.135  1.00  0.00     0.210 HD
ENDBRANCH  20  30
ENDBRANCH   1  20
BRANCH  19  32
HETATM   32  C28 UNL     1      -3.377   6.598  12.598  1.00  0.00     0.018 C 
BRANCH  32  33
HETATM   33  C29 UNL     1      -3.137   5.079  12.656  1.00  0.00     0.039 C 
BRANCH  33  34
HETATM   34  C30 UNL     1      -4.444   4.326  12.539  1.00  0.00    -0.056 A 
HETATM   35  C31 UNL     1      -5.536   4.646  13.357  1.00  0.00     0.007 A 
HETATM   36  C32 UNL     1      -6.726   3.919  13.267  1.00  0.00     0.003 A 
HETATM   37  C33 UNL     1      -6.838   2.865  12.361  1.00  0.00     0.036 A 
HETATM   38  C34 UNL     1      -5.755   2.550  11.544  1.00  0.00     0.066 A 
HETATM   39  C35 UNL     1      -4.568   3.269  11.625  1.00  0.00     0.043 A 
BRANCH  38  40
HETATM   40  O7  UNL     1      -5.816   1.529  10.642  1.00  0.00    -0.361 OA
HETATM   41  H49 UNL     1      -6.674   1.082  10.738  1.00  0.00     0.217 HD
ENDBRANCH  38  40
ENDBRANCH  33  34
ENDBRANCH  32  33
ENDBRANCH  19  32
BRANCH   4  42
HETATM   42  O3  UNL     1      -0.567   7.614  15.064  1.00  0.00    -0.384 OA
HETATM   43  H23 UNL     1       0.200   7.101  15.374  1.00  0.00     0.211 HD
ENDBRANCH   4  42
BRANCH  12  44
HETATM   44  O6  UNL     1       4.913   6.477  11.793  1.00  0.00    -0.393 OA
HETATM   45  H31 UNL     1       4.972   6.496  12.764  1.00  0.00     0.210 HD
ENDBRANCH  12  44
BRANCH  11  46
HETATM   46  O5  UNL     1       4.119   7.033   9.285  1.00  0.00    -0.393 OA
HETATM   47  H29 UNL     1       4.926   7.194   9.816  1.00  0.00     0.210 HD
ENDBRANCH  11  46
TORSDOF 12
ENDMDL
MODEL 2
REMARK minimizedAffinity -10.4580793
REMARK CNNscore 0.8073349
REMARK CNNaffinity 7.90802622
REMARK  12 active torsions:
REMARK  status: ('A' for Active; 'I' for Inactive)
REMARK    1  A    between atoms: C2_2  and  C4_4 
REMARK    2  A    between atoms: C4_4  and  C6_6 
REMARK    3  A    between atoms: C7_8  and  C8_9 
REMARK    4  A    between atoms: C8_9  and  O2_11 
REMARK    5  A    between atoms: C8_9  and  C10_12 
REMARK    6  A    between atoms: C13_15  and  O3_16 
REMARK    7  A    between atoms: C19_23  and  O5_24 
REMARK    8  A    between atoms: C20_25  and  O6_26 
REMARK    9  A    between atoms: C27_33  and  C28_34 
REMARK   10  A    between atoms: C28_34  and  C29_35 
REMARK   11  A    between atoms: C29_35  and  C30_36 
REMARK   12  A    between atoms: C34_40  and  O7_41 
ROOT
HETATM    1  C10 UNL     1      -6.675   7.035  15.374  1.00  0.00     0.034 C 
HETATM    2  C11 UNL     1      -6.289   5.838  16.290  1.00  0.00     0.012 C 
HETATM    3  C12 UNL     1      -4.816   5.499  15.979  1.00  0.00     0.044 C 
HETATM    4  C13 UNL     1      -4.318   6.709  15.184  1.00  0.00     0.090 C 
HETATM    5  C14 UNL     1      -3.052   6.678  14.363  1.00  0.00    -0.037 C 
HETATM    6  C15 UNL     1      -2.329   5.566  14.168  1.00  0.00     0.057 C 
HETATM    7  C16 UNL     1      -1.218   5.539  13.194  1.00  0.00     0.154 C 
HETATM    8  O4  UNL     1      -0.486   4.551  13.178  1.00  0.00    -0.293 OA
HETATM    9  C17 UNL     1      -1.066   6.722  12.238  1.00  0.00     0.071 C 
HETATM   10  C18 UNL     1       0.315   6.692  11.550  1.00  0.00     0.047 C 
HETATM   11  C19 UNL     1       1.460   7.221  12.420  1.00  0.00     0.147 C 
HETATM   12  C20 UNL     1       1.072   7.475  13.880  1.00  0.00     0.147 C 
HETATM   13  C21 UNL     1      -0.208   8.309  14.044  1.00  0.00     0.044 C 
HETATM   14  C22 UNL     1      -1.331   8.055  12.979  1.00  0.00    -0.023 C 
HETATM   15  C23 UNL     1      -1.292   9.234  11.972  1.00  0.00     0.016 C 
HETATM   16  C24 UNL     1      -2.737   8.024  13.697  1.00  0.00     0.027 C 
HETATM   17  C25 UNL     1      -3.958   8.452  12.838  1.00  0.00     0.011 C 
HETATM   18  C26 UNL     1      -5.287   8.434  13.630  1.00  0.00     0.014 C 
HETATM   19  C27 UNL     1      -5.562   7.050  14.266  1.00  0.00     0.002 C 
ENDROOT
BRANCH   1  20
HETATM   20  C8  UNL     1      -8.193   7.151  15.060  1.00  0.00     0.087 C 
HETATM   21  C9  UNL     1      -8.463   6.502  13.687  1.00  0.00     0.049 C 
BRANCH  20  22
HETATM   22  C7  UNL     1      -8.726   8.573  15.127  1.00  0.00     0.185 A 
HETATM   23  C6  UNL     1     -10.198   8.957  15.054  1.00  0.00     0.158 A 
HETATM   24  O1  UNL     1      -9.519   8.836  16.306  1.00  0.00    -0.372 OA
BRANCH  23  25
HETATM   25  C4  UNL     1     -10.682  10.346  14.691  1.00  0.00     0.017 C 
HETATM   26  C5  UNL     1     -10.957  11.254  15.895  1.00  0.00     0.013 C 
BRANCH  25  27
HETATM   27  C2  UNL     1     -11.883  10.256  13.702  1.00  0.00    -0.016 C 
HETATM   28  C1  UNL     1     -13.228  10.204  14.435  1.00  0.00     0.010 C 
HETATM   29  C3  UNL     1     -11.781   9.083  12.724  1.00  0.00     0.010 C 
ENDBRANCH  25  27
ENDBRANCH  23  25
ENDBRANCH  20  22
BRANCH  20  30
HETATM   30  O2  UNL     1      -8.915   6.364  16.009  1.00  0.00    -0.387 OA
HETATM   31  H17 UNL     1      -9.857   6.591  15.888  1.00  0.00     0.210 HD
ENDBRANCH  20  30
ENDBRANCH   1  20
BRANCH  19  32
HETATM   32  C28 UNL     1      -5.757   5.947  13.158  1.00  0.00     0.018 C 
BRANCH  32  33
HETATM   33  C29 UNL     1      -4.621   4.930  12.943  1.00  0.00     0.039 C 
BRANCH  33  34
HETATM   34  C30 UNL     1      -5.171   3.604  12.468  1.00  0.00    -0.056 A 
HETATM   35  C31 UNL     1      -4.375   2.714  11.736  1.00  0.00     0.007 A 
HETATM   36  C32 UNL     1      -4.905   1.508  11.270  1.00  0.00     0.003 A 
HETATM   37  C33 UNL     1      -6.235   1.179  11.529  1.00  0.00     0.036 A 
HETATM   38  C34 UNL     1      -7.025   2.060  12.262  1.00  0.00     0.066 A 
HETATM   39  C35 UNL     1      -6.506   3.262  12.731  1.00  0.00     0.043 A 
BRANCH  38  40
HETATM   40  O7  UNL     1      -8.331   1.783  12.541  1.00  0.00    -0.361 OA
HETATM   41  H49 UNL     1      -8.571   0.948  12.104  1.00  0.00     0.217 HD
ENDBRANCH  38  40
ENDBRANCH  33  34
ENDBRANCH  32  33
ENDBRANCH  19  32
BRANCH   4  42
HETATM   42  O3  UNL     1      -4.101   7.739  16.166  1.00  0.00    -0.384 OA
HETATM   43  H23 UNL     1      -3.338   7.468  16.705  1.00  0.00     0.211 HD
ENDBRANCH   4  42
BRANCH  12  44
HETATM   44  O6  UNL     1       2.156   8.162  14.523  1.00  0.00    -0.393 OA
HETATM   45  H31 UNL     1       1.942   8.207  15.472  1.00  0.00     0.210 HD
ENDBRANCH  12  44
BRANCH  11  46
HETATM   46  O5  UNL     1       1.951   8.444  11.857  1.00  0.00    -0.393 OA
HETATM   47  H29 UNL     1       2.511   8.832  12.562  1.00  0.00     0.210 HD
ENDBRANCH  11  46
TORSDOF 12
ENDMDL
MODEL 3
REMARK minimizedAffinity -9.48006153
REMARK CNNscore 0.67056042
REMARK CNNaffinity 7.12753725
REMARK  12 active torsions:
REMARK  status: ('A' for Active; 'I' for Inactive)
REMARK    1  A    between atoms: C2_2  and  C4_4 
REMARK    2  A    between atoms: C4_4  and  C6_6 
REMARK    3  A    between atoms: C7_8  and  C8_9 
REMARK    4  A    between atoms: C8_9  and  O2_11 
REMARK    5  A    between atoms: C8_9  and  C10_12 
REMARK    6  A    between atoms: C13_15  and  O3_16 
REMARK    7  A    between atoms: C19_23  and  O5_24 
REMARK    8  A    between atoms: C20_25  and  O6_26 
REMARK    9  A    between atoms: C27_33  and  C28_34 
REMARK   10  A    between atoms: C28_34  and  C29_35 
REMARK   11  A    between atoms: C29_35  and  C30_36 
REMARK   12  A    between atoms: C34_40  and  O7_41 
ROOT
HETATM    1  C10 UNL     1      -1.988   6.914  13.953  1.00  0.00     0.034 C 
HETATM    2  C11 UNL     1      -1.548   5.456  13.637  1.00  0.00     0.012 C 
HETATM    3  C12 UNL     1      -0.011   5.479  13.489  1.00  0.00     0.044 C 
HETATM    4  C13 UNL     1       0.395   6.838  14.066  1.00  0.00     0.090 C 
HETATM    5  C14 UNL     1       1.749   7.457  13.813  1.00  0.00    -0.037 C 
HETATM    6  C15 UNL     1       2.654   6.930  12.976  1.00  0.00     0.057 C 
HETATM    7  C16 UNL     1       3.875   7.674  12.606  1.00  0.00     0.154 C 
HETATM    8  O4  UNL     1       4.746   7.079  11.974  1.00  0.00    -0.293 OA
HETATM    9  C17 UNL     1       3.969   9.149  12.996  1.00  0.00     0.071 C 
HETATM   10  C18 UNL     1       5.417   9.661  12.846  1.00  0.00     0.047 C 
HETATM   11  C19 UNL     1       6.341   9.274  14.007  1.00  0.00     0.147 C 
HETATM   12  C20 UNL     1       5.727   8.271  14.989  1.00  0.00     0.147 C 
HETATM   13  C21 UNL     1       4.324   8.662  15.477  1.00  0.00     0.044 C 
HETATM   14  C22 UNL     1       3.406   9.370  14.421  1.00  0.00    -0.023 C 
HETATM   15  C23 UNL     1       3.396  10.884  14.755  1.00  0.00     0.016 C 
HETATM   16  C24 UNL     1       1.938   8.797  14.535  1.00  0.00     0.027 C 
HETATM   17  C25 UNL     1       0.791   9.755  14.113  1.00  0.00     0.011 C 
HETATM   18  C26 UNL     1      -0.613   9.131  14.297  1.00  0.00     0.014 C 
HETATM   19  C27 UNL     1      -0.753   7.791  13.536  1.00  0.00     0.002 C 
ENDROOT
BRANCH   1  20
HETATM   20  C8  UNL     1      -3.450   7.254  13.549  1.00  0.00     0.087 C 
HETATM   21  C9  UNL     1      -3.454   8.604  12.804  1.00  0.00     0.049 C 
BRANCH  20  22
HETATM   22  C7  UNL     1      -4.425   7.250  14.716  1.00  0.00     0.185 A 
HETATM   23  C6  UNL     1      -5.915   6.954  14.606  1.00  0.00     0.158 A 
HETATM   24  O1  UNL     1      -4.979   5.946  14.998  1.00  0.00    -0.372 OA
BRANCH  23  25
HETATM   25  C4  UNL     1      -6.928   7.365  15.655  1.00  0.00     0.017 C 
HETATM   26  C5  UNL     1      -7.147   6.329  16.762  1.00  0.00     0.013 C 
BRANCH  25  27
HETATM   27  C2  UNL     1      -8.251   7.826  14.973  1.00  0.00    -0.016 C 
HETATM   28  C1  UNL     1      -9.267   8.356  15.990  1.00  0.00     0.010 C 
HETATM   29  C3  UNL     1      -8.902   6.743  14.108  1.00  0.00     0.010 C 
ENDBRANCH  25  27
ENDBRANCH  23  25
ENDBRANCH  20  22
BRANCH  20  30
HETATM   30  O2  UNL     1      -3.896   6.286  12.599  1.00  0.00    -0.387 OA
HETATM   31  H17 UNL     1      -4.856   6.429  12.497  1.00  0.00     0.210 HD
ENDBRANCH  20  30
ENDBRANCH   1  20
BRANCH  19  32
HETATM   32  C28 UNL     1      -0.627   8.008  11.980  1.00  0.00     0.018 C 
BRANCH  32  33
HETATM   33  C29 UNL     1      -0.431   6.765  11.092  1.00  0.00     0.039 C 
BRANCH  33  34
HETATM   34  C30 UNL     1       0.614   7.026  10.030  1.00  0.00    -0.056 A 
HETATM   35  C31 UNL     1       0.540   8.159   9.210  1.00  0.00     0.007 A 
HETATM   36  C32 UNL     1       1.489   8.370   8.206  1.00  0.00     0.003 A 
HETATM   37  C33 UNL     1       2.521   7.453   8.011  1.00  0.00     0.036 A 
HETATM   38  C34 UNL     1       2.599   6.330   8.830  1.00  0.00     0.066 A 
HETATM   39  C35 UNL     1       1.659   6.112   9.832  1.00  0.00     0.043 A 
BRANCH  38  40
HETATM   40  O7  UNL     1       3.588   5.404   8.679  1.00  0.00    -0.361 OA
HETATM   41  H49 UNL     1       4.130   5.653   7.910  1.00  0.00     0.217 HD
ENDBRANCH  38  40
ENDBRANCH  33  34
ENDBRANCH  32  33
ENDBRANCH  19  32
BRANCH   4  42
HETATM   42  O3  UNL     1       0.318   6.677  15.494  1.00  0.00    -0.384 OA
HETATM   43  H23 UNL     1       1.036   6.074  15.755  1.00  0.00     0.211 HD
ENDBRANCH   4  42
BRANCH  12  44
HETATM   44  O6  UNL     1       6.597   8.161  16.125  1.00  0.00    -0.393 OA
HETATM   45  H31 UNL     1       6.255   7.436  16.677  1.00  0.00     0.210 HD
ENDBRANCH  12  44
BRANCH  11  46
HETATM   46  O5  UNL     1       6.708  10.456  14.729  1.00  0.00    -0.393 OA
HETATM   47  H29 UNL     1       7.102  10.123  15.562  1.00  0.00     0.210 HD
ENDBRANCH  11  46
TORSDOF 12
ENDMDL
MODEL 4
REMARK minimizedAffinity -10.2952824
REMARK CNNscore 0.626637518
REMARK CNNaffinity 7.1772728
REMARK  12 active torsions:
REMARK  status: ('A' for Active; 'I' for Inactive)
REMARK    1  A    between atoms: C2_2  and  C4_4 
REMARK    2  A    between atoms: C4_4  and  C6_6 
REMARK    3  A    between atoms: C7_8  and  C8_9 
REMARK    4  A    between atoms: C8_9  and  O2_11 
REMARK    5  A    between atoms: C8_9  and  C10_12 
REMARK    6  A    between atoms: C13_15  and  O3_16 
REMARK    7  A    between atoms: C19_23  and  O5_24 
REMARK    8  A    between atoms: C20_25  and  O6_26 
REMARK    9  A    between atoms: C27_33  and  C28_34 
REMARK   10  A    between atoms: C28_34  and  C29_35 
REMARK   11  A    between atoms: C29_35  and  C30_36 
REMARK   12  A    between atoms: C34_40  and  O7_41 
ROOT
HETATM    1  C10 UNL     1       4.027   7.593  12.520  1.00  0.00     0.034 C 
HETATM    2  C11 UNL     1       4.089   8.855  13.427  1.00  0.00     0.012 C 
HETATM    3  C12 UNL     1       2.653   9.104  13.938  1.00  0.00     0.044 C 
HETATM    4  C13 UNL     1       1.913   7.806  13.608  1.00  0.00     0.090 C 
HETATM    5  C14 UNL     1       0.406   7.709  13.595  1.00  0.00    -0.037 C 
HETATM    6  C15 UNL     1      -0.400   8.768  13.754  1.00  0.00     0.057 C 
HETATM    7  C16 UNL     1      -1.856   8.659  13.530  1.00  0.00     0.154 C 
HETATM    8  O4  UNL     1      -2.564   9.611  13.852  1.00  0.00    -0.293 OA
HETATM    9  C17 UNL     1      -2.394   7.386  12.877  1.00  0.00     0.071 C 
HETATM   10  C18 UNL     1      -3.926   7.296  13.038  1.00  0.00     0.047 C 
HETATM   11  C19 UNL     1      -4.383   6.807  14.417  1.00  0.00     0.147 C 
HETATM   12  C20 UNL     1      -3.257   6.707  15.451  1.00  0.00     0.147 C 
HETATM   13  C21 UNL     1      -2.022   5.944  14.950  1.00  0.00     0.044 C 
HETATM   14  C22 UNL     1      -1.665   6.140  13.436  1.00  0.00    -0.023 C 
HETATM   15  C23 UNL     1      -2.134   4.871  12.679  1.00  0.00     0.016 C 
HETATM   16  C24 UNL     1      -0.100   6.295  13.283  1.00  0.00     0.027 C 
HETATM   17  C25 UNL     1       0.507   5.836  11.930  1.00  0.00     0.011 C 
HETATM   18  C26 UNL     1       2.048   5.981  11.881  1.00  0.00     0.014 C 
HETATM   19  C27 UNL     1       2.501   7.430  12.187  1.00  0.00     0.002 C 
ENDROOT
BRANCH   1  20
HETATM   20  C8  UNL     1       5.148   7.507  11.447  1.00  0.00     0.087 C 
HETATM   21  C9  UNL     1       5.322   6.032  11.033  1.00  0.00     0.049 C 
BRANCH  20  22
HETATM   22  C7  UNL     1       6.464   8.130  11.884  1.00  0.00     0.185 A 
HETATM   23  C6  UNL     1       7.287   7.679  13.083  1.00  0.00     0.158 A 
HETATM   24  O1  UNL     1       7.594   7.238  11.758  1.00  0.00    -0.372 OA
BRANCH  23  25
HETATM   25  C4  UNL     1       8.332   8.547  13.754  1.00  0.00     0.017 C 
HETATM   26  C5  UNL     1       9.712   7.894  13.876  1.00  0.00     0.013 C 
BRANCH  25  27
HETATM   27  C2  UNL     1       7.788   9.093  15.109  1.00  0.00    -0.016 C 
HETATM   28  C1  UNL     1       8.164  10.562  15.328  1.00  0.00     0.010 C 
HETATM   29  C3  UNL     1       8.220   8.262  16.320  1.00  0.00     0.010 C 
ENDBRANCH  25  27
ENDBRANCH  23  25
ENDBRANCH  20  22
BRANCH  20  30
HETATM   30  O2  UNL     1       4.706   8.189  10.272  1.00  0.00    -0.387 OA
HETATM   31  H17 UNL     1       5.486   8.259   9.690  1.00  0.00     0.210 HD
ENDBRANCH  20  30
ENDBRANCH   1  20
BRANCH  19  32
HETATM   32  C28 UNL     1       1.983   8.429  11.084  1.00  0.00     0.018 C 
BRANCH  32  33
HETATM   33  C29 UNL     1       0.855   7.952  10.151  1.00  0.00     0.039 C 
BRANCH  33  34
HETATM   34  C30 UNL     1       1.425   7.382   8.871  1.00  0.00    -0.056 A 
HETATM   35  C31 UNL     1       1.097   7.937   7.626  1.00  0.00     0.007 A 
HETATM   36  C32 UNL     1       1.598   7.378   6.447  1.00  0.00     0.003 A 
HETATM   37  C33 UNL     1       2.432   6.262   6.499  1.00  0.00     0.036 A 
HETATM   38  C34 UNL     1       2.764   5.714   7.735  1.00  0.00     0.066 A 
HETATM   39  C35 UNL     1       2.270   6.264   8.914  1.00  0.00     0.043 A 
BRANCH  38  40
HETATM   40  O7  UNL     1       3.575   4.623   7.838  1.00  0.00    -0.361 OA
HETATM   41  H49 UNL     1       3.792   4.314   6.941  1.00  0.00     0.217 HD
ENDBRANCH  38  40
ENDBRANCH  33  34
ENDBRANCH  32  33
ENDBRANCH  19  32
BRANCH   4  42
HETATM   42  O3  UNL     1       2.339   6.866  14.611  1.00  0.00    -0.384 OA
HETATM   43  H23 UNL     1       1.960   7.157  15.459  1.00  0.00     0.211 HD
ENDBRANCH   4  42
BRANCH  12  44
HETATM   44  O6  UNL     1      -3.771   6.043  16.615  1.00  0.00    -0.393 OA
HETATM   45  H31 UNL     1      -3.082   6.097  17.301  1.00  0.00     0.210 HD
ENDBRANCH  12  44
BRANCH  11  46
HETATM   46  O5  UNL     1      -4.993   5.518  14.278  1.00  0.00    -0.393 OA
HETATM   47  H29 UNL     1      -5.057   5.176  15.195  1.00  0.00     0.210 HD
ENDBRANCH  11  46
TORSDOF 12
ENDMDL
MODEL 5
REMARK minimizedAffinity -10.1990051
REMARK CNNscore 0.598926365
REMARK CNNaffinity 7.07150126
REMARK  12 active torsions:
REMARK  status: ('A' for Active; 'I' for Inactive)
REMARK    1  A    between atoms: C2_2  and  C4_4 
REMARK    2  A    between atoms: C4_4  and  C6_6 
REMARK    3  A    between atoms: C7_8  and  C8_9 
REMARK    4  A    between atoms: C8_9  and  O2_11 
REMARK    5  A    between atoms: C8_9  and  C10_12 
REMARK    6  A    between atoms: C13_15  and  O3_16 
REMARK    7  A    between atoms: C19_23  and  O5_24 
REMARK    8  A    between atoms: C20_25  and  O6_26 
REMARK    9  A    between atoms: C27_33  and  C28_34 
REMARK   10  A    between atoms: C28_34  and  C29_35 
REMARK   11  A    between atoms: C29_35  and  C30_36 
REMARK   12  A    between atoms: C34_40  and  O7_41 
ROOT
HETATM    1  C10 UNL     1      -0.813   6.867  14.073  1.00  0.00     0.034 C 
HETATM    2  C11 UNL     1      -0.495   5.449  13.518  1.00  0.00     0.012 C 
HETATM    3  C12 UNL     1       0.950   5.499  12.976  1.00  0.00     0.044 C 
HETATM    4  C13 UNL     1       1.516   6.800  13.552  1.00  0.00     0.090 C 
HETATM    5  C14 UNL     1       2.767   7.451  13.014  1.00  0.00    -0.037 C 
HETATM    6  C15 UNL     1       3.414   7.014  11.923  1.00  0.00     0.057 C 
HETATM    7  C16 UNL     1       4.508   7.800  11.319  1.00  0.00     0.154 C 
HETATM    8  O4  UNL     1       5.174   7.276  10.428  1.00  0.00    -0.293 OA
HETATM    9  C17 UNL     1       4.725   9.232  11.808  1.00  0.00     0.071 C 
HETATM   10  C18 UNL     1       6.093   9.768  11.334  1.00  0.00     0.047 C 
HETATM   11  C19 UNL     1       7.280   9.280  12.170  1.00  0.00     0.147 C 
HETATM   12  C20 UNL     1       6.927   8.182  13.180  1.00  0.00     0.147 C 
HETATM   13  C21 UNL     1       5.707   8.513  14.052  1.00  0.00     0.044 C 
HETATM   14  C22 UNL     1       4.557   9.312  13.344  1.00  0.00    -0.023 C 
HETATM   15  C23 UNL     1       4.660  10.787  13.810  1.00  0.00     0.016 C 
HETATM   16  C24 UNL     1       3.161   8.718  13.783  1.00  0.00     0.027 C 
HETATM   17  C25 UNL     1       1.960   9.702  13.769  1.00  0.00     0.011 C 
HETATM   18  C26 UNL     1       0.642   9.052  14.254  1.00  0.00     0.014 C 
HETATM   19  C27 UNL     1       0.286   7.789  13.433  1.00  0.00     0.002 C 
ENDROOT
BRANCH   1  20
HETATM   20  C8  UNL     1      -2.324   7.231  14.100  1.00  0.00     0.087 C 
HETATM   21  C9  UNL     1      -2.854   7.029  15.534  1.00  0.00     0.049 C 
BRANCH  20  22
HETATM   22  C7  UNL     1      -3.155   6.474  13.078  1.00  0.00     0.185 A 
HETATM   23  C6  UNL     1      -3.853   5.145  13.334  1.00  0.00     0.158 A 
HETATM   24  O1  UNL     1      -4.555   6.387  13.425  1.00  0.00    -0.372 OA
BRANCH  23  25
HETATM   25  C4  UNL     1      -4.299   4.208  12.229  1.00  0.00     0.017 C 
HETATM   26  C5  UNL     1      -5.650   3.531  12.482  1.00  0.00     0.013 C 
BRANCH  25  27
HETATM   27  C2  UNL     1      -3.160   3.201  11.886  1.00  0.00    -0.016 C 
HETATM   28  C1  UNL     1      -2.390   3.612  10.627  1.00  0.00     0.010 C 
HETATM   29  C3  UNL     1      -3.645   1.756  11.747  1.00  0.00     0.010 C 
ENDBRANCH  25  27
ENDBRANCH  23  25
ENDBRANCH  20  22
BRANCH  20  30
HETATM   30  O2  UNL     1      -2.459   8.628  13.831  1.00  0.00    -0.387 OA
HETATM   31  H17 UNL     1      -3.412   8.786  13.692  1.00  0.00     0.210 HD
ENDBRANCH  20  30
ENDBRANCH   1  20
BRANCH  19  32
HETATM   32  C28 UNL     1       0.005   8.155  11.926  1.00  0.00     0.018 C 
BRANCH  32  33
HETATM   33  C29 UNL     1      -0.259   7.001  10.941  1.00  0.00     0.039 C 
BRANCH  33  34
HETATM   34  C30 UNL     1       0.649   7.108   9.736  1.00  0.00    -0.056 A 
HETATM   35  C31 UNL     1       0.446   8.099   8.767  1.00  0.00     0.007 A 
HETATM   36  C32 UNL     1       1.268   8.165   7.637  1.00  0.00     0.003 A 
HETATM   37  C33 UNL     1       2.299   7.242   7.465  1.00  0.00     0.036 A 
HETATM   38  C34 UNL     1       2.505   6.261   8.431  1.00  0.00     0.066 A 
HETATM   39  C35 UNL     1       1.694   6.188   9.558  1.00  0.00     0.043 A 
BRANCH  38  40
HETATM   40  O7  UNL     1       3.500   5.336   8.307  1.00  0.00    -0.361 OA
HETATM   41  H49 UNL     1       3.942   5.470   7.452  1.00  0.00     0.217 HD
ENDBRANCH  38  40
ENDBRANCH  33  34
ENDBRANCH  32  33
ENDBRANCH  19  32
BRANCH   4  42
HETATM   42  O3  UNL     1       1.812   6.503  14.929  1.00  0.00    -0.384 OA
HETATM   43  H23 UNL     1       2.562   5.884  14.935  1.00  0.00     0.211 HD
ENDBRANCH   4  42
BRANCH  12  44
HETATM   44  O6  UNL     1       8.062   7.972  14.033  1.00  0.00    -0.393 OA
HETATM   45  H31 UNL     1       7.863   7.195  14.584  1.00  0.00     0.210 HD
ENDBRANCH  12  44
BRANCH  11  46
HETATM   46  O5  UNL     1       7.843  10.391  12.879  1.00  0.00    -0.393 OA
HETATM   47  H29 UNL     1       8.435   9.983  13.545  1.00  0.00     0.210 HD
ENDBRANCH  11  46
TORSDOF 12
ENDMDL
MODEL 6
REMARK minimizedAffinity -7.95053577
REMARK CNNscore 0.578267157
REMARK CNNaffinity 6.58587646
REMARK  12 active torsions:
REMARK  status: ('A' for Active; 'I' for Inactive)
REMARK    1  A    between atoms: C2_2  and  C4_4 
REMARK    2  A    between atoms: C4_4  and  C6_6 
REMARK    3  A    between atoms: C7_8  and  C8_9 
REMARK    4  A    between atoms: C8_9  and  O2_11 
REMARK    5  A    between atoms: C8_9  and  C10_12 
REMARK    6  A    between atoms: C13_15  and  O3_16 
REMARK    7  A    between atoms: C19_23  and  O5_24 
REMARK    8  A    between atoms: C20_25  and  O6_26 
REMARK    9  A    between atoms: C27_33  and  C28_34 
REMARK   10  A    between atoms: C28_34  and  C29_35 
REMARK   11  A    between atoms: C29_35  and  C30_36 
REMARK   12  A    between atoms: C34_40  and  O7_41 
ROOT
HETATM    1  C10 UNL     1      -2.879  12.450  18.195  1.00  0.00     0.034 C 
HETATM    2  C11 UNL     1      -3.543  11.231  18.896  1.00  0.00     0.012 C 
HETATM    3  C12 UNL     1      -2.877   9.967  18.312  1.00  0.00     0.044 C 
HETATM    4  C13 UNL     1      -1.641  10.503  17.584  1.00  0.00     0.090 C 
HETATM    5  C14 UNL     1      -0.878   9.688  16.567  1.00  0.00    -0.037 C 
HETATM    6  C15 UNL     1      -1.285   8.486  16.134  1.00  0.00     0.057 C 
HETATM    7  C16 UNL     1      -0.621   7.822  14.994  1.00  0.00     0.154 C 
HETATM    8  O4  UNL     1      -0.921   6.655  14.749  1.00  0.00    -0.293 OA
HETATM    9  C17 UNL     1       0.373   8.634  14.163  1.00  0.00     0.071 C 
HETATM   10  C18 UNL     1       1.211   7.707  13.257  1.00  0.00     0.047 C 
HETATM   11  C19 UNL     1       2.362   7.000  13.980  1.00  0.00     0.147 C 
HETATM   12  C20 UNL     1       2.341   7.164  15.503  1.00  0.00     0.147 C 
HETATM   13  C21 UNL     1       2.179   8.620  15.966  1.00  0.00     0.044 C 
HETATM   14  C22 UNL     1       1.250   9.520  15.079  1.00  0.00    -0.023 C 
HETATM   15  C23 UNL     1       2.167  10.425  14.217  1.00  0.00     0.016 C 
HETATM   16  C24 UNL     1       0.349  10.422  16.012  1.00  0.00     0.027 C 
HETATM   17  C25 UNL     1      -0.110  11.781  15.418  1.00  0.00     0.011 C 
HETATM   18  C26 UNL     1      -0.951  12.619  16.412  1.00  0.00     0.014 C 
HETATM   19  C27 UNL     1      -2.184  11.837  16.927  1.00  0.00     0.002 C 
ENDROOT
BRANCH   1  20
HETATM   20  C8  UNL     1      -3.757  13.733  18.149  1.00  0.00     0.087 C 
HETATM   21  C9  UNL     1      -2.998  14.874  18.856  1.00  0.00     0.049 C 
BRANCH  20  22
HETATM   22  C7  UNL     1      -5.151  13.541  18.722  1.00  0.00     0.185 A 
HETATM   23  C6  UNL     1      -5.595  13.992  20.108  1.00  0.00     0.158 A 
HETATM   24  O1  UNL     1      -5.858  14.782  18.945  1.00  0.00    -0.372 OA
BRANCH  23  25
HETATM   25  C4  UNL     1      -6.809  13.432  20.820  1.00  0.00     0.017 C 
HETATM   26  C5  UNL     1      -8.114  14.178  20.526  1.00  0.00     0.013 C 
BRANCH  25  27
HETATM   27  C2  UNL     1      -6.516  13.281  22.344  1.00  0.00    -0.016 C 
HETATM   28  C1  UNL     1      -7.798  13.067  23.156  1.00  0.00     0.010 C 
HETATM   29  C3  UNL     1      -5.720  14.449  22.931  1.00  0.00     0.010 C 
ENDBRANCH  25  27
ENDBRANCH  23  25
ENDBRANCH  20  22
BRANCH  20  30
HETATM   30  O2  UNL     1      -3.891  14.143  16.788  1.00  0.00    -0.387 OA
HETATM   31  H17 UNL     1      -4.575  14.840  16.782  1.00  0.00     0.210 HD
ENDBRANCH  20  30
ENDBRANCH   1  20
BRANCH  19  32
HETATM   32  C28 UNL     1      -3.182  11.515  15.751  1.00  0.00     0.018 C 
BRANCH  32  33
HETATM   33  C29 UNL     1      -4.471  10.743  16.089  1.00  0.00     0.039 C 
BRANCH  33  34
HETATM   34  C30 UNL     1      -4.671   9.590  15.131  1.00  0.00    -0.056 A 
HETATM   35  C31 UNL     1      -3.820   9.410  14.033  1.00  0.00     0.007 A 
HETATM   36  C32 UNL     1      -4.038   8.363  13.133  1.00  0.00     0.003 A 
HETATM   37  C33 UNL     1      -5.107   7.487  13.320  1.00  0.00     0.036 A 
HETATM   38  C34 UNL     1      -5.949   7.662  14.415  1.00  0.00     0.066 A 
HETATM   39  C35 UNL     1      -5.739   8.700  15.316  1.00  0.00     0.043 A 
BRANCH  38  40
HETATM   40  O7  UNL     1      -7.007   6.832  14.641  1.00  0.00    -0.361 OA
HETATM   41  H49 UNL     1      -7.065   6.198  13.905  1.00  0.00     0.217 HD
ENDBRANCH  38  40
ENDBRANCH  33  34
ENDBRANCH  32  33
ENDBRANCH  19  32
BRANCH   4  42
HETATM   42  O3  UNL     1      -0.688  10.788  18.625  1.00  0.00    -0.384 OA
HETATM   43  H23 UNL     1      -0.404   9.935  18.998  1.00  0.00     0.211 HD
ENDBRANCH   4  42
BRANCH  12  44
HETATM   44  O6  UNL     1       3.571   6.646  16.030  1.00  0.00    -0.393 OA
HETATM   45  H31 UNL     1       3.489   6.649  17.000  1.00  0.00     0.210 HD
ENDBRANCH  12  44
BRANCH  11  46
HETATM   46  O5  UNL     1       3.608   7.504  13.482  1.00  0.00    -0.393 OA
HETATM   47  H29 UNL     1       4.277   7.184  14.124  1.00  0.00     0.210 HD
ENDBRANCH  11  46
TORSDOF 12
ENDMDL
MODEL 7
REMARK minimizedAffinity -9.4734745
REMARK CNNscore 0.575767934
REMARK CNNaffinity 7.36714411
REMARK  12 active torsions:
REMARK  status: ('A' for Active; 'I' for Inactive)
REMARK    1  A    between atoms: C2_2  and  C4_4 
REMARK    2  A    between atoms: C4_4  and  C6_6 
REMARK    3  A    between atoms: C7_8  and  C8_9 
REMARK    4  A    between atoms: C8_9  and  O2_11 
REMARK    5  A    between atoms: C8_9  and  C10_12 
REMARK    6  A    between atoms: C13_15  and  O3_16 
REMARK    7  A    between atoms: C19_23  and  O5_24 
REMARK    8  A    between atoms: C20_25  and  O6_26 
REMARK    9  A    between atoms: C27_33  and  C28_34 
REMARK   10  A    between atoms: C28_34  and  C29_35 
REMARK   11  A    between atoms: C29_35  and  C30_36 
REMARK   12  A    between atoms: C34_40  and  O7_41 
ROOT
HETATM    1  C10 UNL     1      -2.117   6.497  14.314  1.00  0.00     0.034 C 
HETATM    2  C11 UNL     1      -1.382   5.140  14.117  1.00  0.00     0.012 C 
HETATM    3  C12 UNL     1       0.119   5.468  13.964  1.00  0.00     0.044 C 
HETATM    4  C13 UNL     1       0.229   6.923  14.426  1.00  0.00     0.090 C 
HETATM    5  C14 UNL     1       1.431   7.785  14.121  1.00  0.00    -0.037 C 
HETATM    6  C15 UNL     1       2.437   7.390  13.328  1.00  0.00     0.057 C 
HETATM    7  C16 UNL     1       3.484   8.337  12.895  1.00  0.00     0.154 C 
HETATM    8  O4  UNL     1       4.467   7.886  12.312  1.00  0.00    -0.293 OA
HETATM    9  C17 UNL     1       3.267   9.827  13.164  1.00  0.00     0.071 C 
HETATM   10  C18 UNL     1       4.581  10.612  12.969  1.00  0.00     0.047 C 
HETATM   11  C19 UNL     1       5.548  10.518  14.155  1.00  0.00     0.147 C 
HETATM   12  C20 UNL     1       5.139   9.492  15.217  1.00  0.00     0.147 C 
HETATM   13  C21 UNL     1       3.679   9.623  15.675  1.00  0.00     0.044 C 
HETATM   14  C22 UNL     1       2.650  10.041  14.567  1.00  0.00    -0.023 C 
HETATM   15  C23 UNL     1       2.325  11.542  14.777  1.00  0.00     0.016 C 
HETATM   16  C24 UNL     1       1.330   9.189  14.731  1.00  0.00     0.027 C 
HETATM   17  C25 UNL     1       0.017   9.853  14.236  1.00  0.00     0.011 C 
HETATM   18  C26 UNL     1      -1.232   8.970  14.473  1.00  0.00     0.014 C 
HETATM   19  C27 UNL     1      -1.082   7.573  13.824  1.00  0.00     0.002 C 
ENDROOT
BRANCH   1  20
HETATM   20  C8  UNL     1      -3.612   6.496  13.888  1.00  0.00     0.087 C 
HETATM   21  C9  UNL     1      -4.478   6.206  15.130  1.00  0.00     0.049 C 
BRANCH  20  22
HETATM   22  C7  UNL     1      -3.923   5.541  12.747  1.00  0.00     0.185 A 
HETATM   23  C6  UNL     1      -4.103   4.035  12.894  1.00  0.00     0.158 A 
HETATM   24  O1  UNL     1      -5.225   4.922  12.853  1.00  0.00    -0.372 OA
BRANCH  23  25
HETATM   25  C4  UNL     1      -3.981   3.062  11.739  1.00  0.00     0.017 C 
HETATM   26  C5  UNL     1      -2.877   3.410  10.735  1.00  0.00     0.013 C 
BRANCH  25  27
HETATM   27  C2  UNL     1      -5.372   2.841  11.073  1.00  0.00    -0.016 C 
HETATM   28  C1  UNL     1      -5.873   1.404  11.253  1.00  0.00     0.010 C 
HETATM   29  C3  UNL     1      -5.404   3.218   9.589  1.00  0.00     0.010 C 
ENDBRANCH  25  27
ENDBRANCH  23  25
ENDBRANCH  20  22
BRANCH  20  30
HETATM   30  O2  UNL     1      -3.966   7.814  13.468  1.00  0.00    -0.387 OA
HETATM   31  H17 UNL     1      -4.848   7.739  13.056  1.00  0.00     0.210 HD
ENDBRANCH  20  30
ENDBRANCH   1  20
BRANCH  19  32
HETATM   32  C28 UNL     1      -0.981   7.686  12.255  1.00  0.00     0.018 C 
BRANCH  32  33
HETATM   33  C29 UNL     1      -0.682   6.403  11.458  1.00  0.00     0.039 C 
BRANCH  33  34
HETATM   34  C30 UNL     1       0.476   6.621  10.509  1.00  0.00    -0.056 A 
HETATM   35  C31 UNL     1       1.547   5.718  10.462  1.00  0.00     0.007 A 
HETATM   36  C32 UNL     1       2.631   5.949   9.610  1.00  0.00     0.003 A 
HETATM   37  C33 UNL     1       2.656   7.082   8.797  1.00  0.00     0.036 A 
HETATM   38  C34 UNL     1       1.589   7.976   8.839  1.00  0.00     0.066 A 
HETATM   39  C35 UNL     1       0.506   7.754   9.683  1.00  0.00     0.043 A 
BRANCH  38  40
HETATM   40  O7  UNL     1       1.567   9.097   8.064  1.00  0.00    -0.361 OA
HETATM   41  H49 UNL     1       2.407   9.153   7.576  1.00  0.00     0.217 HD
ENDBRANCH  38  40
ENDBRANCH  33  34
ENDBRANCH  32  33
ENDBRANCH  19  32
BRANCH   4  42
HETATM   42  O3  UNL     1       0.167   6.865  15.863  1.00  0.00    -0.384 OA
HETATM   43  H23 UNL     1       0.988   6.445  16.171  1.00  0.00     0.211 HD
ENDBRANCH   4  42
BRANCH  12  44
HETATM   44  O6  UNL     1       5.997   9.655  16.356  1.00  0.00    -0.393 OA
HETATM   45  H31 UNL     1       5.803   8.922  16.966  1.00  0.00     0.210 HD
ENDBRANCH  12  44
BRANCH  11  46
HETATM   46  O5  UNL     1       5.654  11.804  14.778  1.00  0.00    -0.393 OA
HETATM   47  H29 UNL     1       6.096  11.628  15.634  1.00  0.00     0.210 HD
ENDBRANCH  11  46
TORSDOF 12
ENDMDL
MODEL 8
REMARK minimizedAffinity -8.59363651
REMARK CNNscore 0.495637804
REMARK CNNaffinity 6.9959321
REMARK  12 active torsions:
REMARK  status: ('A' for Active; 'I' for Inactive)
REMARK    1  A    between atoms: C2_2  and  C4_4 
REMARK    2  A    between atoms: C4_4  and  C6_6 
REMARK    3  A    between atoms: C7_8  and  C8_9 
REMARK    4  A    between atoms: C8_9  and  O2_11 
REMARK    5  A    between atoms: C8_9  and  C10_12 
REMARK    6  A    between atoms: C13_15  and  O3_16 
REMARK    7  A    between atoms: C19_23  and  O5_24 
REMARK    8  A    between atoms: C20_25  and  O6_26 
REMARK    9  A    between atoms: C27_33  and  C28_34 
REMARK   10  A    between atoms: C28_34  and  C29_35 
REMARK   11  A    between atoms: C29_35  and  C30_36 
REMARK   12  A    between atoms: C34_40  and  O7_41 
ROOT
HETATM    1  C10 UNL     1       0.519  10.535  17.096  1.00  0.00     0.034 C 
HETATM    2  C11 UNL     1      -0.468  11.736  17.031  1.00  0.00     0.012 C 
HETATM    3  C12 UNL     1      -1.731  11.233  16.300  1.00  0.00     0.044 C 
HETATM    4  C13 UNL     1      -1.572   9.710  16.293  1.00  0.00     0.090 C 
HETATM    5  C14 UNL     1      -2.376   8.813  15.383  1.00  0.00    -0.037 C 
HETATM    6  C15 UNL     1      -3.200   9.277  14.432  1.00  0.00     0.057 C 
HETATM    7  C16 UNL     1      -3.804   8.369  13.436  1.00  0.00     0.154 C 
HETATM    8  O4  UNL     1      -4.678   8.818  12.698  1.00  0.00    -0.293 OA
HETATM    9  C17 UNL     1      -3.281   6.934  13.355  1.00  0.00     0.071 C 
HETATM   10  C18 UNL     1      -4.238   6.052  12.527  1.00  0.00     0.047 C 
HETATM   11  C19 UNL     1      -5.477   5.579  13.296  1.00  0.00     0.147 C 
HETATM   12  C20 UNL     1      -5.654   6.241  14.667  1.00  0.00     0.147 C 
HETATM   13  C21 UNL     1      -4.389   6.210  15.537  1.00  0.00     0.044 C 
HETATM   14  C22 UNL     1      -3.029   6.368  14.773  1.00  0.00    -0.023 C 
HETATM   15  C23 UNL     1      -2.386   4.960  14.672  1.00  0.00     0.016 C 
HETATM   16  C24 UNL     1      -2.075   7.324  15.593  1.00  0.00     0.027 C 
HETATM   17  C25 UNL     1      -0.550   7.094  15.412  1.00  0.00     0.011 C 
HETATM   18  C26 UNL     1       0.310   8.041  16.282  1.00  0.00     0.014 C 
HETATM   19  C27 UNL     1      -0.024   9.529  16.018  1.00  0.00     0.002 C 
ENDROOT
BRANCH   1  20
HETATM   20  C8  UNL     1       2.017  10.930  17.216  1.00  0.00     0.087 C 
HETATM   21  C9  UNL     1       2.849   9.981  16.329  1.00  0.00     0.049 C 
BRANCH  20  22
HETATM   22  C7  UNL     1       2.530  10.962  18.646  1.00  0.00     0.185 A 
HETATM   23  C6  UNL     1       1.733  10.526  19.868  1.00  0.00     0.158 A 
HETATM   24  O1  UNL     1       2.672   9.651  19.237  1.00  0.00    -0.372 OA
BRANCH  23  25
HETATM   25  C4  UNL     1       2.070  10.955  21.282  1.00  0.00     0.017 C 
HETATM   26  C5  UNL     1       2.354  12.452  21.437  1.00  0.00     0.013 C 
BRANCH  25  27
HETATM   27  C2  UNL     1       3.198  10.051  21.864  1.00  0.00    -0.016 C 
HETATM   28  C1  UNL     1       2.635   8.889  22.689  1.00  0.00     0.010 C 
HETATM   29  C3  UNL     1       4.231  10.821  22.692  1.00  0.00     0.010 C 
ENDBRANCH  25  27
ENDBRANCH  23  25
ENDBRANCH  20  22
BRANCH  20  30
HETATM   30  O2  UNL     1       2.190  12.233  16.655  1.00  0.00    -0.387 OA
HETATM   31  H17 UNL     1       3.093  12.513  16.896  1.00  0.00     0.210 HD
ENDBRANCH  20  30
ENDBRANCH   1  20
BRANCH  19  32
HETATM   32  C28 UNL     1       0.332   9.935  14.537  1.00  0.00     0.018 C 
BRANCH  32  33
HETATM   33  C29 UNL     1       1.421   9.124  13.810  1.00  0.00     0.039 C 
BRANCH  33  34
HETATM   34  C30 UNL     1       0.984   8.782  12.403  1.00  0.00    -0.056 A 
HETATM   35  C31 UNL     1      -0.368   8.822  12.040  1.00  0.00     0.007 A 
HETATM   36  C32 UNL     1      -0.765   8.466  10.747  1.00  0.00     0.003 A 
HETATM   37  C33 UNL     1       0.184   8.069   9.806  1.00  0.00     0.036 A 
HETATM   38  C34 UNL     1       1.529   8.035  10.165  1.00  0.00     0.066 A 
HETATM   39  C35 UNL     1       1.933   8.388  11.448  1.00  0.00     0.043 A 
BRANCH  38  40
HETATM   40  O7  UNL     1       2.494   7.654   9.280  1.00  0.00    -0.361 OA
HETATM   41  H49 UNL     1       2.064   7.380   8.452  1.00  0.00     0.217 HD
ENDBRANCH  38  40
ENDBRANCH  33  34
ENDBRANCH  32  33
ENDBRANCH  19  32
BRANCH   4  42
HETATM   42  O3  UNL     1      -1.915   9.292  17.627  1.00  0.00    -0.384 OA
HETATM   43  H23 UNL     1      -2.870   9.440  17.740  1.00  0.00     0.211 HD
ENDBRANCH   4  42
BRANCH  12  44
HETATM   44  O6  UNL     1      -6.711   5.564  15.362  1.00  0.00    -0.393 OA
HETATM   45  H31 UNL     1      -6.888   6.072  16.174  1.00  0.00     0.210 HD
ENDBRANCH  12  44
BRANCH  11  46
HETATM   46  O5  UNL     1      -5.401   4.160  13.480  1.00  0.00    -0.393 OA
HETATM   47  H29 UNL     1      -6.088   3.962  14.151  1.00  0.00     0.210 HD
ENDBRANCH  11  46
TORSDOF 12
ENDMDL
MODEL 9
REMARK minimizedAffinity -9.3135252
REMARK CNNscore 0.472165138
REMARK CNNaffinity 7.00181961
REMARK  12 active torsions:
REMARK  status: ('A' for Active; 'I' for Inactive)
REMARK    1  A    between atoms: C2_2  and  C4_4 
REMARK    2  A    between atoms: C4_4  and  C6_6 
REMARK    3  A    between atoms: C7_8  and  C8_9 
REMARK    4  A    between atoms: C8_9  and  O2_11 
REMARK    5  A    between atoms: C8_9  and  C10_12 
REMARK    6  A    between atoms: C13_15  and  O3_16 
REMARK    7  A    between atoms: C19_23  and  O5_24 
REMARK    8  A    between atoms: C20_25  and  O6_26 
REMARK    9  A    between atoms: C27_33  and  C28_34 
REMARK   10  A    between atoms: C28_34  and  C29_35 
REMARK   11  A    between atoms: C29_35  and  C30_36 
REMARK   12  A    between atoms: C34_40  and  O7_41 
ROOT
HETATM    1  C10 UNL     1      -0.622   7.238  12.621  1.00  0.00     0.034 C 
HETATM    2  C11 UNL     1      -1.473   7.977  11.548  1.00  0.00     0.012 C 
HETATM    3  C12 UNL     1      -2.161   9.159  12.264  1.00  0.00     0.044 C 
HETATM    4  C13 UNL     1      -1.417   9.265  13.598  1.00  0.00     0.090 C 
HETATM    5  C14 UNL     1      -1.963  10.038  14.775  1.00  0.00    -0.037 C 
HETATM    6  C15 UNL     1      -3.186  10.589  14.789  1.00  0.00     0.057 C 
HETATM    7  C16 UNL     1      -3.753  11.155  16.030  1.00  0.00     0.154 C 
HETATM    8  O4  UNL     1      -4.800  11.794  15.949  1.00  0.00    -0.293 OA
HETATM    9  C17 UNL     1      -3.027  10.880  17.348  1.00  0.00     0.071 C 
HETATM   10  C18 UNL     1      -3.547  11.814  18.461  1.00  0.00     0.047 C 
HETATM   11  C19 UNL     1      -2.965  13.231  18.411  1.00  0.00     0.147 C 
HETATM   12  C20 UNL     1      -2.151  13.531  17.148  1.00  0.00     0.147 C 
HETATM   13  C21 UNL     1      -1.094  12.463  16.826  1.00  0.00     0.044 C 
HETATM   14  C22 UNL     1      -1.495  10.983  17.154  1.00  0.00    -0.023 C 
HETATM   15  C23 UNL     1      -0.770  10.585  18.466  1.00  0.00     0.016 C 
HETATM   16  C24 UNL     1      -1.017  10.039  15.982  1.00  0.00     0.027 C 
HETATM   17  C25 UNL     1      -0.701   8.569  16.368  1.00  0.00     0.011 C 
HETATM   18  C26 UNL     1      -0.198   7.726  15.171  1.00  0.00     0.014 C 
HETATM   19  C27 UNL     1      -1.198   7.747  13.990  1.00  0.00     0.002 C 
ENDROOT
BRANCH   1  20
HETATM   20  C8  UNL     1      -0.348   5.739  12.315  1.00  0.00     0.087 C 
HETATM   21  C9  UNL     1      -0.094   5.003  13.646  1.00  0.00     0.049 C 
BRANCH  20  22
HETATM   22  C7  UNL     1       0.778   5.512  11.319  1.00  0.00     0.185 A 
HETATM   23  C6  UNL     1       1.434   6.602  10.481  1.00  0.00     0.158 A 
HETATM   24  O1  UNL     1       2.021   6.142  11.702  1.00  0.00    -0.372 OA
BRANCH  23  25
HETATM   25  C4  UNL     1       2.223   6.323   9.218  1.00  0.00     0.017 C 
HETATM   26  C5  UNL     1       3.700   5.996   9.455  1.00  0.00     0.013 C 
BRANCH  25  27
HETATM   27  C2  UNL     1       2.005   7.469   8.184  1.00  0.00    -0.016 C 
HETATM   28  C1  UNL     1       0.758   8.300   8.502  1.00  0.00     0.010 C 
HETATM   29  C3  UNL     1       1.945   6.980   6.735  1.00  0.00     0.010 C 
ENDBRANCH  25  27
ENDBRANCH  23  25
ENDBRANCH  20  22
BRANCH  20  30
HETATM   30  O2  UNL     1      -1.537   5.161  11.774  1.00  0.00    -0.387 OA
HETATM   31  H17 UNL     1      -1.283   4.279  11.443  1.00  0.00     0.210 HD
ENDBRANCH  20  30
ENDBRANCH   1  20
BRANCH  19  32
HETATM   32  C28 UNL     1      -2.563   7.071  14.393  1.00  0.00     0.018 C 
BRANCH  32  33
HETATM   33  C29 UNL     1      -3.798   7.362  13.519  1.00  0.00     0.039 C 
BRANCH  33  34
HETATM   34  C30 UNL     1      -4.726   6.168  13.489  1.00  0.00    -0.056 A 
HETATM   35  C31 UNL     1      -4.363   4.991  12.820  1.00  0.00     0.007 A 
HETATM   36  C32 UNL     1      -5.244   3.907  12.766  1.00  0.00     0.003 A 
HETATM   37  C33 UNL     1      -6.494   3.987  13.377  1.00  0.00     0.036 A 
HETATM   38  C34 UNL     1      -6.853   5.154  14.047  1.00  0.00     0.066 A 
HETATM   39  C35 UNL     1      -5.983   6.237  14.108  1.00  0.00     0.043 A 
BRANCH  38  40
HETATM   40  O7  UNL     1      -8.064   5.281  14.660  1.00  0.00    -0.361 OA
HETATM   41  H49 UNL     1      -8.585   4.478  14.485  1.00  0.00     0.217 HD
ENDBRANCH  38  40
ENDBRANCH  33  34
ENDBRANCH  32  33
ENDBRANCH  19  32
BRANCH   4  42
HETATM   42  O3  UNL     1      -0.167   9.905  13.280  1.00  0.00    -0.384 OA
HETATM   43  H23 UNL     1      -0.367  10.825  13.035  1.00  0.00     0.211 HD
ENDBRANCH   4  42
BRANCH  12  44
HETATM   44  O6  UNL     1      -1.493  14.794  17.325  1.00  0.00    -0.393 OA
HETATM   45  H31 UNL     1      -1.081  15.022  16.472  1.00  0.00     0.210 HD
ENDBRANCH  12  44
BRANCH  11  46
HETATM   46  O5  UNL     1      -2.127  13.435  19.556  1.00  0.00    -0.393 OA
HETATM   47  H29 UNL     1      -1.627  14.252  19.352  1.00  0.00     0.210 HD
ENDBRANCH  11  46
TORSDOF 12
ENDMDL
