MODEL 1
REMARK minimizedAffinity -8.49048996
REMARK CNNscore 0.780102909
REMARK CNNaffinity 6.62191153
REMARK  8 active torsions:
REMARK  status: ('A' for Active; 'I' for Inactive)
REMARK    1  A    between atoms: C3_3  and  C4_4 
REMARK    2  A    between atoms: C4_4  and  O1_5 
REMARK    3  A    between atoms: C6_9  and  C7_10 
REMARK    4  A    between atoms: C7_10  and  O4_12 
REMARK    5  A    between atoms: C7_10  and  C9_13 
REMARK    6  A    between atoms: C12_16  and  O5_17 
REMARK    7  A    between atoms: C15_20  and  O6_21 
REMARK    8  A    between atoms: C16_22  and  O7_23 
ROOT
HETATM    1  C9  UNL     1      -0.807   7.917  13.326  1.00  0.00     0.033 C 
HETATM    2  C10 UNL     1      -2.335   8.001  13.001  1.00  0.00     0.011 C 
HETATM    3  C11 UNL     1      -2.962   9.045  13.944  1.00  0.00     0.039 C 
HETATM    4  C12 UNL     1      -1.757   9.745  14.561  1.00  0.00     0.070 C 
HETATM    5  C13 UNL     1      -1.990  10.551  15.855  1.00  0.00     0.028 C 
HETATM    6  C14 UNL     1      -3.062  11.636  15.664  1.00  0.00     0.043 C 
HETATM    7  C15 UNL     1      -3.301  12.448  16.936  1.00  0.00     0.154 C 
HETATM    8  C16 UNL     1      -1.978  13.063  17.465  1.00  0.00     0.098 C 
HETATM    9  C17 UNL     1      -2.246  13.944  18.706  1.00  0.00     0.042 C 
HETATM   10  C18 UNL     1      -0.976  14.363  19.451  1.00  0.00     0.010 C 
HETATM   11  C19 UNL     1       0.292  14.180  18.639  1.00  0.00     0.079 C 
HETATM   12  C20 UNL     1       0.425  12.757  18.127  1.00  0.00     0.138 C 
HETATM   13  O8  UNL     1       1.547  12.247  18.090  1.00  0.00    -0.297 OA
HETATM   14  C21 UNL     1      -0.858  11.987  17.716  1.00  0.00     0.054 C 
HETATM   15  C22 UNL     1      -1.166  11.046  18.904  1.00  0.00     0.027 C 
HETATM   16  C23 UNL     1      -0.641  11.163  16.380  1.00  0.00     0.011 C 
HETATM   17  C24 UNL     1       0.462  10.067  16.444  1.00  0.00     0.007 C 
HETATM   18  C25 UNL     1       0.595   9.192  15.178  1.00  0.00     0.013 C 
HETATM   19  C26 UNL     1      -0.748   8.568  14.756  1.00  0.00    -0.006 C 
HETATM   20  C27 UNL     1      -1.191   7.551  15.842  1.00  0.00     0.019 C 
ENDROOT
BRANCH   1  21
HETATM   21  C7  UNL     1      -0.180   6.504  13.029  1.00  0.00     0.085 C 
HETATM   22  C8  UNL     1       0.948   6.179  14.019  1.00  0.00     0.049 C 
BRANCH  21  23
HETATM   23  C6  UNL     1       0.372   6.453  11.547  1.00  0.00     0.170 C 
HETATM   24  O3  UNL     1       1.793   6.200  11.569  1.00  0.00    -0.309 OA
HETATM   25  C5  UNL     1       2.503   6.160  10.417  1.00  0.00     0.292 C 
HETATM   26  C3  UNL     1       1.874   6.781   9.216  1.00  0.00     0.042 C 
HETATM   27  O2  UNL     1       3.632   5.685  10.387  1.00  0.00    -0.260 OA
HETATM   28  C2  UNL     1       0.795   7.582   9.368  1.00  0.00    -0.067 C 
HETATM   29  C1  UNL     1       0.151   8.382   8.269  1.00  0.00     0.044 C 
HETATM   30  C28 UNL     1       0.138   7.719  10.719  1.00  0.00     0.070 C 
BRANCH  26  31
HETATM   31  C4  UNL     1       2.604   6.544   7.924  1.00  0.00     0.209 C 
BRANCH  31  32
HETATM   32  O1  UNL     1       2.904   5.158   7.781  1.00  0.00    -0.396 OA
HETATM   33  H6  UNL     1       2.082   4.659   7.920  1.00  0.00     0.209 HD
ENDBRANCH  31  32
ENDBRANCH  26  31
ENDBRANCH  21  23
BRANCH  21  34
HETATM   34  O4  UNL     1      -1.190   5.503  13.213  1.00  0.00    -0.387 OA
HETATM   35  H11 UNL     1      -0.836   4.633  12.969  1.00  0.00     0.210 HD
ENDBRANCH  21  34
ENDBRANCH   1  21
BRANCH   4  36
HETATM   36  O5  UNL     1      -1.312  10.653  13.530  1.00  0.00    -0.389 OA
HETATM   37  H17 UNL     1      -0.500  11.100  13.817  1.00  0.00     0.210 HD
ENDBRANCH   4  36
BRANCH   7  38
HETATM   38  O6  UNL     1      -3.941  11.620  17.900  1.00  0.00    -0.392 OA
HETATM   39  H22 UNL     1      -4.558  12.171  18.412  1.00  0.00     0.210 HD
ENDBRANCH   7  38
BRANCH   8  40
HETATM   40  O7  UNL     1      -1.501  13.954  16.427  1.00  0.00    -0.386 OA
HETATM   41  H23 UNL     1      -2.211  14.580  16.196  1.00  0.00     0.210 HD
ENDBRANCH   8  40
TORSDOF 8
ENDMDL
MODEL 2
REMARK minimizedAffinity -9.29517555
REMARK CNNscore 0.761529207
REMARK CNNaffinity 6.20752144
REMARK  8 active torsions:
REMARK  status: ('A' for Active; 'I' for Inactive)
REMARK    1  A    between atoms: C3_3  and  C4_4 
REMARK    2  A    between atoms: C4_4  and  O1_5 
REMARK    3  A    between atoms: C6_9  and  C7_10 
REMARK    4  A    between atoms: C7_10  and  O4_12 
REMARK    5  A    between atoms: C7_10  and  C9_13 
REMARK    6  A    between atoms: C12_16  and  O5_17 
REMARK    7  A    between atoms: C15_20  and  O6_21 
REMARK    8  A    between atoms: C16_22  and  O7_23 
ROOT
HETATM    1  C9  UNL     1      -1.192   7.354  13.896  1.00  0.00     0.033 C 
HETATM    2  C10 UNL     1      -2.281   7.708  12.831  1.00  0.00     0.011 C 
HETATM    3  C11 UNL     1      -3.007   8.981  13.303  1.00  0.00     0.039 C 
HETATM    4  C12 UNL     1      -2.134   9.494  14.441  1.00  0.00     0.070 C 
HETATM    5  C13 UNL     1      -2.766  10.504  15.421  1.00  0.00     0.028 C 
HETATM    6  C14 UNL     1      -3.291  11.752  14.692  1.00  0.00     0.043 C 
HETATM    7  C15 UNL     1      -3.915  12.766  15.649  1.00  0.00     0.154 C 
HETATM    8  C16 UNL     1      -2.922  13.160  16.774  1.00  0.00     0.098 C 
HETATM    9  C17 UNL     1      -3.537  14.242  17.689  1.00  0.00     0.042 C 
HETATM   10  C18 UNL     1      -2.743  14.487  18.974  1.00  0.00     0.010 C 
HETATM   11  C19 UNL     1      -1.332  13.933  18.932  1.00  0.00     0.079 C 
HETATM   12  C20 UNL     1      -1.326  12.455  18.581  1.00  0.00     0.138 C 
HETATM   13  O8  UNL     1      -0.501  11.723  19.132  1.00  0.00    -0.297 OA
HETATM   14  C21 UNL     1      -2.384  11.920  17.579  1.00  0.00     0.054 C 
HETATM   15  C22 UNL     1      -3.463  11.240  18.453  1.00  0.00     0.027 C 
HETATM   16  C23 UNL     1      -1.749  10.889  16.556  1.00  0.00     0.011 C 
HETATM   17  C24 UNL     1      -1.138   9.608  17.192  1.00  0.00     0.007 C 
HETATM   18  C25 UNL     1      -0.620   8.556  16.187  1.00  0.00     0.013 C 
HETATM   19  C26 UNL     1      -1.685   8.172  15.144  1.00  0.00    -0.006 C 
HETATM   20  C27 UNL     1      -2.847   7.432  15.862  1.00  0.00     0.019 C 
ENDROOT
BRANCH   1  21
HETATM   21  C7  UNL     1      -0.877   5.814  13.982  1.00  0.00     0.085 C 
HETATM   22  C8  UNL     1       0.407   5.466  13.214  1.00  0.00     0.049 C 
BRANCH  21  23
HETATM   23  C6  UNL     1      -2.091   4.976  13.409  1.00  0.00     0.170 C 
HETATM   24  O3  UNL     1      -1.869   4.698  12.010  1.00  0.00    -0.309 OA
HETATM   25  C5  UNL     1      -2.798   4.031  11.285  1.00  0.00     0.292 C 
HETATM   26  C3  UNL     1      -4.177   3.973  11.848  1.00  0.00     0.042 C 
HETATM   27  O2  UNL     1      -2.521   3.551  10.193  1.00  0.00    -0.260 OA
HETATM   28  C2  UNL     1      -4.515   4.792  12.869  1.00  0.00    -0.067 C 
HETATM   29  C1  UNL     1      -5.900   4.942  13.436  1.00  0.00     0.044 C 
HETATM   30  C28 UNL     1      -3.463   5.642  13.539  1.00  0.00     0.070 C 
BRANCH  26  31
HETATM   31  C4  UNL     1      -5.124   3.066  11.114  1.00  0.00     0.209 C 
BRANCH  31  32
HETATM   32  O1  UNL     1      -4.633   1.728  11.139  1.00  0.00    -0.396 OA
HETATM   33  H6  UNL     1      -4.432   1.501  12.062  1.00  0.00     0.209 HD
ENDBRANCH  31  32
ENDBRANCH  26  31
ENDBRANCH  21  23
BRANCH  21  34
HETATM   34  O4  UNL     1      -0.643   5.468  15.354  1.00  0.00    -0.387 OA
HETATM   35  H11 UNL     1      -0.513   4.508  15.430  1.00  0.00     0.210 HD
ENDBRANCH  21  34
ENDBRANCH   1  21
BRANCH   4  36
HETATM   36  O5  UNL     1      -1.026  10.136  13.774  1.00  0.00    -0.389 OA
HETATM   37  H17 UNL     1      -0.380  10.440  14.430  1.00  0.00     0.210 HD
ENDBRANCH   4  36
BRANCH   7  38
HETATM   38  O6  UNL     1      -5.132  12.233  16.159  1.00  0.00    -0.392 OA
HETATM   39  H22 UNL     1      -5.761  12.966  16.273  1.00  0.00     0.210 HD
ENDBRANCH   7  38
BRANCH   8  40
HETATM   40  O7  UNL     1      -1.788  13.777  16.116  1.00  0.00    -0.386 OA
HETATM   41  H23 UNL     1      -2.107  14.498  15.545  1.00  0.00     0.210 HD
ENDBRANCH   8  40
TORSDOF 8
ENDMDL
MODEL 3
REMARK minimizedAffinity -10.2391014
REMARK CNNscore 0.751323521
REMARK CNNaffinity 6.7420907
REMARK  8 active torsions:
REMARK  status: ('A' for Active; 'I' for Inactive)
REMARK    1  A    between atoms: C3_3  and  C4_4 
REMARK    2  A    between atoms: C4_4  and  O1_5 
REMARK    3  A    between atoms: C6_9  and  C7_10 
REMARK    4  A    between atoms: C7_10  and  O4_12 
REMARK    5  A    between atoms: C7_10  and  C9_13 
REMARK    6  A    between atoms: C12_16  and  O5_17 
REMARK    7  A    between atoms: C15_20  and  O6_21 
REMARK    8  A    between atoms: C16_22  and  O7_23 
ROOT
HETATM    1  C9  UNL     1      -4.833   6.639  15.210  1.00  0.00     0.033 C 
HETATM    2  C10 UNL     1      -3.660   5.725  14.725  1.00  0.00     0.011 C 
HETATM    3  C11 UNL     1      -2.378   6.578  14.694  1.00  0.00     0.039 C 
HETATM    4  C12 UNL     1      -2.770   7.848  15.439  1.00  0.00     0.070 C 
HETATM    5  C13 UNL     1      -1.881   9.093  15.239  1.00  0.00     0.028 C 
HETATM    6  C14 UNL     1      -0.418   8.812  15.616  1.00  0.00     0.043 C 
HETATM    7  C15 UNL     1       0.476  10.037  15.429  1.00  0.00     0.154 C 
HETATM    8  C16 UNL     1      -0.074  11.258  16.213  1.00  0.00     0.098 C 
HETATM    9  C17 UNL     1       0.879  12.465  16.079  1.00  0.00     0.042 C 
HETATM   10  C18 UNL     1       0.284  13.781  16.587  1.00  0.00     0.010 C 
HETATM   11  C19 UNL     1      -0.936  13.595  17.468  1.00  0.00     0.079 C 
HETATM   12  C20 UNL     1      -2.002  12.766  16.774  1.00  0.00     0.138 C 
HETATM   13  O8  UNL     1      -3.186  13.061  16.952  1.00  0.00    -0.297 OA
HETATM   14  C21 UNL     1      -1.559  11.612  15.835  1.00  0.00     0.054 C 
HETATM   15  C22 UNL     1      -1.710  12.173  14.402  1.00  0.00     0.027 C 
HETATM   16  C23 UNL     1      -2.454  10.319  16.036  1.00  0.00     0.011 C 
HETATM   17  C24 UNL     1      -3.969  10.503  15.732  1.00  0.00     0.007 C 
HETATM   18  C25 UNL     1      -4.820   9.217  15.822  1.00  0.00     0.013 C 
HETATM   19  C26 UNL     1      -4.242   8.075  14.965  1.00  0.00    -0.006 C 
HETATM   20  C27 UNL     1      -4.353   8.467  13.467  1.00  0.00     0.019 C 
ENDROOT
BRANCH   1  21
HETATM   21  C7  UNL     1      -6.237   6.210  14.643  1.00  0.00     0.085 C 
HETATM   22  C8  UNL     1      -7.121   5.611  15.747  1.00  0.00     0.049 C 
BRANCH  21  23
HETATM   23  C6  UNL     1      -6.056   5.162  13.471  1.00  0.00     0.170 C 
HETATM   24  O3  UNL     1      -7.014   4.093  13.626  1.00  0.00    -0.309 OA
HETATM   25  C5  UNL     1      -7.022   3.046  12.767  1.00  0.00     0.292 C 
HETATM   26  C3  UNL     1      -5.791   2.834  11.952  1.00  0.00     0.042 C 
HETATM   27  O2  UNL     1      -7.978   2.283  12.711  1.00  0.00    -0.260 OA
HETATM   28  C2  UNL     1      -4.652   3.481  12.285  1.00  0.00    -0.067 C 
HETATM   29  C1  UNL     1      -3.309   3.254  11.645  1.00  0.00     0.044 C 
HETATM   30  C28 UNL     1      -4.665   4.529  13.371  1.00  0.00     0.070 C 
BRANCH  26  31
HETATM   31  C4  UNL     1      -5.913   1.788  10.880  1.00  0.00     0.209 C 
BRANCH  31  32
HETATM   32  O1  UNL     1      -5.743   2.385   9.597  1.00  0.00    -0.396 OA
HETATM   33  H6  UNL     1      -4.921   2.903   9.615  1.00  0.00     0.209 HD
ENDBRANCH  31  32
ENDBRANCH  26  31
ENDBRANCH  21  23
BRANCH  21  34
HETATM   34  O4  UNL     1      -6.916   7.377  14.160  1.00  0.00    -0.387 OA
HETATM   35  H11 UNL     1      -7.756   7.118  13.746  1.00  0.00     0.210 HD
ENDBRANCH  21  34
ENDBRANCH   1  21
BRANCH   4  36
HETATM   36  O5  UNL     1      -2.720   7.469  16.832  1.00  0.00    -0.389 OA
HETATM   37  H17 UNL     1      -3.020   8.208  17.383  1.00  0.00     0.210 HD
ENDBRANCH   4  36
BRANCH   7  38
HETATM   38  O6  UNL     1       0.613  10.302  14.037  1.00  0.00    -0.392 OA
HETATM   39  H22 UNL     1       1.513  10.639  13.879  1.00  0.00     0.210 HD
ENDBRANCH   7  38
BRANCH   8  40
HETATM   40  O7  UNL     1      -0.060  10.880  17.612  1.00  0.00    -0.386 OA
HETATM   41  H23 UNL     1       0.835  10.577  17.849  1.00  0.00     0.210 HD
ENDBRANCH   8  40
TORSDOF 8
ENDMDL
MODEL 4
REMARK minimizedAffinity -8.89544868
REMARK CNNscore 0.673027694
REMARK CNNaffinity 6.4627347
REMARK  8 active torsions:
REMARK  status: ('A' for Active; 'I' for Inactive)
REMARK    1  A    between atoms: C3_3  and  C4_4 
REMARK    2  A    between atoms: C4_4  and  O1_5 
REMARK    3  A    between atoms: C6_9  and  C7_10 
REMARK    4  A    between atoms: C7_10  and  O4_12 
REMARK    5  A    between atoms: C7_10  and  C9_13 
REMARK    6  A    between atoms: C12_16  and  O5_17 
REMARK    7  A    between atoms: C15_20  and  O6_21 
REMARK    8  A    between atoms: C16_22  and  O7_23 
ROOT
HETATM    1  C9  UNL     1      -2.460   7.039  13.510  1.00  0.00     0.033 C 
HETATM    2  C10 UNL     1      -2.668   8.097  12.377  1.00  0.00     0.011 C 
HETATM    3  C11 UNL     1      -1.353   8.882  12.216  1.00  0.00     0.039 C 
HETATM    4  C12 UNL     1      -0.347   8.071  13.023  1.00  0.00     0.070 C 
HETATM    5  C13 UNL     1       0.964   8.772  13.435  1.00  0.00     0.028 C 
HETATM    6  C14 UNL     1       1.730   9.308  12.215  1.00  0.00     0.043 C 
HETATM    7  C15 UNL     1       3.034  10.001  12.606  1.00  0.00     0.154 C 
HETATM    8  C16 UNL     1       3.933   9.066  13.457  1.00  0.00     0.098 C 
HETATM    9  C17 UNL     1       5.280   9.750  13.779  1.00  0.00     0.042 C 
HETATM   10  C18 UNL     1       6.109   9.016  14.835  1.00  0.00     0.010 C 
HETATM   11  C19 UNL     1       5.659   7.587  15.074  1.00  0.00     0.079 C 
HETATM   12  C20 UNL     1       4.182   7.519  15.419  1.00  0.00     0.138 C 
HETATM   13  O8  UNL     1       3.810   6.693  16.256  1.00  0.00    -0.297 OA
HETATM   14  C21 UNL     1       3.208   8.520  14.741  1.00  0.00     0.054 C 
HETATM   15  C22 UNL     1       2.939   9.610  15.805  1.00  0.00     0.027 C 
HETATM   16  C23 UNL     1       1.860   7.813  14.299  1.00  0.00     0.011 C 
HETATM   17  C24 UNL     1       1.026   7.186  15.453  1.00  0.00     0.007 C 
HETATM   18  C25 UNL     1      -0.339   6.596  15.034  1.00  0.00     0.013 C 
HETATM   19  C26 UNL     1      -1.195   7.607  14.250  1.00  0.00    -0.006 C 
HETATM   20  C27 UNL     1      -1.591   8.771  15.200  1.00  0.00     0.019 C 
ENDROOT
BRANCH   1  21
HETATM   21  C7  UNL     1      -3.784   6.679  14.281  1.00  0.00     0.085 C 
HETATM   22  C8  UNL     1      -3.522   6.515  15.785  1.00  0.00     0.049 C 
BRANCH  21  23
HETATM   23  C6  UNL     1      -4.412   5.349  13.696  1.00  0.00     0.170 C 
HETATM   24  O3  UNL     1      -3.764   5.017  12.450  1.00  0.00    -0.309 OA
HETATM   25  C5  UNL     1      -4.164   3.940  11.732  1.00  0.00     0.292 C 
HETATM   26  C3  UNL     1      -5.513   3.388  12.043  1.00  0.00     0.042 C 
HETATM   27  O2  UNL     1      -3.467   3.486  10.833  1.00  0.00    -0.260 OA
HETATM   28  C2  UNL     1      -6.375   4.113  12.790  1.00  0.00    -0.067 C 
HETATM   29  C1  UNL     1      -7.809   3.746  13.059  1.00  0.00     0.044 C 
HETATM   30  C28 UNL     1      -5.921   5.398  13.437  1.00  0.00     0.070 C 
BRANCH  26  31
HETATM   31  C4  UNL     1      -5.837   2.086  11.364  1.00  0.00     0.209 C 
BRANCH  31  32
HETATM   32  O1  UNL     1      -6.969   1.482  11.985  1.00  0.00    -0.396 OA
HETATM   33  H6  UNL     1      -7.677   2.146  12.025  1.00  0.00     0.209 HD
ENDBRANCH  31  32
ENDBRANCH  26  31
ENDBRANCH  21  23
BRANCH  21  34
HETATM   34  O4  UNL     1      -4.710   7.764  14.140  1.00  0.00    -0.387 OA
HETATM   35  H11 UNL     1      -5.556   7.528  14.555  1.00  0.00     0.210 HD
ENDBRANCH  21  34
ENDBRANCH   1  21
BRANCH   4  36
HETATM   36  O5  UNL     1      -0.018   6.959  12.162  1.00  0.00    -0.389 OA
HETATM   37  H17 UNL     1       0.575   6.349  12.626  1.00  0.00     0.210 HD
ENDBRANCH   4  36
BRANCH   7  38
HETATM   38  O6  UNL     1       2.728  11.220  13.276  1.00  0.00    -0.392 OA
HETATM   39  H22 UNL     1       3.406  11.876  13.037  1.00  0.00     0.210 HD
ENDBRANCH   7  38
BRANCH   8  40
HETATM   40  O7  UNL     1       4.244   7.928  12.615  1.00  0.00    -0.386 OA
HETATM   41  H23 UNL     1       4.620   8.248  11.776  1.00  0.00     0.210 HD
ENDBRANCH   8  40
TORSDOF 8
ENDMDL
MODEL 5
REMARK minimizedAffinity -10.3474531
REMARK CNNscore 0.652802229
REMARK CNNaffinity 6.73099327
REMARK  8 active torsions:
REMARK  status: ('A' for Active; 'I' for Inactive)
REMARK    1  A    between atoms: C3_3  and  C4_4 
REMARK    2  A    between atoms: C4_4  and  O1_5 
REMARK    3  A    between atoms: C6_9  and  C7_10 
REMARK    4  A    between atoms: C7_10  and  O4_12 
REMARK    5  A    between atoms: C7_10  and  C9_13 
REMARK    6  A    between atoms: C12_16  and  O5_17 
REMARK    7  A    between atoms: C15_20  and  O6_21 
REMARK    8  A    between atoms: C16_22  and  O7_23 
ROOT
HETATM    1  C9  UNL     1       1.731   7.991  14.483  1.00  0.00     0.033 C 
HETATM    2  C10 UNL     1       1.630   9.089  15.592  1.00  0.00     0.011 C 
HETATM    3  C11 UNL     1       0.138   9.324  15.891  1.00  0.00     0.039 C 
HETATM    4  C12 UNL     1      -0.558   8.165  15.189  1.00  0.00     0.070 C 
HETATM    5  C13 UNL     1      -2.070   8.304  14.916  1.00  0.00     0.028 C 
HETATM    6  C14 UNL     1      -2.860   8.554  16.211  1.00  0.00     0.043 C 
HETATM    7  C15 UNL     1      -4.361   8.689  15.959  1.00  0.00     0.154 C 
HETATM    8  C16 UNL     1      -4.916   7.453  15.202  1.00  0.00     0.098 C 
HETATM    9  C17 UNL     1      -6.446   7.566  15.023  1.00  0.00     0.042 C 
HETATM   10  C18 UNL     1      -7.032   6.536  14.055  1.00  0.00     0.010 C 
HETATM   11  C19 UNL     1      -6.099   5.375  13.766  1.00  0.00     0.079 C 
HETATM   12  C20 UNL     1      -4.748   5.858  13.270  1.00  0.00     0.138 C 
HETATM   13  O8  UNL     1      -4.173   5.204  12.396  1.00  0.00    -0.297 OA
HETATM   14  C21 UNL     1      -4.166   7.176  13.848  1.00  0.00     0.054 C 
HETATM   15  C22 UNL     1      -4.435   8.247  12.766  1.00  0.00     0.027 C 
HETATM   16  C23 UNL     1      -2.614   7.047  14.146  1.00  0.00     0.011 C 
HETATM   17  C24 UNL     1      -1.720   6.740  12.910  1.00  0.00     0.007 C 
HETATM   18  C25 UNL     1      -0.200   6.725  13.184  1.00  0.00     0.013 C 
HETATM   19  C26 UNL     1       0.280   8.012  13.879  1.00  0.00    -0.006 C 
HETATM   20  C27 UNL     1       0.111   9.204  12.898  1.00  0.00     0.019 C 
ENDROOT
BRANCH   1  21
HETATM   21  C7  UNL     1       3.012   8.130  13.578  1.00  0.00     0.085 C 
HETATM   22  C8  UNL     1       3.402   9.604  13.393  1.00  0.00     0.049 C 
BRANCH  21  23
HETATM   23  C6  UNL     1       2.758   7.459  12.168  1.00  0.00     0.170 C 
HETATM   24  O3  UNL     1       3.975   6.835  11.704  1.00  0.00    -0.309 OA
HETATM   25  C5  UNL     1       4.021   6.232  10.492  1.00  0.00     0.292 C 
HETATM   26  C3  UNL     1       2.949   6.593   9.520  1.00  0.00     0.042 C 
HETATM   27  O2  UNL     1       4.936   5.474  10.198  1.00  0.00    -0.260 OA
HETATM   28  C2  UNL     1       2.169   7.672   9.757  1.00  0.00    -0.067 C 
HETATM   29  C1  UNL     1       1.152   8.232   8.800  1.00  0.00     0.044 C 
HETATM   30  C28 UNL     1       2.275   8.410  11.069  1.00  0.00     0.070 C 
BRANCH  26  31
HETATM   31  C4  UNL     1       2.925   5.764   8.267  1.00  0.00     0.209 C 
BRANCH  31  32
HETATM   32  O1  UNL     1       3.466   4.471   8.529  1.00  0.00    -0.396 OA
HETATM   33  H6  UNL     1       3.010   4.108   9.306  1.00  0.00     0.209 HD
ENDBRANCH  31  32
ENDBRANCH  26  31
ENDBRANCH  21  23
BRANCH  21  34
HETATM   34  O4  UNL     1       4.113   7.492  14.237  1.00  0.00    -0.387 OA
HETATM   35  H11 UNL     1       4.894   7.511  13.660  1.00  0.00     0.210 HD
ENDBRANCH  21  34
ENDBRANCH   1  21
BRANCH   4  36
HETATM   36  O5  UNL     1      -0.355   7.043  16.075  1.00  0.00    -0.389 OA
HETATM   37  H17 UNL     1      -0.715   6.238  15.672  1.00  0.00     0.210 HD
ENDBRANCH   4  36
BRANCH   7  38
HETATM   38  O6  UNL     1      -4.607   9.908  15.266  1.00  0.00    -0.392 OA
HETATM   39  H22 UNL     1      -5.457  10.267  15.575  1.00  0.00     0.210 HD
ENDBRANCH   7  38
BRANCH   8  40
HETATM   40  O7  UNL     1      -4.689   6.313  16.067  1.00  0.00    -0.386 OA
HETATM   41  H23 UNL     1      -5.075   6.497  16.942  1.00  0.00     0.210 HD
ENDBRANCH   8  40
TORSDOF 8
ENDMDL
MODEL 6
REMARK minimizedAffinity -9.06949329
REMARK CNNscore 0.607681513
REMARK CNNaffinity 6.93038416
REMARK  8 active torsions:
REMARK  status: ('A' for Active; 'I' for Inactive)
REMARK    1  A    between atoms: C3_3  and  C4_4 
REMARK    2  A    between atoms: C4_4  and  O1_5 
REMARK    3  A    between atoms: C6_9  and  C7_10 
REMARK    4  A    between atoms: C7_10  and  O4_12 
REMARK    5  A    between atoms: C7_10  and  C9_13 
REMARK    6  A    between atoms: C12_16  and  O5_17 
REMARK    7  A    between atoms: C15_20  and  O6_21 
REMARK    8  A    between atoms: C16_22  and  O7_23 
ROOT
HETATM    1  C9  UNL     1      -1.982   5.671  12.928  1.00  0.00     0.033 C 
HETATM    2  C10 UNL     1      -2.312   4.153  12.742  1.00  0.00     0.011 C 
HETATM    3  C11 UNL     1      -3.759   3.923  13.216  1.00  0.00     0.039 C 
HETATM    4  C12 UNL     1      -4.319   5.331  13.368  1.00  0.00     0.070 C 
HETATM    5  C13 UNL     1      -5.592   5.502  14.223  1.00  0.00     0.028 C 
HETATM    6  C14 UNL     1      -6.749   4.638  13.697  1.00  0.00     0.043 C 
HETATM    7  C15 UNL     1      -8.020   4.799  14.529  1.00  0.00     0.154 C 
HETATM    8  C16 UNL     1      -8.441   6.289  14.627  1.00  0.00     0.098 C 
HETATM    9  C17 UNL     1      -9.768   6.430  15.404  1.00  0.00     0.042 C 
HETATM   10  C18 UNL     1     -10.112   7.873  15.783  1.00  0.00     0.010 C 
HETATM   11  C19 UNL     1      -9.321   8.908  15.006  1.00  0.00     0.079 C 
HETATM   12  C20 UNL     1      -7.826   8.672  15.127  1.00  0.00     0.138 C 
HETATM   13  O8  UNL     1      -7.079   9.651  15.200  1.00  0.00    -0.297 OA
HETATM   14  C21 UNL     1      -7.303   7.213  15.198  1.00  0.00     0.054 C 
HETATM   15  C22 UNL     1      -7.001   6.961  16.693  1.00  0.00     0.027 C 
HETATM   16  C23 UNL     1      -6.001   7.016  14.314  1.00  0.00     0.011 C 
HETATM   17  C24 UNL     1      -4.778   7.884  14.727  1.00  0.00     0.007 C 
HETATM   18  C25 UNL     1      -3.480   7.611  13.936  1.00  0.00     0.013 C 
HETATM   19  C26 UNL     1      -3.097   6.120  13.942  1.00  0.00    -0.006 C 
HETATM   20  C27 UNL     1      -2.722   5.704  15.390  1.00  0.00     0.019 C 
ENDROOT
BRANCH   1  21
HETATM   21  C7  UNL     1      -0.456   5.953  13.191  1.00  0.00     0.085 C 
HETATM   22  C8  UNL     1      -0.267   7.182  14.092  1.00  0.00     0.049 C 
BRANCH  21  23
HETATM   23  C6  UNL     1       0.303   6.169  11.820  1.00  0.00     0.170 C 
HETATM   24  O3  UNL     1       1.727   6.219  12.058  1.00  0.00    -0.309 OA
HETATM   25  C5  UNL     1       2.588   6.445  11.038  1.00  0.00     0.292 C 
HETATM   26  C3  UNL     1       2.017   7.038   9.794  1.00  0.00     0.042 C 
HETATM   27  O2  UNL     1       3.785   6.223  11.161  1.00  0.00    -0.260 OA
HETATM   28  C2  UNL     1       0.777   7.576   9.820  1.00  0.00    -0.067 C 
HETATM   29  C1  UNL     1       0.137   8.330   8.687  1.00  0.00     0.044 C 
HETATM   30  C28 UNL     1      -0.084   7.435  11.051  1.00  0.00     0.070 C 
BRANCH  26  31
HETATM   31  C4  UNL     1       2.962   7.092   8.627  1.00  0.00     0.209 C 
BRANCH  31  32
HETATM   32  O1  UNL     1       2.720   5.990   7.754  1.00  0.00    -0.396 OA
HETATM   33  H6  UNL     1       1.771   5.973   7.552  1.00  0.00     0.209 HD
ENDBRANCH  31  32
ENDBRANCH  26  31
ENDBRANCH  21  23
BRANCH  21  34
HETATM   34  O4  UNL     1       0.104   4.837  13.895  1.00  0.00    -0.387 OA
HETATM   35  H11 UNL     1       1.061   4.967  14.005  1.00  0.00     0.210 HD
ENDBRANCH  21  34
ENDBRANCH   1  21
BRANCH   4  36
HETATM   36  O5  UNL     1      -4.618   5.739  12.016  1.00  0.00    -0.389 OA
HETATM   37  H17 UNL     1      -4.924   6.660  12.011  1.00  0.00     0.210 HD
ENDBRANCH   4  36
BRANCH   7  38
HETATM   38  O6  UNL     1      -7.815   4.207  15.807  1.00  0.00    -0.392 OA
HETATM   39  H22 UNL     1      -8.655   3.811  16.098  1.00  0.00     0.210 HD
ENDBRANCH   7  38
BRANCH   8  40
HETATM   40  O7  UNL     1      -8.714   6.722  13.271  1.00  0.00    -0.386 OA
HETATM   41  H23 UNL     1      -9.358   6.113  12.867  1.00  0.00     0.210 HD
ENDBRANCH   8  40
TORSDOF 8
ENDMDL
MODEL 7
REMARK minimizedAffinity -8.60578823
REMARK CNNscore 0.605479836
REMARK CNNaffinity 5.36304331
REMARK  8 active torsions:
REMARK  status: ('A' for Active; 'I' for Inactive)
REMARK    1  A    between atoms: C3_3  and  C4_4 
REMARK    2  A    between atoms: C4_4  and  O1_5 
REMARK    3  A    between atoms: C6_9  and  C7_10 
REMARK    4  A    between atoms: C7_10  and  O4_12 
REMARK    5  A    between atoms: C7_10  and  C9_13 
REMARK    6  A    between atoms: C12_16  and  O5_17 
REMARK    7  A    between atoms: C15_20  and  O6_21 
REMARK    8  A    between atoms: C16_22  and  O7_23 
ROOT
HETATM    1  C9  UNL     1     -16.556   3.188  14.491  1.00  0.00     0.033 C 
HETATM    2  C10 UNL     1     -16.695   3.045  16.042  1.00  0.00     0.011 C 
HETATM    3  C11 UNL     1     -16.509   1.559  16.399  1.00  0.00     0.039 C 
HETATM    4  C12 UNL     1     -15.972   0.943  15.113  1.00  0.00     0.070 C 
HETATM    5  C13 UNL     1     -16.068  -0.590  14.966  1.00  0.00     0.028 C 
HETATM    6  C14 UNL     1     -15.356  -1.317  16.117  1.00  0.00     0.043 C 
HETATM    7  C15 UNL     1     -15.436  -2.837  15.983  1.00  0.00     0.154 C 
HETATM    8  C16 UNL     1     -14.892  -3.309  14.609  1.00  0.00     0.098 C 
HETATM    9  C17 UNL     1     -14.907  -4.850  14.517  1.00  0.00     0.042 C 
HETATM   10  C18 UNL     1     -14.648  -5.387  13.107  1.00  0.00     0.010 C 
HETATM   11  C19 UNL     1     -14.047  -4.360  12.167  1.00  0.00     0.079 C 
HETATM   12  C20 UNL     1     -14.892  -3.100  12.106  1.00  0.00     0.138 C 
HETATM   13  O8  UNL     1     -15.005  -2.518  11.025  1.00  0.00    -0.297 OA
HETATM   14  C21 UNL     1     -15.616  -2.622  13.393  1.00  0.00     0.054 C 
HETATM   15  C22 UNL     1     -17.087  -3.068  13.223  1.00  0.00     0.027 C 
HETATM   16  C23 UNL     1     -15.516  -1.049  13.568  1.00  0.00     0.011 C 
HETATM   17  C24 UNL     1     -16.161  -0.209  12.428  1.00  0.00     0.007 C 
HETATM   18  C25 UNL     1     -16.161   1.319  12.655  1.00  0.00     0.013 C 
HETATM   19  C26 UNL     1     -16.776   1.707  14.012  1.00  0.00    -0.006 C 
HETATM   20  C27 UNL     1     -18.288   1.353  13.997  1.00  0.00     0.019 C 
ENDROOT
BRANCH   1  21
HETATM   21  C7  UNL     1     -17.383   4.387  13.895  1.00  0.00     0.085 C 
HETATM   22  C8  UNL     1     -17.940   4.039  12.506  1.00  0.00     0.049 C 
BRANCH  21  23
HETATM   23  C6  UNL     1     -16.480   5.682  13.804  1.00  0.00     0.170 C 
HETATM   24  O3  UNL     1     -16.528   6.212  12.462  1.00  0.00    -0.309 OA
HETATM   25  C5  UNL     1     -15.793   7.298  12.124  1.00  0.00     0.292 C 
HETATM   26  C3  UNL     1     -14.659   7.651  13.026  1.00  0.00     0.042 C 
HETATM   27  O2  UNL     1     -16.021   7.919  11.094  1.00  0.00    -0.260 OA
HETATM   28  C2  UNL     1     -14.237   6.756  13.947  1.00  0.00    -0.067 C 
HETATM   29  C1  UNL     1     -13.022   6.920  14.820  1.00  0.00     0.044 C 
HETATM   30  C28 UNL     1     -15.007   5.478  14.170  1.00  0.00     0.070 C 
BRANCH  26  31
HETATM   31  C4  UNL     1     -13.994   8.965  12.724  1.00  0.00     0.209 C 
BRANCH  31  32
HETATM   32  O1  UNL     1     -12.683   8.740  12.210  1.00  0.00    -0.396 OA
HETATM   33  H6  UNL     1     -12.754   8.104  11.480  1.00  0.00     0.209 HD
ENDBRANCH  31  32
ENDBRANCH  26  31
ENDBRANCH  21  23
BRANCH  21  34
HETATM   34  O4  UNL     1     -18.514   4.633  14.742  1.00  0.00    -0.387 OA
HETATM   35  H11 UNL     1     -18.997   5.413  14.423  1.00  0.00     0.210 HD
ENDBRANCH  21  34
ENDBRANCH   1  21
BRANCH   4  36
HETATM   36  O5  UNL     1     -14.577   1.317  15.100  1.00  0.00    -0.389 OA
HETATM   37  H17 UNL     1     -14.166   1.017  14.274  1.00  0.00     0.210 HD
ENDBRANCH   4  36
BRANCH   7  38
HETATM   38  O6  UNL     1     -16.780  -3.251  16.207  1.00  0.00    -0.392 OA
HETATM   39  H22 UNL     1     -16.761  -4.112  16.660  1.00  0.00     0.210 HD
ENDBRANCH   7  38
BRANCH   8  40
HETATM   40  O7  UNL     1     -13.499  -2.911  14.567  1.00  0.00    -0.386 OA
HETATM   41  H23 UNL     1     -13.047  -3.257  15.357  1.00  0.00     0.210 HD
ENDBRANCH   8  40
TORSDOF 8
ENDMDL
MODEL 8
REMARK minimizedAffinity -8.23999882
REMARK CNNscore 0.595951557
REMARK CNNaffinity 5.14902067
REMARK  8 active torsions:
REMARK  status: ('A' for Active; 'I' for Inactive)
REMARK    1  A    between atoms: C3_3  and  C4_4 
REMARK    2  A    between atoms: C4_4  and  O1_5 
REMARK    3  A    between atoms: C6_9  and  C7_10 
REMARK    4  A    between atoms: C7_10  and  O4_12 
REMARK    5  A    between atoms: C7_10  and  C9_13 
REMARK    6  A    between atoms: C12_16  and  O5_17 
REMARK    7  A    between atoms: C15_20  and  O6_21 
REMARK    8  A    between atoms: C16_22  and  O7_23 
ROOT
HETATM    1  C9  UNL     1     -17.507   2.163  14.834  1.00  0.00     0.033 C 
HETATM    2  C10 UNL     1     -17.176   2.541  13.353  1.00  0.00     0.011 C 
HETATM    3  C11 UNL     1     -16.442   1.349  12.713  1.00  0.00     0.039 C 
HETATM    4  C12 UNL     1     -16.639   0.221  13.718  1.00  0.00     0.070 C 
HETATM    5  C13 UNL     1     -15.693  -0.994  13.617  1.00  0.00     0.028 C 
HETATM    6  C14 UNL     1     -15.755  -1.647  12.227  1.00  0.00     0.043 C 
HETATM    7  C15 UNL     1     -14.828  -2.856  12.112  1.00  0.00     0.154 C 
HETATM    8  C16 UNL     1     -15.121  -3.896  13.225  1.00  0.00     0.098 C 
HETATM    9  C17 UNL     1     -14.232  -5.146  13.051  1.00  0.00     0.042 C 
HETATM   10  C18 UNL     1     -14.257  -6.095  14.252  1.00  0.00     0.010 C 
HETATM   11  C19 UNL     1     -15.419  -5.848  15.195  1.00  0.00     0.079 C 
HETATM   12  C20 UNL     1     -15.460  -4.404  15.661  1.00  0.00     0.138 C 
HETATM   13  O8  UNL     1     -15.797  -4.170  16.824  1.00  0.00    -0.297 OA
HETATM   14  C21 UNL     1     -15.033  -3.286  14.673  1.00  0.00     0.054 C 
HETATM   15  C22 UNL     1     -13.594  -2.902  15.090  1.00  0.00     0.027 C 
HETATM   16  C23 UNL     1     -16.001  -2.034  14.754  1.00  0.00     0.011 C 
HETATM   17  C24 UNL     1     -16.058  -1.324  16.137  1.00  0.00     0.007 C 
HETATM   18  C25 UNL     1     -16.916  -0.040  16.183  1.00  0.00     0.013 C 
HETATM   19  C26 UNL     1     -16.520   0.966  15.087  1.00  0.00    -0.006 C 
HETATM   20  C27 UNL     1     -15.087   1.489  15.381  1.00  0.00     0.019 C 
ENDROOT
BRANCH   1  21
HETATM   21  C7  UNL     1     -17.574   3.405  15.799  1.00  0.00     0.085 C 
HETATM   22  C8  UNL     1     -19.023   3.715  16.203  1.00  0.00     0.049 C 
BRANCH  21  23
HETATM   23  C6  UNL     1     -16.926   4.670  15.105  1.00  0.00     0.170 C 
HETATM   24  O3  UNL     1     -17.627   4.960  13.877  1.00  0.00    -0.309 OA
HETATM   25  C5  UNL     1     -17.223   5.976  13.077  1.00  0.00     0.292 C 
HETATM   26  C3  UNL     1     -15.837   6.486  13.285  1.00  0.00     0.042 C 
HETATM   27  O2  UNL     1     -17.948   6.408  12.191  1.00  0.00    -0.260 OA
HETATM   28  C2  UNL     1     -14.966   5.767  14.028  1.00  0.00    -0.067 C 
HETATM   29  C1  UNL     1     -13.506   6.086  14.201  1.00  0.00     0.044 C 
HETATM   30  C28 UNL     1     -15.437   4.541  14.772  1.00  0.00     0.070 C 
BRANCH  26  31
HETATM   31  C4  UNL     1     -15.499   7.732  12.515  1.00  0.00     0.209 C 
BRANCH  31  32
HETATM   32  O1  UNL     1     -15.724   7.520  11.123  1.00  0.00    -0.396 OA
HETATM   33  H6  UNL     1     -16.622   7.167  11.017  1.00  0.00     0.209 HD
ENDBRANCH  31  32
ENDBRANCH  26  31
ENDBRANCH  21  23
BRANCH  21  34
HETATM   34  O4  UNL     1     -16.868   3.088  17.006  1.00  0.00    -0.387 OA
HETATM   35  H11 UNL     1     -16.844   3.869  17.584  1.00  0.00     0.210 HD
ENDBRANCH  21  34
ENDBRANCH   1  21
BRANCH   4  36
HETATM   36  O5  UNL     1     -17.990  -0.230  13.482  1.00  0.00    -0.389 OA
HETATM   37  H17 UNL     1     -18.225  -0.913  14.129  1.00  0.00     0.210 HD
ENDBRANCH   4  36
BRANCH   7  38
HETATM   38  O6  UNL     1     -13.477  -2.408  12.127  1.00  0.00    -0.392 OA
HETATM   39  H22 UNL     1     -12.958  -2.985  11.540  1.00  0.00     0.210 HD
ENDBRANCH   7  38
BRANCH   8  40
HETATM   40  O7  UNL     1     -16.487  -4.335  13.021  1.00  0.00    -0.386 OA
HETATM   41  H23 UNL     1     -16.587  -4.641  12.102  1.00  0.00     0.210 HD
ENDBRANCH   8  40
TORSDOF 8
ENDMDL
MODEL 9
REMARK minimizedAffinity -8.10885906
REMARK CNNscore 0.572726369
REMARK CNNaffinity 5.56529284
REMARK  8 active torsions:
REMARK  status: ('A' for Active; 'I' for Inactive)
REMARK    1  A    between atoms: C3_3  and  C4_4 
REMARK    2  A    between atoms: C4_4  and  O1_5 
REMARK    3  A    between atoms: C6_9  and  C7_10 
REMARK    4  A    between atoms: C7_10  and  O4_12 
REMARK    5  A    between atoms: C7_10  and  C9_13 
REMARK    6  A    between atoms: C12_16  and  O5_17 
REMARK    7  A    between atoms: C15_20  and  O6_21 
REMARK    8  A    between atoms: C16_22  and  O7_23 
ROOT
HETATM    1  C9  UNL     1      -2.027   7.849  15.041  1.00  0.00     0.033 C 
HETATM    2  C10 UNL     1      -2.440   7.566  16.523  1.00  0.00     0.011 C 
HETATM    3  C11 UNL     1      -2.713   8.919  17.205  1.00  0.00     0.039 C 
HETATM    4  C12 UNL     1      -2.751   9.907  16.045  1.00  0.00     0.070 C 
HETATM    5  C13 UNL     1      -2.581  11.403  16.381  1.00  0.00     0.028 C 
HETATM    6  C14 UNL     1      -3.641  11.884  17.386  1.00  0.00     0.043 C 
HETATM    7  C15 UNL     1      -3.490  13.366  17.725  1.00  0.00     0.154 C 
HETATM    8  C16 UNL     1      -3.507  14.239  16.442  1.00  0.00     0.098 C 
HETATM    9  C17 UNL     1      -3.432  15.739  16.804  1.00  0.00     0.042 C 
HETATM   10  C18 UNL     1      -3.168  16.651  15.603  1.00  0.00     0.010 C 
HETATM   11  C19 UNL     1      -3.418  15.981  14.266  1.00  0.00     0.079 C 
HETATM   12  C20 UNL     1      -2.628  14.691  14.133  1.00  0.00     0.138 C 
HETATM   13  O8  UNL     1      -2.153  14.401  13.033  1.00  0.00    -0.297 OA
HETATM   14  C21 UNL     1      -2.414  13.813  15.395  1.00  0.00     0.054 C 
HETATM   15  C22 UNL     1      -0.969  14.113  15.859  1.00  0.00     0.027 C 
HETATM   16  C23 UNL     1      -2.597  12.271  15.072  1.00  0.00     0.011 C 
HETATM   17  C24 UNL     1      -1.607  11.688  14.023  1.00  0.00     0.007 C 
HETATM   18  C25 UNL     1      -1.715  10.165  13.791  1.00  0.00     0.013 C 
HETATM   19  C26 UNL     1      -1.625   9.367  15.106  1.00  0.00    -0.006 C 
HETATM   20  C27 UNL     1      -0.199   9.534  15.696  1.00  0.00     0.019 C 
ENDROOT
BRANCH   1  21
HETATM   21  C7  UNL     1      -1.064   6.758  14.440  1.00  0.00     0.085 C 
HETATM   22  C8  UNL     1      -0.111   7.372  13.404  1.00  0.00     0.049 C 
BRANCH  21  23
HETATM   23  C6  UNL     1      -1.905   5.595  13.774  1.00  0.00     0.170 C 
HETATM   24  O3  UNL     1      -1.303   5.222  12.516  1.00  0.00    -0.309 OA
HETATM   25  C5  UNL     1      -1.873   4.274  11.735  1.00  0.00     0.292 C 
HETATM   26  C3  UNL     1      -3.304   3.953  12.002  1.00  0.00     0.042 C 
HETATM   27  O2  UNL     1      -1.251   3.754  10.818  1.00  0.00    -0.260 OA
HETATM   28  C2  UNL     1      -4.038   4.777  12.783  1.00  0.00    -0.067 C 
HETATM   29  C1  UNL     1      -5.519   4.655  13.019  1.00  0.00     0.044 C 
HETATM   30  C28 UNL     1      -3.376   5.924  13.506  1.00  0.00     0.070 C 
BRANCH  26  31
HETATM   31  C4  UNL     1      -3.839   2.768  11.248  1.00  0.00     0.209 C 
BRANCH  31  32
HETATM   32  O1  UNL     1      -2.994   1.638  11.453  1.00  0.00    -0.396 OA
HETATM   33  H6  UNL     1      -2.866   1.531  12.410  1.00  0.00     0.209 HD
ENDBRANCH  31  32
ENDBRANCH  26  31
ENDBRANCH  21  23
BRANCH  21  34
HETATM   34  O4  UNL     1      -0.246   6.234  15.494  1.00  0.00    -0.387 OA
HETATM   35  H11 UNL     1       0.307   5.513  15.150  1.00  0.00     0.210 HD
ENDBRANCH  21  34
ENDBRANCH   1  21
BRANCH   4  36
HETATM   36  O5  UNL     1      -4.058   9.715  15.462  1.00  0.00    -0.389 OA
HETATM   37  H17 UNL     1      -4.147  10.265  14.669  1.00  0.00     0.210 HD
ENDBRANCH   4  36
BRANCH   7  38
HETATM   38  O6  UNL     1      -2.305  13.548  18.491  1.00  0.00    -0.392 OA
HETATM   39  H22 UNL     1      -2.466  14.257  19.138  1.00  0.00     0.210 HD
ENDBRANCH   7  38
BRANCH   8  40
HETATM   40  O7  UNL     1      -4.803  14.031  15.828  1.00  0.00    -0.386 OA
HETATM   41  H23 UNL     1      -5.498  14.210  16.486  1.00  0.00     0.210 HD
ENDBRANCH   8  40
TORSDOF 8
ENDMDL
