MODEL 1
REMARK minimizedAffinity -6.9254241
REMARK CNNscore 0.679234803
REMARK CNNaffinity 6.35424566
REMARK  5 active torsions:
REMARK  status: ('A' for Active; 'I' for Inactive)
REMARK    1  A    between atoms: C2_2  and  C4_4 
REMARK    2  A    between atoms: C7_7  and  C8_8 
REMARK    3  A    between atoms: C8_8  and  O2_10 
REMARK    4  A    between atoms: C11_13  and  C12_14 
REMARK    5  A    between atoms: C12_14  and  O4_16 
ROOT
HETATM    1  C4  UNL     1      -2.298  52.123 -11.634  1.00  0.00     0.019 C 
HETATM    2  C5  UNL     1      -3.014  50.757 -11.808  1.00  0.00     0.011 C 
HETATM    3  C6  UNL     1      -2.015  49.671 -11.378  1.00  0.00     0.021 C 
HETATM    4  C7  UNL     1      -0.646  50.338 -11.556  1.00  0.00     0.050 C 
HETATM    5  C9  UNL     1       0.495  49.711 -10.744  1.00  0.00     0.022 C 
HETATM    6  C10 UNL     1       1.750  50.611 -10.781  1.00  0.00     0.023 C 
HETATM    7  C11 UNL     1       1.504  52.074 -10.260  1.00  0.00     0.057 C 
HETATM    8  C13 UNL     1       0.286  52.678 -11.077  1.00  0.00     0.011 C 
HETATM    9  C14 UNL     1      -0.012  54.143 -10.729  1.00  0.00     0.007 C 
HETATM   10  C15 UNL     1       1.227  55.040 -10.777  1.00  0.00     0.006 C 
HETATM   11  C16 UNL     1       2.409  54.483  -9.951  1.00  0.00     0.003 C 
HETATM   12  C17 UNL     1       3.576  55.534  -9.715  1.00  0.00    -0.035 C 
HETATM   13  C18 UNL     1       4.061  56.184 -11.043  1.00  0.00     0.016 C 
HETATM   14  C19 UNL     1       3.004  56.714  -8.857  1.00  0.00     0.017 C 
HETATM   15  C20 UNL     1       4.061  57.469  -8.073  1.00  0.00     0.080 C 
HETATM   16  C21 UNL     1       4.817  56.569  -7.121  1.00  0.00     0.135 C 
HETATM   17  O5  UNL     1       5.395  57.071  -6.151  1.00  0.00    -0.297 OA
HETATM   18  C22 UNL     1       4.874  55.059  -7.432  1.00  0.00     0.017 C 
HETATM   19  C23 UNL     1       3.757  54.366  -6.641  1.00  0.00     0.023 C 
HETATM   20  C24 UNL     1       6.217  54.530  -6.872  1.00  0.00     0.023 C 
HETATM   21  C25 UNL     1       4.832  54.902  -8.998  1.00  0.00     0.009 C 
HETATM   22  C26 UNL     1       5.170  53.500  -9.544  1.00  0.00     0.007 C 
HETATM   23  C27 UNL     1       3.995  52.532  -9.588  1.00  0.00     0.011 C 
HETATM   24  C28 UNL     1       2.798  53.034 -10.432  1.00  0.00    -0.022 C 
HETATM   25  C29 UNL     1       3.259  53.018 -11.921  1.00  0.00     0.017 C 
HETATM   26  C30 UNL     1      -0.945  51.744 -10.986  1.00  0.00     0.018 C 
ENDROOT
BRANCH   4  27
HETATM   27  C8  UNL     1      -0.288  50.188 -13.045  1.00  0.00     0.149 C 
HETATM   28  O1  UNL     1       0.004  51.109 -13.793  1.00  0.00    -0.649 OA
BRANCH  27  29
HETATM   29  O2  UNL     1      -0.276  48.936 -13.521  1.00  0.00    -0.776 OA
HETATM   30  H11 UNL     1       0.025  49.038 -14.448  1.00  0.00     0.167 HD
ENDBRANCH  27  29
ENDBRANCH   4  27
BRANCH   1  31
HETATM   31  C2  UNL     1      -3.177  53.111 -10.885  1.00  0.00    -0.088 C 
HETATM   32  C1  UNL     1      -4.429  52.785 -10.521  1.00  0.00     0.014 C 
HETATM   33  C3  UNL     1      -2.610  54.458 -10.521  1.00  0.00     0.043 C 
ENDBRANCH   1  31
BRANCH   7  34
HETATM   34  C12 UNL     1       1.127  51.965  -8.754  1.00  0.00     0.149 C 
HETATM   35  O3  UNL     1       1.719  51.344  -7.886  1.00  0.00    -0.649 OA
BRANCH  34  36
HETATM   36  O4  UNL     1       0.017  52.646  -8.406  1.00  0.00    -0.776 OA
HETATM   37  H16 UNL     1      -0.071  52.484  -7.444  1.00  0.00     0.167 HD
ENDBRANCH  34  36
ENDBRANCH   7  34
TORSDOF 5
ENDMDL
MODEL 2
REMARK minimizedAffinity -7.04927444
REMARK CNNscore 0.564112186
REMARK CNNaffinity 6.30343008
REMARK  5 active torsions:
REMARK  status: ('A' for Active; 'I' for Inactive)
REMARK    1  A    between atoms: C2_2  and  C4_4 
REMARK    2  A    between atoms: C7_7  and  C8_8 
REMARK    3  A    between atoms: C8_8  and  O2_10 
REMARK    4  A    between atoms: C11_13  and  C12_14 
REMARK    5  A    between atoms: C12_14  and  O4_16 
ROOT
HETATM    1  C4  UNL     1       2.303  55.626  -9.339  1.00  0.00     0.019 C 
HETATM    2  C5  UNL     1       2.913  56.153  -8.013  1.00  0.00     0.011 C 
HETATM    3  C6  UNL     1       2.133  55.488  -6.868  1.00  0.00     0.021 C 
HETATM    4  C7  UNL     1       0.789  55.115  -7.504  1.00  0.00     0.050 C 
HETATM    5  C9  UNL     1       0.011  54.006  -6.783  1.00  0.00     0.022 C 
HETATM    6  C10 UNL     1      -1.177  53.523  -7.645  1.00  0.00     0.023 C 
HETATM    7  C11 UNL     1      -0.764  53.006  -9.071  1.00  0.00     0.057 C 
HETATM    8  C13 UNL     1       0.084  54.149  -9.772  1.00  0.00     0.011 C 
HETATM    9  C14 UNL     1       0.483  53.810 -11.215  1.00  0.00     0.007 C 
HETATM   10  C15 UNL     1      -0.693  53.344 -12.075  1.00  0.00     0.006 C 
HETATM   11  C16 UNL     1      -1.504  52.201 -11.422  1.00  0.00     0.003 C 
HETATM   12  C17 UNL     1      -2.514  51.483 -12.415  1.00  0.00    -0.035 C 
HETATM   13  C18 UNL     1      -3.439  52.496 -13.149  1.00  0.00     0.016 C 
HETATM   14  C19 UNL     1      -1.676  50.790 -13.544  1.00  0.00     0.017 C 
HETATM   15  C20 UNL     1      -2.387  49.624 -14.205  1.00  0.00     0.080 C 
HETATM   16  C21 UNL     1      -2.755  48.543 -13.213  1.00  0.00     0.135 C 
HETATM   17  O5  UNL     1      -2.952  47.394 -13.623  1.00  0.00    -0.297 OA
HETATM   18  C22 UNL     1      -2.916  48.935 -11.731  1.00  0.00     0.017 C 
HETATM   19  C23 UNL     1      -1.590  48.650 -11.014  1.00  0.00     0.023 C 
HETATM   20  C24 UNL     1      -3.972  47.982 -11.120  1.00  0.00     0.023 C 
HETATM   21  C25 UNL     1      -3.433  50.423 -11.693  1.00  0.00     0.009 C 
HETATM   22  C26 UNL     1      -3.940  50.926 -10.327  1.00  0.00     0.007 C 
HETATM   23  C27 UNL     1      -2.855  51.462  -9.402  1.00  0.00     0.011 C 
HETATM   24  C28 UNL     1      -2.036  52.631 -10.002  1.00  0.00    -0.022 C 
HETATM   25  C29 UNL     1      -2.996  53.856 -10.084  1.00  0.00     0.017 C 
HETATM   26  C30 UNL     1       1.268  54.575  -8.872  1.00  0.00     0.018 C 
ENDROOT
BRANCH   4  27
HETATM   27  C8  UNL     1      -0.074  56.388  -7.457  1.00  0.00     0.149 C 
HETATM   28  O1  UNL     1      -0.811  56.771  -8.353  1.00  0.00    -0.649 OA
BRANCH  27  29
HETATM   29  O2  UNL     1      -0.013  57.094  -6.319  1.00  0.00    -0.776 OA
HETATM   30  H11 UNL     1      -0.660  57.817  -6.455  1.00  0.00     0.167 HD
ENDBRANCH  27  29
ENDBRANCH   4  27
BRANCH   1  31
HETATM   31  C2  UNL     1       3.389  55.159 -10.295  1.00  0.00    -0.088 C 
HETATM   32  C1  UNL     1       3.852  55.968 -11.262  1.00  0.00     0.014 C 
HETATM   33  C3  UNL     1       3.969  53.781 -10.118  1.00  0.00     0.043 C 
ENDBRANCH   1  31
BRANCH   7  34
HETATM   34  C12 UNL     1       0.123  51.745  -8.861  1.00  0.00     0.149 C 
HETATM   35  O3  UNL     1      -0.024  50.867  -8.024  1.00  0.00    -0.649 OA
BRANCH  34  36
HETATM   36  O4  UNL     1       1.161  51.644  -9.715  1.00  0.00    -0.776 OA
HETATM   37  H16 UNL     1       1.601  50.807  -9.458  1.00  0.00     0.167 HD
ENDBRANCH  34  36
ENDBRANCH   7  34
TORSDOF 5
ENDMDL
MODEL 3
REMARK minimizedAffinity -6.30104923
REMARK CNNscore 0.457535148
REMARK CNNaffinity 5.59319544
REMARK  5 active torsions:
REMARK  status: ('A' for Active; 'I' for Inactive)
REMARK    1  A    between atoms: C2_2  and  C4_4 
REMARK    2  A    between atoms: C7_7  and  C8_8 
REMARK    3  A    between atoms: C8_8  and  O2_10 
REMARK    4  A    between atoms: C11_13  and  C12_14 
REMARK    5  A    between atoms: C12_14  and  O4_16 
ROOT
HETATM    1  C4  UNL     1     -17.677  46.174 -21.834  1.00  0.00     0.019 C 
HETATM    2  C5  UNL     1     -19.165  45.738 -21.757  1.00  0.00     0.011 C 
HETATM    3  C6  UNL     1     -19.425  44.825 -22.966  1.00  0.00     0.021 C 
HETATM    4  C7  UNL     1     -18.347  45.234 -23.976  1.00  0.00     0.050 C 
HETATM    5  C9  UNL     1     -18.025  44.183 -25.047  1.00  0.00     0.022 C 
HETATM    6  C10 UNL     1     -16.754  44.576 -25.833  1.00  0.00     0.023 C 
HETATM    7  C11 UNL     1     -15.483  44.783 -24.931  1.00  0.00     0.057 C 
HETATM    8  C13 UNL     1     -15.859  45.831 -23.801  1.00  0.00     0.011 C 
HETATM    9  C14 UNL     1     -14.676  46.196 -22.893  1.00  0.00     0.007 C 
HETATM   10  C15 UNL     1     -13.420  46.597 -23.668  1.00  0.00     0.006 C 
HETATM   11  C16 UNL     1     -13.018  45.564 -24.745  1.00  0.00     0.003 C 
HETATM   12  C17 UNL     1     -11.559  45.786 -25.332  1.00  0.00    -0.035 C 
HETATM   13  C18 UNL     1     -11.337  47.244 -25.825  1.00  0.00     0.016 C 
HETATM   14  C19 UNL     1     -10.529  45.577 -24.168  1.00  0.00     0.017 C 
HETATM   15  C20 UNL     1      -9.143  45.181 -24.641  1.00  0.00     0.080 C 
HETATM   16  C21 UNL     1      -9.159  43.896 -25.440  1.00  0.00     0.135 C 
HETATM   17  O5  UNL     1      -8.118  43.237 -25.538  1.00  0.00    -0.297 OA
HETATM   18  C22 UNL     1     -10.470  43.487 -26.142  1.00  0.00     0.017 C 
HETATM   19  C23 UNL     1     -11.219  42.512 -25.224  1.00  0.00     0.023 C 
HETATM   20  C24 UNL     1     -10.078  42.698 -27.415  1.00  0.00     0.023 C 
HETATM   21  C25 UNL     1     -11.227  44.813 -26.529  1.00  0.00     0.009 C 
HETATM   22  C26 UNL     1     -12.418  44.652 -27.496  1.00  0.00     0.007 C 
HETATM   23  C27 UNL     1     -13.739  44.298 -26.826  1.00  0.00     0.011 C 
HETATM   24  C28 UNL     1     -14.199  45.322 -25.760  1.00  0.00    -0.022 C 
HETATM   25  C29 UNL     1     -14.587  46.624 -26.525  1.00  0.00     0.017 C 
HETATM   26  C30 UNL     1     -17.125  45.374 -23.038  1.00  0.00     0.018 C 
ENDROOT
BRANCH   4  27
HETATM   27  C8  UNL     1     -18.888  46.479 -24.700  1.00  0.00     0.149 C 
HETATM   28  O1  UNL     1     -20.027  46.606 -25.124  1.00  0.00    -0.649 OA
BRANCH  27  29
HETATM   29  O2  UNL     1     -18.028  47.498 -24.832  1.00  0.00    -0.776 OA
HETATM   30  H11 UNL     1     -18.561  48.204 -25.254  1.00  0.00     0.167 HD
ENDBRANCH  27  29
ENDBRANCH   4  27
BRANCH   1  31
HETATM   31  C2  UNL     1     -16.982  45.989 -20.495  1.00  0.00    -0.088 C 
HETATM   32  C1  UNL     1     -16.590  44.771 -20.083  1.00  0.00     0.014 C 
HETATM   33  C3  UNL     1     -16.703  47.201 -19.647  1.00  0.00     0.043 C 
ENDBRANCH   1  31
BRANCH   7  34
HETATM   34  C12 UNL     1     -15.151  43.407 -24.285  1.00  0.00     0.149 C 
HETATM   35  O3  UNL     1     -15.137  42.316 -24.833  1.00  0.00    -0.649 OA
BRANCH  34  36
HETATM   36  O4  UNL     1     -14.851  43.465 -22.972  1.00  0.00    -0.776 OA
HETATM   37  H16 UNL     1     -14.661  42.535 -22.729  1.00  0.00     0.167 HD
ENDBRANCH  34  36
ENDBRANCH   7  34
TORSDOF 5
ENDMDL
MODEL 4
REMARK minimizedAffinity -6.19485474
REMARK CNNscore 0.448524475
REMARK CNNaffinity 5.58766794
REMARK  5 active torsions:
REMARK  status: ('A' for Active; 'I' for Inactive)
REMARK    1  A    between atoms: C2_2  and  C4_4 
REMARK    2  A    between atoms: C7_7  and  C8_8 
REMARK    3  A    between atoms: C8_8  and  O2_10 
REMARK    4  A    between atoms: C11_13  and  C12_14 
REMARK    5  A    between atoms: C12_14  and  O4_16 
ROOT
HETATM    1  C4  UNL     1       8.433  56.825  -4.631  1.00  0.00     0.019 C 
HETATM    2  C5  UNL     1       8.688  57.366  -3.199  1.00  0.00     0.011 C 
HETATM    3  C6  UNL     1       7.310  57.611  -2.563  1.00  0.00     0.021 C 
HETATM    4  C7  UNL     1       6.376  57.794  -3.764  1.00  0.00     0.050 C 
HETATM    5  C9  UNL     1       4.889  57.546  -3.478  1.00  0.00     0.022 C 
HETATM    6  C10 UNL     1       4.081  57.489  -4.794  1.00  0.00     0.023 C 
HETATM    7  C11 UNL     1       4.588  56.400  -5.808  1.00  0.00     0.057 C 
HETATM    8  C13 UNL     1       6.138  56.645  -6.044  1.00  0.00     0.011 C 
HETATM    9  C14 UNL     1       6.750  55.700  -7.087  1.00  0.00     0.007 C 
HETATM   10  C15 UNL     1       5.960  55.649  -8.397  1.00  0.00     0.006 C 
HETATM   11  C16 UNL     1       4.455  55.370  -8.184  1.00  0.00     0.003 C 
HETATM   12  C17 UNL     1       3.679  54.992  -9.517  1.00  0.00    -0.035 C 
HETATM   13  C18 UNL     1       3.915  56.030 -10.651  1.00  0.00     0.016 C 
HETATM   14  C19 UNL     1       4.268  53.643 -10.057  1.00  0.00     0.017 C 
HETATM   15  C20 UNL     1       3.308  52.864 -10.936  1.00  0.00     0.080 C 
HETATM   16  C21 UNL     1       2.025  52.517 -10.212  1.00  0.00     0.135 C 
HETATM   17  O5  UNL     1       1.343  51.571 -10.620  1.00  0.00    -0.297 OA
HETATM   18  C22 UNL     1       1.598  53.397  -9.020  1.00  0.00     0.017 C 
HETATM   19  C23 UNL     1       2.091  52.726  -7.731  1.00  0.00     0.023 C 
HETATM   20  C24 UNL     1       0.051  53.380  -8.972  1.00  0.00     0.023 C 
HETATM   21  C25 UNL     1       2.122  54.855  -9.301  1.00  0.00     0.009 C 
HETATM   22  C26 UNL     1       1.562  55.962  -8.385  1.00  0.00     0.007 C 
HETATM   23  C27 UNL     1       2.305  56.135  -7.067  1.00  0.00     0.011 C 
HETATM   24  C28 UNL     1       3.813  56.448  -7.230  1.00  0.00    -0.022 C 
HETATM   25  C29 UNL     1       3.911  57.886  -7.824  1.00  0.00     0.017 C 
HETATM   26  C30 UNL     1       6.894  56.672  -4.694  1.00  0.00     0.018 C 
ENDROOT
BRANCH   4  27
HETATM   27  C8  UNL     1       6.523  59.263  -4.200  1.00  0.00     0.149 C 
HETATM   28  O1  UNL     1       5.942  60.209  -3.689  1.00  0.00    -0.649 OA
BRANCH  27  29
HETATM   29  O2  UNL     1       7.385  59.492  -5.200  1.00  0.00    -0.776 OA
HETATM   30  H11 UNL     1       7.386  60.467  -5.292  1.00  0.00     0.167 HD
ENDBRANCH  27  29
ENDBRANCH   4  27
BRANCH   1  31
HETATM   31  C2  UNL     1       9.269  55.586  -4.907  1.00  0.00    -0.088 C 
HETATM   32  C1  UNL     1      10.522  55.690  -5.379  1.00  0.00     0.014 C 
HETATM   33  C3  UNL     1       8.683  54.232  -4.605  1.00  0.00     0.043 C 
ENDBRANCH   1  31
BRANCH   7  34
HETATM   34  C12 UNL     1       4.370  55.013  -5.137  1.00  0.00     0.149 C 
HETATM   35  O3  UNL     1       5.025  53.997  -5.309  1.00  0.00    -0.649 OA
BRANCH  34  36
HETATM   36  O4  UNL     1       3.332  54.965  -4.279  1.00  0.00    -0.776 OA
HETATM   37  H16 UNL     1       3.341  54.045  -3.944  1.00  0.00     0.167 HD
ENDBRANCH  34  36
ENDBRANCH   7  34
TORSDOF 5
ENDMDL
MODEL 5
REMARK minimizedAffinity -6.36831665
REMARK CNNscore 0.418560147
REMARK CNNaffinity 5.69225645
REMARK  5 active torsions:
REMARK  status: ('A' for Active; 'I' for Inactive)
REMARK    1  A    between atoms: C2_2  and  C4_4 
REMARK    2  A    between atoms: C7_7  and  C8_8 
REMARK    3  A    between atoms: C8_8  and  O2_10 
REMARK    4  A    between atoms: C11_13  and  C12_14 
REMARK    5  A    between atoms: C12_14  and  O4_16 
ROOT
HETATM    1  C4  UNL     1       3.557  49.341  -9.573  1.00  0.00     0.019 C 
HETATM    2  C5  UNL     1       4.300  47.979  -9.545  1.00  0.00     0.011 C 
HETATM    3  C6  UNL     1       5.667  48.229  -8.888  1.00  0.00     0.021 C 
HETATM    4  C7  UNL     1       5.916  49.725  -9.111  1.00  0.00     0.050 C 
HETATM    5  C9  UNL     1       6.923  50.369  -8.150  1.00  0.00     0.022 C 
HETATM    6  C10 UNL     1       6.895  51.908  -8.279  1.00  0.00     0.023 C 
HETATM    7  C11 UNL     1       5.479  52.545  -8.029  1.00  0.00     0.057 C 
HETATM    8  C13 UNL     1       4.448  51.824  -8.995  1.00  0.00     0.011 C 
HETATM    9  C14 UNL     1       3.031  52.410  -8.917  1.00  0.00     0.007 C 
HETATM   10  C15 UNL     1       2.998  53.933  -9.057  1.00  0.00     0.006 C 
HETATM   11  C16 UNL     1       3.969  54.651  -8.092  1.00  0.00     0.003 C 
HETATM   12  C17 UNL     1       3.723  56.216  -7.983  1.00  0.00    -0.035 C 
HETATM   13  C18 UNL     1       3.687  56.905  -9.377  1.00  0.00     0.016 C 
HETATM   14  C19 UNL     1       2.299  56.444  -7.368  1.00  0.00     0.017 C 
HETATM   15  C20 UNL     1       2.140  57.784  -6.675  1.00  0.00     0.080 C 
HETATM   16  C21 UNL     1       3.132  57.965  -5.547  1.00  0.00     0.135 C 
HETATM   17  O5  UNL     1       2.881  58.777  -4.650  1.00  0.00    -0.297 OA
HETATM   18  C22 UNL     1       4.445  57.157  -5.592  1.00  0.00     0.017 C 
HETATM   19  C23 UNL     1       4.255  55.889  -4.750  1.00  0.00     0.023 C 
HETATM   20  C24 UNL     1       5.528  58.008  -4.886  1.00  0.00     0.023 C 
HETATM   21  C25 UNL     1       4.814  56.947  -7.109  1.00  0.00     0.009 C 
HETATM   22  C26 UNL     1       6.236  56.419  -7.391  1.00  0.00     0.007 C 
HETATM   23  C27 UNL     1       6.377  54.904  -7.325  1.00  0.00     0.011 C 
HETATM   24  C28 UNL     1       5.446  54.142  -8.299  1.00  0.00    -0.022 C 
HETATM   25  C29 UNL     1       5.966  54.433  -9.740  1.00  0.00     0.017 C 
HETATM   26  C30 UNL     1       4.509  50.290  -8.805  1.00  0.00     0.018 C 
ENDROOT
BRANCH   4  27
HETATM   27  C8  UNL     1       6.487  49.856 -10.534  1.00  0.00     0.149 C 
HETATM   28  O1  UNL     1       5.820  49.936 -11.555  1.00  0.00    -0.649 OA
BRANCH  27  29
HETATM   29  O2  UNL     1       7.823  49.916 -10.624  1.00  0.00    -0.776 OA
HETATM   30  H11 UNL     1       7.989  50.055 -11.580  1.00  0.00     0.167 HD
ENDBRANCH  27  29
ENDBRANCH   4  27
BRANCH   1  31
HETATM   31  C2  UNL     1       2.138  49.202  -9.048  1.00  0.00    -0.088 C 
HETATM   32  C1  UNL     1       1.901  48.998  -7.741  1.00  0.00     0.014 C 
HETATM   33  C3  UNL     1       0.990  49.334 -10.013  1.00  0.00     0.043 C 
ENDBRANCH   1  31
BRANCH   7  34
HETATM   34  C12 UNL     1       5.104  52.256  -6.546  1.00  0.00     0.149 C 
HETATM   35  O3  UNL     1       3.988  52.053  -6.091  1.00  0.00    -0.649 OA
BRANCH  34  36
HETATM   36  O4  UNL     1       6.151  52.234  -5.699  1.00  0.00    -0.776 OA
HETATM   37  H16 UNL     1       5.750  52.033  -4.828  1.00  0.00     0.167 HD
ENDBRANCH  34  36
ENDBRANCH   7  34
TORSDOF 5
ENDMDL
MODEL 6
REMARK minimizedAffinity -7.24532461
REMARK CNNscore 0.392138898
REMARK CNNaffinity 6.20199537
REMARK  5 active torsions:
REMARK  status: ('A' for Active; 'I' for Inactive)
REMARK    1  A    between atoms: C2_2  and  C4_4 
REMARK    2  A    between atoms: C7_7  and  C8_8 
REMARK    3  A    between atoms: C8_8  and  O2_10 
REMARK    4  A    between atoms: C11_13  and  C12_14 
REMARK    5  A    between atoms: C12_14  and  O4_16 
ROOT
HETATM    1  C4  UNL     1      -3.200  50.782  -9.338  1.00  0.00     0.019 C 
HETATM    2  C5  UNL     1      -4.104  50.230 -10.472  1.00  0.00     0.011 C 
HETATM    3  C6  UNL     1      -3.505  50.721 -11.800  1.00  0.00     0.021 C 
HETATM    4  C7  UNL     1      -2.704  51.967 -11.405  1.00  0.00     0.050 C 
HETATM    5  C9  UNL     1      -1.600  52.373 -12.391  1.00  0.00     0.022 C 
HETATM    6  C10 UNL     1      -0.688  53.457 -11.775  1.00  0.00     0.023 C 
HETATM    7  C11 UNL     1      -0.021  53.034 -10.416  1.00  0.00     0.057 C 
HETATM    8  C13 UNL     1      -1.176  52.568  -9.435  1.00  0.00     0.011 C 
HETATM    9  C14 UNL     1      -0.672  52.206  -8.030  1.00  0.00     0.007 C 
HETATM   10  C15 UNL     1       0.221  53.283  -7.412  1.00  0.00     0.006 C 
HETATM   11  C16 UNL     1       1.377  53.717  -8.342  1.00  0.00     0.003 C 
HETATM   12  C17 UNL     1       2.495  54.579  -7.614  1.00  0.00    -0.035 C 
HETATM   13  C18 UNL     1       1.896  55.788  -6.841  1.00  0.00     0.016 C 
HETATM   14  C19 UNL     1       3.171  53.679  -6.523  1.00  0.00     0.017 C 
HETATM   15  C20 UNL     1       4.578  54.111  -6.158  1.00  0.00     0.080 C 
HETATM   16  C21 UNL     1       5.504  54.108  -7.355  1.00  0.00     0.135 C 
HETATM   17  O5  UNL     1       6.724  54.031  -7.171  1.00  0.00    -0.297 OA
HETATM   18  C22 UNL     1       4.883  54.253  -8.760  1.00  0.00     0.017 C 
HETATM   19  C23 UNL     1       4.697  52.847  -9.346  1.00  0.00     0.023 C 
HETATM   20  C24 UNL     1       5.927  54.975  -9.646  1.00  0.00     0.023 C 
HETATM   21  C25 UNL     1       3.586  55.133  -8.610  1.00  0.00     0.009 C 
HETATM   22  C26 UNL     1       2.966  55.648  -9.925  1.00  0.00     0.007 C 
HETATM   23  C27 UNL     1       2.016  54.671 -10.607  1.00  0.00     0.011 C 
HETATM   24  C28 UNL     1       0.823  54.232  -9.724  1.00  0.00    -0.022 C 
HETATM   25  C29 UNL     1      -0.096  55.481  -9.556  1.00  0.00     0.017 C 
HETATM   26  C30 UNL     1      -2.041  51.470 -10.098  1.00  0.00     0.018 C 
ENDROOT
BRANCH   4  27
HETATM   27  C8  UNL     1      -3.715  53.124 -11.344  1.00  0.00     0.149 C 
HETATM   28  O1  UNL     1      -4.074  53.691 -10.322  1.00  0.00    -0.649 OA
BRANCH  27  29
HETATM   29  O2  UNL     1      -4.200  53.540 -12.522  1.00  0.00    -0.776 OA
HETATM   30  H11 UNL     1      -4.768  54.303 -12.287  1.00  0.00     0.167 HD
ENDBRANCH  27  29
ENDBRANCH   4  27
BRANCH   1  31
HETATM   31  C2  UNL     1      -2.833  49.688  -8.348  1.00  0.00    -0.088 C 
HETATM   32  C1  UNL     1      -1.945  49.915  -7.366  1.00  0.00     0.014 C 
HETATM   33  C3  UNL     1      -3.512  48.349  -8.461  1.00  0.00     0.043 C 
ENDBRANCH   1  31
BRANCH   7  34
HETATM   34  C12 UNL     1       0.925  51.836 -10.724  1.00  0.00     0.149 C 
HETATM   35  O3  UNL     1       1.225  50.919  -9.975  1.00  0.00    -0.649 OA
BRANCH  34  36
HETATM   36  O4  UNL     1       1.453  51.847 -11.964  1.00  0.00    -0.776 OA
HETATM   37  H16 UNL     1       2.003  51.036 -11.996  1.00  0.00     0.167 HD
ENDBRANCH  34  36
ENDBRANCH   7  34
TORSDOF 5
ENDMDL
MODEL 7
REMARK minimizedAffinity -8.19055653
REMARK CNNscore 0.390062869
REMARK CNNaffinity 5.8971591
REMARK  5 active torsions:
REMARK  status: ('A' for Active; 'I' for Inactive)
REMARK    1  A    between atoms: C2_2  and  C4_4 
REMARK    2  A    between atoms: C7_7  and  C8_8 
REMARK    3  A    between atoms: C8_8  and  O2_10 
REMARK    4  A    between atoms: C11_13  and  C12_14 
REMARK    5  A    between atoms: C12_14  and  O4_16 
ROOT
HETATM    1  C4  UNL     1      -5.872  48.424 -26.317  1.00  0.00     0.019 C 
HETATM    2  C5  UNL     1      -5.680  48.472 -24.777  1.00  0.00     0.011 C 
HETATM    3  C6  UNL     1      -6.682  47.476 -24.171  1.00  0.00     0.021 C 
HETATM    4  C7  UNL     1      -7.775  47.357 -25.239  1.00  0.00     0.050 C 
HETATM    5  C9  UNL     1      -8.628  46.084 -25.161  1.00  0.00     0.022 C 
HETATM    6  C10 UNL     1      -9.502  45.933 -26.425  1.00  0.00     0.023 C 
HETATM    7  C11 UNL     1      -8.687  45.912 -27.768  1.00  0.00     0.057 C 
HETATM    8  C13 UNL     1      -7.774  47.209 -27.799  1.00  0.00     0.011 C 
HETATM    9  C14 UNL     1      -6.981  47.363 -29.104  1.00  0.00     0.007 C 
HETATM   10  C15 UNL     1      -7.846  47.226 -30.359  1.00  0.00     0.006 C 
HETATM   11  C16 UNL     1      -8.710  45.945 -30.361  1.00  0.00     0.003 C 
HETATM   12  C17 UNL     1      -9.360  45.613 -31.771  1.00  0.00    -0.035 C 
HETATM   13  C18 UNL     1     -10.133  46.826 -32.363  1.00  0.00     0.016 C 
HETATM   14  C19 UNL     1      -8.201  45.321 -32.785  1.00  0.00     0.017 C 
HETATM   15  C20 UNL     1      -8.618  44.452 -33.957  1.00  0.00     0.080 C 
HETATM   16  C21 UNL     1      -9.151  43.108 -33.510  1.00  0.00     0.135 C 
HETATM   17  O5  UNL     1      -9.142  42.163 -34.307  1.00  0.00    -0.297 OA
HETATM   18  C22 UNL     1      -9.731  42.989 -32.086  1.00  0.00     0.017 C 
HETATM   19  C23 UNL     1      -8.624  42.461 -31.163  1.00  0.00     0.023 C 
HETATM   20  C24 UNL     1     -10.834  41.903 -32.133  1.00  0.00     0.023 C 
HETATM   21  C25 UNL     1     -10.352  44.387 -31.714  1.00  0.00     0.009 C 
HETATM   22  C26 UNL     1     -11.243  44.416 -30.455  1.00  0.00     0.007 C 
HETATM   23  C27 UNL     1     -10.488  44.597 -29.145  1.00  0.00     0.011 C 
HETATM   24  C28 UNL     1      -9.632  45.886 -29.084  1.00  0.00    -0.022 C 
HETATM   25  C29 UNL     1     -10.628  47.085 -29.028  1.00  0.00     0.017 C 
HETATM   26  C30 UNL     1      -6.909  47.294 -26.519  1.00  0.00     0.018 C 
ENDROOT
BRANCH   4  27
HETATM   27  C8  UNL     1      -8.716  48.556 -25.024  1.00  0.00     0.149 C 
HETATM   28  O1  UNL     1      -9.901  48.582 -25.322  1.00  0.00    -0.649 OA
BRANCH  27  29
HETATM   29  O2  UNL     1      -8.170  49.628 -24.434  1.00  0.00    -0.776 OA
HETATM   30  H11 UNL     1      -8.921  50.249 -24.332  1.00  0.00     0.167 HD
ENDBRANCH  27  29
ENDBRANCH   4  27
BRANCH   1  31
HETATM   31  C2  UNL     1      -4.538  48.284 -27.032  1.00  0.00    -0.088 C 
HETATM   32  C1  UNL     1      -4.481  48.159 -28.368  1.00  0.00     0.014 C 
HETATM   33  C3  UNL     1      -3.271  48.326 -26.221  1.00  0.00     0.043 C 
ENDBRANCH   1  31
BRANCH   7  34
HETATM   34  C12 UNL     1      -7.792  44.639 -27.740  1.00  0.00     0.149 C 
HETATM   35  O3  UNL     1      -6.893  44.349 -28.514  1.00  0.00    -0.649 OA
BRANCH  34  36
HETATM   36  O4  UNL     1      -8.069  43.783 -26.736  1.00  0.00    -0.776 OA
HETATM   37  H16 UNL     1      -7.423  43.057 -26.855  1.00  0.00     0.167 HD
ENDBRANCH  34  36
ENDBRANCH   7  34
TORSDOF 5
ENDMDL
MODEL 8
REMARK minimizedAffinity -6.67236328
REMARK CNNscore 0.383562744
REMARK CNNaffinity 5.54346704
REMARK  5 active torsions:
REMARK  status: ('A' for Active; 'I' for Inactive)
REMARK    1  A    between atoms: C2_2  and  C4_4 
REMARK    2  A    between atoms: C7_7  and  C8_8 
REMARK    3  A    between atoms: C8_8  and  O2_10 
REMARK    4  A    between atoms: C11_13  and  C12_14 
REMARK    5  A    between atoms: C12_14  and  O4_16 
ROOT
HETATM    1  C4  UNL     1     -15.392  43.316 -26.298  1.00  0.00     0.019 C 
HETATM    2  C5  UNL     1     -15.964  43.595 -27.713  1.00  0.00     0.011 C 
HETATM    3  C6  UNL     1     -16.912  44.798 -27.582  1.00  0.00     0.021 C 
HETATM    4  C7  UNL     1     -17.322  44.786 -26.105  1.00  0.00     0.050 C 
HETATM    5  C9  UNL     1     -17.836  46.125 -25.560  1.00  0.00     0.022 C 
HETATM    6  C10 UNL     1     -17.959  46.077 -24.021  1.00  0.00     0.023 C 
HETATM    7  C11 UNL     1     -16.619  45.714 -23.283  1.00  0.00     0.057 C 
HETATM    8  C13 UNL     1     -16.081  44.356 -23.903  1.00  0.00     0.011 C 
HETATM    9  C14 UNL     1     -14.813  43.834 -23.212  1.00  0.00     0.007 C 
HETATM   10  C15 UNL     1     -14.936  43.773 -21.688  1.00  0.00     0.006 C 
HETATM   11  C16 UNL     1     -15.420  45.104 -21.067  1.00  0.00     0.003 C 
HETATM   12  C17 UNL     1     -15.245  45.175 -19.490  1.00  0.00    -0.035 C 
HETATM   13  C18 UNL     1     -15.871  43.946 -18.771  1.00  0.00     0.016 C 
HETATM   14  C19 UNL     1     -13.713  45.113 -19.167  1.00  0.00     0.017 C 
HETATM   15  C20 UNL     1     -13.343  45.736 -17.834  1.00  0.00     0.080 C 
HETATM   16  C21 UNL     1     -13.743  47.192 -17.753  1.00  0.00     0.135 C 
HETATM   17  O5  UNL     1     -13.170  47.929 -16.943  1.00  0.00    -0.297 OA
HETATM   18  C22 UNL     1     -14.890  47.686 -18.658  1.00  0.00     0.017 C 
HETATM   19  C23 UNL     1     -14.272  48.291 -19.925  1.00  0.00     0.023 C 
HETATM   20  C24 UNL     1     -15.598  48.840 -17.907  1.00  0.00     0.023 C 
HETATM   21  C25 UNL     1     -15.879  46.478 -18.863  1.00  0.00     0.009 C 
HETATM   22  C26 UNL     1     -17.244  46.822 -19.492  1.00  0.00     0.007 C 
HETATM   23  C27 UNL     1     -17.252  46.863 -21.015  1.00  0.00     0.011 C 
HETATM   24  C28 UNL     1     -16.804  45.540 -21.683  1.00  0.00    -0.022 C 
HETATM   25  C29 UNL     1     -17.924  44.493 -21.402  1.00  0.00     0.017 C 
HETATM   26  C30 UNL     1     -15.960  44.472 -25.441  1.00  0.00     0.018 C 
ENDROOT
BRANCH   4  27
HETATM   27  C8  UNL     1     -18.470  43.769 -25.988  1.00  0.00     0.149 C 
HETATM   28  O1  UNL     1     -19.479  43.765 -26.677  1.00  0.00    -0.649 OA
BRANCH  27  29
HETATM   29  O2  UNL     1     -18.306  42.806 -25.070  1.00  0.00    -0.776 OA
HETATM   30  H11 UNL     1     -19.094  42.235 -25.184  1.00  0.00     0.167 HD
ENDBRANCH  27  29
ENDBRANCH   4  27
BRANCH   1  31
HETATM   31  C2  UNL     1     -13.881  43.155 -26.339  1.00  0.00    -0.088 C 
HETATM   32  C1  UNL     1     -13.314  41.939 -26.272  1.00  0.00     0.014 C 
HETATM   33  C3  UNL     1     -13.023  44.383 -26.495  1.00  0.00     0.043 C 
ENDBRANCH   1  31
BRANCH   7  34
HETATM   34  C12 UNL     1     -15.610  46.862 -23.574  1.00  0.00     0.149 C 
HETATM   35  O3  UNL     1     -15.361  47.826 -22.866  1.00  0.00    -0.649 OA
BRANCH  34  36
HETATM   36  O4  UNL     1     -14.958  46.748 -24.748  1.00  0.00    -0.776 OA
HETATM   37  H16 UNL     1     -14.367  47.530 -24.769  1.00  0.00     0.167 HD
ENDBRANCH  34  36
ENDBRANCH   7  34
TORSDOF 5
ENDMDL
MODEL 9
REMARK minimizedAffinity -6.50232267
REMARK CNNscore 0.349843502
REMARK CNNaffinity 5.57696199
REMARK  5 active torsions:
REMARK  status: ('A' for Active; 'I' for Inactive)
REMARK    1  A    between atoms: C2_2  and  C4_4 
REMARK    2  A    between atoms: C7_7  and  C8_8 
REMARK    3  A    between atoms: C8_8  and  O2_10 
REMARK    4  A    between atoms: C11_13  and  C12_14 
REMARK    5  A    between atoms: C12_14  and  O4_16 
ROOT
HETATM    1  C4  UNL     1     -16.238  46.051 -23.231  1.00  0.00     0.019 C 
HETATM    2  C5  UNL     1     -17.577  45.403 -22.789  1.00  0.00     0.011 C 
HETATM    3  C6  UNL     1     -17.886  44.285 -23.797  1.00  0.00     0.021 C 
HETATM    4  C7  UNL     1     -17.113  44.697 -25.055  1.00  0.00     0.050 C 
HETATM    5  C9  UNL     1     -16.809  43.558 -26.037  1.00  0.00     0.022 C 
HETATM    6  C10 UNL     1     -15.805  44.020 -27.116  1.00  0.00     0.023 C 
HETATM    7  C11 UNL     1     -14.448  44.563 -26.537  1.00  0.00     0.057 C 
HETATM    8  C13 UNL     1     -14.793  45.700 -25.485  1.00  0.00     0.011 C 
HETATM    9  C14 UNL     1     -13.549  46.383 -24.900  1.00  0.00     0.007 C 
HETATM   10  C15 UNL     1     -12.558  46.853 -25.966  1.00  0.00     0.006 C 
HETATM   11  C16 UNL     1     -12.181  45.743 -26.973  1.00  0.00     0.003 C 
HETATM   12  C17 UNL     1     -10.926  46.099 -27.879  1.00  0.00    -0.035 C 
HETATM   13  C18 UNL     1     -11.077  47.480 -28.579  1.00  0.00     0.016 C 
HETATM   14  C19 UNL     1      -9.675  46.238 -26.945  1.00  0.00     0.017 C 
HETATM   15  C20 UNL     1      -8.354  45.997 -27.651  1.00  0.00     0.080 C 
HETATM   16  C21 UNL     1      -8.281  44.619 -28.270  1.00  0.00     0.135 C 
HETATM   17  O5  UNL     1      -7.173  44.125 -28.508  1.00  0.00    -0.297 OA
HETATM   18  C22 UNL     1      -9.601  43.904 -28.623  1.00  0.00     0.017 C 
HETATM   19  C23 UNL     1      -9.968  42.976 -27.457  1.00  0.00     0.023 C 
HETATM   20  C24 UNL     1      -9.317  43.000 -29.846  1.00  0.00     0.023 C 
HETATM   21  C25 UNL     1     -10.651  45.018 -28.995  1.00  0.00     0.009 C 
HETATM   22  C26 UNL     1     -11.952  44.523 -29.660  1.00  0.00     0.007 C 
HETATM   23  C27 UNL     1     -13.033  44.072 -28.687  1.00  0.00     0.011 C 
HETATM   24  C28 UNL     1     -13.466  45.163 -27.678  1.00  0.00    -0.022 C 
HETATM   25  C29 UNL     1     -14.227  46.253 -28.492  1.00  0.00     0.017 C 
HETATM   26  C30 UNL     1     -15.784  45.172 -24.421  1.00  0.00     0.018 C 
ENDROOT
BRANCH   4  27
HETATM   27  C8  UNL     1     -18.003  45.715 -25.790  1.00  0.00     0.149 C 
HETATM   28  O1  UNL     1     -18.335  46.805 -25.350  1.00  0.00    -0.649 OA
BRANCH  27  29
HETATM   29  O2  UNL     1     -18.404  45.360 -27.018  1.00  0.00    -0.776 OA
HETATM   30  H11 UNL     1     -18.899  46.142 -27.340  1.00  0.00     0.167 HD
ENDBRANCH  27  29
ENDBRANCH   4  27
BRANCH   1  31
HETATM   31  C2  UNL     1     -15.281  46.187 -22.059  1.00  0.00    -0.088 C 
HETATM   32  C1  UNL     1     -14.942  47.396 -21.580  1.00  0.00     0.014 C 
HETATM   33  C3  UNL     1     -14.743  44.939 -21.411  1.00  0.00     0.043 C 
ENDBRANCH   1  31
BRANCH   7  34
HETATM   34  C12 UNL     1     -13.750  43.373 -25.816  1.00  0.00     0.149 C 
HETATM   35  O3  UNL     1     -13.643  42.225 -26.217  1.00  0.00    -0.649 OA
BRANCH  34  36
HETATM   36  O4  UNL     1     -13.215  43.682 -24.618  1.00  0.00    -0.776 OA
HETATM   37  H16 UNL     1     -12.814  42.842 -24.312  1.00  0.00     0.167 HD
ENDBRANCH  34  36
ENDBRANCH   7  34
TORSDOF 5
ENDMDL
