MODEL 1
REMARK minimizedAffinity -7.72157621
REMARK CNNscore 0.707078457
REMARK CNNaffinity 5.84277391
REMARK  12 active torsions:
REMARK  status: ('A' for Active; 'I' for Inactive)
REMARK    1  A    between atoms: C2_2  and  C3_3 
REMARK    2  A    between atoms: C2_2  and  C9_11 
REMARK    3  A    between atoms: C4_4  and  C5_5 
REMARK    4  A    between atoms: C5_5  and  C6_6 
REMARK    5  A    between atoms: C6_6  and  O1_8 
REMARK    6  A    between atoms: C6_6  and  C8_9 
REMARK    7  A    between atoms: C8_9  and  O2_10 
REMARK    8  A    between atoms: C10_12  and  O3_13 
REMARK    9  A    between atoms: C11_14  and  O4_15 
REMARK   10  A    between atoms: C22_26  and  O5_27 
REMARK   11  A    between atoms: C25_30  and  O6_31 
REMARK   12  A    between atoms: C27_33  and  O7_34 
ROOT
HETATM    1  C9  UNL     1       0.829  52.151 -13.152  1.00  0.00     0.033 C 
HETATM    2  C10 UNL     1      -0.706  52.062 -12.857  1.00  0.00     0.152 C 
HETATM    3  C11 UNL     1      -0.938  52.769 -11.496  1.00  0.00     0.155 C 
HETATM    4  C12 UNL     1       0.397  53.444 -11.203  1.00  0.00     0.060 C 
HETATM    5  C13 UNL     1       1.444  52.414 -11.735  1.00  0.00    -0.028 C 
HETATM    6  C14 UNL     1       1.541  51.088 -10.942  1.00  0.00     0.016 C 
HETATM    7  C15 UNL     1       2.814  53.120 -11.720  1.00  0.00     0.011 C 
HETATM    8  C16 UNL     1       3.164  53.697 -10.336  1.00  0.00     0.009 C 
HETATM    9  C17 UNL     1       2.077  54.661  -9.799  1.00  0.00     0.029 C 
HETATM   10  C18 UNL     1       2.483  55.408  -8.469  1.00  0.00    -0.031 C 
HETATM   11  C19 UNL     1       2.890  54.406  -7.359  1.00  0.00     0.016 C 
HETATM   12  C20 UNL     1       3.738  56.315  -8.740  1.00  0.00     0.012 C 
HETATM   13  C21 UNL     1       3.657  57.741  -8.174  1.00  0.00     0.032 C 
HETATM   14  C22 UNL     1       2.983  57.825  -6.810  1.00  0.00     0.118 C 
HETATM   15  C23 UNL     1       1.610  57.141  -6.771  1.00  0.00     0.039 C 
HETATM   16  C24 UNL     1       1.300  56.338  -8.050  1.00  0.00     0.025 C 
HETATM   17  C25 UNL     1      -0.073  55.643  -7.985  1.00  0.00     0.126 C 
HETATM   18  C26 UNL     1      -0.410  54.988  -9.329  1.00  0.00     0.071 C 
HETATM   19  C27 UNL     1       0.666  53.976  -9.775  1.00  0.00     0.071 C 
ENDROOT
BRANCH   1  20
HETATM   20  C2  UNL     1       1.378  50.997 -14.036  1.00  0.00     0.011 C 
HETATM   21  C1  UNL     1       2.803  51.242 -14.547  1.00  0.00     0.015 C 
BRANCH  20  22
HETATM   22  C3  UNL     1       0.418  50.714 -15.184  1.00  0.00    -0.026 C 
HETATM   23  C4  UNL     1       0.732  50.563 -16.482  1.00  0.00    -0.027 C 
BRANCH  23  24
HETATM   24  C5  UNL     1      -0.282  50.280 -17.564  1.00  0.00     0.066 C 
BRANCH  24  25
HETATM   25  C6  UNL     1      -0.384  51.381 -18.649  1.00  0.00     0.078 C 
HETATM   26  C7  UNL     1      -1.799  51.948 -18.784  1.00  0.00     0.048 C 
BRANCH  25  27
HETATM   27  O1  UNL     1       0.022  50.835 -19.921  1.00  0.00    -0.388 OA
HETATM   28  H12 UNL     1      -0.663  50.198 -20.190  1.00  0.00     0.210 HD
ENDBRANCH  25  27
BRANCH  25  29
HETATM   29  C8  UNL     1       0.601  52.528 -18.337  1.00  0.00     0.201 C 
BRANCH  29  30
HETATM   30  O2  UNL     1       0.148  53.746 -18.927  1.00  0.00    -0.398 OA
HETATM   31  H15 UNL     1      -0.806  53.783 -18.713  1.00  0.00     0.209 HD
ENDBRANCH  29  30
ENDBRANCH  25  29
ENDBRANCH  24  25
ENDBRANCH  23  24
ENDBRANCH  20  22
ENDBRANCH   1  20
BRANCH   2  32
HETATM   32  O3  UNL     1      -1.166  50.713 -12.780  1.00  0.00    -0.393 OA
HETATM   33  H18 UNL     1      -2.109  50.734 -12.546  1.00  0.00     0.210 HD
ENDBRANCH   2  32
BRANCH   3  34
HETATM   34  O4  UNL     1      -1.980  53.736 -11.618  1.00  0.00    -0.392 OA
HETATM   35  H20 UNL     1      -2.814  53.249 -11.728  1.00  0.00     0.210 HD
ENDBRANCH   3  34
BRANCH  19  36
HETATM   36  O7  UNL     1       0.637  52.870  -8.876  1.00  0.00    -0.389 OA
HETATM   37  H46 UNL     1       0.338  53.206  -8.004  1.00  0.00     0.210 HD
ENDBRANCH  19  36
BRANCH  17  38
HETATM   38  O6  UNL     1      -0.132  54.643  -6.973  1.00  0.00    -0.395 OA
HETATM   39  H43 UNL     1      -0.024  55.083  -6.110  1.00  0.00     0.210 HD
ENDBRANCH  17  38
BRANCH  14  40
HETATM   40  O5  UNL     1       3.820  57.235  -5.819  1.00  0.00    -0.396 OA
HETATM   41  H38 UNL     1       4.691  57.665  -5.869  1.00  0.00     0.210 HD
ENDBRANCH  14  40
TORSDOF 12
ENDMDL
MODEL 2
REMARK minimizedAffinity -7.6046257
REMARK CNNscore 0.701920331
REMARK CNNaffinity 6.3250618
REMARK  12 active torsions:
REMARK  status: ('A' for Active; 'I' for Inactive)
REMARK    1  A    between atoms: C2_2  and  C3_3 
REMARK    2  A    between atoms: C2_2  and  C9_11 
REMARK    3  A    between atoms: C4_4  and  C5_5 
REMARK    4  A    between atoms: C5_5  and  C6_6 
REMARK    5  A    between atoms: C6_6  and  O1_8 
REMARK    6  A    between atoms: C6_6  and  C8_9 
REMARK    7  A    between atoms: C8_9  and  O2_10 
REMARK    8  A    between atoms: C10_12  and  O3_13 
REMARK    9  A    between atoms: C11_14  and  O4_15 
REMARK   10  A    between atoms: C22_26  and  O5_27 
REMARK   11  A    between atoms: C25_30  and  O6_31 
REMARK   12  A    between atoms: C27_33  and  O7_34 
ROOT
HETATM    1  C9  UNL     1      -0.457  51.176 -14.554  1.00  0.00     0.033 C 
HETATM    2  C10 UNL     1      -1.947  51.277 -14.083  1.00  0.00     0.152 C 
HETATM    3  C11 UNL     1      -1.930  51.989 -12.706  1.00  0.00     0.155 C 
HETATM    4  C12 UNL     1      -0.495  52.486 -12.570  1.00  0.00     0.060 C 
HETATM    5  C13 UNL     1       0.345  51.341 -13.218  1.00  0.00    -0.028 C 
HETATM    6  C14 UNL     1       0.364  50.002 -12.440  1.00  0.00     0.016 C 
HETATM    7  C15 UNL     1       1.786  51.868 -13.361  1.00  0.00     0.011 C 
HETATM    8  C16 UNL     1       2.362  52.378 -12.028  1.00  0.00     0.009 C 
HETATM    9  C17 UNL     1       1.475  53.464 -11.370  1.00  0.00     0.029 C 
HETATM   10  C18 UNL     1       2.122  54.135 -10.096  1.00  0.00    -0.031 C 
HETATM   11  C19 UNL     1       2.523  53.075  -9.040  1.00  0.00     0.016 C 
HETATM   12  C20 UNL     1       3.442  54.882 -10.511  1.00  0.00     0.012 C 
HETATM   13  C21 UNL     1       3.607  56.298  -9.941  1.00  0.00     0.032 C 
HETATM   14  C22 UNL     1       3.110  56.448  -8.509  1.00  0.00     0.118 C 
HETATM   15  C23 UNL     1       1.675  55.941  -8.311  1.00  0.00     0.039 C 
HETATM   16  C24 UNL     1       1.121  55.201  -9.544  1.00  0.00     0.025 C 
HETATM   17  C25 UNL     1      -0.312  54.683  -9.321  1.00  0.00     0.126 C 
HETATM   18  C26 UNL     1      -0.880  54.094 -10.617  1.00  0.00     0.071 C 
HETATM   19  C27 UNL     1       0.001  52.961 -11.183  1.00  0.00     0.071 C 
ENDROOT
BRANCH   1  20
HETATM   20  C2  UNL     1      -0.163  49.975 -15.494  1.00  0.00     0.011 C 
HETATM   21  C1  UNL     1       0.687  48.879 -14.840  1.00  0.00     0.015 C 
BRANCH  20  22
HETATM   22  C3  UNL     1       0.468  50.466 -16.791  1.00  0.00    -0.026 C 
HETATM   23  C4  UNL     1       0.552  51.737 -17.218  1.00  0.00    -0.027 C 
BRANCH  23  24
HETATM   24  C5  UNL     1       1.197  52.144 -18.521  1.00  0.00     0.066 C 
BRANCH  24  25
HETATM   25  C6  UNL     1       0.197  52.570 -19.625  1.00  0.00     0.078 C 
HETATM   26  C7  UNL     1       0.539  53.931 -20.238  1.00  0.00     0.048 C 
BRANCH  25  27
HETATM   27  O1  UNL     1      -1.131  52.632 -19.066  1.00  0.00    -0.388 OA
HETATM   28  H12 UNL     1      -1.148  53.388 -18.452  1.00  0.00     0.210 HD
ENDBRANCH  25  27
BRANCH  25  29
HETATM   29  C8  UNL     1       0.148  51.503 -20.738  1.00  0.00     0.201 C 
BRANCH  29  30
HETATM   30  O2  UNL     1       0.668  52.033 -21.957  1.00  0.00    -0.398 OA
HETATM   31  H15 UNL     1       1.487  52.499 -21.694  1.00  0.00     0.209 HD
ENDBRANCH  29  30
ENDBRANCH  25  29
ENDBRANCH  24  25
ENDBRANCH  23  24
ENDBRANCH  20  22
ENDBRANCH   1  20
BRANCH   2  32
HETATM   32  O3  UNL     1      -2.561  49.995 -13.953  1.00  0.00    -0.393 OA
HETATM   33  H18 UNL     1      -3.461  50.132 -13.611  1.00  0.00     0.210 HD
ENDBRANCH   2  32
BRANCH   3  34
HETATM   34  O4  UNL     1      -2.848  53.081 -12.708  1.00  0.00    -0.392 OA
HETATM   35  H20 UNL     1      -3.745  52.704 -12.720  1.00  0.00     0.210 HD
ENDBRANCH   3  34
BRANCH  19  36
HETATM   36  O7  UNL     1      -0.065  51.855 -10.285  1.00  0.00    -0.389 OA
HETATM   37  H46 UNL     1      -0.217  52.215  -9.384  1.00  0.00     0.210 HD
ENDBRANCH  19  36
BRANCH  17  38
HETATM   38  O6  UNL     1      -0.380  53.685  -8.307  1.00  0.00    -0.395 OA
HETATM   39  H43 UNL     1      -0.119  54.096  -7.463  1.00  0.00     0.210 HD
ENDBRANCH  17  38
BRANCH  14  40
HETATM   40  O5  UNL     1       3.974  55.744  -7.620  1.00  0.00    -0.396 OA
HETATM   41  H38 UNL     1       4.880  56.062  -7.771  1.00  0.00     0.210 HD
ENDBRANCH  14  40
TORSDOF 12
ENDMDL
MODEL 3
REMARK minimizedAffinity -9.13986778
REMARK CNNscore 0.67865628
REMARK CNNaffinity 6.59954882
REMARK  12 active torsions:
REMARK  status: ('A' for Active; 'I' for Inactive)
REMARK    1  A    between atoms: C2_2  and  C3_3 
REMARK    2  A    between atoms: C2_2  and  C9_11 
REMARK    3  A    between atoms: C4_4  and  C5_5 
REMARK    4  A    between atoms: C5_5  and  C6_6 
REMARK    5  A    between atoms: C6_6  and  O1_8 
REMARK    6  A    between atoms: C6_6  and  C8_9 
REMARK    7  A    between atoms: C8_9  and  O2_10 
REMARK    8  A    between atoms: C10_12  and  O3_13 
REMARK    9  A    between atoms: C11_14  and  O4_15 
REMARK   10  A    between atoms: C22_26  and  O5_27 
REMARK   11  A    between atoms: C25_30  and  O6_31 
REMARK   12  A    between atoms: C27_33  and  O7_34 
ROOT
HETATM    1  C9  UNL     1      -3.268  48.755 -23.373  1.00  0.00     0.033 C 
HETATM    2  C10 UNL     1      -4.086  48.930 -22.049  1.00  0.00     0.152 C 
HETATM    3  C11 UNL     1      -5.575  48.697 -22.413  1.00  0.00     0.155 C 
HETATM    4  C12 UNL     1      -5.523  48.156 -23.837  1.00  0.00     0.060 C 
HETATM    5  C13 UNL     1      -4.353  48.962 -24.486  1.00  0.00    -0.028 C 
HETATM    6  C14 UNL     1      -4.618  50.474 -24.695  1.00  0.00     0.016 C 
HETATM    7  C15 UNL     1      -4.053  48.303 -25.846  1.00  0.00     0.011 C 
HETATM    8  C16 UNL     1      -5.303  48.202 -26.739  1.00  0.00     0.009 C 
HETATM    9  C17 UNL     1      -6.473  47.459 -26.048  1.00  0.00     0.029 C 
HETATM   10  C18 UNL     1      -7.704  47.180 -26.996  1.00  0.00    -0.031 C 
HETATM   11  C19 UNL     1      -8.225  48.486 -27.646  1.00  0.00     0.016 C 
HETATM   12  C20 UNL     1      -7.258  46.237 -28.171  1.00  0.00     0.012 C 
HETATM   13  C21 UNL     1      -8.206  45.068 -28.477  1.00  0.00     0.032 C 
HETATM   14  C22 UNL     1      -9.683  45.425 -28.356  1.00  0.00     0.118 C 
HETATM   15  C23 UNL     1     -10.037  46.082 -27.015  1.00  0.00     0.039 C 
HETATM   16  C24 UNL     1      -8.798  46.431 -26.168  1.00  0.00     0.025 C 
HETATM   17  C25 UNL     1      -9.171  47.106 -24.835  1.00  0.00     0.126 C 
HETATM   18  C26 UNL     1      -7.929  47.294 -23.958  1.00  0.00     0.071 C 
HETATM   19  C27 UNL     1      -6.828  48.111 -24.666  1.00  0.00     0.071 C 
ENDROOT
BRANCH   1  20
HETATM   20  C2  UNL     1      -1.943  49.565 -23.419  1.00  0.00     0.011 C 
HETATM   21  C1  UNL     1      -1.454  50.018 -22.039  1.00  0.00     0.015 C 
BRANCH  20  22
HETATM   22  C3  UNL     1      -2.084  50.745 -24.373  1.00  0.00    -0.026 C 
HETATM   23  C4  UNL     1      -1.133  51.252 -25.176  1.00  0.00    -0.027 C 
BRANCH  23  24
HETATM   24  C5  UNL     1      -1.352  52.427 -26.098  1.00  0.00     0.066 C 
BRANCH  24  25
HETATM   25  C6  UNL     1      -0.107  52.833 -26.925  1.00  0.00     0.078 C 
HETATM   26  C7  UNL     1       0.594  51.632 -27.565  1.00  0.00     0.048 C 
BRANCH  25  27
HETATM   27  O1  UNL     1       0.831  53.518 -26.070  1.00  0.00    -0.388 OA
HETATM   28  H12 UNL     1       1.186  52.858 -25.449  1.00  0.00     0.210 HD
ENDBRANCH  25  27
BRANCH  25  29
HETATM   29  C8  UNL     1      -0.505  53.840 -28.025  1.00  0.00     0.201 C 
BRANCH  29  30
HETATM   30  O2  UNL     1      -1.923  53.867 -28.183  1.00  0.00    -0.398 OA
HETATM   31  H15 UNL     1      -2.272  53.903 -27.270  1.00  0.00     0.209 HD
ENDBRANCH  29  30
ENDBRANCH  25  29
ENDBRANCH  24  25
ENDBRANCH  23  24
ENDBRANCH  20  22
ENDBRANCH   1  20
BRANCH   2  32
HETATM   32  O3  UNL     1      -3.928  50.231 -21.484  1.00  0.00    -0.393 OA
HETATM   33  H18 UNL     1      -4.499  50.283 -20.699  1.00  0.00     0.210 HD
ENDBRANCH   2  32
BRANCH   3  34
HETATM   34  O4  UNL     1      -6.152  47.739 -21.526  1.00  0.00    -0.392 OA
HETATM   35  H20 UNL     1      -6.229  48.163 -20.655  1.00  0.00     0.210 HD
ENDBRANCH   3  34
BRANCH  19  36
HETATM   36  O7  UNL     1      -7.300  49.448 -24.825  1.00  0.00    -0.389 OA
HETATM   37  H46 UNL     1      -8.277  49.408 -24.905  1.00  0.00     0.210 HD
ENDBRANCH  19  36
BRANCH  17  38
HETATM   38  O6  UNL     1      -9.785  48.378 -25.020  1.00  0.00    -0.395 OA
HETATM   39  H43 UNL     1     -10.630  48.239 -25.486  1.00  0.00     0.210 HD
ENDBRANCH  17  38
BRANCH  14  40
HETATM   40  O5  UNL     1     -10.057  46.305 -29.413  1.00  0.00    -0.396 OA
HETATM   41  H38 UNL     1      -9.809  45.884 -30.254  1.00  0.00     0.210 HD
ENDBRANCH  14  40
TORSDOF 12
ENDMDL
MODEL 4
REMARK minimizedAffinity -7.6942997
REMARK CNNscore 0.654311538
REMARK CNNaffinity 6.22504854
REMARK  12 active torsions:
REMARK  status: ('A' for Active; 'I' for Inactive)
REMARK    1  A    between atoms: C2_2  and  C3_3 
REMARK    2  A    between atoms: C2_2  and  C9_11 
REMARK    3  A    between atoms: C4_4  and  C5_5 
REMARK    4  A    between atoms: C5_5  and  C6_6 
REMARK    5  A    between atoms: C6_6  and  O1_8 
REMARK    6  A    between atoms: C6_6  and  C8_9 
REMARK    7  A    between atoms: C8_9  and  O2_10 
REMARK    8  A    between atoms: C10_12  and  O3_13 
REMARK    9  A    between atoms: C11_14  and  O4_15 
REMARK   10  A    between atoms: C22_26  and  O5_27 
REMARK   11  A    between atoms: C25_30  and  O6_31 
REMARK   12  A    between atoms: C27_33  and  O7_34 
ROOT
HETATM    1  C9  UNL     1      -4.698  47.545 -19.647  1.00  0.00     0.033 C 
HETATM    2  C10 UNL     1      -5.404  48.798 -19.030  1.00  0.00     0.152 C 
HETATM    3  C11 UNL     1      -5.146  49.977 -20.004  1.00  0.00     0.155 C 
HETATM    4  C12 UNL     1      -4.541  49.308 -21.234  1.00  0.00     0.060 C 
HETATM    5  C13 UNL     1      -3.652  48.177 -20.628  1.00  0.00    -0.028 C 
HETATM    6  C14 UNL     1      -2.405  48.655 -19.841  1.00  0.00     0.016 C 
HETATM    7  C15 UNL     1      -3.204  47.282 -21.799  1.00  0.00     0.011 C 
HETATM    8  C16 UNL     1      -2.510  48.080 -22.918  1.00  0.00     0.009 C 
HETATM    9  C17 UNL     1      -3.385  49.240 -23.455  1.00  0.00     0.029 C 
HETATM   10  C18 UNL     1      -2.781  49.965 -24.721  1.00  0.00    -0.031 C 
HETATM   11  C19 UNL     1      -1.344  50.476 -24.449  1.00  0.00     0.016 C 
HETATM   12  C20 UNL     1      -2.680  48.943 -25.912  1.00  0.00     0.012 C 
HETATM   13  C21 UNL     1      -3.185  49.458 -27.268  1.00  0.00     0.032 C 
HETATM   14  C22 UNL     1      -2.849  50.919 -27.537  1.00  0.00     0.118 C 
HETATM   15  C23 UNL     1      -3.279  51.857 -26.401  1.00  0.00     0.039 C 
HETATM   16  C24 UNL     1      -3.764  51.103 -25.147  1.00  0.00     0.025 C 
HETATM   17  C25 UNL     1      -4.173  52.058 -24.011  1.00  0.00     0.126 C 
HETATM   18  C26 UNL     1      -4.793  51.279 -22.847  1.00  0.00     0.071 C 
HETATM   19  C27 UNL     1      -3.846  50.192 -22.297  1.00  0.00     0.071 C 
ENDROOT
BRANCH   1  20
HETATM   20  C2  UNL     1      -4.243  46.488 -18.602  1.00  0.00     0.011 C 
HETATM   21  C1  UNL     1      -3.793  45.162 -19.227  1.00  0.00     0.015 C 
BRANCH  20  22
HETATM   22  C3  UNL     1      -5.339  46.269 -17.567  1.00  0.00    -0.026 C 
HETATM   23  C4  UNL     1      -6.550  45.725 -17.774  1.00  0.00    -0.027 C 
BRANCH  23  24
HETATM   24  C5  UNL     1      -7.585  45.541 -16.690  1.00  0.00     0.066 C 
BRANCH  24  25
HETATM   25  C6  UNL     1      -8.731  46.583 -16.715  1.00  0.00     0.078 C 
HETATM   26  C7  UNL     1      -9.626  46.446 -17.949  1.00  0.00     0.048 C 
BRANCH  25  27
HETATM   27  O1  UNL     1      -8.168  47.910 -16.693  1.00  0.00    -0.388 OA
HETATM   28  H12 UNL     1      -7.728  48.049 -17.550  1.00  0.00     0.210 HD
ENDBRANCH  25  27
BRANCH  25  29
HETATM   29  C8  UNL     1      -9.591  46.456 -15.440  1.00  0.00     0.201 C 
BRANCH  29  30
HETATM   30  O2  UNL     1     -10.972  46.642 -15.752  1.00  0.00    -0.398 OA
HETATM   31  H15 UNL     1     -11.117  46.101 -16.555  1.00  0.00     0.209 HD
ENDBRANCH  29  30
ENDBRANCH  25  29
ENDBRANCH  24  25
ENDBRANCH  23  24
ENDBRANCH  20  22
ENDBRANCH   1  20
BRANCH   2  32
HETATM   32  O3  UNL     1      -4.895  49.125 -17.737  1.00  0.00    -0.393 OA
HETATM   33  H18 UNL     1      -5.340  49.937 -17.441  1.00  0.00     0.210 HD
ENDBRANCH   2  32
BRANCH   3  34
HETATM   34  O4  UNL     1      -6.376  50.622 -20.330  1.00  0.00    -0.392 OA
HETATM   35  H20 UNL     1      -6.675  51.092 -19.532  1.00  0.00     0.210 HD
ENDBRANCH   3  34
BRANCH  19  36
HETATM   36  O7  UNL     1      -2.736  50.840 -21.680  1.00  0.00    -0.389 OA
HETATM   37  H46 UNL     1      -2.597  51.694 -22.143  1.00  0.00     0.210 HD
ENDBRANCH  19  36
BRANCH  17  38
HETATM   38  O6  UNL     1      -3.073  52.813 -23.509  1.00  0.00    -0.395 OA
HETATM   39  H43 UNL     1      -2.751  53.387 -24.228  1.00  0.00     0.210 HD
ENDBRANCH  17  38
BRANCH  14  40
HETATM   40  O5  UNL     1      -1.447  51.063 -27.748  1.00  0.00    -0.396 OA
HETATM   41  H38 UNL     1      -1.187  50.449 -28.456  1.00  0.00     0.210 HD
ENDBRANCH  14  40
TORSDOF 12
ENDMDL
MODEL 5
REMARK minimizedAffinity -9.15744305
REMARK CNNscore 0.606033802
REMARK CNNaffinity 6.43979788
REMARK  12 active torsions:
REMARK  status: ('A' for Active; 'I' for Inactive)
REMARK    1  A    between atoms: C2_2  and  C3_3 
REMARK    2  A    between atoms: C2_2  and  C9_11 
REMARK    3  A    between atoms: C4_4  and  C5_5 
REMARK    4  A    between atoms: C5_5  and  C6_6 
REMARK    5  A    between atoms: C6_6  and  O1_8 
REMARK    6  A    between atoms: C6_6  and  C8_9 
REMARK    7  A    between atoms: C8_9  and  O2_10 
REMARK    8  A    between atoms: C10_12  and  O3_13 
REMARK    9  A    between atoms: C11_14  and  O4_15 
REMARK   10  A    between atoms: C22_26  and  O5_27 
REMARK   11  A    between atoms: C25_30  and  O6_31 
REMARK   12  A    between atoms: C27_33  and  O7_34 
ROOT
HETATM    1  C9  UNL     1       0.520  51.766 -20.814  1.00  0.00     0.033 C 
HETATM    2  C10 UNL     1       0.324  52.460 -19.424  1.00  0.00     0.152 C 
HETATM    3  C11 UNL     1      -0.911  51.793 -18.765  1.00  0.00     0.155 C 
HETATM    4  C12 UNL     1      -1.206  50.599 -19.666  1.00  0.00     0.060 C 
HETATM    5  C13 UNL     1      -0.890  51.141 -21.096  1.00  0.00    -0.028 C 
HETATM    6  C14 UNL     1      -1.857  52.228 -21.629  1.00  0.00     0.016 C 
HETATM    7  C15 UNL     1      -0.908  49.930 -22.049  1.00  0.00     0.011 C 
HETATM    8  C16 UNL     1      -2.224  49.136 -21.966  1.00  0.00     0.009 C 
HETATM    9  C17 UNL     1      -2.550  48.668 -20.527  1.00  0.00     0.029 C 
HETATM   10  C18 UNL     1      -3.795  47.702 -20.433  1.00  0.00    -0.031 C 
HETATM   11  C19 UNL     1      -5.054  48.336 -21.076  1.00  0.00     0.016 C 
HETATM   12  C20 UNL     1      -3.495  46.382 -21.234  1.00  0.00     0.012 C 
HETATM   13  C21 UNL     1      -3.860  45.076 -20.513  1.00  0.00     0.032 C 
HETATM   14  C22 UNL     1      -5.150  45.156 -19.707  1.00  0.00     0.118 C 
HETATM   15  C23 UNL     1      -5.182  46.344 -18.736  1.00  0.00     0.039 C 
HETATM   16  C24 UNL     1      -4.003  47.317 -18.933  1.00  0.00     0.025 C 
HETATM   17  C25 UNL     1      -4.062  48.512 -17.965  1.00  0.00     0.126 C 
HETATM   18  C26 UNL     1      -2.797  49.368 -18.085  1.00  0.00     0.071 C 
HETATM   19  C27 UNL     1      -2.565  49.875 -19.524  1.00  0.00     0.071 C 
ENDROOT
BRANCH   1  20
HETATM   20  C2  UNL     1       1.202  52.661 -21.885  1.00  0.00     0.011 C 
HETATM   21  C1  UNL     1       1.238  54.147 -21.510  1.00  0.00     0.015 C 
BRANCH  20  22
HETATM   22  C3  UNL     1       0.543  52.447 -23.243  1.00  0.00    -0.026 C 
HETATM   23  C4  UNL     1       0.919  52.982 -24.417  1.00  0.00    -0.027 C 
BRANCH  23  24
HETATM   24  C5  UNL     1       0.212  52.719 -25.724  1.00  0.00     0.066 C 
BRANCH  24  25
HETATM   25  C6  UNL     1       0.894  51.652 -26.617  1.00  0.00     0.078 C 
HETATM   26  C7  UNL     1       0.798  51.983 -28.109  1.00  0.00     0.048 C 
BRANCH  25  27
HETATM   27  O1  UNL     1       0.276  50.370 -26.384  1.00  0.00    -0.388 OA
HETATM   28  H12 UNL     1      -0.625  50.416 -26.748  1.00  0.00     0.210 HD
ENDBRANCH  25  27
BRANCH  25  29
HETATM   29  C8  UNL     1       2.378  51.497 -26.221  1.00  0.00     0.201 C 
BRANCH  29  30
HETATM   30  O2  UNL     1       3.210  51.563 -27.378  1.00  0.00    -0.398 OA
HETATM   31  H15 UNL     1       2.866  52.327 -27.885  1.00  0.00     0.209 HD
ENDBRANCH  29  30
ENDBRANCH  25  29
ENDBRANCH  24  25
ENDBRANCH  23  24
ENDBRANCH  20  22
ENDBRANCH   1  20
BRANCH   2  32
HETATM   32  O3  UNL     1       0.101  53.864 -19.546  1.00  0.00    -0.393 OA
HETATM   33  H18 UNL     1      -0.061  54.217 -18.655  1.00  0.00     0.210 HD
ENDBRANCH   2  32
BRANCH   3  34
HETATM   34  O4  UNL     1      -0.589  51.364 -17.443  1.00  0.00    -0.392 OA
HETATM   35  H20 UNL     1      -0.487  52.163 -16.898  1.00  0.00     0.210 HD
ENDBRANCH   3  34
BRANCH  19  36
HETATM   36  O7  UNL     1      -3.599  50.804 -19.840  1.00  0.00    -0.389 OA
HETATM   37  H46 UNL     1      -4.396  50.545 -19.328  1.00  0.00     0.210 HD
ENDBRANCH  19  36
BRANCH  17  38
HETATM   38  O6  UNL     1      -5.192  49.348 -18.196  1.00  0.00    -0.395 OA
HETATM   39  H43 UNL     1      -5.994  48.826 -18.013  1.00  0.00     0.210 HD
ENDBRANCH  17  38
BRANCH  14  40
HETATM   40  O5  UNL     1      -6.267  45.249 -20.587  1.00  0.00    -0.396 OA
HETATM   41  H38 UNL     1      -6.221  44.502 -21.207  1.00  0.00     0.210 HD
ENDBRANCH  14  40
TORSDOF 12
ENDMDL
MODEL 6
REMARK minimizedAffinity -7.4461751
REMARK CNNscore 0.601923585
REMARK CNNaffinity 6.54554176
REMARK  12 active torsions:
REMARK  status: ('A' for Active; 'I' for Inactive)
REMARK    1  A    between atoms: C2_2  and  C3_3 
REMARK    2  A    between atoms: C2_2  and  C9_11 
REMARK    3  A    between atoms: C4_4  and  C5_5 
REMARK    4  A    between atoms: C5_5  and  C6_6 
REMARK    5  A    between atoms: C6_6  and  O1_8 
REMARK    6  A    between atoms: C6_6  and  C8_9 
REMARK    7  A    between atoms: C8_9  and  O2_10 
REMARK    8  A    between atoms: C10_12  and  O3_13 
REMARK    9  A    between atoms: C11_14  and  O4_15 
REMARK   10  A    between atoms: C22_26  and  O5_27 
REMARK   11  A    between atoms: C25_30  and  O6_31 
REMARK   12  A    between atoms: C27_33  and  O7_34 
ROOT
HETATM    1  C9  UNL     1      -4.514  48.743 -21.976  1.00  0.00     0.033 C 
HETATM    2  C10 UNL     1      -5.647  48.387 -22.995  1.00  0.00     0.152 C 
HETATM    3  C11 UNL     1      -5.227  48.999 -24.357  1.00  0.00     0.155 C 
HETATM    4  C12 UNL     1      -3.786  49.443 -24.129  1.00  0.00     0.060 C 
HETATM    5  C13 UNL     1      -3.799  49.961 -22.655  1.00  0.00    -0.028 C 
HETATM    6  C14 UNL     1      -4.608  51.259 -22.408  1.00  0.00     0.016 C 
HETATM    7  C15 UNL     1      -2.331  50.190 -22.248  1.00  0.00     0.011 C 
HETATM    8  C16 UNL     1      -1.587  51.120 -23.223  1.00  0.00     0.009 C 
HETATM    9  C17 UNL     1      -1.648  50.622 -24.688  1.00  0.00     0.029 C 
HETATM   10  C18 UNL     1      -0.749  51.453 -25.685  1.00  0.00    -0.031 C 
HETATM   11  C19 UNL     1      -1.090  52.963 -25.631  1.00  0.00     0.016 C 
HETATM   12  C20 UNL     1       0.761  51.315 -25.269  1.00  0.00     0.012 C 
HETATM   13  C21 UNL     1       1.738  51.025 -26.417  1.00  0.00     0.032 C 
HETATM   14  C22 UNL     1       1.408  51.763 -27.709  1.00  0.00     0.118 C 
HETATM   15  C23 UNL     1      -0.044  51.565 -28.163  1.00  0.00     0.039 C 
HETATM   16  C24 UNL     1      -0.911  50.841 -27.114  1.00  0.00     0.025 C 
HETATM   17  C25 UNL     1      -2.369  50.668 -27.578  1.00  0.00     0.126 C 
HETATM   18  C26 UNL     1      -3.155  49.811 -26.581  1.00  0.00     0.071 C 
HETATM   19  C27 UNL     1      -3.129  50.398 -25.154  1.00  0.00     0.071 C 
ENDROOT
BRANCH   1  20
HETATM   20  C2  UNL     1      -4.990  48.846 -20.500  1.00  0.00     0.011 C 
HETATM   21  C1  UNL     1      -4.174  49.836 -19.661  1.00  0.00     0.015 C 
BRANCH  20  22
HETATM   22  C3  UNL     1      -5.014  47.464 -19.859  1.00  0.00    -0.026 C 
HETATM   23  C4  UNL     1      -4.613  46.308 -20.415  1.00  0.00    -0.027 C 
BRANCH  23  24
HETATM   24  C5  UNL     1      -4.668  44.974 -19.710  1.00  0.00     0.066 C 
BRANCH  24  25
HETATM   25  C6  UNL     1      -5.795  44.034 -20.206  1.00  0.00     0.078 C 
HETATM   26  C7  UNL     1      -7.064  44.136 -19.356  1.00  0.00     0.048 C 
BRANCH  25  27
HETATM   27  O1  UNL     1      -5.324  42.671 -20.179  1.00  0.00    -0.388 OA
HETATM   28  H12 UNL     1      -5.226  42.421 -19.244  1.00  0.00     0.210 HD
ENDBRANCH  25  27
BRANCH  25  29
HETATM   29  C8  UNL     1      -6.137  44.345 -21.679  1.00  0.00     0.201 C 
BRANCH  29  30
HETATM   30  O2  UNL     1      -7.546  44.509 -21.837  1.00  0.00    -0.398 OA
HETATM   31  H15 UNL     1      -7.812  45.083 -21.090  1.00  0.00     0.209 HD
ENDBRANCH  29  30
ENDBRANCH  25  29
ENDBRANCH  24  25
ENDBRANCH  23  24
ENDBRANCH  20  22
ENDBRANCH   1  20
BRANCH   2  32
HETATM   32  O3  UNL     1      -6.914  48.915 -22.603  1.00  0.00    -0.393 OA
HETATM   33  H18 UNL     1      -7.554  48.700 -23.303  1.00  0.00     0.210 HD
ENDBRANCH   2  32
BRANCH   3  34
HETATM   34  O4  UNL     1      -5.297  48.010 -25.382  1.00  0.00    -0.392 OA
HETATM   35  H20 UNL     1      -6.239  47.821 -25.536  1.00  0.00     0.210 HD
ENDBRANCH   3  34
BRANCH  19  36
HETATM   36  O7  UNL     1      -3.866  51.618 -25.162  1.00  0.00    -0.389 OA
HETATM   37  H46 UNL     1      -3.786  52.006 -26.060  1.00  0.00     0.210 HD
ENDBRANCH  19  36
BRANCH  17  38
HETATM   38  O6  UNL     1      -3.045  51.912 -27.730  1.00  0.00    -0.395 OA
HETATM   39  H43 UNL     1      -2.603  52.409 -28.443  1.00  0.00     0.210 HD
ENDBRANCH  17  38
BRANCH  14  40
HETATM   40  O5  UNL     1       1.654  53.157 -27.547  1.00  0.00    -0.396 OA
HETATM   41  H38 UNL     1       2.571  53.265 -27.241  1.00  0.00     0.210 HD
ENDBRANCH  14  40
TORSDOF 12
ENDMDL
MODEL 7
REMARK minimizedAffinity -8.97578144
REMARK CNNscore 0.578694165
REMARK CNNaffinity 7.05827522
REMARK  12 active torsions:
REMARK  status: ('A' for Active; 'I' for Inactive)
REMARK    1  A    between atoms: C2_2  and  C3_3 
REMARK    2  A    between atoms: C2_2  and  C9_11 
REMARK    3  A    between atoms: C4_4  and  C5_5 
REMARK    4  A    between atoms: C5_5  and  C6_6 
REMARK    5  A    between atoms: C6_6  and  O1_8 
REMARK    6  A    between atoms: C6_6  and  C8_9 
REMARK    7  A    between atoms: C8_9  and  O2_10 
REMARK    8  A    between atoms: C10_12  and  O3_13 
REMARK    9  A    between atoms: C11_14  and  O4_15 
REMARK   10  A    between atoms: C22_26  and  O5_27 
REMARK   11  A    between atoms: C25_30  and  O6_31 
REMARK   12  A    between atoms: C27_33  and  O7_34 
ROOT
HETATM    1  C9  UNL     1      -4.440  50.180 -21.994  1.00  0.00     0.033 C 
HETATM    2  C10 UNL     1      -5.604  49.981 -23.021  1.00  0.00     0.152 C 
HETATM    3  C11 UNL     1      -5.044  50.385 -24.410  1.00  0.00     0.155 C 
HETATM    4  C12 UNL     1      -3.547  50.544 -24.168  1.00  0.00     0.060 C 
HETATM    5  C13 UNL     1      -3.479  51.170 -22.738  1.00  0.00    -0.028 C 
HETATM    6  C14 UNL     1      -4.010  52.620 -22.616  1.00  0.00     0.016 C 
HETATM    7  C15 UNL     1      -2.003  51.128 -22.301  1.00  0.00     0.011 C 
HETATM    8  C16 UNL     1      -1.068  51.808 -23.317  1.00  0.00     0.009 C 
HETATM    9  C17 UNL     1      -1.204  51.217 -24.742  1.00  0.00     0.029 C 
HETATM   10  C18 UNL     1      -0.137  51.766 -25.768  1.00  0.00    -0.031 C 
HETATM   11  C19 UNL     1      -0.162  53.314 -25.838  1.00  0.00     0.016 C 
HETATM   12  C20 UNL     1       1.306  51.359 -25.292  1.00  0.00     0.012 C 
HETATM   13  C21 UNL     1       2.223  50.786 -26.382  1.00  0.00     0.032 C 
HETATM   14  C22 UNL     1       2.073  51.470 -27.736  1.00  0.00     0.118 C 
HETATM   15  C23 UNL     1       0.620  51.534 -28.222  1.00  0.00     0.039 C 
HETATM   16  C24 UNL     1      -0.395  51.087 -27.152  1.00  0.00     0.025 C 
HETATM   17  C25 UNL     1      -1.849  51.176 -27.650  1.00  0.00     0.126 C 
HETATM   18  C26 UNL     1      -2.812  50.579 -26.618  1.00  0.00     0.071 C 
HETATM   19  C27 UNL     1      -2.691  51.260 -25.239  1.00  0.00     0.071 C 
ENDROOT
BRANCH   1  20
HETATM   20  C2  UNL     1      -4.910  50.495 -20.547  1.00  0.00     0.011 C 
HETATM   21  C1  UNL     1      -3.782  50.974 -19.626  1.00  0.00     0.015 C 
BRANCH  20  22
HETATM   22  C3  UNL     1      -5.635  49.291 -19.957  1.00  0.00    -0.026 C 
HETATM   23  C4  UNL     1      -6.961  49.080 -19.931  1.00  0.00    -0.027 C 
BRANCH  23  24
HETATM   24  C5  UNL     1      -7.604  47.854 -19.327  1.00  0.00     0.066 C 
BRANCH  24  25
HETATM   25  C6  UNL     1      -8.340  48.112 -17.988  1.00  0.00     0.078 C 
HETATM   26  C7  UNL     1      -8.946  49.515 -17.908  1.00  0.00     0.048 C 
BRANCH  25  27
HETATM   27  O1  UNL     1      -7.415  47.941 -16.895  1.00  0.00    -0.388 OA
HETATM   28  H12 UNL     1      -6.779  48.677 -16.941  1.00  0.00     0.210 HD
ENDBRANCH  25  27
BRANCH  25  29
HETATM   29  C8  UNL     1      -9.451  47.060 -17.783  1.00  0.00     0.201 C 
BRANCH  29  30
HETATM   30  O2  UNL     1     -10.556  47.635 -17.084  1.00  0.00    -0.398 OA
HETATM   31  H15 UNL     1     -10.705  48.496 -17.526  1.00  0.00     0.209 HD
ENDBRANCH  29  30
ENDBRANCH  25  29
ENDBRANCH  24  25
ENDBRANCH  23  24
ENDBRANCH  20  22
ENDBRANCH   1  20
BRANCH   2  32
HETATM   32  O3  UNL     1      -6.743  50.784 -22.712  1.00  0.00    -0.393 OA
HETATM   33  H18 UNL     1      -7.401  50.648 -23.415  1.00  0.00     0.210 HD
ENDBRANCH   2  32
BRANCH   3  34
HETATM   34  O4  UNL     1      -5.298  49.351 -25.360  1.00  0.00    -0.392 OA
HETATM   35  H20 UNL     1      -6.255  49.345 -25.531  1.00  0.00     0.210 HD
ENDBRANCH   3  34
BRANCH  19  36
HETATM   36  O7  UNL     1      -3.163  52.600 -25.363  1.00  0.00    -0.389 OA
HETATM   37  H46 UNL     1      -2.989  52.891 -26.284  1.00  0.00     0.210 HD
ENDBRANCH  19  36
BRANCH  17  38
HETATM   38  O6  UNL     1      -2.255  52.515 -27.917  1.00  0.00    -0.395 OA
HETATM   39  H43 UNL     1      -1.708  52.853 -28.650  1.00  0.00     0.210 HD
ENDBRANCH  17  38
BRANCH  14  40
HETATM   40  O5  UNL     1       2.597  52.793 -27.671  1.00  0.00    -0.396 OA
HETATM   41  H38 UNL     1       3.510  52.738 -27.343  1.00  0.00     0.210 HD
ENDBRANCH  14  40
TORSDOF 12
ENDMDL
MODEL 8
REMARK minimizedAffinity -7.96431398
REMARK CNNscore 0.577173412
REMARK CNNaffinity 5.91342402
REMARK  12 active torsions:
REMARK  status: ('A' for Active; 'I' for Inactive)
REMARK    1  A    between atoms: C2_2  and  C3_3 
REMARK    2  A    between atoms: C2_2  and  C9_11 
REMARK    3  A    between atoms: C4_4  and  C5_5 
REMARK    4  A    between atoms: C5_5  and  C6_6 
REMARK    5  A    between atoms: C6_6  and  O1_8 
REMARK    6  A    between atoms: C6_6  and  C8_9 
REMARK    7  A    between atoms: C8_9  and  O2_10 
REMARK    8  A    between atoms: C10_12  and  O3_13 
REMARK    9  A    between atoms: C11_14  and  O4_15 
REMARK   10  A    between atoms: C22_26  and  O5_27 
REMARK   11  A    between atoms: C25_30  and  O6_31 
REMARK   12  A    between atoms: C27_33  and  O7_34 
ROOT
HETATM    1  C9  UNL     1     -13.390  46.598 -27.218  1.00  0.00     0.033 C 
HETATM    2  C10 UNL     1     -12.724  47.372 -26.032  1.00  0.00     0.152 C 
HETATM    3  C11 UNL     1     -11.256  47.647 -26.449  1.00  0.00     0.155 C 
HETATM    4  C12 UNL     1     -11.218  47.260 -27.924  1.00  0.00     0.060 C 
HETATM    5  C13 UNL     1     -12.159  46.015 -27.993  1.00  0.00    -0.028 C 
HETATM    6  C14 UNL     1     -11.637  44.741 -27.283  1.00  0.00     0.016 C 
HETATM    7  C15 UNL     1     -12.389  45.710 -29.486  1.00  0.00     0.011 C 
HETATM    8  C16 UNL     1     -11.070  45.532 -30.260  1.00  0.00     0.009 C 
HETATM    9  C17 UNL     1     -10.125  46.750 -30.119  1.00  0.00     0.029 C 
HETATM   10  C18 UNL     1      -8.845  46.678 -31.041  1.00  0.00    -0.031 C 
HETATM   11  C19 UNL     1      -8.051  45.368 -30.807  1.00  0.00     0.016 C 
HETATM   12  C20 UNL     1      -9.286  46.675 -32.550  1.00  0.00     0.012 C 
HETATM   13  C21 UNL     1      -8.502  47.623 -33.469  1.00  0.00     0.032 C 
HETATM   14  C22 UNL     1      -7.013  47.699 -33.150  1.00  0.00     0.118 C 
HETATM   15  C23 UNL     1      -6.728  48.006 -31.674  1.00  0.00     0.039 C 
HETATM   16  C24 UNL     1      -7.992  47.963 -30.793  1.00  0.00     0.025 C 
HETATM   17  C25 UNL     1      -7.683  48.255 -29.313  1.00  0.00     0.126 C 
HETATM   18  C26 UNL     1      -8.979  48.356 -28.501  1.00  0.00     0.071 C 
HETATM   19  C27 UNL     1      -9.843  47.083 -28.612  1.00  0.00     0.071 C 
ENDROOT
BRANCH   1  20
HETATM   20  C2  UNL     1     -14.557  45.662 -26.797  1.00  0.00     0.011 C 
HETATM   21  C1  UNL     1     -15.329  45.073 -27.983  1.00  0.00     0.015 C 
BRANCH  20  22
HETATM   22  C3  UNL     1     -15.488  46.387 -25.833  1.00  0.00    -0.026 C 
HETATM   23  C4  UNL     1     -16.045  45.886 -24.718  1.00  0.00    -0.027 C 
BRANCH  23  24
HETATM   24  C5  UNL     1     -16.960  46.673 -23.811  1.00  0.00     0.066 C 
BRANCH  24  25
HETATM   25  C6  UNL     1     -18.204  45.889 -23.320  1.00  0.00     0.078 C 
HETATM   26  C7  UNL     1     -18.641  46.299 -21.911  1.00  0.00     0.048 C 
BRANCH  25  27
HETATM   27  O1  UNL     1     -17.909  44.478 -23.325  1.00  0.00    -0.388 OA
HETATM   28  H12 UNL     1     -17.258  44.319 -22.619  1.00  0.00     0.210 HD
ENDBRANCH  25  27
BRANCH  25  29
HETATM   29  C8  UNL     1     -19.379  46.090 -24.301  1.00  0.00     0.201 C 
BRANCH  29  30
HETATM   30  O2  UNL     1     -19.322  47.391 -24.884  1.00  0.00    -0.398 OA
HETATM   31  H15 UNL     1     -18.384  47.507 -25.138  1.00  0.00     0.209 HD
ENDBRANCH  29  30
ENDBRANCH  25  29
ENDBRANCH  24  25
ENDBRANCH  23  24
ENDBRANCH  20  22
ENDBRANCH   1  20
BRANCH   2  32
HETATM   32  O3  UNL     1     -12.744  46.623 -24.817  1.00  0.00    -0.393 OA
HETATM   33  H18 UNL     1     -12.272  47.140 -24.142  1.00  0.00     0.210 HD
ENDBRANCH   2  32
BRANCH   3  34
HETATM   34  O4  UNL     1     -10.949  49.030 -26.279  1.00  0.00    -0.392 OA
HETATM   35  H20 UNL     1     -10.914  49.201 -25.322  1.00  0.00     0.210 HD
ENDBRANCH   3  34
BRANCH  19  36
HETATM   36  O7  UNL     1      -9.153  46.019 -27.961  1.00  0.00    -0.389 OA
HETATM   37  H46 UNL     1      -8.191  46.199 -28.040  1.00  0.00     0.210 HD
ENDBRANCH  19  36
BRANCH  17  38
HETATM   38  O6  UNL     1      -6.861  47.255 -28.719  1.00  0.00    -0.395 OA
HETATM   39  H43 UNL     1      -5.997  47.269 -29.171  1.00  0.00     0.210 HD
ENDBRANCH  17  38
BRANCH  14  40
HETATM   40  O5  UNL     1      -6.380  46.470 -33.496  1.00  0.00    -0.396 OA
HETATM   41  H38 UNL     1      -6.586  46.280 -34.427  1.00  0.00     0.210 HD
ENDBRANCH  14  40
TORSDOF 12
ENDMDL
MODEL 9
REMARK minimizedAffinity -8.82371998
REMARK CNNscore 0.498819053
REMARK CNNaffinity 6.25848532
REMARK  12 active torsions:
REMARK  status: ('A' for Active; 'I' for Inactive)
REMARK    1  A    between atoms: C2_2  and  C3_3 
REMARK    2  A    between atoms: C2_2  and  C9_11 
REMARK    3  A    between atoms: C4_4  and  C5_5 
REMARK    4  A    between atoms: C5_5  and  C6_6 
REMARK    5  A    between atoms: C6_6  and  O1_8 
REMARK    6  A    between atoms: C6_6  and  C8_9 
REMARK    7  A    between atoms: C8_9  and  O2_10 
REMARK    8  A    between atoms: C10_12  and  O3_13 
REMARK    9  A    between atoms: C11_14  and  O4_15 
REMARK   10  A    between atoms: C22_26  and  O5_27 
REMARK   11  A    between atoms: C25_30  and  O6_31 
REMARK   12  A    between atoms: C27_33  and  O7_34 
ROOT
HETATM    1  C9  UNL     1      -0.288  50.681 -19.004  1.00  0.00     0.033 C 
HETATM    2  C10 UNL     1      -1.648  49.907 -18.955  1.00  0.00     0.152 C 
HETATM    3  C11 UNL     1      -2.243  49.965 -20.386  1.00  0.00     0.155 C 
HETATM    4  C12 UNL     1      -1.107  50.529 -21.232  1.00  0.00     0.060 C 
HETATM    5  C13 UNL     1      -0.438  51.574 -20.283  1.00  0.00    -0.028 C 
HETATM    6  C14 UNL     1      -1.289  52.827 -19.960  1.00  0.00     0.016 C 
HETATM    7  C15 UNL     1       0.879  52.011 -20.954  1.00  0.00     0.011 C 
HETATM    8  C16 UNL     1       0.665  52.527 -22.389  1.00  0.00     0.009 C 
HETATM    9  C17 UNL     1      -0.062  51.500 -23.291  1.00  0.00     0.029 C 
HETATM   10  C18 UNL     1      -0.139  51.922 -24.811  1.00  0.00    -0.031 C 
HETATM   11  C19 UNL     1      -0.788  53.319 -24.978  1.00  0.00     0.016 C 
HETATM   12  C20 UNL     1       1.316  52.026 -25.399  1.00  0.00     0.012 C 
HETATM   13  C21 UNL     1       1.523  51.362 -26.768  1.00  0.00     0.032 C 
HETATM   14  C22 UNL     1       0.343  51.528 -27.719  1.00  0.00     0.118 C 
HETATM   15  C23 UNL     1      -0.995  51.102 -27.100  1.00  0.00     0.039 C 
HETATM   16  C24 UNL     1      -0.894  50.799 -25.592  1.00  0.00     0.025 C 
HETATM   17  C25 UNL     1      -2.249  50.393 -24.985  1.00  0.00     0.126 C 
HETATM   18  C26 UNL     1      -2.077  49.951 -23.527  1.00  0.00     0.071 C 
HETATM   19  C27 UNL     1      -1.422  51.044 -22.656  1.00  0.00     0.071 C 
ENDROOT
BRANCH   1  20
HETATM   20  C2  UNL     1       0.132  51.323 -17.653  1.00  0.00     0.011 C 
HETATM   21  C1  UNL     1       1.093  52.507 -17.809  1.00  0.00     0.015 C 
BRANCH  20  22
HETATM   22  C3  UNL     1       0.708  50.261 -16.724  1.00  0.00    -0.026 C 
HETATM   23  C4  UNL     1       0.113  49.121 -16.333  1.00  0.00    -0.027 C 
BRANCH  23  24
HETATM   24  C5  UNL     1       0.753  48.115 -15.408  1.00  0.00     0.066 C 
BRANCH  24  25
HETATM   25  C6  UNL     1      -0.239  47.392 -14.462  1.00  0.00     0.078 C 
HETATM   26  C7  UNL     1       0.468  46.532 -13.411  1.00  0.00     0.048 C 
BRANCH  25  27
HETATM   27  O1  UNL     1      -1.112  46.550 -15.243  1.00  0.00    -0.388 OA
HETATM   28  H12 UNL     1      -0.570  45.820 -15.591  1.00  0.00     0.210 HD
ENDBRANCH  25  27
BRANCH  25  29
HETATM   29  C8  UNL     1      -1.146  48.421 -13.757  1.00  0.00     0.201 C 
BRANCH  29  30
HETATM   30  O2  UNL     1      -0.396  49.172 -12.802  1.00  0.00    -0.398 OA
HETATM   31  H15 UNL     1       0.427  49.414 -13.271  1.00  0.00     0.209 HD
ENDBRANCH  29  30
ENDBRANCH  25  29
ENDBRANCH  24  25
ENDBRANCH  23  24
ENDBRANCH  20  22
ENDBRANCH   1  20
BRANCH   2  32
HETATM   32  O3  UNL     1      -2.567  50.485 -18.030  1.00  0.00    -0.393 OA
HETATM   33  H18 UNL     1      -3.400  49.987 -18.090  1.00  0.00     0.210 HD
ENDBRANCH   2  32
BRANCH   3  34
HETATM   34  O4  UNL     1      -2.599  48.654 -20.823  1.00  0.00    -0.392 OA
HETATM   35  H20 UNL     1      -3.372  48.377 -20.302  1.00  0.00     0.210 HD
ENDBRANCH   3  34
BRANCH  19  36
HETATM   36  O7  UNL     1      -2.338  52.131 -22.544  1.00  0.00    -0.389 OA
HETATM   37  H46 UNL     1      -2.880  52.146 -23.362  1.00  0.00     0.210 HD
ENDBRANCH  19  36
BRANCH  17  38
HETATM   38  O6  UNL     1      -3.204  51.449 -25.022  1.00  0.00    -0.395 OA
HETATM   39  H43 UNL     1      -3.389  51.652 -25.958  1.00  0.00     0.210 HD
ENDBRANCH  17  38
BRANCH  14  40
HETATM   40  O5  UNL     1       0.246  52.886 -28.138  1.00  0.00    -0.396 OA
HETATM   41  H38 UNL     1       1.106  53.147 -28.509  1.00  0.00     0.210 HD
ENDBRANCH  14  40
TORSDOF 12
ENDMDL
