MODEL 1
REMARK minimizedAffinity -8.15393066
REMARK CNNscore 0.742790401
REMARK CNNaffinity 6.28035784
REMARK  8 active torsions:
REMARK  status: ('A' for Active; 'I' for Inactive)
REMARK    1  A    between atoms: C2_2  and  C30_35 
REMARK    2  A    between atoms: C3_3  and  C4_4 
REMARK    3  A    between atoms: C4_4  and  O1_5 
REMARK    4  A    between atoms: C4_4  and  C5_6 
REMARK    5  A    between atoms: C5_6  and  C6_7 
REMARK    6  A    between atoms: C6_7  and  C8_9 
REMARK    7  A    between atoms: C29_33  and  O5_34 
REMARK    8  A    between atoms: C30_35  and  O7_37 
ROOT
HETATM    1  C8  UNL     1     -12.762  45.851 -27.512  1.00  0.00     0.006 C 
HETATM    2  C9  UNL     1     -13.234  44.810 -28.558  1.00  0.00     0.085 C 
HETATM    3  C10 UNL     1     -12.050  44.697 -29.500  1.00  0.00     0.140 C 
HETATM    4  O2  UNL     1     -12.016  43.922 -30.450  1.00  0.00    -0.297 OA
HETATM    5  C11 UNL     1     -10.892  45.607 -29.067  1.00  0.00     0.051 C 
HETATM    6  C12 UNL     1     -10.011  44.665 -28.195  1.00  0.00     0.029 C 
HETATM    7  C13 UNL     1      -9.950  46.298 -30.041  1.00  0.00    -0.024 C 
HETATM    8  C14 UNL     1      -9.191  47.343 -29.614  1.00  0.00     0.003 C 
HETATM    9  C15 UNL     1      -9.477  47.923 -28.234  1.00  0.00     0.157 C 
HETATM   10  O3  UNL     1      -8.717  48.745 -27.722  1.00  0.00    -0.293 OA
HETATM   11  C16 UNL     1     -10.720  47.498 -27.453  1.00  0.00     0.094 C 
HETATM   12  C17 UNL     1     -11.714  46.703 -28.299  1.00  0.00    -0.015 C 
HETATM   13  C18 UNL     1     -12.429  47.696 -29.265  1.00  0.00     0.018 C 
HETATM   14  C19 UNL     1      -8.077  47.996 -30.461  1.00  0.00    -0.008 C 
HETATM   15  C20 UNL     1      -8.625  49.369 -30.941  1.00  0.00     0.021 C 
HETATM   16  C21 UNL     1      -6.778  48.256 -29.634  1.00  0.00     0.022 C 
HETATM   17  C22 UNL     1      -5.510  48.266 -30.472  1.00  0.00     0.080 C 
HETATM   18  C23 UNL     1      -5.291  46.924 -31.132  1.00  0.00     0.135 C 
HETATM   19  O4  UNL     1      -4.145  46.530 -31.360  1.00  0.00    -0.297 OA
HETATM   20  C24 UNL     1      -6.538  46.111 -31.527  1.00  0.00     0.018 C 
HETATM   21  C25 UNL     1      -6.752  45.038 -30.448  1.00  0.00     0.023 C 
HETATM   22  C26 UNL     1      -6.210  45.380 -32.848  1.00  0.00     0.023 C 
HETATM   23  C27 UNL     1      -7.713  47.131 -31.733  1.00  0.00     0.016 C 
HETATM   24  C28 UNL     1      -8.985  46.567 -32.382  1.00  0.00     0.043 C 
HETATM   25  C29 UNL     1      -9.871  45.755 -31.444  1.00  0.00     0.149 C 
ENDROOT
BRANCH   1  26
HETATM   26  C6  UNL     1     -13.939  46.488 -26.705  1.00  0.00    -0.011 C 
HETATM   27  C7  UNL     1     -13.658  46.812 -25.235  1.00  0.00     0.010 C 
BRANCH  26  28
HETATM   28  C5  UNL     1     -15.242  45.663 -26.872  1.00  0.00     0.040 C 
BRANCH  28  29
HETATM   29  C4  UNL     1     -15.846  45.002 -25.617  1.00  0.00     0.142 C 
BRANCH  29  30
HETATM   30  C3  UNL     1     -17.112  45.634 -25.117  1.00  0.00     0.018 C 
HETATM   31  C2  UNL     1     -18.329  45.572 -25.702  1.00  0.00     0.010 C 
HETATM   32  C1  UNL     1     -18.656  44.847 -26.972  1.00  0.00     0.055 C 
BRANCH  31  33
HETATM   33  C30 UNL     1     -19.434  46.273 -25.000  1.00  0.00     0.171 C 
HETATM   34  O6  UNL     1     -20.516  45.803 -24.697  1.00  0.00    -0.646 OA
BRANCH  33  35
HETATM   35  O7  UNL     1     -19.132  47.552 -24.720  1.00  0.00    -0.773 OA
HETATM   36  H42 UNL     1     -19.930  47.885 -24.261  1.00  0.00     0.167 HD
ENDBRANCH  33  35
ENDBRANCH  31  33
ENDBRANCH  29  30
BRANCH  29  37
HETATM   37  O1  UNL     1     -16.065  43.616 -25.847  1.00  0.00    -0.392 OA
HETATM   38  H6  UNL     1     -16.893  43.511 -26.347  1.00  0.00     0.210 HD
ENDBRANCH  29  37
ENDBRANCH  28  29
ENDBRANCH  26  28
ENDBRANCH   1  26
BRANCH  25  39
HETATM   39  O5  UNL     1     -11.174  45.807 -32.019  1.00  0.00    -0.391 OA
HETATM   40  H41 UNL     1     -11.560  44.911 -31.902  1.00  0.00     0.210 HD
ENDBRANCH  25  39
TORSDOF 8
ENDMDL
MODEL 2
REMARK minimizedAffinity -10.0419798
REMARK CNNscore 0.728057206
REMARK CNNaffinity 7.06817579
REMARK  8 active torsions:
REMARK  status: ('A' for Active; 'I' for Inactive)
REMARK    1  A    between atoms: C2_2  and  C30_35 
REMARK    2  A    between atoms: C3_3  and  C4_4 
REMARK    3  A    between atoms: C4_4  and  O1_5 
REMARK    4  A    between atoms: C4_4  and  C5_6 
REMARK    5  A    between atoms: C5_6  and  C6_7 
REMARK    6  A    between atoms: C6_7  and  C8_9 
REMARK    7  A    between atoms: C29_33  and  O5_34 
REMARK    8  A    between atoms: C30_35  and  O7_37 
ROOT
HETATM    1  C8  UNL     1      -0.805  49.558 -18.147  1.00  0.00     0.006 C 
HETATM    2  C9  UNL     1      -1.693  48.320 -17.861  1.00  0.00     0.085 C 
HETATM    3  C10 UNL     1      -2.424  48.101 -19.172  1.00  0.00     0.140 C 
HETATM    4  O2  UNL     1      -3.197  47.169 -19.363  1.00  0.00    -0.297 OA
HETATM    5  C11 UNL     1      -2.012  49.134 -20.230  1.00  0.00     0.051 C 
HETATM    6  C12 UNL     1      -0.866  48.414 -20.998  1.00  0.00     0.029 C 
HETATM    7  C13 UNL     1      -2.959  49.685 -21.285  1.00  0.00    -0.024 C 
HETATM    8  C14 UNL     1      -2.634  50.828 -21.947  1.00  0.00     0.003 C 
HETATM    9  C15 UNL     1      -1.441  51.634 -21.447  1.00  0.00     0.157 C 
HETATM   10  O3  UNL     1      -0.992  52.574 -22.103  1.00  0.00    -0.293 OA
HETATM   11  C16 UNL     1      -0.774  51.294 -20.116  1.00  0.00     0.094 C 
HETATM   12  C17 UNL     1      -1.585  50.307 -19.277  1.00  0.00    -0.015 C 
HETATM   13  C18 UNL     1      -2.810  51.068 -18.684  1.00  0.00     0.018 C 
HETATM   14  C19 UNL     1      -3.426  51.375 -23.155  1.00  0.00    -0.008 C 
HETATM   15  C20 UNL     1      -4.226  52.606 -22.647  1.00  0.00     0.021 C 
HETATM   16  C21 UNL     1      -2.492  51.849 -24.312  1.00  0.00     0.022 C 
HETATM   17  C22 UNL     1      -3.133  51.773 -25.688  1.00  0.00     0.080 C 
HETATM   18  C23 UNL     1      -3.492  50.347 -26.036  1.00  0.00     0.135 C 
HETATM   19  O4  UNL     1      -3.482  49.978 -27.213  1.00  0.00    -0.297 OA
HETATM   20  C24 UNL     1      -3.896  49.411 -24.882  1.00  0.00     0.018 C 
HETATM   21  C25 UNL     1      -2.676  48.542 -24.541  1.00  0.00     0.023 C 
HETATM   22  C26 UNL     1      -4.999  48.470 -25.418  1.00  0.00     0.023 C 
HETATM   23  C27 UNL     1      -4.451  50.313 -23.722  1.00  0.00     0.016 C 
HETATM   24  C28 UNL     1      -5.152  49.575 -22.574  1.00  0.00     0.043 C 
HETATM   25  C29 UNL     1      -4.211  48.901 -21.582  1.00  0.00     0.149 C 
ENDROOT
BRANCH   1  26
HETATM   26  C6  UNL     1      -0.302  50.268 -16.849  1.00  0.00    -0.011 C 
HETATM   27  C7  UNL     1      -1.375  50.657 -15.828  1.00  0.00     0.010 C 
BRANCH  26  28
HETATM   28  C5  UNL     1       0.627  51.462 -17.190  1.00  0.00     0.040 C 
BRANCH  28  29
HETATM   29  C4  UNL     1       1.215  52.278 -16.021  1.00  0.00     0.142 C 
BRANCH  29  30
HETATM   30  C3  UNL     1       2.036  51.486 -15.046  1.00  0.00     0.018 C 
HETATM   31  C2  UNL     1       3.384  51.407 -15.006  1.00  0.00     0.010 C 
HETATM   32  C1  UNL     1       4.333  52.109 -15.931  1.00  0.00     0.055 C 
BRANCH  31  33
HETATM   33  C30 UNL     1       3.964  50.561 -13.930  1.00  0.00     0.171 C 
HETATM   34  O6  UNL     1       4.826  49.712 -14.061  1.00  0.00    -0.646 OA
BRANCH  33  35
HETATM   35  O7  UNL     1       3.416  50.816 -12.730  1.00  0.00    -0.773 OA
HETATM   36  H42 UNL     1       3.887  50.206 -12.126  1.00  0.00     0.167 HD
ENDBRANCH  33  35
ENDBRANCH  31  33
ENDBRANCH  29  30
BRANCH  29  37
HETATM   37  O1  UNL     1       1.985  53.365 -16.518  1.00  0.00    -0.392 OA
HETATM   38  H6  UNL     1       2.862  53.033 -16.776  1.00  0.00     0.210 HD
ENDBRANCH  29  37
ENDBRANCH  28  29
ENDBRANCH  26  28
ENDBRANCH   1  26
BRANCH  25  39
HETATM   39  O5  UNL     1      -4.960  48.779 -20.376  1.00  0.00    -0.391 OA
HETATM   40  H41 UNL     1      -4.731  47.900 -20.000  1.00  0.00     0.210 HD
ENDBRANCH  25  39
TORSDOF 8
ENDMDL
MODEL 3
REMARK minimizedAffinity -7.31591988
REMARK CNNscore 0.688770652
REMARK CNNaffinity 6.51819754
REMARK  8 active torsions:
REMARK  status: ('A' for Active; 'I' for Inactive)
REMARK    1  A    between atoms: C2_2  and  C30_35 
REMARK    2  A    between atoms: C3_3  and  C4_4 
REMARK    3  A    between atoms: C4_4  and  O1_5 
REMARK    4  A    between atoms: C4_4  and  C5_6 
REMARK    5  A    between atoms: C5_6  and  C6_7 
REMARK    6  A    between atoms: C6_7  and  C8_9 
REMARK    7  A    between atoms: C29_33  and  O5_34 
REMARK    8  A    between atoms: C30_35  and  O7_37 
ROOT
HETATM    1  C8  UNL     1      -1.547  52.571 -10.365  1.00  0.00     0.006 C 
HETATM    2  C9  UNL     1      -0.636  52.472 -11.615  1.00  0.00     0.085 C 
HETATM    3  C10 UNL     1       0.694  53.014 -11.125  1.00  0.00     0.140 C 
HETATM    4  O2  UNL     1       1.702  53.055 -11.822  1.00  0.00    -0.297 OA
HETATM    5  C11 UNL     1       0.630  53.420  -9.647  1.00  0.00     0.051 C 
HETATM    6  C12 UNL     1       1.124  52.143  -8.908  1.00  0.00     0.029 C 
HETATM    7  C13 UNL     1       1.407  54.587  -9.057  1.00  0.00    -0.024 C 
HETATM    8  C14 UNL     1       1.040  55.097  -7.851  1.00  0.00     0.003 C 
HETATM    9  C15 UNL     1      -0.275  54.625  -7.240  1.00  0.00     0.157 C 
HETATM   10  O3  UNL     1      -0.574  54.912  -6.081  1.00  0.00    -0.293 OA
HETATM   11  C16 UNL     1      -1.255  53.785  -8.057  1.00  0.00     0.094 C 
HETATM   12  C17 UNL     1      -0.905  53.737  -9.544  1.00  0.00    -0.015 C 
HETATM   13  C18 UNL     1      -1.272  55.116 -10.172  1.00  0.00     0.018 C 
HETATM   14  C19 UNL     1       1.862  56.153  -7.080  1.00  0.00    -0.008 C 
HETATM   15  C20 UNL     1       1.097  57.499  -7.208  1.00  0.00     0.021 C 
HETATM   16  C21 UNL     1       1.990  55.812  -5.561  1.00  0.00     0.022 C 
HETATM   17  C22 UNL     1       3.241  56.378  -4.909  1.00  0.00     0.080 C 
HETATM   18  C23 UNL     1       4.485  55.802  -5.544  1.00  0.00     0.135 C 
HETATM   19  O4  UNL     1       5.511  55.662  -4.873  1.00  0.00    -0.297 OA
HETATM   20  C24 UNL     1       4.422  55.442  -7.040  1.00  0.00     0.018 C 
HETATM   21  C25 UNL     1       4.214  53.923  -7.143  1.00  0.00     0.023 C 
HETATM   22  C26 UNL     1       5.806  55.763  -7.649  1.00  0.00     0.023 C 
HETATM   23  C27 UNL     1       3.309  56.340  -7.689  1.00  0.00     0.016 C 
HETATM   24  C28 UNL     1       3.251  56.335  -9.222  1.00  0.00     0.043 C 
HETATM   25  C29 UNL     1       2.593  55.101  -9.830  1.00  0.00     0.149 C 
ENDROOT
BRANCH   1  26
HETATM   26  C6  UNL     1      -3.070  52.513 -10.709  1.00  0.00    -0.011 C 
HETATM   27  C7  UNL     1      -3.834  53.838 -10.637  1.00  0.00     0.010 C 
BRANCH  26  28
HETATM   28  C5  UNL     1      -3.782  51.395  -9.903  1.00  0.00     0.040 C 
BRANCH  28  29
HETATM   29  C4  UNL     1      -4.126  50.083 -10.635  1.00  0.00     0.142 C 
BRANCH  29  30
HETATM   30  C3  UNL     1      -5.593  49.793 -10.761  1.00  0.00     0.018 C 
HETATM   31  C2  UNL     1      -6.295  48.873 -10.063  1.00  0.00     0.010 C 
HETATM   32  C1  UNL     1      -5.742  47.959  -9.012  1.00  0.00     0.055 C 
BRANCH  31  33
HETATM   33  C30 UNL     1      -7.748  48.786 -10.362  1.00  0.00     0.171 C 
HETATM   34  O6  UNL     1      -8.446  49.666 -10.830  1.00  0.00    -0.646 OA
BRANCH  33  35
HETATM   35  O7  UNL     1      -8.264  47.587 -10.042  1.00  0.00    -0.773 OA
HETATM   36  H42 UNL     1      -9.207  47.666 -10.294  1.00  0.00     0.167 HD
ENDBRANCH  33  35
ENDBRANCH  31  33
ENDBRANCH  29  30
BRANCH  29  37
HETATM   37  O1  UNL     1      -3.526  50.066 -11.925  1.00  0.00    -0.392 OA
HETATM   38  H6  UNL     1      -4.077  50.592 -12.530  1.00  0.00     0.210 HD
ENDBRANCH  29  37
ENDBRANCH  28  29
ENDBRANCH  26  28
ENDBRANCH   1  26
BRANCH  25  39
HETATM   39  O5  UNL     1       2.144  55.512 -11.119  1.00  0.00    -0.391 OA
HETATM   40  H41 UNL     1       2.323  54.757 -11.723  1.00  0.00     0.210 HD
ENDBRANCH  25  39
TORSDOF 8
ENDMDL
MODEL 4
REMARK minimizedAffinity -8.22532082
REMARK CNNscore 0.661189139
REMARK CNNaffinity 6.65900469
REMARK  8 active torsions:
REMARK  status: ('A' for Active; 'I' for Inactive)
REMARK    1  A    between atoms: C2_2  and  C30_35 
REMARK    2  A    between atoms: C3_3  and  C4_4 
REMARK    3  A    between atoms: C4_4  and  O1_5 
REMARK    4  A    between atoms: C4_4  and  C5_6 
REMARK    5  A    between atoms: C5_6  and  C6_7 
REMARK    6  A    between atoms: C6_7  and  C8_9 
REMARK    7  A    between atoms: C29_33  and  O5_34 
REMARK    8  A    between atoms: C30_35  and  O7_37 
ROOT
HETATM    1  C8  UNL     1      -1.575  50.889 -16.907  1.00  0.00     0.006 C 
HETATM    2  C9  UNL     1      -0.361  51.331 -17.762  1.00  0.00     0.085 C 
HETATM    3  C10 UNL     1      -0.765  50.945 -19.172  1.00  0.00     0.140 C 
HETATM    4  O2  UNL     1      -0.075  51.180 -20.158  1.00  0.00    -0.297 OA
HETATM    5  C11 UNL     1      -2.159  50.305 -19.207  1.00  0.00     0.051 C 
HETATM    6  C12 UNL     1      -3.094  51.513 -19.503  1.00  0.00     0.029 C 
HETATM    7  C13 UNL     1      -2.559  49.203 -20.177  1.00  0.00    -0.024 C 
HETATM    8  C14 UNL     1      -3.667  48.456 -19.923  1.00  0.00     0.003 C 
HETATM    9  C15 UNL     1      -4.339  48.603 -18.563  1.00  0.00     0.157 C 
HETATM   10  O3  UNL     1      -5.437  48.092 -18.339  1.00  0.00    -0.293 OA
HETATM   11  C16 UNL     1      -3.662  49.390 -17.442  1.00  0.00     0.094 C 
HETATM   12  C17 UNL     1      -2.203  49.729 -17.747  1.00  0.00    -0.015 C 
HETATM   13  C18 UNL     1      -1.362  48.425 -17.596  1.00  0.00     0.018 C 
HETATM   14  C19 UNL     1      -4.264  47.441 -20.922  1.00  0.00    -0.008 C 
HETATM   15  C20 UNL     1      -3.919  46.025 -20.383  1.00  0.00     0.021 C 
HETATM   16  C21 UNL     1      -5.819  47.553 -21.026  1.00  0.00     0.022 C 
HETATM   17  C22 UNL     1      -6.378  47.104 -22.366  1.00  0.00     0.080 C 
HETATM   18  C23 UNL     1      -5.848  47.969 -23.486  1.00  0.00     0.135 C 
HETATM   19  O4  UNL     1      -6.537  48.168 -24.489  1.00  0.00    -0.297 OA
HETATM   20  C24 UNL     1      -4.428  48.546 -23.333  1.00  0.00     0.018 C 
HETATM   21  C25 UNL     1      -4.568  50.007 -22.879  1.00  0.00     0.023 C 
HETATM   22  C26 UNL     1      -3.783  48.556 -24.737  1.00  0.00     0.023 C 
HETATM   23  C27 UNL     1      -3.640  47.592 -22.367  1.00  0.00     0.016 C 
HETATM   24  C28 UNL     1      -2.126  47.830 -22.276  1.00  0.00     0.043 C 
HETATM   25  C29 UNL     1      -1.720  49.019 -21.413  1.00  0.00     0.149 C 
ENDROOT
BRANCH   1  26
HETATM   26  C6  UNL     1      -1.238  50.750 -15.387  1.00  0.00    -0.011 C 
HETATM   27  C7  UNL     1      -2.377  51.051 -14.408  1.00  0.00     0.010 C 
BRANCH  26  28
HETATM   28  C5  UNL     1       0.051  51.533 -15.027  1.00  0.00     0.040 C 
BRANCH  28  29
HETATM   29  C4  UNL     1       0.547  51.478 -13.568  1.00  0.00     0.142 C 
BRANCH  29  30
HETATM   30  C3  UNL     1       1.715  50.565 -13.330  1.00  0.00     0.018 C 
HETATM   31  C2  UNL     1       2.929  50.641 -13.918  1.00  0.00     0.010 C 
HETATM   32  C1  UNL     1       3.355  51.666 -14.925  1.00  0.00     0.055 C 
BRANCH  31  33
HETATM   33  C30 UNL     1       3.928  49.622 -13.502  1.00  0.00     0.171 C 
HETATM   34  O6  UNL     1       5.127  49.654 -13.711  1.00  0.00    -0.646 OA
BRANCH  33  35
HETATM   35  O7  UNL     1       3.364  48.592 -12.849  1.00  0.00    -0.773 OA
HETATM   36  H42 UNL     1       4.122  48.011 -12.632  1.00  0.00     0.167 HD
ENDBRANCH  33  35
ENDBRANCH  31  33
ENDBRANCH  29  30
BRANCH  29  37
HETATM   37  O1  UNL     1       0.865  52.785 -13.106  1.00  0.00    -0.392 OA
HETATM   38  H6  UNL     1       1.747  53.026 -13.437  1.00  0.00     0.210 HD
ENDBRANCH  29  37
ENDBRANCH  28  29
ENDBRANCH  26  28
ENDBRANCH   1  26
BRANCH  25  39
HETATM   39  O5  UNL     1      -0.380  48.749 -21.010  1.00  0.00    -0.391 OA
HETATM   40  H41 UNL     1       0.096  49.609 -21.050  1.00  0.00     0.210 HD
ENDBRANCH  25  39
TORSDOF 8
ENDMDL
MODEL 5
REMARK minimizedAffinity -7.56112528
REMARK CNNscore 0.59302175
REMARK CNNaffinity 6.65036774
REMARK  8 active torsions:
REMARK  status: ('A' for Active; 'I' for Inactive)
REMARK    1  A    between atoms: C2_2  and  C30_35 
REMARK    2  A    between atoms: C3_3  and  C4_4 
REMARK    3  A    between atoms: C4_4  and  O1_5 
REMARK    4  A    between atoms: C4_4  and  C5_6 
REMARK    5  A    between atoms: C5_6  and  C6_7 
REMARK    6  A    between atoms: C6_7  and  C8_9 
REMARK    7  A    between atoms: C29_33  and  O5_34 
REMARK    8  A    between atoms: C30_35  and  O7_37 
ROOT
HETATM    1  C8  UNL     1      -9.318  45.769 -34.329  1.00  0.00     0.006 C 
HETATM    2  C9  UNL     1      -9.371  44.222 -34.248  1.00  0.00     0.085 C 
HETATM    3  C10 UNL     1      -9.379  43.949 -32.756  1.00  0.00     0.140 C 
HETATM    4  O2  UNL     1      -9.467  42.823 -32.278  1.00  0.00    -0.297 OA
HETATM    5  C11 UNL     1      -9.345  45.249 -31.941  1.00  0.00     0.051 C 
HETATM    6  C12 UNL     1     -10.850  45.539 -31.676  1.00  0.00     0.029 C 
HETATM    7  C13 UNL     1      -8.637  45.388 -30.602  1.00  0.00    -0.024 C 
HETATM    8  C14 UNL     1      -8.351  46.627 -30.119  1.00  0.00     0.003 C 
HETATM    9  C15 UNL     1      -8.551  47.823 -31.043  1.00  0.00     0.157 C 
HETATM   10  O3  UNL     1      -8.481  48.975 -30.614  1.00  0.00    -0.293 OA
HETATM   11  C16 UNL     1      -8.843  47.619 -32.529  1.00  0.00     0.094 C 
HETATM   12  C17 UNL     1      -8.628  46.176 -32.986  1.00  0.00    -0.015 C 
HETATM   13  C18 UNL     1      -7.093  45.916 -33.059  1.00  0.00     0.018 C 
HETATM   14  C19 UNL     1      -7.803  46.889 -28.699  1.00  0.00    -0.008 C 
HETATM   15  C20 UNL     1      -6.303  47.261 -28.859  1.00  0.00     0.021 C 
HETATM   16  C21 UNL     1      -8.525  48.082 -27.995  1.00  0.00     0.022 C 
HETATM   17  C22 UNL     1      -8.526  47.988 -26.478  1.00  0.00     0.080 C 
HETATM   18  C23 UNL     1      -9.268  46.755 -26.016  1.00  0.00     0.135 C 
HETATM   19  O4  UNL     1      -9.861  46.761 -24.935  1.00  0.00    -0.297 OA
HETATM   20  C24 UNL     1      -9.218  45.511 -26.923  1.00  0.00     0.018 C 
HETATM   21  C25 UNL     1     -10.537  45.457 -27.709  1.00  0.00     0.023 C 
HETATM   22  C26 UNL     1      -9.179  44.271 -26.000  1.00  0.00     0.023 C 
HETATM   23  C27 UNL     1      -7.905  45.609 -27.777  1.00  0.00     0.016 C 
HETATM   24  C28 UNL     1      -7.520  44.348 -28.564  1.00  0.00     0.043 C 
HETATM   25  C29 UNL     1      -8.320  44.126 -29.842  1.00  0.00     0.149 C 
ENDROOT
BRANCH   1  26
HETATM   26  C6  UNL     1      -8.843  46.295 -35.721  1.00  0.00    -0.011 C 
HETATM   27  C7  UNL     1      -8.457  47.775 -35.793  1.00  0.00     0.010 C 
BRANCH  26  28
HETATM   28  C5  UNL     1      -9.848  45.909 -36.838  1.00  0.00     0.040 C 
BRANCH  28  29
HETATM   29  C4  UNL     1     -11.234  46.584 -36.828  1.00  0.00     0.142 C 
BRANCH  29  30
HETATM   30  C3  UNL     1     -11.426  47.651 -37.867  1.00  0.00     0.018 C 
HETATM   31  C2  UNL     1     -12.565  48.333 -38.120  1.00  0.00     0.010 C 
HETATM   32  C1  UNL     1     -13.869  48.161 -37.401  1.00  0.00     0.055 C 
BRANCH  31  33
HETATM   33  C30 UNL     1     -12.496  49.354 -39.197  1.00  0.00     0.171 C 
HETATM   34  O6  UNL     1     -11.739  49.354 -40.150  1.00  0.00    -0.646 OA
BRANCH  33  35
HETATM   35  O7  UNL     1     -13.383  50.347 -39.016  1.00  0.00    -0.773 OA
HETATM   36  H42 UNL     1     -13.237  50.933 -39.786  1.00  0.00     0.167 HD
ENDBRANCH  33  35
ENDBRANCH  31  33
ENDBRANCH  29  30
BRANCH  29  37
HETATM   37  O1  UNL     1     -12.259  45.607 -36.956  1.00  0.00    -0.392 OA
HETATM   38  H6  UNL     1     -12.342  45.365 -37.895  1.00  0.00     0.210 HD
ENDBRANCH  29  37
ENDBRANCH  28  29
ENDBRANCH  26  28
ENDBRANCH   1  26
BRANCH  25  39
HETATM   39  O5  UNL     1      -7.495  43.304 -30.663  1.00  0.00    -0.391 OA
HETATM   40  H41 UNL     1      -8.098  42.660 -31.097  1.00  0.00     0.210 HD
ENDBRANCH  25  39
TORSDOF 8
ENDMDL
MODEL 6
REMARK minimizedAffinity -7.57697392
REMARK CNNscore 0.582370043
REMARK CNNaffinity 5.98613119
REMARK  8 active torsions:
REMARK  status: ('A' for Active; 'I' for Inactive)
REMARK    1  A    between atoms: C2_2  and  C30_35 
REMARK    2  A    between atoms: C3_3  and  C4_4 
REMARK    3  A    between atoms: C4_4  and  O1_5 
REMARK    4  A    between atoms: C4_4  and  C5_6 
REMARK    5  A    between atoms: C5_6  and  C6_7 
REMARK    6  A    between atoms: C6_7  and  C8_9 
REMARK    7  A    between atoms: C29_33  and  O5_34 
REMARK    8  A    between atoms: C30_35  and  O7_37 
ROOT
HETATM    1  C8  UNL     1      -0.883  52.876 -11.619  1.00  0.00     0.006 C 
HETATM    2  C9  UNL     1      -1.889  52.299 -10.592  1.00  0.00     0.085 C 
HETATM    3  C10 UNL     1      -1.517  53.002  -9.301  1.00  0.00     0.140 C 
HETATM    4  O2  UNL     1      -2.126  52.845  -8.249  1.00  0.00    -0.297 OA
HETATM    5  C11 UNL     1      -0.349  53.977  -9.503  1.00  0.00     0.051 C 
HETATM    6  C12 UNL     1      -1.063  55.331  -9.781  1.00  0.00     0.029 C 
HETATM    7  C13 UNL     1       0.710  54.257  -8.448  1.00  0.00    -0.024 C 
HETATM    8  C14 UNL     1       1.883  54.844  -8.812  1.00  0.00     0.003 C 
HETATM    9  C15 UNL     1       2.180  54.994 -10.300  1.00  0.00     0.157 C 
HETATM   10  O3  UNL     1       3.132  55.669 -10.691  1.00  0.00    -0.293 OA
HETATM   11  C16 UNL     1       1.301  54.306 -11.343  1.00  0.00     0.094 C 
HETATM   12  C17 UNL     1       0.340  53.285 -10.734  1.00  0.00    -0.015 C 
HETATM   13  C18 UNL     1       1.165  52.028 -10.325  1.00  0.00     0.018 C 
HETATM   14  C19 UNL     1       2.945  55.336  -7.805  1.00  0.00    -0.008 C 
HETATM   15  C20 UNL     1       4.124  54.326  -7.868  1.00  0.00     0.021 C 
HETATM   16  C21 UNL     1       3.499  56.750  -8.170  1.00  0.00     0.022 C 
HETATM   17  C22 UNL     1       4.002  57.539  -6.973  1.00  0.00     0.080 C 
HETATM   18  C23 UNL     1       2.881  57.800  -5.992  1.00  0.00     0.135 C 
HETATM   19  O4  UNL     1       2.893  58.820  -5.300  1.00  0.00    -0.297 OA
HETATM   20  C24 UNL     1       1.771  56.738  -5.877  1.00  0.00     0.018 C 
HETATM   21  C25 UNL     1       0.567  57.236  -6.691  1.00  0.00     0.023 C 
HETATM   22  C26 UNL     1       1.339  56.684  -4.394  1.00  0.00     0.023 C 
HETATM   23  C27 UNL     1       2.390  55.366  -6.325  1.00  0.00     0.016 C 
HETATM   24  C28 UNL     1       1.538  54.121  -6.044  1.00  0.00     0.043 C 
HETATM   25  C29 UNL     1       0.387  53.905  -7.020  1.00  0.00     0.149 C 
ENDROOT
BRANCH   1  26
HETATM   26  C6  UNL     1      -0.743  51.998 -12.904  1.00  0.00    -0.011 C 
HETATM   27  C7  UNL     1      -1.942  51.112 -13.255  1.00  0.00     0.010 C 
BRANCH  26  28
HETATM   28  C5  UNL     1       0.581  51.191 -12.888  1.00  0.00     0.040 C 
BRANCH  28  29
HETATM   29  C4  UNL     1       1.585  51.426 -14.035  1.00  0.00     0.142 C 
BRANCH  29  30
HETATM   30  C3  UNL     1       0.965  51.667 -15.380  1.00  0.00     0.018 C 
HETATM   31  C2  UNL     1       1.599  52.092 -16.495  1.00  0.00     0.010 C 
HETATM   32  C1  UNL     1       3.061  52.400 -16.609  1.00  0.00     0.055 C 
BRANCH  31  33
HETATM   33  C30 UNL     1       0.762  52.241 -17.713  1.00  0.00     0.171 C 
HETATM   34  O6  UNL     1      -0.163  51.525 -18.051  1.00  0.00    -0.646 OA
BRANCH  33  35
HETATM   35  O7  UNL     1       1.140  53.288 -18.467  1.00  0.00    -0.773 OA
HETATM   36  H42 UNL     1       0.511  53.273 -19.218  1.00  0.00     0.167 HD
ENDBRANCH  33  35
ENDBRANCH  31  33
ENDBRANCH  29  30
BRANCH  29  37
HETATM   37  O1  UNL     1       2.456  52.504 -13.714  1.00  0.00    -0.392 OA
HETATM   38  H6  UNL     1       1.995  53.341 -13.896  1.00  0.00     0.210 HD
ENDBRANCH  29  37
ENDBRANCH  28  29
ENDBRANCH  26  28
ENDBRANCH   1  26
BRANCH  25  39
HETATM   39  O5  UNL     1       0.097  52.511  -6.956  1.00  0.00    -0.391 OA
HETATM   40  H41 UNL     1      -0.882  52.434  -6.993  1.00  0.00     0.210 HD
ENDBRANCH  25  39
TORSDOF 8
ENDMDL
MODEL 7
REMARK minimizedAffinity -7.27506208
REMARK CNNscore 0.581621826
REMARK CNNaffinity 6.02031088
REMARK  8 active torsions:
REMARK  status: ('A' for Active; 'I' for Inactive)
REMARK    1  A    between atoms: C2_2  and  C30_35 
REMARK    2  A    between atoms: C3_3  and  C4_4 
REMARK    3  A    between atoms: C4_4  and  O1_5 
REMARK    4  A    between atoms: C4_4  and  C5_6 
REMARK    5  A    between atoms: C5_6  and  C6_7 
REMARK    6  A    between atoms: C6_7  and  C8_9 
REMARK    7  A    between atoms: C29_33  and  O5_34 
REMARK    8  A    between atoms: C30_35  and  O7_37 
ROOT
HETATM    1  C8  UNL     1     -17.425  45.717 -22.973  1.00  0.00     0.006 C 
HETATM    2  C9  UNL     1     -18.410  46.745 -23.586  1.00  0.00     0.085 C 
HETATM    3  C10 UNL     1     -19.124  45.949 -24.662  1.00  0.00     0.140 C 
HETATM    4  O2  UNL     1     -20.029  46.409 -25.350  1.00  0.00    -0.297 OA
HETATM    5  C11 UNL     1     -18.627  44.499 -24.718  1.00  0.00     0.051 C 
HETATM    6  C12 UNL     1     -19.632  43.745 -23.800  1.00  0.00     0.029 C 
HETATM    7  C13 UNL     1     -18.527  43.690 -26.003  1.00  0.00    -0.024 C 
HETATM    8  C14 UNL     1     -17.764  42.563 -26.029  1.00  0.00     0.003 C 
HETATM    9  C15 UNL     1     -16.861  42.278 -24.834  1.00  0.00     0.157 C 
HETATM   10  O3  UNL     1     -16.285  41.196 -24.719  1.00  0.00    -0.293 OA
HETATM   11  C16 UNL     1     -16.647  43.334 -23.750  1.00  0.00     0.094 C 
HETATM   12  C17 UNL     1     -17.180  44.711 -24.145  1.00  0.00    -0.015 C 
HETATM   13  C18 UNL     1     -16.207  45.323 -25.198  1.00  0.00     0.018 C 
HETATM   14  C19 UNL     1     -17.736  41.574 -27.214  1.00  0.00    -0.008 C 
HETATM   15  C20 UNL     1     -16.380  41.787 -27.944  1.00  0.00     0.021 C 
HETATM   16  C21 UNL     1     -17.805  40.085 -26.747  1.00  0.00     0.022 C 
HETATM   17  C22 UNL     1     -18.416  39.148 -27.775  1.00  0.00     0.080 C 
HETATM   18  C23 UNL     1     -19.849  39.532 -28.067  1.00  0.00     0.135 C 
HETATM   19  O4  UNL     1     -20.666  38.665 -28.386  1.00  0.00    -0.297 OA
HETATM   20  C24 UNL     1     -20.219  41.025 -27.984  1.00  0.00     0.018 C 
HETATM   21  C25 UNL     1     -20.908  41.257 -26.631  1.00  0.00     0.023 C 
HETATM   22  C26 UNL     1     -21.263  41.301 -29.090  1.00  0.00     0.023 C 
HETATM   23  C27 UNL     1     -18.906  41.846 -28.243  1.00  0.00     0.016 C 
HETATM   24  C28 UNL     1     -19.088  43.353 -28.463  1.00  0.00     0.043 C 
HETATM   25  C29 UNL     1     -19.325  44.158 -27.191  1.00  0.00     0.149 C 
ENDROOT
BRANCH   1  26
HETATM   26  C6  UNL     1     -16.262  46.383 -22.170  1.00  0.00    -0.011 C 
HETATM   27  C7  UNL     1     -15.316  47.286 -22.966  1.00  0.00     0.010 C 
BRANCH  26  28
HETATM   28  C5  UNL     1     -15.486  45.331 -21.335  1.00  0.00     0.040 C 
BRANCH  28  29
HETATM   29  C4  UNL     1     -15.788  45.238 -19.827  1.00  0.00     0.142 C 
BRANCH  29  30
HETATM   30  C3  UNL     1     -15.377  46.438 -19.023  1.00  0.00     0.018 C 
HETATM   31  C2  UNL     1     -16.144  47.512 -18.731  1.00  0.00     0.010 C 
HETATM   32  C1  UNL     1     -17.570  47.712 -19.148  1.00  0.00     0.055 C 
BRANCH  31  33
HETATM   33  C30 UNL     1     -15.508  48.570 -17.904  1.00  0.00     0.171 C 
HETATM   34  O6  UNL     1     -14.505  48.455 -17.225  1.00  0.00    -0.646 OA
BRANCH  33  35
HETATM   35  O7  UNL     1     -16.180  49.732 -17.958  1.00  0.00    -0.773 OA
HETATM   36  H42 UNL     1     -15.657  50.330 -17.385  1.00  0.00     0.167 HD
ENDBRANCH  33  35
ENDBRANCH  31  33
ENDBRANCH  29  30
BRANCH  29  37
HETATM   37  O1  UNL     1     -17.169  44.975 -19.616  1.00  0.00    -0.392 OA
HETATM   38  H6  UNL     1     -17.661  45.810 -19.701  1.00  0.00     0.210 HD
ENDBRANCH  29  37
ENDBRANCH  28  29
ENDBRANCH  26  28
ENDBRANCH   1  26
BRANCH  25  39
HETATM   39  O5  UNL     1     -18.921  45.488 -27.506  1.00  0.00    -0.391 OA
HETATM   40  H41 UNL     1     -19.576  46.081 -27.076  1.00  0.00     0.210 HD
ENDBRANCH  25  39
TORSDOF 8
ENDMDL
MODEL 8
REMARK minimizedAffinity -7.81367826
REMARK CNNscore 0.527651429
REMARK CNNaffinity 5.75731611
REMARK  8 active torsions:
REMARK  status: ('A' for Active; 'I' for Inactive)
REMARK    1  A    between atoms: C2_2  and  C30_35 
REMARK    2  A    between atoms: C3_3  and  C4_4 
REMARK    3  A    between atoms: C4_4  and  O1_5 
REMARK    4  A    between atoms: C4_4  and  C5_6 
REMARK    5  A    between atoms: C5_6  and  C6_7 
REMARK    6  A    between atoms: C6_7  and  C8_9 
REMARK    7  A    between atoms: C29_33  and  O5_34 
REMARK    8  A    between atoms: C30_35  and  O7_37 
ROOT
HETATM    1  C8  UNL     1     -15.499  44.298 -26.029  1.00  0.00     0.006 C 
HETATM    2  C9  UNL     1     -15.152  42.816 -26.323  1.00  0.00     0.085 C 
HETATM    3  C10 UNL     1     -13.699  42.875 -26.757  1.00  0.00     0.140 C 
HETATM    4  O2  UNL     1     -13.039  41.880 -27.033  1.00  0.00    -0.297 OA
HETATM    5  C11 UNL     1     -13.157  44.310 -26.729  1.00  0.00     0.051 C 
HETATM    6  C12 UNL     1     -12.513  44.415 -25.316  1.00  0.00     0.029 C 
HETATM    7  C13 UNL     1     -12.127  44.843 -27.713  1.00  0.00    -0.024 C 
HETATM    8  C14 UNL     1     -11.961  46.187 -27.848  1.00  0.00     0.003 C 
HETATM    9  C15 UNL     1     -12.969  47.108 -27.171  1.00  0.00     0.157 C 
HETATM   10  O3  UNL     1     -12.775  48.323 -27.107  1.00  0.00    -0.293 OA
HETATM   11  C16 UNL     1     -14.248  46.544 -26.555  1.00  0.00     0.094 C 
HETATM   12  C17 UNL     1     -14.505  45.088 -26.942  1.00  0.00    -0.015 C 
HETATM   13  C18 UNL     1     -14.981  45.058 -28.426  1.00  0.00     0.018 C 
HETATM   14  C19 UNL     1     -10.828  46.832 -28.676  1.00  0.00    -0.008 C 
HETATM   15  C20 UNL     1     -11.481  47.387 -29.972  1.00  0.00     0.021 C 
HETATM   16  C21 UNL     1     -10.149  48.023 -27.927  1.00  0.00     0.022 C 
HETATM   17  C22 UNL     1      -8.705  48.262 -28.337  1.00  0.00     0.080 C 
HETATM   18  C23 UNL     1      -7.849  47.058 -28.013  1.00  0.00     0.135 C 
HETATM   19  O4  UNL     1      -6.658  47.208 -27.731  1.00  0.00    -0.297 OA
HETATM   20  C24 UNL     1      -8.512  45.670 -28.087  1.00  0.00     0.018 C 
HETATM   21  C25 UNL     1      -8.857  45.245 -26.651  1.00  0.00     0.023 C 
HETATM   22  C26 UNL     1      -7.451  44.682 -28.621  1.00  0.00     0.023 C 
HETATM   23  C27 UNL     1      -9.719  45.782 -29.085  1.00  0.00     0.016 C 
HETATM   24  C28 UNL     1     -10.365  44.456 -29.509  1.00  0.00     0.043 C 
HETATM   25  C29 UNL     1     -11.297  43.841 -28.471  1.00  0.00     0.149 C 
ENDROOT
BRANCH   1  26
HETATM   26  C6  UNL     1     -17.036  44.576 -26.009  1.00  0.00    -0.011 C 
HETATM   27  C7  UNL     1     -17.786  44.348 -27.324  1.00  0.00     0.010 C 
BRANCH  26  28
HETATM   28  C5  UNL     1     -17.343  45.973 -25.408  1.00  0.00     0.040 C 
BRANCH  28  29
HETATM   29  C4  UNL     1     -18.801  46.290 -25.022  1.00  0.00     0.142 C 
BRANCH  29  30
HETATM   30  C3  UNL     1     -19.334  45.505 -23.860  1.00  0.00     0.018 C 
HETATM   31  C2  UNL     1     -18.822  45.468 -22.610  1.00  0.00     0.010 C 
HETATM   32  C1  UNL     1     -17.615  46.218 -22.133  1.00  0.00     0.055 C 
BRANCH  31  33
HETATM   33  C30 UNL     1     -19.543  44.619 -21.627  1.00  0.00     0.171 C 
HETATM   34  O6  UNL     1     -19.815  44.912 -20.477  1.00  0.00    -0.646 OA
BRANCH  33  35
HETATM   35  O7  UNL     1     -19.880  43.422 -22.136  1.00  0.00    -0.773 OA
HETATM   36  H42 UNL     1     -20.346  42.978 -21.398  1.00  0.00     0.167 HD
ENDBRANCH  33  35
ENDBRANCH  31  33
ENDBRANCH  29  30
BRANCH  29  37
HETATM   37  O1  UNL     1     -18.951  47.681 -24.764  1.00  0.00    -0.392 OA
HETATM   38  H6  UNL     1     -18.633  47.866 -23.864  1.00  0.00     0.210 HD
ENDBRANCH  29  37
ENDBRANCH  28  29
ENDBRANCH  26  28
ENDBRANCH   1  26
BRANCH  25  39
HETATM   39  O5  UNL     1     -12.177  42.997 -29.209  1.00  0.00    -0.391 OA
HETATM   40  H41 UNL     1     -12.302  42.190 -28.663  1.00  0.00     0.210 HD
ENDBRANCH  25  39
TORSDOF 8
ENDMDL
MODEL 9
REMARK minimizedAffinity -8.28263569
REMARK CNNscore 0.52460748
REMARK CNNaffinity 5.72622633
REMARK  8 active torsions:
REMARK  status: ('A' for Active; 'I' for Inactive)
REMARK    1  A    between atoms: C2_2  and  C30_35 
REMARK    2  A    between atoms: C3_3  and  C4_4 
REMARK    3  A    between atoms: C4_4  and  O1_5 
REMARK    4  A    between atoms: C4_4  and  C5_6 
REMARK    5  A    between atoms: C5_6  and  C6_7 
REMARK    6  A    between atoms: C6_7  and  C8_9 
REMARK    7  A    between atoms: C29_33  and  O5_34 
REMARK    8  A    between atoms: C30_35  and  O7_37 
ROOT
HETATM    1  C8  UNL     1     -13.375  46.308 -27.764  1.00  0.00     0.006 C 
HETATM    2  C9  UNL     1     -13.143  47.433 -26.723  1.00  0.00     0.085 C 
HETATM    3  C10 UNL     1     -11.710  47.858 -26.978  1.00  0.00     0.140 C 
HETATM    4  O2  UNL     1     -11.162  48.775 -26.376  1.00  0.00    -0.297 OA
HETATM    5  C11 UNL     1     -11.076  47.055 -28.122  1.00  0.00     0.051 C 
HETATM    6  C12 UNL     1     -11.334  47.952 -29.368  1.00  0.00     0.029 C 
HETATM    7  C13 UNL     1      -9.606  46.667 -28.169  1.00  0.00    -0.024 C 
HETATM    8  C14 UNL     1      -9.199  45.679 -29.011  1.00  0.00     0.003 C 
HETATM    9  C15 UNL     1     -10.265  44.847 -29.713  1.00  0.00     0.157 C 
HETATM   10  O3  UNL     1      -9.967  44.064 -30.615  1.00  0.00    -0.293 OA
HETATM   11  C16 UNL     1     -11.735  44.966 -29.311  1.00  0.00     0.094 C 
HETATM   12  C17 UNL     1     -11.937  45.746 -28.013  1.00  0.00    -0.015 C 
HETATM   13  C18 UNL     1     -11.491  44.838 -26.828  1.00  0.00     0.018 C 
HETATM   14  C19 UNL     1      -7.717  45.331 -29.271  1.00  0.00    -0.008 C 
HETATM   15  C20 UNL     1      -7.434  43.994 -28.532  1.00  0.00     0.021 C 
HETATM   16  C21 UNL     1      -7.414  45.117 -30.788  1.00  0.00     0.022 C 
HETATM   17  C22 UNL     1      -5.975  45.416 -31.175  1.00  0.00     0.080 C 
HETATM   18  C23 UNL     1      -5.638  46.866 -30.909  1.00  0.00     0.135 C 
HETATM   19  O4  UNL     1      -4.807  47.444 -31.614  1.00  0.00    -0.297 OA
HETATM   20  C24 UNL     1      -6.337  47.556 -29.723  1.00  0.00     0.018 C 
HETATM   21  C25 UNL     1      -7.489  48.399 -30.292  1.00  0.00     0.023 C 
HETATM   22  C26 UNL     1      -5.318  48.531 -29.092  1.00  0.00     0.023 C 
HETATM   23  C27 UNL     1      -6.738  46.434 -28.701  1.00  0.00     0.016 C 
HETATM   24  C28 UNL     1      -7.217  46.918 -27.326  1.00  0.00     0.043 C 
HETATM   25  C29 UNL     1      -8.649  47.438 -27.297  1.00  0.00     0.149 C 
ENDROOT
BRANCH   1  26
HETATM   26  C6  UNL     1     -14.595  45.394 -27.420  1.00  0.00    -0.011 C 
HETATM   27  C7  UNL     1     -15.427  44.897 -28.605  1.00  0.00     0.010 C 
BRANCH  26  28
HETATM   28  C5  UNL     1     -15.484  46.038 -26.324  1.00  0.00     0.040 C 
BRANCH  28  29
HETATM   29  C4  UNL     1     -15.926  45.156 -25.140  1.00  0.00     0.142 C 
BRANCH  29  30
HETATM   30  C3  UNL     1     -17.316  45.419 -24.638  1.00  0.00     0.018 C 
HETATM   31  C2  UNL     1     -18.461  45.321 -25.349  1.00  0.00     0.010 C 
HETATM   32  C1  UNL     1     -18.569  44.918 -26.789  1.00  0.00     0.055 C 
BRANCH  31  33
HETATM   33  C30 UNL     1     -19.719  45.623 -24.618  1.00  0.00     0.171 C 
HETATM   34  O6  UNL     1     -20.192  44.988 -23.694  1.00  0.00    -0.646 OA
BRANCH  33  35
HETATM   35  O7  UNL     1     -20.339  46.714 -25.099  1.00  0.00    -0.773 OA
HETATM   36  H42 UNL     1     -21.133  46.800 -24.531  1.00  0.00     0.167 HD
ENDBRANCH  33  35
ENDBRANCH  31  33
ENDBRANCH  29  30
BRANCH  29  37
HETATM   37  O1  UNL     1     -15.796  43.780 -25.475  1.00  0.00    -0.392 OA
HETATM   38  H6  UNL     1     -16.565  43.515 -26.008  1.00  0.00     0.210 HD
ENDBRANCH  29  37
ENDBRANCH  28  29
ENDBRANCH  26  28
ENDBRANCH   1  26
BRANCH  25  39
HETATM   39  O5  UNL     1      -9.070  47.304 -25.942  1.00  0.00    -0.391 OA
HETATM   40  H41 UNL     1      -9.599  48.108 -25.740  1.00  0.00     0.210 HD
ENDBRANCH  25  39
TORSDOF 8
ENDMDL
