MODEL 1
REMARK minimizedAffinity -7.1142087
REMARK CNNscore 0.511003256
REMARK CNNaffinity 7.04815912
REMARK  5 active torsions:
REMARK  status: ('A' for Active; 'I' for Inactive)
REMARK    1  A    between atoms: C11_11  and  O1_12 
REMARK    2  A    between atoms: C14_15  and  C15_16 
REMARK    3  A    between atoms: C17_18  and  C18_19 
REMARK    4  A    between atoms: C26_31  and  O6_32 
REMARK    5  A    between atoms: C36_44  and  O9_45 
ROOT
HETATM    1  C1  UNL     1      -1.102  51.050  -3.797  1.00  0.00     0.043 C 
HETATM    2  C2  UNL     1      -0.193  50.782  -4.963  1.00  0.00    -0.087 C 
HETATM    3  C3  UNL     1       0.466  51.738  -5.651  1.00  0.00    -0.022 C 
HETATM    4  C4  UNL     1       0.382  53.232  -5.486  1.00  0.00     0.059 C 
HETATM    5  C5  UNL     1       0.133  53.988  -6.807  1.00  0.00     0.131 C 
HETATM    6  C6  UNL     1      -1.163  53.575  -7.517  1.00  0.00     0.065 C 
HETATM    7  C7  UNL     1      -1.118  53.877  -9.019  1.00  0.00     0.139 C 
HETATM    8  C8  UNL     1      -0.152  55.026  -9.303  1.00  0.00     0.101 C 
HETATM    9  C9  UNL     1       1.271  54.733  -8.772  1.00  0.00     0.170 C 
HETATM   10  C10 UNL     1       2.169  54.133  -9.873  1.00  0.00     0.100 C 
HETATM   11  C11 UNL     1       2.976  55.231 -10.547  1.00  0.00     0.129 C 
HETATM   12  C12 UNL     1       3.905  55.931  -9.530  1.00  0.00     0.044 C 
HETATM   13  C13 UNL     1       5.299  55.298  -9.444  1.00  0.00     0.015 C 
HETATM   14  C14 UNL     1       3.227  55.947  -8.133  1.00  0.00     0.159 C 
HETATM   15  O2  UNL     1       1.806  55.991  -8.324  1.00  0.00    -0.345 OA
HETATM   16  O3  UNL     1       1.246  53.800  -7.684  1.00  0.00    -0.349 OA
HETATM   17  O4  UNL     1      -0.696  52.691  -9.727  1.00  0.00    -0.315 OA
HETATM   18  C21 UNL     1      -1.108  52.589 -11.026  1.00  0.00     0.270 C 
HETATM   19  O5  UNL     1      -1.895  53.364 -11.559  1.00  0.00    -0.264 OA
HETATM   20  C22 UNL     1      -0.371  51.447 -11.731  1.00  0.00     0.150 C 
HETATM   21  C23 UNL     1      -0.206  51.823 -13.191  1.00  0.00    -0.004 C 
HETATM   22  C24 UNL     1      -0.475  51.007 -14.226  1.00  0.00    -0.056 C 
HETATM   23  C25 UNL     1      -0.376  51.485 -15.649  1.00  0.00     0.046 C 
HETATM   24  C26 UNL     1      -0.953  49.600 -14.012  1.00  0.00     0.179 C 
HETATM   25  C27 UNL     1      -0.753  49.061 -12.588  1.00  0.00     0.205 C 
HETATM   26  O7  UNL     1       0.605  48.644 -12.359  1.00  0.00    -0.306 OA
HETATM   27  C28 UNL     1       0.807  48.635 -11.010  1.00  0.00     0.293 C 
HETATM   28  O8  UNL     1       1.774  48.169 -10.440  1.00  0.00    -0.259 OA
HETATM   29  C29 UNL     1      -0.350  49.324 -10.374  1.00  0.00     0.055 C 
HETATM   30  C30 UNL     1      -0.591  49.139  -9.068  1.00  0.00     0.016 C 
HETATM   31  C31 UNL     1      -1.678  49.721  -8.317  1.00  0.00    -0.003 C 
HETATM   32  C32 UNL     1      -1.939  49.509  -7.017  1.00  0.00    -0.022 C 
HETATM   33  C33 UNL     1      -1.201  48.615  -6.043  1.00  0.00     0.008 C 
HETATM   34  C34 UNL     1      -2.183  48.009  -5.030  1.00  0.00     0.014 C 
HETATM   35  C35 UNL     1      -0.006  49.321  -5.349  1.00  0.00     0.041 C 
HETATM   36  C36 UNL     1      -1.049  50.068 -11.479  1.00  0.00     0.136 C 
ENDROOT
BRANCH  11  37
HETATM   37  O1  UNL     1       3.693  54.684 -11.646  1.00  0.00    -0.395 OA
HETATM   38  H16 UNL     1       4.117  55.419 -12.120  1.00  0.00     0.210 HD
ENDBRANCH  11  37
BRANCH  14  39
HETATM   39  C15 UNL     1       3.587  57.064  -7.150  1.00  0.00    -0.058 C 
HETATM   40  C16 UNL     1       2.557  58.171  -7.135  1.00  0.00     0.046 C 
HETATM   41  C17 UNL     1       4.674  57.060  -6.348  1.00  0.00    -0.018 C 
BRANCH  41  42
HETATM   42  C18 UNL     1       5.105  58.113  -5.350  1.00  0.00     0.000 C 
HETATM   43  C19 UNL     1       4.547  57.777  -3.967  1.00  0.00     0.013 C 
HETATM   44  C20 UNL     1       6.631  58.200  -5.301  1.00  0.00     0.013 C 
ENDBRANCH  41  42
ENDBRANCH  14  39
BRANCH  36  45
HETATM   45  O9  UNL     1      -2.457  50.168 -11.299  1.00  0.00    -0.381 OA
HETATM   46  H50 UNL     1      -2.785  49.335 -10.911  1.00  0.00     0.211 HD
ENDBRANCH  36  45
BRANCH  24  47
HETATM   47  O6  UNL     1      -0.290  48.730 -14.929  1.00  0.00    -0.388 OA
HETATM   48  H39 UNL     1       0.621  48.623 -14.592  1.00  0.00     0.210 HD
ENDBRANCH  24  47
TORSDOF 5
ENDMDL
MODEL 2
REMARK minimizedAffinity -9.68039227
REMARK CNNscore 0.45519191
REMARK CNNaffinity 7.20339918
REMARK  5 active torsions:
REMARK  status: ('A' for Active; 'I' for Inactive)
REMARK    1  A    between atoms: C11_11  and  O1_12 
REMARK    2  A    between atoms: C14_15  and  C15_16 
REMARK    3  A    between atoms: C17_18  and  C18_19 
REMARK    4  A    between atoms: C26_31  and  O6_32 
REMARK    5  A    between atoms: C36_44  and  O9_45 
ROOT
HETATM    1  C1  UNL     1      -7.052  44.119 -19.765  1.00  0.00     0.043 C 
HETATM    2  C2  UNL     1      -6.639  44.171 -21.209  1.00  0.00    -0.087 C 
HETATM    3  C3  UNL     1      -5.963  45.194 -21.772  1.00  0.00    -0.022 C 
HETATM    4  C4  UNL     1      -5.561  46.504 -21.145  1.00  0.00     0.059 C 
HETATM    5  C5  UNL     1      -5.955  47.737 -21.983  1.00  0.00     0.131 C 
HETATM    6  C6  UNL     1      -7.462  47.847 -22.245  1.00  0.00     0.065 C 
HETATM    7  C7  UNL     1      -7.772  48.689 -23.487  1.00  0.00     0.139 C 
HETATM    8  C8  UNL     1      -6.642  49.683 -23.752  1.00  0.00     0.101 C 
HETATM    9  C9  UNL     1      -5.274  48.978 -23.908  1.00  0.00     0.170 C 
HETATM   10  C10 UNL     1      -4.948  48.706 -25.390  1.00  0.00     0.100 C 
HETATM   11  C11 UNL     1      -4.091  49.829 -25.953  1.00  0.00     0.129 C 
HETATM   12  C12 UNL     1      -2.746  49.924 -25.198  1.00  0.00     0.044 C 
HETATM   13  C13 UNL     1      -1.631  49.086 -25.836  1.00  0.00     0.015 C 
HETATM   14  C14 UNL     1      -2.953  49.515 -23.715  1.00  0.00     0.159 C 
HETATM   15  O2  UNL     1      -4.293  49.863 -23.337  1.00  0.00    -0.345 OA
HETATM   16  O3  UNL     1      -5.249  47.718 -23.225  1.00  0.00    -0.349 OA
HETATM   17  O4  UNL     1      -7.934  47.811 -24.623  1.00  0.00    -0.315 OA
HETATM   18  C21 UNL     1      -8.717  48.284 -25.638  1.00  0.00     0.270 C 
HETATM   19  O5  UNL     1      -9.367  49.322 -25.579  1.00  0.00    -0.264 OA
HETATM   20  C22 UNL     1      -8.578  47.394 -26.877  1.00  0.00     0.150 C 
HETATM   21  C23 UNL     1      -8.745  48.267 -28.106  1.00  0.00    -0.004 C 
HETATM   22  C24 UNL     1      -9.526  47.965 -29.158  1.00  0.00    -0.056 C 
HETATM   23  C25 UNL     1      -9.712  48.928 -30.300  1.00  0.00     0.046 C 
HETATM   24  C26 UNL     1     -10.305  46.683 -29.215  1.00  0.00     0.179 C 
HETATM   25  C27 UNL     1      -9.863  45.616 -28.204  1.00  0.00     0.205 C 
HETATM   26  O7  UNL     1      -8.678  44.924 -28.637  1.00  0.00    -0.306 OA
HETATM   27  C28 UNL     1      -8.103  44.367 -27.533  1.00  0.00     0.293 C 
HETATM   28  O8  UNL     1      -7.189  43.567 -27.535  1.00  0.00    -0.259 OA
HETATM   29  C29 UNL     1      -8.776  44.942 -26.334  1.00  0.00     0.055 C 
HETATM   30  C30 UNL     1      -8.669  44.313 -25.154  1.00  0.00     0.016 C 
HETATM   31  C31 UNL     1      -9.275  44.734 -23.913  1.00  0.00    -0.003 C 
HETATM   32  C32 UNL     1      -9.196  44.087 -22.739  1.00  0.00    -0.022 C 
HETATM   33  C33 UNL     1      -8.497  42.780 -22.431  1.00  0.00     0.008 C 
HETATM   34  C34 UNL     1      -9.272  42.003 -21.357  1.00  0.00     0.014 C 
HETATM   35  C35 UNL     1      -7.001  42.959 -22.057  1.00  0.00     0.041 C 
HETATM   36  C36 UNL     1      -9.520  46.155 -26.817  1.00  0.00     0.136 C 
ENDROOT
BRANCH  11  37
HETATM   37  O1  UNL     1      -3.914  49.634 -27.350  1.00  0.00    -0.395 OA
HETATM   38  H16 UNL     1      -3.454  50.414 -27.704  1.00  0.00     0.210 HD
ENDBRANCH  11  37
BRANCH  14  39
HETATM   39  C15 UNL     1      -2.018  50.096 -22.651  1.00  0.00    -0.058 C 
HETATM   40  C16 UNL     1      -1.718  49.109 -21.546  1.00  0.00     0.046 C 
HETATM   41  C17 UNL     1      -1.477  51.334 -22.700  1.00  0.00    -0.018 C 
BRANCH  41  42
HETATM   42  C18 UNL     1      -0.546  51.987 -21.702  1.00  0.00     0.000 C 
HETATM   43  C19 UNL     1      -0.064  50.952 -20.686  1.00  0.00     0.013 C 
HETATM   44  C20 UNL     1       0.645  52.616 -22.426  1.00  0.00     0.013 C 
ENDBRANCH  41  42
ENDBRANCH  14  39
BRANCH  36  45
HETATM   45  O9  UNL     1     -10.724  46.409 -26.102  1.00  0.00    -0.381 OA
HETATM   46  H50 UNL     1     -11.150  45.558 -25.890  1.00  0.00     0.211 HD
ENDBRANCH  36  45
BRANCH  24  47
HETATM   47  O6  UNL     1     -10.218  46.134 -30.529  1.00  0.00    -0.388 OA
HETATM   48  H39 UNL     1      -9.319  45.758 -30.608  1.00  0.00     0.210 HD
ENDBRANCH  24  47
TORSDOF 5
ENDMDL
MODEL 3
REMARK minimizedAffinity -7.61285925
REMARK CNNscore 0.409681022
REMARK CNNaffinity 7.02183723
REMARK  5 active torsions:
REMARK  status: ('A' for Active; 'I' for Inactive)
REMARK    1  A    between atoms: C11_11  and  O1_12 
REMARK    2  A    between atoms: C14_15  and  C15_16 
REMARK    3  A    between atoms: C17_18  and  C18_19 
REMARK    4  A    between atoms: C26_31  and  O6_32 
REMARK    5  A    between atoms: C36_44  and  O9_45 
ROOT
HETATM    1  C1  UNL     1       6.752  55.147  -9.678  1.00  0.00     0.043 C 
HETATM    2  C2  UNL     1       5.878  54.201  -8.904  1.00  0.00    -0.087 C 
HETATM    3  C3  UNL     1       4.666  53.773  -9.317  1.00  0.00    -0.022 C 
HETATM    4  C4  UNL     1       3.897  54.190 -10.542  1.00  0.00     0.059 C 
HETATM    5  C5  UNL     1       2.440  54.602 -10.249  1.00  0.00     0.131 C 
HETATM    6  C6  UNL     1       2.319  55.772  -9.264  1.00  0.00     0.065 C 
HETATM    7  C7  UNL     1       0.956  55.797  -8.564  1.00  0.00     0.139 C 
HETATM    8  C8  UNL     1      -0.101  55.113  -9.430  1.00  0.00     0.101 C 
HETATM    9  C9  UNL     1       0.293  53.660  -9.787  1.00  0.00     0.170 C 
HETATM   10  C10 UNL     1      -0.327  52.651  -8.800  1.00  0.00     0.100 C 
HETATM   11  C11 UNL     1      -1.635  52.110  -9.356  1.00  0.00     0.129 C 
HETATM   12  C12 UNL     1      -1.397  51.362 -10.687  1.00  0.00     0.044 C 
HETATM   13  C13 UNL     1      -1.141  49.861 -10.502  1.00  0.00     0.015 C 
HETATM   14  C14 UNL     1      -0.221  52.025 -11.453  1.00  0.00     0.159 C 
HETATM   15  O2  UNL     1      -0.198  53.420 -11.119  1.00  0.00    -0.345 OA
HETATM   16  O3  UNL     1       1.714  53.475  -9.753  1.00  0.00    -0.349 OA
HETATM   17  O4  UNL     1       1.067  55.119  -7.293  1.00  0.00    -0.315 OA
HETATM   18  C21 UNL     1       0.172  55.498  -6.332  1.00  0.00     0.270 C 
HETATM   19  O5  UNL     1      -0.606  56.439  -6.451  1.00  0.00    -0.264 OA
HETATM   20  C22 UNL     1       0.213  54.524  -5.152  1.00  0.00     0.150 C 
HETATM   21  C23 UNL     1      -1.179  54.448  -4.553  1.00  0.00    -0.004 C 
HETATM   22  C24 UNL     1      -1.453  54.527  -3.240  1.00  0.00    -0.056 C 
HETATM   23  C25 UNL     1      -2.869  54.538  -2.731  1.00  0.00     0.046 C 
HETATM   24  C26 UNL     1      -0.361  54.678  -2.219  1.00  0.00     0.179 C 
HETATM   25  C27 UNL     1       1.050  54.362  -2.734  1.00  0.00     0.205 C 
HETATM   26  O7  UNL     1       1.293  52.945  -2.796  1.00  0.00    -0.306 OA
HETATM   27  C28 UNL     1       2.323  52.746  -3.668  1.00  0.00     0.293 C 
HETATM   28  O8  UNL     1       2.916  51.699  -3.839  1.00  0.00    -0.259 OA
HETATM   29  C29 UNL     1       2.562  54.028  -4.387  1.00  0.00     0.055 C 
HETATM   30  C30 UNL     1       3.728  54.221  -5.020  1.00  0.00     0.016 C 
HETATM   31  C31 UNL     1       4.113  55.411  -5.741  1.00  0.00    -0.003 C 
HETATM   32  C32 UNL     1       5.293  55.618  -6.346  1.00  0.00    -0.022 C 
HETATM   33  C33 UNL     1       6.495  54.698  -6.404  1.00  0.00     0.008 C 
HETATM   34  C34 UNL     1       7.793  55.519  -6.404  1.00  0.00     0.014 C 
HETATM   35  C35 UNL     1       6.440  53.691  -7.584  1.00  0.00     0.041 C 
HETATM   36  C36 UNL     1       1.344  54.876  -4.141  1.00  0.00     0.136 C 
ENDROOT
BRANCH  11  37
HETATM   37  O1  UNL     1      -2.261  51.289  -8.378  1.00  0.00    -0.395 OA
HETATM   38  H16 UNL     1      -3.138  51.041  -8.716  1.00  0.00     0.210 HD
ENDBRANCH  11  37
BRANCH  14  39
HETATM   39  C15 UNL     1      -0.185  51.925 -12.980  1.00  0.00    -0.058 C 
HETATM   40  C16 UNL     1      -1.561  52.024 -13.597  1.00  0.00     0.046 C 
HETATM   41  C17 UNL     1       0.944  51.806 -13.714  1.00  0.00    -0.018 C 
BRANCH  41  42
HETATM   42  C18 UNL     1       1.075  51.704 -15.218  1.00  0.00     0.000 C 
HETATM   43  C19 UNL     1       2.483  52.120 -15.646  1.00  0.00     0.013 C 
HETATM   44  C20 UNL     1       0.780  50.275 -15.677  1.00  0.00     0.013 C 
ENDBRANCH  41  42
ENDBRANCH  14  39
BRANCH  36  45
HETATM   45  O9  UNL     1       1.621  56.271  -4.083  1.00  0.00    -0.381 OA
HETATM   46  H50 UNL     1       2.477  56.403  -3.634  1.00  0.00     0.211 HD
ENDBRANCH  36  45
BRANCH  24  47
HETATM   47  O6  UNL     1      -0.641  53.838  -1.100  1.00  0.00    -0.388 OA
HETATM   48  H39 UNL     1      -0.441  52.926  -1.388  1.00  0.00     0.210 HD
ENDBRANCH  24  47
TORSDOF 5
ENDMDL
MODEL 4
REMARK minimizedAffinity -8.10883427
REMARK CNNscore 0.404771745
REMARK CNNaffinity 6.1798377
REMARK  5 active torsions:
REMARK  status: ('A' for Active; 'I' for Inactive)
REMARK    1  A    between atoms: C11_11  and  O1_12 
REMARK    2  A    between atoms: C14_15  and  C15_16 
REMARK    3  A    between atoms: C17_18  and  C18_19 
REMARK    4  A    between atoms: C26_31  and  O6_32 
REMARK    5  A    between atoms: C36_44  and  O9_45 
ROOT
HETATM    1  C1  UNL     1     -11.643  46.664 -25.955  1.00  0.00     0.043 C 
HETATM    2  C2  UNL     1     -13.143  46.718 -25.866  1.00  0.00    -0.087 C 
HETATM    3  C3  UNL     1     -13.842  46.609 -24.717  1.00  0.00    -0.022 C 
HETATM    4  C4  UNL     1     -13.322  46.329 -23.332  1.00  0.00     0.059 C 
HETATM    5  C5  UNL     1     -14.062  45.183 -22.613  1.00  0.00     0.131 C 
HETATM    6  C6  UNL     1     -13.995  43.845 -23.360  1.00  0.00     0.065 C 
HETATM    7  C7  UNL     1     -15.146  42.910 -22.973  1.00  0.00     0.139 C 
HETATM    8  C8  UNL     1     -15.652  43.241 -21.569  1.00  0.00     0.101 C 
HETATM    9  C9  UNL     1     -16.094  44.718 -21.445  1.00  0.00     0.170 C 
HETATM   10  C10 UNL     1     -17.610  44.872 -21.678  1.00  0.00     0.100 C 
HETATM   11  C11 UNL     1     -18.349  44.857 -20.349  1.00  0.00     0.129 C 
HETATM   12  C12 UNL     1     -17.900  46.037 -19.459  1.00  0.00     0.044 C 
HETATM   13  C13 UNL     1     -18.759  47.295 -19.640  1.00  0.00     0.015 C 
HETATM   14  C14 UNL     1     -16.405  46.354 -19.731  1.00  0.00     0.159 C 
HETATM   15  O2  UNL     1     -15.750  45.136 -20.111  1.00  0.00    -0.345 OA
HETATM   16  O3  UNL     1     -15.426  45.551 -22.401  1.00  0.00    -0.349 OA
HETATM   17  O4  UNL     1     -16.217  43.059 -23.931  1.00  0.00    -0.315 OA
HETATM   18  C21 UNL     1     -17.043  41.980 -24.078  1.00  0.00     0.270 C 
HETATM   19  O5  UNL     1     -16.850  40.890 -23.551  1.00  0.00    -0.264 OA
HETATM   20  C22 UNL     1     -18.278  42.363 -24.898  1.00  0.00     0.150 C 
HETATM   21  C23 UNL     1     -19.447  41.530 -24.407  1.00  0.00    -0.004 C 
HETATM   22  C24 UNL     1     -20.306  40.872 -25.205  1.00  0.00    -0.056 C 
HETATM   23  C25 UNL     1     -21.385  39.990 -24.639  1.00  0.00     0.046 C 
HETATM   24  C26 UNL     1     -20.188  40.929 -26.701  1.00  0.00     0.179 C 
HETATM   25  C27 UNL     1     -19.290  42.055 -27.233  1.00  0.00     0.205 C 
HETATM   26  O7  UNL     1     -19.964  43.326 -27.230  1.00  0.00    -0.306 OA
HETATM   27  C28 UNL     1     -19.006  44.296 -27.254  1.00  0.00     0.293 C 
HETATM   28  O8  UNL     1     -19.201  45.482 -27.434  1.00  0.00    -0.259 OA
HETATM   29  C29 UNL     1     -17.694  43.643 -26.988  1.00  0.00     0.055 C 
HETATM   30  C30 UNL     1     -16.562  44.284 -27.313  1.00  0.00     0.016 C 
HETATM   31  C31 UNL     1     -15.221  43.777 -27.135  1.00  0.00    -0.003 C 
HETATM   32  C32 UNL     1     -14.089  44.404 -27.491  1.00  0.00    -0.022 C 
HETATM   33  C33 UNL     1     -13.931  45.747 -28.172  1.00  0.00     0.008 C 
HETATM   34  C34 UNL     1     -12.712  45.730 -29.105  1.00  0.00     0.014 C 
HETATM   35  C35 UNL     1     -13.888  46.937 -27.176  1.00  0.00     0.041 C 
HETATM   36  C36 UNL     1     -18.012  42.283 -26.431  1.00  0.00     0.136 C 
ENDROOT
BRANCH  11  37
HETATM   37  O1  UNL     1     -19.751  44.861 -20.587  1.00  0.00    -0.395 OA
HETATM   38  H16 UNL     1     -20.198  44.747 -19.731  1.00  0.00     0.210 HD
ENDBRANCH  11  37
BRANCH  14  39
HETATM   39  C15 UNL     1     -15.570  46.987 -18.615  1.00  0.00    -0.058 C 
HETATM   40  C16 UNL     1     -15.871  48.458 -18.433  1.00  0.00     0.046 C 
HETATM   41  C17 UNL     1     -14.689  46.315 -17.841  1.00  0.00    -0.018 C 
BRANCH  41  42
HETATM   42  C18 UNL     1     -13.828  46.854 -16.720  1.00  0.00     0.000 C 
HETATM   43  C19 UNL     1     -13.694  45.805 -15.616  1.00  0.00     0.013 C 
HETATM   44  C20 UNL     1     -12.448  47.241 -17.255  1.00  0.00     0.013 C 
ENDBRANCH  41  42
ENDBRANCH  14  39
BRANCH  36  45
HETATM   45  O9  UNL     1     -17.056  41.287 -26.776  1.00  0.00    -0.381 OA
HETATM   46  H50 UNL     1     -16.754  41.443 -27.690  1.00  0.00     0.211 HD
ENDBRANCH  36  45
BRANCH  24  47
HETATM   47  O6  UNL     1     -21.488  41.070 -27.273  1.00  0.00    -0.388 OA
HETATM   48  H39 UNL     1     -21.755  41.996 -27.116  1.00  0.00     0.210 HD
ENDBRANCH  24  47
TORSDOF 5
ENDMDL
MODEL 5
REMARK minimizedAffinity -7.30667925
REMARK CNNscore 0.358316481
REMARK CNNaffinity 5.90647507
REMARK  5 active torsions:
REMARK  status: ('A' for Active; 'I' for Inactive)
REMARK    1  A    between atoms: C11_11  and  O1_12 
REMARK    2  A    between atoms: C14_15  and  C15_16 
REMARK    3  A    between atoms: C17_18  and  C18_19 
REMARK    4  A    between atoms: C26_31  and  O6_32 
REMARK    5  A    between atoms: C36_44  and  O9_45 
ROOT
HETATM    1  C1  UNL     1     -14.530  46.017 -18.057  1.00  0.00     0.043 C 
HETATM    2  C2  UNL     1     -15.754  46.121 -18.924  1.00  0.00    -0.087 C 
HETATM    3  C3  UNL     1     -16.742  45.203 -18.961  1.00  0.00    -0.022 C 
HETATM    4  C4  UNL     1     -16.811  43.877 -18.250  1.00  0.00     0.059 C 
HETATM    5  C5  UNL     1     -17.164  42.695 -19.176  1.00  0.00     0.131 C 
HETATM    6  C6  UNL     1     -16.169  42.498 -20.328  1.00  0.00     0.065 C 
HETATM    7  C7  UNL     1     -16.795  41.747 -21.507  1.00  0.00     0.139 C 
HETATM    8  C8  UNL     1     -17.947  40.865 -21.028  1.00  0.00     0.101 C 
HETATM    9  C9  UNL     1     -19.027  41.680 -20.276  1.00  0.00     0.170 C 
HETATM   10  C10 UNL     1     -20.170  42.103 -21.219  1.00  0.00     0.100 C 
HETATM   11  C11 UNL     1     -21.310  41.099 -21.145  1.00  0.00     0.129 C 
HETATM   12  C12 UNL     1     -21.894  41.039 -19.717  1.00  0.00     0.044 C 
HETATM   13  C13 UNL     1     -23.062  42.009 -19.496  1.00  0.00     0.015 C 
HETATM   14  C14 UNL     1     -20.766  41.301 -18.682  1.00  0.00     0.159 C 
HETATM   15  O2  UNL     1     -19.532  40.824 -19.235  1.00  0.00    -0.345 OA
HETATM   16  O3  UNL     1     -18.481  42.874 -19.701  1.00  0.00    -0.349 OA
HETATM   17  O4  UNL     1     -17.277  42.706 -22.475  1.00  0.00    -0.315 OA
HETATM   18  C21 UNL     1     -17.353  42.267 -23.767  1.00  0.00     0.270 C 
HETATM   19  O5  UNL     1     -16.928  41.183 -24.150  1.00  0.00    -0.264 OA
HETATM   20  C22 UNL     1     -18.131  43.269 -24.625  1.00  0.00     0.150 C 
HETATM   21  C23 UNL     1     -18.862  42.497 -25.706  1.00  0.00    -0.004 C 
HETATM   22  C24 UNL     1     -18.877  42.830 -27.008  1.00  0.00    -0.056 C 
HETATM   23  C25 UNL     1     -19.549  41.960 -28.035  1.00  0.00     0.046 C 
HETATM   24  C26 UNL     1     -18.164  44.052 -27.513  1.00  0.00     0.179 C 
HETATM   25  C27 UNL     1     -17.760  45.057 -26.425  1.00  0.00     0.205 C 
HETATM   26  O7  UNL     1     -18.871  45.868 -26.004  1.00  0.00    -0.306 OA
HETATM   27  C28 UNL     1     -18.568  46.368 -24.772  1.00  0.00     0.293 C 
HETATM   28  O8  UNL     1     -19.189  47.231 -24.183  1.00  0.00    -0.259 OA
HETATM   29  C29 UNL     1     -17.366  45.644 -24.273  1.00  0.00     0.055 C 
HETATM   30  C30 UNL     1     -16.646  46.174 -23.273  1.00  0.00     0.016 C 
HETATM   31  C31 UNL     1     -15.452  45.603 -22.696  1.00  0.00    -0.003 C 
HETATM   32  C32 UNL     1     -14.712  46.149 -21.718  1.00  0.00    -0.022 C 
HETATM   33  C33 UNL     1     -14.916  47.472 -21.010  1.00  0.00     0.008 C 
HETATM   34  C34 UNL     1     -13.561  48.093 -20.643  1.00  0.00     0.014 C 
HETATM   35  C35 UNL     1     -15.864  47.372 -19.786  1.00  0.00     0.041 C 
HETATM   36  C36 UNL     1     -17.224  44.425 -25.142  1.00  0.00     0.136 C 
ENDROOT
BRANCH  11  37
HETATM   37  O1  UNL     1     -22.293  41.428 -22.119  1.00  0.00    -0.395 OA
HETATM   38  H16 UNL     1     -22.957  40.717 -22.122  1.00  0.00     0.210 HD
ENDBRANCH  11  37
BRANCH  14  39
HETATM   39  C15 UNL     1     -20.896  40.699 -17.280  1.00  0.00    -0.058 C 
HETATM   40  C16 UNL     1     -19.602  40.766 -16.502  1.00  0.00     0.046 C 
HETATM   41  C17 UNL     1     -22.041  40.200 -16.763  1.00  0.00    -0.018 C 
BRANCH  41  42
HETATM   42  C18 UNL     1     -22.262  39.592 -15.396  1.00  0.00     0.000 C 
HETATM   43  C19 UNL     1     -22.820  40.649 -14.442  1.00  0.00     0.013 C 
HETATM   44  C20 UNL     1     -23.222  38.406 -15.494  1.00  0.00     0.013 C 
ENDBRANCH  41  42
ENDBRANCH  14  39
BRANCH  36  45
HETATM   45  O9  UNL     1     -15.874  44.022 -25.345  1.00  0.00    -0.381 OA
HETATM   46  H50 UNL     1     -15.317  44.818 -25.428  1.00  0.00     0.211 HD
ENDBRANCH  36  45
BRANCH  24  47
HETATM   47  O6  UNL     1     -18.987  44.718 -28.469  1.00  0.00    -0.388 OA
HETATM   48  H39 UNL     1     -19.691  45.165 -27.959  1.00  0.00     0.210 HD
ENDBRANCH  24  47
TORSDOF 5
ENDMDL
MODEL 6
REMARK minimizedAffinity -8.22164249
REMARK CNNscore 0.343400985
REMARK CNNaffinity 5.86786652
REMARK  5 active torsions:
REMARK  status: ('A' for Active; 'I' for Inactive)
REMARK    1  A    between atoms: C11_11  and  O1_12 
REMARK    2  A    between atoms: C14_15  and  C15_16 
REMARK    3  A    between atoms: C17_18  and  C18_19 
REMARK    4  A    between atoms: C26_31  and  O6_32 
REMARK    5  A    between atoms: C36_44  and  O9_45 
ROOT
HETATM    1  C1  UNL     1     -11.274  46.317 -26.814  1.00  0.00     0.043 C 
HETATM    2  C2  UNL     1     -12.509  46.801 -26.107  1.00  0.00    -0.087 C 
HETATM    3  C3  UNL     1     -12.638  46.877 -24.766  1.00  0.00    -0.022 C 
HETATM    4  C4  UNL     1     -11.664  46.432 -23.708  1.00  0.00     0.059 C 
HETATM    5  C5  UNL     1     -12.294  45.535 -22.623  1.00  0.00     0.131 C 
HETATM    6  C6  UNL     1     -12.922  44.250 -23.177  1.00  0.00     0.065 C 
HETATM    7  C7  UNL     1     -13.993  43.681 -22.240  1.00  0.00     0.139 C 
HETATM    8  C8  UNL     1     -13.727  44.117 -20.800  1.00  0.00     0.101 C 
HETATM    9  C9  UNL     1     -13.656  45.657 -20.663  1.00  0.00     0.170 C 
HETATM   10  C10 UNL     1     -15.018  46.247 -20.250  1.00  0.00     0.100 C 
HETATM   11  C11 UNL     1     -15.078  46.421 -18.740  1.00  0.00     0.129 C 
HETATM   12  C12 UNL     1     -13.987  47.403 -18.258  1.00  0.00     0.044 C 
HETATM   13  C13 UNL     1     -14.465  48.859 -18.196  1.00  0.00     0.015 C 
HETATM   14  C14 UNL     1     -12.736  47.279 -19.169  1.00  0.00     0.159 C 
HETATM   15  O2  UNL     1     -12.667  45.930 -19.654  1.00  0.00    -0.345 OA
HETATM   16  O3  UNL     1     -13.275  46.278 -21.897  1.00  0.00    -0.349 OA
HETATM   17  O4  UNL     1     -15.290  44.152 -22.667  1.00  0.00    -0.315 OA
HETATM   18  C21 UNL     1     -16.354  43.362 -22.333  1.00  0.00     0.270 C 
HETATM   19  O5  UNL     1     -16.252  42.253 -21.820  1.00  0.00    -0.264 OA
HETATM   20  C22 UNL     1     -17.669  44.103 -22.591  1.00  0.00     0.150 C 
HETATM   21  C23 UNL     1     -18.684  43.635 -21.564  1.00  0.00    -0.004 C 
HETATM   22  C24 UNL     1     -19.946  43.269 -21.847  1.00  0.00    -0.056 C 
HETATM   23  C25 UNL     1     -20.864  42.727 -20.786  1.00  0.00     0.046 C 
HETATM   24  C26 UNL     1     -20.481  43.319 -23.250  1.00  0.00     0.179 C 
HETATM   25  C27 UNL     1     -19.640  44.146 -24.231  1.00  0.00     0.205 C 
HETATM   26  O7  UNL     1     -19.875  45.558 -24.082  1.00  0.00    -0.306 OA
HETATM   27  C28 UNL     1     -18.802  46.209 -24.615  1.00  0.00     0.293 C 
HETATM   28  O8  UNL     1     -18.729  47.404 -24.825  1.00  0.00    -0.259 OA
HETATM   29  C29 UNL     1     -17.734  45.199 -24.858  1.00  0.00     0.055 C 
HETATM   30  C30 UNL     1     -16.731  45.491 -25.699  1.00  0.00     0.016 C 
HETATM   31  C31 UNL     1     -15.638  44.614 -26.049  1.00  0.00    -0.003 C 
HETATM   32  C32 UNL     1     -14.652  44.892 -26.916  1.00  0.00    -0.022 C 
HETATM   33  C33 UNL     1     -14.452  46.145 -27.742  1.00  0.00     0.008 C 
HETATM   34  C34 UNL     1     -13.817  45.794 -29.095  1.00  0.00     0.014 C 
HETATM   35  C35 UNL     1     -13.661  47.252 -26.995  1.00  0.00     0.041 C 
HETATM   36  C36 UNL     1     -18.130  43.979 -24.074  1.00  0.00     0.136 C 
ENDROOT
BRANCH  11  37
HETATM   37  O1  UNL     1     -16.385  46.836 -18.363  1.00  0.00    -0.395 OA
HETATM   38  H16 UNL     1     -16.427  46.839 -17.392  1.00  0.00     0.210 HD
ENDBRANCH  11  37
BRANCH  14  39
HETATM   39  C15 UNL     1     -11.362  47.621 -18.587  1.00  0.00    -0.058 C 
HETATM   40  C16 UNL     1     -11.263  47.297 -17.113  1.00  0.00     0.046 C 
HETATM   41  C17 UNL     1     -10.328  48.117 -19.302  1.00  0.00    -0.018 C 
BRANCH  41  42
HETATM   42  C18 UNL     1      -8.943  48.480 -18.815  1.00  0.00     0.000 C 
HETATM   43  C19 UNL     1      -8.002  48.655 -20.008  1.00  0.00     0.013 C 
HETATM   44  C20 UNL     1      -8.995  49.764 -17.986  1.00  0.00     0.013 C 
ENDBRANCH  41  42
ENDBRANCH  14  39
BRANCH  36  45
HETATM   45  O9  UNL     1     -17.728  42.755 -24.678  1.00  0.00    -0.381 OA
HETATM   46  H50 UNL     1     -17.824  42.835 -25.645  1.00  0.00     0.211 HD
ENDBRANCH  36  45
BRANCH  24  47
HETATM   47  O6  UNL     1     -21.809  43.841 -23.231  1.00  0.00    -0.388 OA
HETATM   48  H39 UNL     1     -21.722  44.802 -23.078  1.00  0.00     0.210 HD
ENDBRANCH  24  47
TORSDOF 5
ENDMDL
MODEL 7
REMARK minimizedAffinity -7.77158594
REMARK CNNscore 0.279664427
REMARK CNNaffinity 5.9444375
REMARK  5 active torsions:
REMARK  status: ('A' for Active; 'I' for Inactive)
REMARK    1  A    between atoms: C11_11  and  O1_12 
REMARK    2  A    between atoms: C14_15  and  C15_16 
REMARK    3  A    between atoms: C17_18  and  C18_19 
REMARK    4  A    between atoms: C26_31  and  O6_32 
REMARK    5  A    between atoms: C36_44  and  O9_45 
ROOT
HETATM    1  C1  UNL     1      -8.130  47.246 -30.801  1.00  0.00     0.043 C 
HETATM    2  C2  UNL     1      -9.037  47.595 -29.654  1.00  0.00    -0.087 C 
HETATM    3  C3  UNL     1      -8.673  47.552 -28.355  1.00  0.00    -0.022 C 
HETATM    4  C4  UNL     1      -7.370  47.078 -27.767  1.00  0.00     0.059 C 
HETATM    5  C5  UNL     1      -7.542  46.058 -26.623  1.00  0.00     0.131 C 
HETATM    6  C6  UNL     1      -8.295  44.788 -27.040  1.00  0.00     0.065 C 
HETATM    7  C7  UNL     1      -8.939  44.081 -25.843  1.00  0.00     0.139 C 
HETATM    8  C8  UNL     1      -8.180  44.410 -24.557  1.00  0.00     0.101 C 
HETATM    9  C9  UNL     1      -8.103  45.935 -24.303  1.00  0.00     0.170 C 
HETATM   10  C10 UNL     1      -9.238  46.407 -23.373  1.00  0.00     0.100 C 
HETATM   11  C11 UNL     1      -8.751  46.450 -21.933  1.00  0.00     0.129 C 
HETATM   12  C12 UNL     1      -7.585  47.452 -21.778  1.00  0.00     0.044 C 
HETATM   13  C13 UNL     1      -8.045  48.866 -21.405  1.00  0.00     0.015 C 
HETATM   14  C14 UNL     1      -6.746  47.478 -23.085  1.00  0.00     0.159 C 
HETATM   15  O2  UNL     1      -6.823  46.182 -23.693  1.00  0.00    -0.345 OA
HETATM   16  O3  UNL     1      -8.212  46.679 -25.524  1.00  0.00    -0.349 OA
HETATM   17  O4  UNL     1     -10.314  44.508 -25.727  1.00  0.00    -0.315 OA
HETATM   18  C21 UNL     1     -11.164  43.631 -25.114  1.00  0.00     0.270 C 
HETATM   19  O5  UNL     1     -10.855  42.491 -24.785  1.00  0.00    -0.264 OA
HETATM   20  C22 UNL     1     -12.502  44.311 -24.809  1.00  0.00     0.150 C 
HETATM   21  C23 UNL     1     -13.063  43.700 -23.539  1.00  0.00    -0.004 C 
HETATM   22  C24 UNL     1     -14.332  43.284 -23.385  1.00  0.00    -0.056 C 
HETATM   23  C25 UNL     1     -14.789  42.602 -22.125  1.00  0.00     0.046 C 
HETATM   24  C26 UNL     1     -15.341  43.419 -24.490  1.00  0.00     0.179 C 
HETATM   25  C27 UNL     1     -14.933  44.374 -25.621  1.00  0.00     0.205 C 
HETATM   26  O7  UNL     1     -15.134  45.752 -25.259  1.00  0.00    -0.306 OA
HETATM   27  C28 UNL     1     -14.344  46.508 -26.073  1.00  0.00     0.293 C 
HETATM   28  O8  UNL     1     -14.382  47.718 -26.176  1.00  0.00    -0.259 OA
HETATM   29  C29 UNL     1     -13.412  45.587 -26.782  1.00  0.00     0.055 C 
HETATM   30  C30 UNL     1     -12.789  46.007 -27.892  1.00  0.00     0.016 C 
HETATM   31  C31 UNL     1     -11.876  45.228 -28.696  1.00  0.00    -0.003 C 
HETATM   32  C32 UNL     1     -11.278  45.637 -29.827  1.00  0.00    -0.022 C 
HETATM   33  C33 UNL     1     -11.423  46.964 -30.541  1.00  0.00     0.008 C 
HETATM   34  C34 UNL     1     -11.312  46.765 -32.060  1.00  0.00     0.014 C 
HETATM   35  C35 UNL     1     -10.443  48.049 -30.021  1.00  0.00     0.041 C 
HETATM   36  C36 UNL     1     -13.465  44.284 -26.032  1.00  0.00     0.136 C 
ENDROOT
BRANCH  11  37
HETATM   37  O1  UNL     1      -9.842  46.754 -21.073  1.00  0.00    -0.395 OA
HETATM   38  H16 UNL     1      -9.530  46.674 -20.156  1.00  0.00     0.210 HD
ENDBRANCH  11  37
BRANCH  14  39
HETATM   39  C15 UNL     1      -5.264  47.852 -23.003  1.00  0.00    -0.058 C 
HETATM   40  C16 UNL     1      -4.629  47.411 -21.703  1.00  0.00     0.046 C 
HETATM   41  C17 UNL     1      -4.573  48.468 -23.988  1.00  0.00    -0.018 C 
BRANCH  41  42
HETATM   42  C18 UNL     1      -3.114  48.871 -23.996  1.00  0.00     0.000 C 
HETATM   43  C19 UNL     1      -2.607  48.953 -25.436  1.00  0.00     0.013 C 
HETATM   44  C20 UNL     1      -2.935  50.216 -23.291  1.00  0.00     0.013 C 
ENDBRANCH  41  42
ENDBRANCH  14  39
BRANCH  36  45
HETATM   45  O9  UNL     1     -13.278  43.141 -26.859  1.00  0.00    -0.381 OA
HETATM   46  H50 UNL     1     -13.721  43.296 -27.715  1.00  0.00     0.211 HD
ENDBRANCH  36  45
BRANCH  24  47
HETATM   47  O6  UNL     1     -16.584  43.858 -23.945  1.00  0.00    -0.388 OA
HETATM   48  H39 UNL     1     -16.472  44.807 -23.740  1.00  0.00     0.210 HD
ENDBRANCH  24  47
TORSDOF 5
ENDMDL
MODEL 8
REMARK minimizedAffinity -7.78504229
REMARK CNNscore 0.279376358
REMARK CNNaffinity 6.19506073
REMARK  5 active torsions:
REMARK  status: ('A' for Active; 'I' for Inactive)
REMARK    1  A    between atoms: C11_11  and  O1_12 
REMARK    2  A    between atoms: C14_15  and  C15_16 
REMARK    3  A    between atoms: C17_18  and  C18_19 
REMARK    4  A    between atoms: C26_31  and  O6_32 
REMARK    5  A    between atoms: C36_44  and  O9_45 
ROOT
HETATM    1  C1  UNL     1     -10.296  47.368 -28.716  1.00  0.00     0.043 C 
HETATM    2  C2  UNL     1     -10.651  47.811 -27.324  1.00  0.00    -0.087 C 
HETATM    3  C3  UNL     1      -9.761  47.955 -26.320  1.00  0.00    -0.022 C 
HETATM    4  C4  UNL     1      -8.289  47.636 -26.325  1.00  0.00     0.059 C 
HETATM    5  C5  UNL     1      -7.841  46.764 -25.135  1.00  0.00     0.131 C 
HETATM    6  C6  UNL     1      -8.560  45.411 -25.059  1.00  0.00     0.065 C 
HETATM    7  C7  UNL     1      -8.546  44.829 -23.642  1.00  0.00     0.139 C 
HETATM    8  C8  UNL     1      -7.348  45.363 -22.858  1.00  0.00     0.101 C 
HETATM    9  C9  UNL     1      -7.332  46.909 -22.804  1.00  0.00     0.170 C 
HETATM   10  C10 UNL     1      -7.998  47.433 -21.517  1.00  0.00     0.100 C 
HETATM   11  C11 UNL     1      -6.946  47.689 -20.449  1.00  0.00     0.129 C 
HETATM   12  C12 UNL     1      -5.942  48.766 -20.916  1.00  0.00     0.044 C 
HETATM   13  C13 UNL     1      -6.344  50.189 -20.509  1.00  0.00     0.015 C 
HETATM   14  C14 UNL     1      -5.756  48.671 -22.454  1.00  0.00     0.159 C 
HETATM   15  O2  UNL     1      -5.949  47.304 -22.846  1.00  0.00    -0.345 OA
HETATM   16  O3  UNL     1      -8.034  47.482 -23.914  1.00  0.00    -0.349 OA
HETATM   17  O4  UNL     1      -9.774  45.189 -22.972  1.00  0.00    -0.315 OA
HETATM   18  C21 UNL     1     -10.178  44.352 -21.970  1.00  0.00     0.270 C 
HETATM   19  O5  UNL     1      -9.637  43.283 -21.708  1.00  0.00    -0.264 OA
HETATM   20  C22 UNL     1     -11.318  44.990 -21.171  1.00  0.00     0.150 C 
HETATM   21  C23 UNL     1     -11.208  44.517 -19.733  1.00  0.00    -0.004 C 
HETATM   22  C24 UNL     1     -12.235  44.054 -19.000  1.00  0.00    -0.056 C 
HETATM   23  C25 UNL     1     -12.029  43.515 -17.610  1.00  0.00     0.046 C 
HETATM   24  C26 UNL     1     -13.629  43.988 -19.555  1.00  0.00     0.179 C 
HETATM   25  C27 UNL     1     -13.853  44.811 -20.832  1.00  0.00     0.205 C 
HETATM   26  O7  UNL     1     -14.024  46.210 -20.545  1.00  0.00    -0.306 OA
HETATM   27  C28 UNL     1     -13.748  46.899 -21.690  1.00  0.00     0.293 C 
HETATM   28  O8  UNL     1     -13.956  48.081 -21.875  1.00  0.00    -0.259 OA
HETATM   29  C29 UNL     1     -13.119  45.947 -22.649  1.00  0.00     0.055 C 
HETATM   30  C30 UNL     1     -13.085  46.255 -23.954  1.00  0.00     0.016 C 
HETATM   31  C31 UNL     1     -12.529  45.432 -25.002  1.00  0.00    -0.003 C 
HETATM   32  C32 UNL     1     -12.524  45.724 -26.313  1.00  0.00    -0.022 C 
HETATM   33  C33 UNL     1     -13.104  46.938 -27.009  1.00  0.00     0.008 C 
HETATM   34  C34 UNL     1     -13.637  46.551 -28.395  1.00  0.00     0.014 C 
HETATM   35  C35 UNL     1     -12.118  48.134 -27.074  1.00  0.00     0.041 C 
HETATM   36  C36 UNL     1     -12.705  44.751 -21.837  1.00  0.00     0.136 C 
ENDROOT
BRANCH  11  37
HETATM   37  O1  UNL     1      -7.587  48.039 -19.228  1.00  0.00    -0.395 OA
HETATM   38  H16 UNL     1      -6.903  48.096 -18.539  1.00  0.00     0.210 HD
ENDBRANCH  11  37
BRANCH  14  39
HETATM   39  C15 UNL     1      -4.432  49.134 -23.068  1.00  0.00    -0.058 C 
HETATM   40  C16 UNL     1      -4.184  48.527 -24.430  1.00  0.00     0.046 C 
HETATM   41  C17 UNL     1      -3.588  50.019 -22.492  1.00  0.00    -0.018 C 
BRANCH  41  42
HETATM   42  C18 UNL     1      -2.269  50.534 -23.023  1.00  0.00     0.000 C 
HETATM   43  C19 UNL     1      -2.360  52.041 -23.269  1.00  0.00     0.013 C 
HETATM   44  C20 UNL     1      -1.145  50.226 -22.032  1.00  0.00     0.013 C 
ENDBRANCH  41  42
ENDBRANCH  14  39
BRANCH  36  45
HETATM   45  O9  UNL     1     -12.772  43.523 -22.554  1.00  0.00    -0.381 OA
HETATM   46  H50 UNL     1     -13.553  43.541 -23.137  1.00  0.00     0.211 HD
ENDBRANCH  36  45
BRANCH  24  47
HETATM   47  O6  UNL     1     -14.556  44.423 -18.561  1.00  0.00    -0.388 OA
HETATM   48  H39 UNL     1     -14.468  45.395 -18.513  1.00  0.00     0.210 HD
ENDBRANCH  24  47
TORSDOF 5
ENDMDL
MODEL 9
REMARK minimizedAffinity -7.06938648
REMARK CNNscore 0.272899985
REMARK CNNaffinity 6.16634989
REMARK  5 active torsions:
REMARK  status: ('A' for Active; 'I' for Inactive)
REMARK    1  A    between atoms: C11_11  and  O1_12 
REMARK    2  A    between atoms: C14_15  and  C15_16 
REMARK    3  A    between atoms: C17_18  and  C18_19 
REMARK    4  A    between atoms: C26_31  and  O6_32 
REMARK    5  A    between atoms: C36_44  and  O9_45 
ROOT
HETATM    1  C1  UNL     1       4.079  48.477  -4.262  1.00  0.00     0.043 C 
HETATM    2  C2  UNL     1       3.738  48.833  -5.682  1.00  0.00    -0.087 C 
HETATM    3  C3  UNL     1       3.836  50.076  -6.200  1.00  0.00    -0.022 C 
HETATM    4  C4  UNL     1       4.200  51.355  -5.494  1.00  0.00     0.059 C 
HETATM    5  C5  UNL     1       3.209  52.508  -5.750  1.00  0.00     0.131 C 
HETATM    6  C6  UNL     1       1.772  52.190  -5.316  1.00  0.00     0.065 C 
HETATM    7  C7  UNL     1       0.743  53.049  -6.058  1.00  0.00     0.139 C 
HETATM    8  C8  UNL     1       1.375  54.363  -6.515  1.00  0.00     0.101 C 
HETATM    9  C9  UNL     1       2.620  54.129  -7.403  1.00  0.00     0.170 C 
HETATM   10  C10 UNL     1       2.255  54.158  -8.901  1.00  0.00     0.100 C 
HETATM   11  C11 UNL     1       2.487  55.549  -9.470  1.00  0.00     0.129 C 
HETATM   12  C12 UNL     1       3.974  55.948  -9.354  1.00  0.00     0.044 C 
HETATM   13  C13 UNL     1       4.802  55.574 -10.589  1.00  0.00     0.015 C 
HETATM   14  C14 UNL     1       4.585  55.312  -8.076  1.00  0.00     0.159 C 
HETATM   15  O2  UNL     1       3.544  55.189  -7.096  1.00  0.00    -0.345 OA
HETATM   16  O3  UNL     1       3.229  52.860  -7.134  1.00  0.00    -0.349 OA
HETATM   17  O4  UNL     1       0.251  52.314  -7.201  1.00  0.00    -0.315 OA
HETATM   18  C21 UNL     1      -0.999  52.653  -7.638  1.00  0.00     0.270 C 
HETATM   19  O5  UNL     1      -1.745  53.430  -7.053  1.00  0.00    -0.264 OA
HETATM   20  C22 UNL     1      -1.279  52.010  -9.000  1.00  0.00     0.150 C 
HETATM   21  C23 UNL     1      -2.187  52.940  -9.783  1.00  0.00    -0.004 C 
HETATM   22  C24 UNL     1      -3.289  52.553 -10.447  1.00  0.00    -0.056 C 
HETATM   23  C25 UNL     1      -4.191  53.550 -11.123  1.00  0.00     0.046 C 
HETATM   24  C26 UNL     1      -3.713  51.113 -10.491  1.00  0.00     0.179 C 
HETATM   25  C27 UNL     1      -2.633  50.110 -10.063  1.00  0.00     0.205 C 
HETATM   26  O7  UNL     1      -1.678  49.869 -11.112  1.00  0.00    -0.306 OA
HETATM   27  C28 UNL     1      -0.547  49.376 -10.531  1.00  0.00     0.293 C 
HETATM   28  O8  UNL     1       0.402  48.896 -11.118  1.00  0.00    -0.259 OA
HETATM   29  C29 UNL     1      -0.677  49.565  -9.059  1.00  0.00     0.055 C 
HETATM   30  C30 UNL     1       0.105  48.854  -8.233  1.00  0.00     0.016 C 
HETATM   31  C31 UNL     1       0.085  48.912  -6.790  1.00  0.00    -0.003 C 
HETATM   32  C32 UNL     1       0.844  48.176  -5.962  1.00  0.00    -0.022 C 
HETATM   33  C33 UNL     1       1.863  47.113  -6.315  1.00  0.00     0.008 C 
HETATM   34  C34 UNL     1       1.870  46.009  -5.248  1.00  0.00     0.014 C 
HETATM   35  C35 UNL     1       3.281  47.686  -6.573  1.00  0.00     0.041 C 
HETATM   36  C36 UNL     1      -1.797  50.548  -8.862  1.00  0.00     0.136 C 
ENDROOT
BRANCH  11  37
HETATM   37  O1  UNL     1       2.018  55.594 -10.812  1.00  0.00    -0.395 OA
HETATM   38  H16 UNL     1       2.081  56.515 -11.118  1.00  0.00     0.210 HD
ENDBRANCH  11  37
BRANCH  14  39
HETATM   39  C15 UNL     1       5.766  56.009  -7.396  1.00  0.00    -0.058 C 
HETATM   40  C16 UNL     1       7.100  55.505  -7.899  1.00  0.00     0.046 C 
HETATM   41  C17 UNL     1       5.650  56.995  -6.479  1.00  0.00    -0.018 C 
BRANCH  41  42
HETATM   42  C18 UNL     1       6.755  57.739  -5.761  1.00  0.00     0.000 C 
HETATM   43  C19 UNL     1       6.152  58.712  -4.747  1.00  0.00     0.013 C 
HETATM   44  C20 UNL     1       7.687  56.751  -5.060  1.00  0.00     0.013 C 
ENDBRANCH  41  42
ENDBRANCH  14  39
BRANCH  36  45
HETATM   45  O9  UNL     1      -2.542  50.335  -7.669  1.00  0.00    -0.381 OA
HETATM   46  H50 UNL     1      -2.628  49.375  -7.518  1.00  0.00     0.211 HD
ENDBRANCH  36  45
BRANCH  24  47
HETATM   47  O6  UNL     1      -4.145  50.787 -11.811  1.00  0.00    -0.388 OA
HETATM   48  H39 UNL     1      -3.334  50.712 -12.352  1.00  0.00     0.210 HD
ENDBRANCH  24  47
TORSDOF 5
ENDMDL
