MODEL 1
REMARK minimizedAffinity -9.41170216
REMARK CNNscore 0.475952059
REMARK CNNaffinity 7.48445082
REMARK  11 active torsions:
REMARK  status: ('A' for Active; 'I' for Inactive)
REMARK    1  A    between atoms: C2_2  and  C4_4 
REMARK    2  A    between atoms: C4_4  and  C6_6 
REMARK    3  A    between atoms: C7_7  and  C8_8 
REMARK    4  A    between atoms: C8_8  and  C10_10 
REMARK    5  A    between atoms: C24_24  and  O1_25 
REMARK    6  A    between atoms: O1_25  and  C25_26 
REMARK    7  A    between atoms: C26_28  and  C27_29 
REMARK    8  A    between atoms: C27_29  and  O3_30 
REMARK    9  A    between atoms: C28_31  and  O4_32 
REMARK   10  A    between atoms: C29_33  and  O5_34 
REMARK   11  A    between atoms: C30_35  and  O6_36 
ROOT
HETATM    1  C10 UNL     1      -3.398  51.337 -24.545  1.00  0.00     0.001 C 
HETATM    2  C11 UNL     1      -4.841  51.731 -24.131  1.00  0.00     0.006 C 
HETATM    3  C12 UNL     1      -4.919  51.586 -22.601  1.00  0.00     0.009 C 
HETATM    4  C13 UNL     1      -3.480  51.307 -22.183  1.00  0.00     0.036 C 
HETATM    5  C14 UNL     1      -2.892  50.477 -23.345  1.00  0.00    -0.033 C 
HETATM    6  C15 UNL     1      -3.403  49.025 -23.406  1.00  0.00     0.016 C 
HETATM    7  C16 UNL     1      -1.361  50.483 -23.166  1.00  0.00     0.010 C 
HETATM    8  C17 UNL     1      -0.947  49.894 -21.808  1.00  0.00     0.010 C 
HETATM    9  C18 UNL     1      -1.647  50.556 -20.601  1.00  0.00     0.039 C 
HETATM   10  C19 UNL     1      -3.196  50.769 -20.775  1.00  0.00     0.123 C 
HETATM   11  C20 UNL     1      -4.030  49.607 -20.290  1.00  0.00     0.014 C 
HETATM   12  C21 UNL     1      -3.811  49.287 -19.003  1.00  0.00     0.014 C 
HETATM   13  C22 UNL     1      -2.694  50.089 -18.375  1.00  0.00     0.124 C 
HETATM   14  C23 UNL     1      -2.473  49.811 -16.892  1.00  0.00     0.078 C 
HETATM   15  C24 UNL     1      -1.396  50.730 -16.276  1.00  0.00     0.128 C 
HETATM   16  C31 UNL     1      -0.467  51.393 -17.312  1.00  0.00     0.033 C 
HETATM   17  C32 UNL     1      -0.133  50.479 -18.489  1.00  0.00     0.015 C 
HETATM   18  C33 UNL     1      -1.379  49.865 -19.200  1.00  0.00     0.001 C 
HETATM   19  C34 UNL     1      -1.068  48.347 -19.347  1.00  0.00     0.019 C 
HETATM   20  O7  UNL     1      -3.070  51.491 -18.476  1.00  0.00    -0.223 OA
HETATM   21  O8  UNL     1      -3.552  51.829 -19.847  1.00  0.00    -0.224 OA
ENDROOT
BRANCH  15  22
HETATM   22  O1  UNL     1      -0.678  49.916 -15.337  1.00  0.00    -0.353 OA
BRANCH  22  23
HETATM   23  C25 UNL     1       0.285  50.634 -14.555  1.00  0.00     0.292 C 
HETATM   24  O2  UNL     1       1.404  49.797 -14.279  1.00  0.00    -0.348 OA
HETATM   25  C26 UNL     1       2.409  50.453 -13.486  1.00  0.00     0.179 C 
HETATM   26  C28 UNL     1       1.839  50.922 -12.131  1.00  0.00     0.180 C 
HETATM   27  C29 UNL     1       0.577  51.769 -12.355  1.00  0.00     0.183 C 
HETATM   28  C30 UNL     1      -0.413  51.017 -13.243  1.00  0.00     0.204 C 
BRANCH  25  29
HETATM   29  C27 UNL     1       3.584  49.480 -13.273  1.00  0.00     0.198 C 
BRANCH  29  30
HETATM   30  O3  UNL     1       4.694  49.814 -14.116  1.00  0.00    -0.398 OA
HETATM   31  H41 UNL     1       4.963  50.724 -13.900  1.00  0.00     0.209 HD
ENDBRANCH  29  30
ENDBRANCH  25  29
BRANCH  26  32
HETATM   32  O4  UNL     1       2.833  51.662 -11.409  1.00  0.00    -0.390 OA
HETATM   33  H43 UNL     1       2.698  52.611 -11.570  1.00  0.00     0.210 HD
ENDBRANCH  26  32
BRANCH  27  34
HETATM   34  O5  UNL     1      -0.038  52.096 -11.101  1.00  0.00    -0.390 OA
HETATM   35  H45 UNL     1      -0.955  52.363 -11.323  1.00  0.00     0.210 HD
ENDBRANCH  27  34
BRANCH  28  36
HETATM   36  O6  UNL     1      -1.556  51.856 -13.482  1.00  0.00    -0.388 OA
HETATM   37  H47 UNL     1      -2.106  51.355 -14.117  1.00  0.00     0.210 HD
ENDBRANCH  28  36
ENDBRANCH  22  23
ENDBRANCH  15  22
BRANCH   1  38
HETATM   38  C8  UNL     1      -3.238  50.790 -25.993  1.00  0.00     0.008 C 
HETATM   39  C9  UNL     1      -3.624  49.304 -26.037  1.00  0.00     0.014 C 
BRANCH  38  40
HETATM   40  C7  UNL     1      -1.895  51.046 -26.648  1.00  0.00    -0.026 C 
HETATM   41  C6  UNL     1      -1.173  52.177 -26.593  1.00  0.00    -0.026 C 
BRANCH  41  42
HETATM   42  C4  UNL     1       0.149  52.456 -27.288  1.00  0.00     0.007 C 
HETATM   43  C5  UNL     1       0.434  51.543 -28.489  1.00  0.00     0.014 C 
BRANCH  42  44
HETATM   44  C2  UNL     1       1.310  52.511 -26.259  1.00  0.00    -0.015 C 
HETATM   45  C1  UNL     1       0.842  52.795 -24.828  1.00  0.00     0.010 C 
HETATM   46  C3  UNL     1       2.157  51.233 -26.279  1.00  0.00     0.010 C 
ENDBRANCH  42  44
ENDBRANCH  41  42
ENDBRANCH  38  40
ENDBRANCH   1  38
TORSDOF 11
ENDMDL
MODEL 2
REMARK minimizedAffinity -8.14252567
REMARK CNNscore 0.330464125
REMARK CNNaffinity 6.42766142
REMARK  11 active torsions:
REMARK  status: ('A' for Active; 'I' for Inactive)
REMARK    1  A    between atoms: C2_2  and  C4_4 
REMARK    2  A    between atoms: C4_4  and  C6_6 
REMARK    3  A    between atoms: C7_7  and  C8_8 
REMARK    4  A    between atoms: C8_8  and  C10_10 
REMARK    5  A    between atoms: C24_24  and  O1_25 
REMARK    6  A    between atoms: O1_25  and  C25_26 
REMARK    7  A    between atoms: C26_28  and  C27_29 
REMARK    8  A    between atoms: C27_29  and  O3_30 
REMARK    9  A    between atoms: C28_31  and  O4_32 
REMARK   10  A    between atoms: C29_33  and  O5_34 
REMARK   11  A    between atoms: C30_35  and  O6_36 
ROOT
HETATM    1  C10 UNL     1      -2.294  48.309 -21.828  1.00  0.00     0.001 C 
HETATM    2  C11 UNL     1      -2.608  47.648 -20.459  1.00  0.00     0.006 C 
HETATM    3  C12 UNL     1      -4.061  47.145 -20.532  1.00  0.00     0.009 C 
HETATM    4  C13 UNL     1      -4.453  47.360 -21.989  1.00  0.00     0.036 C 
HETATM    5  C14 UNL     1      -3.704  48.643 -22.408  1.00  0.00    -0.033 C 
HETATM    6  C15 UNL     1      -4.291  49.938 -21.815  1.00  0.00     0.016 C 
HETATM    7  C16 UNL     1      -3.754  48.707 -23.947  1.00  0.00     0.010 C 
HETATM    8  C17 UNL     1      -5.200  48.722 -24.468  1.00  0.00     0.010 C 
HETATM    9  C18 UNL     1      -6.068  47.561 -23.933  1.00  0.00     0.039 C 
HETATM   10  C19 UNL     1      -5.932  47.296 -22.388  1.00  0.00     0.123 C 
HETATM   11  C20 UNL     1      -6.916  48.073 -21.547  1.00  0.00     0.014 C 
HETATM   12  C21 UNL     1      -8.200  47.857 -21.881  1.00  0.00     0.014 C 
HETATM   13  C22 UNL     1      -8.354  46.974 -23.099  1.00  0.00     0.124 C 
HETATM   14  C23 UNL     1      -9.798  46.638 -23.457  1.00  0.00     0.078 C 
HETATM   15  C24 UNL     1      -9.896  45.651 -24.640  1.00  0.00     0.128 C 
HETATM   16  C31 UNL     1      -8.614  45.561 -25.491  1.00  0.00     0.033 C 
HETATM   17  C32 UNL     1      -7.905  46.904 -25.651  1.00  0.00     0.015 C 
HETATM   18  C33 UNL     1      -7.606  47.638 -24.307  1.00  0.00     0.001 C 
HETATM   19  C34 UNL     1      -8.084  49.104 -24.518  1.00  0.00     0.019 C 
HETATM   20  O7  UNL     1      -7.705  45.709 -22.791  1.00  0.00    -0.223 OA
HETATM   21  O8  UNL     1      -6.356  45.920 -22.188  1.00  0.00    -0.224 OA
ENDROOT
BRANCH  15  22
HETATM   22  O1  UNL     1     -11.034  46.071 -25.407  1.00  0.00    -0.353 OA
BRANCH  22  23
HETATM   23  C25 UNL     1     -12.216  45.294 -25.174  1.00  0.00     0.292 C 
HETATM   24  O2  UNL     1     -12.323  44.272 -26.160  1.00  0.00    -0.348 OA
HETATM   25  C26 UNL     1     -13.497  43.457 -25.993  1.00  0.00     0.179 C 
HETATM   26  C28 UNL     1     -14.785  44.303 -26.065  1.00  0.00     0.180 C 
HETATM   27  C29 UNL     1     -14.700  45.477 -25.076  1.00  0.00     0.183 C 
HETATM   28  C30 UNL     1     -13.405  46.257 -25.293  1.00  0.00     0.204 C 
BRANCH  25  29
HETATM   29  C27 UNL     1     -13.502  42.368 -27.081  1.00  0.00     0.198 C 
BRANCH  29  30
HETATM   30  O3  UNL     1     -14.386  42.710 -28.156  1.00  0.00    -0.398 OA
HETATM   31  H41 UNL     1     -14.083  43.559 -28.525  1.00  0.00     0.209 HD
ENDBRANCH  29  30
ENDBRANCH  25  29
BRANCH  26  32
HETATM   32  O4  UNL     1     -15.928  43.482 -25.791  1.00  0.00    -0.390 OA
HETATM   33  H43 UNL     1     -16.160  43.568 -24.850  1.00  0.00     0.210 HD
ENDBRANCH  26  32
BRANCH  27  34
HETATM   34  O5  UNL     1     -15.830  46.347 -25.231  1.00  0.00    -0.390 OA
HETATM   35  H45 UNL     1     -15.569  47.190 -24.804  1.00  0.00     0.210 HD
ENDBRANCH  27  34
BRANCH  28  36
HETATM   36  O6  UNL     1     -13.326  47.310 -24.318  1.00  0.00    -0.388 OA
HETATM   37  H47 UNL     1     -12.446  47.715 -24.456  1.00  0.00     0.210 HD
ENDBRANCH  28  36
ENDBRANCH  22  23
ENDBRANCH  15  22
BRANCH   1  38
HETATM   38  C8  UNL     1      -1.199  49.415 -21.806  1.00  0.00     0.008 C 
HETATM   39  C9  UNL     1      -0.778  49.707 -20.359  1.00  0.00     0.014 C 
BRANCH  38  40
HETATM   40  C7  UNL     1      -1.533  50.684 -22.567  1.00  0.00    -0.026 C 
HETATM   41  C6  UNL     1      -1.152  50.999 -23.815  1.00  0.00    -0.026 C 
BRANCH  41  42
HETATM   42  C4  UNL     1      -1.442  52.290 -24.564  1.00  0.00     0.007 C 
HETATM   43  C5  UNL     1      -2.608  52.193 -25.557  1.00  0.00     0.014 C 
BRANCH  42  44
HETATM   44  C2  UNL     1      -0.142  52.868 -25.185  1.00  0.00    -0.015 C 
HETATM   45  C1  UNL     1       0.718  53.645 -24.184  1.00  0.00     0.010 C 
HETATM   46  C3  UNL     1       0.706  51.782 -25.859  1.00  0.00     0.010 C 
ENDBRANCH  42  44
ENDBRANCH  41  42
ENDBRANCH  38  40
ENDBRANCH   1  38
TORSDOF 11
ENDMDL
MODEL 3
REMARK minimizedAffinity -8.93226337
REMARK CNNscore 0.314382017
REMARK CNNaffinity 6.93160772
REMARK  11 active torsions:
REMARK  status: ('A' for Active; 'I' for Inactive)
REMARK    1  A    between atoms: C2_2  and  C4_4 
REMARK    2  A    between atoms: C4_4  and  C6_6 
REMARK    3  A    between atoms: C7_7  and  C8_8 
REMARK    4  A    between atoms: C8_8  and  C10_10 
REMARK    5  A    between atoms: C24_24  and  O1_25 
REMARK    6  A    between atoms: O1_25  and  C25_26 
REMARK    7  A    between atoms: C26_28  and  C27_29 
REMARK    8  A    between atoms: C27_29  and  O3_30 
REMARK    9  A    between atoms: C28_31  and  O4_32 
REMARK   10  A    between atoms: C29_33  and  O5_34 
REMARK   11  A    between atoms: C30_35  and  O6_36 
ROOT
HETATM    1  C10 UNL     1      -2.734  50.901 -21.497  1.00  0.00     0.001 C 
HETATM    2  C11 UNL     1      -4.250  50.809 -21.175  1.00  0.00     0.006 C 
HETATM    3  C12 UNL     1      -4.370  50.627 -19.652  1.00  0.00     0.009 C 
HETATM    4  C13 UNL     1      -2.945  50.816 -19.144  1.00  0.00     0.036 C 
HETATM    5  C14 UNL     1      -2.054  50.232 -20.262  1.00  0.00    -0.033 C 
HETATM    6  C15 UNL     1      -2.071  48.694 -20.343  1.00  0.00     0.016 C 
HETATM    7  C16 UNL     1      -0.619  50.723 -19.990  1.00  0.00     0.010 C 
HETATM    8  C17 UNL     1      -0.121  50.279 -18.604  1.00  0.00     0.010 C 
HETATM    9  C18 UNL     1      -1.068  50.669 -17.447  1.00  0.00     0.039 C 
HETATM   10  C19 UNL     1      -2.590  50.379 -17.718  1.00  0.00     0.123 C 
HETATM   11  C20 UNL     1      -3.038  49.007 -17.275  1.00  0.00     0.014 C 
HETATM   12  C21 UNL     1      -2.807  48.756 -15.976  1.00  0.00     0.014 C 
HETATM   13  C22 UNL     1      -2.044  49.866 -15.286  1.00  0.00     0.124 C 
HETATM   14  C23 UNL     1      -1.836  49.654 -13.791  1.00  0.00     0.078 C 
HETATM   15  C24 UNL     1      -1.148  50.860 -13.116  1.00  0.00     0.128 C 
HETATM   16  C31 UNL     1      -0.418  51.797 -14.098  1.00  0.00     0.033 C 
HETATM   17  C32 UNL     1       0.261  51.053 -15.246  1.00  0.00     0.015 C 
HETATM   18  C33 UNL     1      -0.678  50.082 -16.027  1.00  0.00     0.001 C 
HETATM   19  C34 UNL     1       0.108  48.745 -16.143  1.00  0.00     0.019 C 
HETATM   20  O7  UNL     1      -2.840  51.076 -15.420  1.00  0.00    -0.223 OA
HETATM   21  O8  UNL     1      -3.322  51.259 -16.821  1.00  0.00    -0.224 OA
ENDROOT
BRANCH  15  22
HETATM   22  O1  UNL     1      -0.265  50.306 -12.129  1.00  0.00    -0.353 OA
BRANCH  22  23
HETATM   23  C25 UNL     1       0.920  51.079 -11.903  1.00  0.00     0.292 C 
HETATM   24  O2  UNL     1       2.053  50.218 -11.840  1.00  0.00    -0.348 OA
HETATM   25  C26 UNL     1       3.281  50.928 -11.603  1.00  0.00     0.179 C 
HETATM   26  C28 UNL     1       3.228  51.717 -10.278  1.00  0.00     0.180 C 
HETATM   27  C29 UNL     1       1.979  52.612 -10.247  1.00  0.00     0.183 C 
HETATM   28  C30 UNL     1       0.731  51.787 -10.554  1.00  0.00     0.204 C 
BRANCH  25  29
HETATM   29  C27 UNL     1       4.442  49.917 -11.586  1.00  0.00     0.198 C 
BRANCH  29  30
HETATM   30  O3  UNL     1       5.042  49.792 -12.882  1.00  0.00    -0.398 OA
HETATM   31  H41 UNL     1       5.362  50.674 -13.142  1.00  0.00     0.209 HD
ENDBRANCH  29  30
ENDBRANCH  25  29
BRANCH  26  32
HETATM   32  O4  UNL     1       4.423  52.496 -10.122  1.00  0.00    -0.390 OA
HETATM   33  H43 UNL     1       4.253  53.400 -10.438  1.00  0.00     0.210 HD
ENDBRANCH  26  32
BRANCH  27  34
HETATM   34  O5  UNL     1       1.847  53.246  -8.967  1.00  0.00    -0.390 OA
HETATM   35  H45 UNL     1       0.915  53.545  -8.920  1.00  0.00     0.210 HD
ENDBRANCH  27  34
BRANCH  28  36
HETATM   36  O6  UNL     1      -0.411  52.660 -10.576  1.00  0.00    -0.388 OA
HETATM   37  H47 UNL     1      -1.156  52.091 -10.856  1.00  0.00     0.210 HD
ENDBRANCH  28  36
ENDBRANCH  22  23
ENDBRANCH  15  22
BRANCH   1  38
HETATM   38  C8  UNL     1      -2.321  50.451 -22.928  1.00  0.00     0.008 C 
HETATM   39  C9  UNL     1      -2.234  48.919 -22.991  1.00  0.00     0.014 C 
BRANCH  38  40
HETATM   40  C7  UNL     1      -1.079  51.113 -23.492  1.00  0.00    -0.026 C 
HETATM   41  C6  UNL     1      -0.901  51.562 -24.744  1.00  0.00    -0.026 C 
BRANCH  41  42
HETATM   42  C4  UNL     1       0.358  52.181 -25.328  1.00  0.00     0.007 C 
HETATM   43  C5  UNL     1       0.211  53.659 -25.717  1.00  0.00     0.014 C 
BRANCH  42  44
HETATM   44  C2  UNL     1       0.931  51.293 -26.464  1.00  0.00    -0.015 C 
HETATM   45  C1  UNL     1       0.496  51.738 -27.863  1.00  0.00     0.010 C 
HETATM   46  C3  UNL     1       2.461  51.201 -26.406  1.00  0.00     0.010 C 
ENDBRANCH  42  44
ENDBRANCH  41  42
ENDBRANCH  38  40
ENDBRANCH   1  38
TORSDOF 11
ENDMDL
MODEL 4
REMARK minimizedAffinity -10.1427927
REMARK CNNscore 0.291145682
REMARK CNNaffinity 5.4623332
REMARK  11 active torsions:
REMARK  status: ('A' for Active; 'I' for Inactive)
REMARK    1  A    between atoms: C2_2  and  C4_4 
REMARK    2  A    between atoms: C4_4  and  C6_6 
REMARK    3  A    between atoms: C7_7  and  C8_8 
REMARK    4  A    between atoms: C8_8  and  C10_10 
REMARK    5  A    between atoms: C24_24  and  O1_25 
REMARK    6  A    between atoms: O1_25  and  C25_26 
REMARK    7  A    between atoms: C26_28  and  C27_29 
REMARK    8  A    between atoms: C27_29  and  O3_30 
REMARK    9  A    between atoms: C28_31  and  O4_32 
REMARK   10  A    between atoms: C29_33  and  O5_34 
REMARK   11  A    between atoms: C30_35  and  O6_36 
ROOT
HETATM    1  C10 UNL     1       5.494  65.538 -36.207  1.00  0.00     0.001 C 
HETATM    2  C11 UNL     1       4.416  65.182 -35.149  1.00  0.00     0.006 C 
HETATM    3  C12 UNL     1       3.077  65.721 -35.681  1.00  0.00     0.009 C 
HETATM    4  C13 UNL     1       3.402  66.186 -37.096  1.00  0.00     0.036 C 
HETATM    5  C14 UNL     1       4.851  66.712 -37.009  1.00  0.00    -0.033 C 
HETATM    6  C15 UNL     1       4.988  68.064 -36.282  1.00  0.00     0.016 C 
HETATM    7  C16 UNL     1       5.365  66.845 -38.455  1.00  0.00     0.010 C 
HETATM    8  C17 UNL     1       4.485  67.796 -39.285  1.00  0.00     0.010 C 
HETATM    9  C18 UNL     1       2.983  67.435 -39.261  1.00  0.00     0.039 C 
HETATM   10  C19 UNL     1       2.411  67.092 -37.837  1.00  0.00     0.123 C 
HETATM   11  C20 UNL     1       1.868  68.288 -37.093  1.00  0.00     0.014 C 
HETATM   12  C21 UNL     1       0.909  68.950 -37.762  1.00  0.00     0.014 C 
HETATM   13  C22 UNL     1       0.680  68.409 -39.156  1.00  0.00     0.124 C 
HETATM   14  C23 UNL     1      -0.460  69.081 -39.915  1.00  0.00     0.078 C 
HETATM   15  C24 UNL     1      -0.721  68.423 -41.287  1.00  0.00     0.128 C 
HETATM   16  C31 UNL     1       0.450  67.567 -41.807  1.00  0.00     0.033 C 
HETATM   17  C32 UNL     1       1.819  68.156 -41.471  1.00  0.00     0.015 C 
HETATM   18  C33 UNL     1       2.024  68.486 -39.960  1.00  0.00     0.001 C 
HETATM   19  C34 UNL     1       2.611  69.926 -39.924  1.00  0.00     0.019 C 
HETATM   20  O7  UNL     1       0.305  67.010 -39.013  1.00  0.00    -0.223 OA
HETATM   21  O8  UNL     1       1.219  66.295 -38.075  1.00  0.00    -0.224 OA
ENDROOT
BRANCH  15  22
HETATM   22  O1  UNL     1      -1.053  69.497 -42.179  1.00  0.00    -0.353 OA
BRANCH  22  23
HETATM   23  C25 UNL     1      -2.453  69.610 -42.464  1.00  0.00     0.292 C 
HETATM   24  O2  UNL     1      -3.132  70.156 -41.338  1.00  0.00    -0.348 OA
HETATM   25  C26 UNL     1      -4.549  70.288 -41.551  1.00  0.00     0.179 C 
HETATM   26  C28 UNL     1      -5.200  68.925 -41.865  1.00  0.00     0.180 C 
HETATM   27  C29 UNL     1      -4.460  68.243 -43.026  1.00  0.00     0.183 C 
HETATM   28  C30 UNL     1      -2.961  68.188 -42.737  1.00  0.00     0.204 C 
BRANCH  25  29
HETATM   29  C27 UNL     1      -5.181  70.915 -40.294  1.00  0.00     0.198 C 
BRANCH  29  30
HETATM   30  O3  UNL     1      -6.074  69.999 -39.649  1.00  0.00    -0.398 OA
HETATM   31  H41 UNL     1      -5.560  69.207 -39.412  1.00  0.00     0.209 HD
ENDBRANCH  29  30
ENDBRANCH  25  29
BRANCH  26  32
HETATM   32  O4  UNL     1      -6.589  69.104 -42.175  1.00  0.00    -0.390 OA
HETATM   33  H43 UNL     1      -6.693  69.153 -43.140  1.00  0.00     0.210 HD
ENDBRANCH  26  32
BRANCH  27  34
HETATM   34  O5  UNL     1      -4.969  66.918 -43.238  1.00  0.00    -0.390 OA
HETATM   35  H45 UNL     1      -4.282  66.457 -43.763  1.00  0.00     0.210 HD
ENDBRANCH  27  34
BRANCH  28  36
HETATM   36  O6  UNL     1      -2.290  67.599 -43.865  1.00  0.00    -0.388 OA
HETATM   37  H47 UNL     1      -1.338  67.668 -43.654  1.00  0.00     0.210 HD
ENDBRANCH  28  36
ENDBRANCH  22  23
ENDBRANCH  15  22
BRANCH   1  38
HETATM   38  C8  UNL     1       6.945  65.692 -35.666  1.00  0.00     0.008 C 
HETATM   39  C9  UNL     1       7.879  66.151 -36.794  1.00  0.00     0.014 C 
BRANCH  38  40
HETATM   40  C7  UNL     1       7.500  64.493 -34.922  1.00  0.00    -0.026 C 
HETATM   41  C6  UNL     1       8.563  63.750 -35.268  1.00  0.00    -0.026 C 
BRANCH  41  42
HETATM   42  C4  UNL     1       9.093  62.518 -34.554  1.00  0.00     0.007 C 
HETATM   43  C5  UNL     1       8.006  61.651 -33.903  1.00  0.00     0.014 C 
BRANCH  42  44
HETATM   44  C2  UNL     1      10.248  62.896 -33.589  1.00  0.00    -0.015 C 
HETATM   45  C1  UNL     1      10.442  61.892 -32.449  1.00  0.00     0.010 C 
HETATM   46  C3  UNL     1      11.575  63.097 -34.330  1.00  0.00     0.010 C 
ENDBRANCH  42  44
ENDBRANCH  41  42
ENDBRANCH  38  40
ENDBRANCH   1  38
TORSDOF 11
ENDMDL
MODEL 5
REMARK minimizedAffinity -10.2120953
REMARK CNNscore 0.284897774
REMARK CNNaffinity 6.95369577
REMARK  11 active torsions:
REMARK  status: ('A' for Active; 'I' for Inactive)
REMARK    1  A    between atoms: C2_2  and  C4_4 
REMARK    2  A    between atoms: C4_4  and  C6_6 
REMARK    3  A    between atoms: C7_7  and  C8_8 
REMARK    4  A    between atoms: C8_8  and  C10_10 
REMARK    5  A    between atoms: C24_24  and  O1_25 
REMARK    6  A    between atoms: O1_25  and  C25_26 
REMARK    7  A    between atoms: C26_28  and  C27_29 
REMARK    8  A    between atoms: C27_29  and  O3_30 
REMARK    9  A    between atoms: C28_31  and  O4_32 
REMARK   10  A    between atoms: C29_33  and  O5_34 
REMARK   11  A    between atoms: C30_35  and  O6_36 
ROOT
HETATM    1  C10 UNL     1      -2.974  50.958 -24.074  1.00  0.00     0.001 C 
HETATM    2  C11 UNL     1      -4.330  51.666 -23.811  1.00  0.00     0.006 C 
HETATM    3  C12 UNL     1      -4.513  51.721 -22.284  1.00  0.00     0.009 C 
HETATM    4  C13 UNL     1      -3.181  51.224 -21.734  1.00  0.00     0.036 C 
HETATM    5  C14 UNL     1      -2.709  50.166 -22.755  1.00  0.00    -0.033 C 
HETATM    6  C15 UNL     1      -3.494  48.841 -22.699  1.00  0.00     0.016 C 
HETATM    7  C16 UNL     1      -1.219  49.901 -22.466  1.00  0.00     0.010 C 
HETATM    8  C17 UNL     1      -0.999  49.410 -21.026  1.00  0.00     0.010 C 
HETATM    9  C18 UNL     1      -1.616  50.332 -19.951  1.00  0.00     0.039 C 
HETATM   10  C19 UNL     1      -3.082  50.814 -20.260  1.00  0.00     0.123 C 
HETATM   11  C20 UNL     1      -4.152  49.898 -19.716  1.00  0.00     0.014 C 
HETATM   12  C21 UNL     1      -4.067  49.697 -18.391  1.00  0.00     0.014 C 
HETATM   13  C22 UNL     1      -2.847  50.341 -17.771  1.00  0.00     0.124 C 
HETATM   14  C23 UNL     1      -2.762  50.204 -16.255  1.00  0.00     0.078 C 
HETATM   15  C24 UNL     1      -1.558  50.968 -15.663  1.00  0.00     0.128 C 
HETATM   16  C31 UNL     1      -0.465  51.314 -16.692  1.00  0.00     0.033 C 
HETATM   17  C32 UNL     1      -0.258  50.220 -17.737  1.00  0.00     0.015 C 
HETATM   18  C33 UNL     1      -1.562  49.774 -18.468  1.00  0.00     0.001 C 
HETATM   19  C34 UNL     1      -1.550  48.218 -18.429  1.00  0.00     0.019 C 
HETATM   20  O7  UNL     1      -2.933  51.767 -18.048  1.00  0.00    -0.223 OA
HETATM   21  O8  UNL     1      -3.269  52.025 -19.479  1.00  0.00    -0.224 OA
ENDROOT
BRANCH  15  22
HETATM   22  O1  UNL     1      -1.064  50.149 -14.592  1.00  0.00    -0.353 OA
BRANCH  22  23
HETATM   23  C25 UNL     1      -1.140  50.765 -13.300  1.00  0.00     0.292 C 
HETATM   24  O2  UNL     1      -2.355  51.500 -13.187  1.00  0.00    -0.348 OA
HETATM   25  C26 UNL     1      -2.492  52.156 -11.914  1.00  0.00     0.179 C 
HETATM   26  C28 UNL     1      -1.333  53.142 -11.660  1.00  0.00     0.180 C 
HETATM   27  C29 UNL     1       0.015  52.429 -11.846  1.00  0.00     0.183 C 
HETATM   28  C30 UNL     1       0.057  51.722 -13.200  1.00  0.00     0.204 C 
BRANCH  25  29
HETATM   29  C27 UNL     1      -3.846  52.890 -11.881  1.00  0.00     0.198 C 
BRANCH  29  30
HETATM   30  O3  UNL     1      -4.083  53.602 -13.102  1.00  0.00    -0.398 OA
HETATM   31  H41 UNL     1      -4.065  52.953 -13.828  1.00  0.00     0.209 HD
ENDBRANCH  29  30
ENDBRANCH  25  29
BRANCH  26  32
HETATM   32  O4  UNL     1      -1.442  53.701 -10.344  1.00  0.00    -0.390 OA
HETATM   33  H43 UNL     1      -0.879  53.190  -9.737  1.00  0.00     0.210 HD
ENDBRANCH  26  32
BRANCH  27  34
HETATM   34  O5  UNL     1       1.097  53.365 -11.747  1.00  0.00    -0.390 OA
HETATM   35  H45 UNL     1       1.867  52.917 -12.157  1.00  0.00     0.210 HD
ENDBRANCH  27  34
BRANCH  28  36
HETATM   36  O6  UNL     1       1.304  51.016 -13.319  1.00  0.00    -0.388 OA
HETATM   37  H47 UNL     1       1.233  50.524 -14.162  1.00  0.00     0.210 HD
ENDBRANCH  28  36
ENDBRANCH  22  23
ENDBRANCH  15  22
BRANCH   1  38
HETATM   38  C8  UNL     1      -2.851  50.222 -25.440  1.00  0.00     0.008 C 
HETATM   39  C9  UNL     1      -2.902  48.703 -25.222  1.00  0.00     0.014 C 
BRANCH  38  40
HETATM   40  C7  UNL     1      -1.674  50.632 -26.304  1.00  0.00    -0.026 C 
HETATM   41  C6  UNL     1      -0.472  51.054 -25.882  1.00  0.00    -0.026 C 
BRANCH  41  42
HETATM   42  C4  UNL     1       0.693  51.513 -26.742  1.00  0.00     0.007 C 
HETATM   43  C5  UNL     1       2.066  51.030 -26.252  1.00  0.00     0.014 C 
BRANCH  42  44
HETATM   44  C2  UNL     1       0.624  53.044 -26.989  1.00  0.00    -0.015 C 
HETATM   45  C1  UNL     1      -0.265  53.430 -28.175  1.00  0.00     0.010 C 
HETATM   46  C3  UNL     1       0.176  53.809 -25.739  1.00  0.00     0.010 C 
ENDBRANCH  42  44
ENDBRANCH  41  42
ENDBRANCH  38  40
ENDBRANCH   1  38
TORSDOF 11
ENDMDL
MODEL 6
REMARK minimizedAffinity -10.8521595
REMARK CNNscore 0.27951929
REMARK CNNaffinity 6.81074095
REMARK  11 active torsions:
REMARK  status: ('A' for Active; 'I' for Inactive)
REMARK    1  A    between atoms: C2_2  and  C4_4 
REMARK    2  A    between atoms: C4_4  and  C6_6 
REMARK    3  A    between atoms: C7_7  and  C8_8 
REMARK    4  A    between atoms: C8_8  and  C10_10 
REMARK    5  A    between atoms: C24_24  and  O1_25 
REMARK    6  A    between atoms: O1_25  and  C25_26 
REMARK    7  A    between atoms: C26_28  and  C27_29 
REMARK    8  A    between atoms: C27_29  and  O3_30 
REMARK    9  A    between atoms: C28_31  and  O4_32 
REMARK   10  A    between atoms: C29_33  and  O5_34 
REMARK   11  A    between atoms: C30_35  and  O6_36 
ROOT
HETATM    1  C10 UNL     1      -0.258  50.938 -19.774  1.00  0.00     0.001 C 
HETATM    2  C11 UNL     1      -0.655  49.584 -19.129  1.00  0.00     0.006 C 
HETATM    3  C12 UNL     1      -1.539  48.847 -20.150  1.00  0.00     0.009 C 
HETATM    4  C13 UNL     1      -1.455  49.711 -21.403  1.00  0.00     0.036 C 
HETATM    5  C14 UNL     1      -1.348  51.157 -20.871  1.00  0.00    -0.033 C 
HETATM    6  C15 UNL     1      -2.662  51.714 -20.290  1.00  0.00     0.016 C 
HETATM    7  C16 UNL     1      -0.888  52.034 -22.051  1.00  0.00     0.010 C 
HETATM    8  C17 UNL     1      -1.870  51.955 -23.232  1.00  0.00     0.010 C 
HETATM    9  C18 UNL     1      -2.171  50.514 -23.698  1.00  0.00     0.039 C 
HETATM   10  C19 UNL     1      -2.465  49.495 -22.536  1.00  0.00     0.123 C 
HETATM   11  C20 UNL     1      -3.925  49.401 -22.161  1.00  0.00     0.014 C 
HETATM   12  C21 UNL     1      -4.726  49.079 -23.190  1.00  0.00     0.014 C 
HETATM   13  C22 UNL     1      -3.992  49.000 -24.510  1.00  0.00     0.124 C 
HETATM   14  C23 UNL     1      -4.853  48.553 -25.687  1.00  0.00     0.078 C 
HETATM   15  C24 UNL     1      -4.034  48.387 -26.985  1.00  0.00     0.128 C 
HETATM   16  C31 UNL     1      -2.674  49.111 -26.967  1.00  0.00     0.033 C 
HETATM   17  C32 UNL     1      -2.717  50.452 -26.239  1.00  0.00     0.015 C 
HETATM   18  C33 UNL     1      -3.307  50.381 -24.796  1.00  0.00     0.001 C 
HETATM   19  C34 UNL     1      -4.340  51.541 -24.711  1.00  0.00     0.019 C 
HETATM   20  O7  UNL     1      -2.954  47.991 -24.359  1.00  0.00    -0.223 OA
HETATM   21  O8  UNL     1      -2.191  48.179 -23.090  1.00  0.00    -0.224 OA
ENDROOT
BRANCH  15  22
HETATM   22  O1  UNL     1      -4.885  48.845 -28.046  1.00  0.00    -0.353 OA
BRANCH  22  23
HETATM   23  C25 UNL     1      -5.414  47.796 -28.867  1.00  0.00     0.292 C 
HETATM   24  O2  UNL     1      -4.812  47.843 -30.157  1.00  0.00    -0.348 OA
HETATM   25  C26 UNL     1      -5.306  46.821 -31.040  1.00  0.00     0.179 C 
HETATM   26  C28 UNL     1      -6.831  46.938 -31.240  1.00  0.00     0.180 C 
HETATM   27  C29 UNL     1      -7.539  46.973 -29.877  1.00  0.00     0.183 C 
HETATM   28  C30 UNL     1      -6.922  48.052 -28.989  1.00  0.00     0.204 C 
BRANCH  25  29
HETATM   29  C27 UNL     1      -4.572  46.936 -32.390  1.00  0.00     0.198 C 
BRANCH  29  30
HETATM   30  O3  UNL     1      -4.032  48.251 -32.577  1.00  0.00    -0.398 OA
HETATM   31  H41 UNL     1      -3.419  48.424 -31.841  1.00  0.00     0.209 HD
ENDBRANCH  29  30
ENDBRANCH  25  29
BRANCH  26  32
HETATM   32  O4  UNL     1      -7.307  45.846 -32.039  1.00  0.00    -0.390 OA
HETATM   33  H43 UNL     1      -7.637  45.145 -31.450  1.00  0.00     0.210 HD
ENDBRANCH  26  32
BRANCH  27  34
HETATM   34  O5  UNL     1      -8.943  47.218 -30.045  1.00  0.00    -0.390 OA
HETATM   35  H45 UNL     1      -9.262  47.515 -29.167  1.00  0.00     0.210 HD
ENDBRANCH  27  34
BRANCH  28  36
HETATM   36  O6  UNL     1      -7.565  48.021 -27.703  1.00  0.00    -0.388 OA
HETATM   37  H47 UNL     1      -7.073  48.672 -27.162  1.00  0.00     0.210 HD
ENDBRANCH  28  36
ENDBRANCH  22  23
ENDBRANCH  15  22
BRANCH   1  38
HETATM   38  C8  UNL     1       0.060  52.091 -18.779  1.00  0.00     0.008 C 
HETATM   39  C9  UNL     1       1.134  53.014 -19.372  1.00  0.00     0.014 C 
BRANCH  38  40
HETATM   40  C7  UNL     1       0.398  51.663 -17.364  1.00  0.00    -0.026 C 
HETATM   41  C6  UNL     1       1.500  51.982 -16.667  1.00  0.00    -0.026 C 
BRANCH  41  42
HETATM   42  C4  UNL     1       1.867  51.515 -15.268  1.00  0.00     0.007 C 
HETATM   43  C5  UNL     1       0.889  51.970 -14.175  1.00  0.00     0.014 C 
BRANCH  42  44
HETATM   44  C2  UNL     1       3.351  51.844 -14.951  1.00  0.00    -0.015 C 
HETATM   45  C1  UNL     1       4.122  50.663 -14.355  1.00  0.00     0.010 C 
HETATM   46  C3  UNL     1       4.096  52.379 -16.179  1.00  0.00     0.010 C 
ENDBRANCH  42  44
ENDBRANCH  41  42
ENDBRANCH  38  40
ENDBRANCH   1  38
TORSDOF 11
ENDMDL
MODEL 7
REMARK minimizedAffinity -8.260005
REMARK CNNscore 0.247160867
REMARK CNNaffinity 6.5030961
REMARK  11 active torsions:
REMARK  status: ('A' for Active; 'I' for Inactive)
REMARK    1  A    between atoms: C2_2  and  C4_4 
REMARK    2  A    between atoms: C4_4  and  C6_6 
REMARK    3  A    between atoms: C7_7  and  C8_8 
REMARK    4  A    between atoms: C8_8  and  C10_10 
REMARK    5  A    between atoms: C24_24  and  O1_25 
REMARK    6  A    between atoms: O1_25  and  C25_26 
REMARK    7  A    between atoms: C26_28  and  C27_29 
REMARK    8  A    between atoms: C27_29  and  O3_30 
REMARK    9  A    between atoms: C28_31  and  O4_32 
REMARK   10  A    between atoms: C29_33  and  O5_34 
REMARK   11  A    between atoms: C30_35  and  O6_36 
ROOT
HETATM    1  C10 UNL     1       0.391  51.786 -22.025  1.00  0.00     0.001 C 
HETATM    2  C11 UNL     1       0.493  53.209 -21.416  1.00  0.00     0.006 C 
HETATM    3  C12 UNL     1       0.034  53.100 -19.952  1.00  0.00     0.009 C 
HETATM    4  C13 UNL     1      -0.125  51.601 -19.726  1.00  0.00     0.036 C 
HETATM    5  C14 UNL     1      -0.616  51.053 -21.083  1.00  0.00    -0.033 C 
HETATM    6  C15 UNL     1      -2.082  51.397 -21.409  1.00  0.00     0.016 C 
HETATM    7  C16 UNL     1      -0.438  49.523 -21.037  1.00  0.00     0.010 C 
HETATM    8  C17 UNL     1      -1.226  48.895 -19.875  1.00  0.00     0.010 C 
HETATM    9  C18 UNL     1      -0.921  49.530 -18.501  1.00  0.00     0.039 C 
HETATM   10  C19 UNL     1      -0.890  51.102 -18.494  1.00  0.00     0.123 C 
HETATM   11  C20 UNL     1      -2.228  51.737 -18.199  1.00  0.00     0.014 C 
HETATM   12  C21 UNL     1      -2.768  51.341 -17.034  1.00  0.00     0.014 C 
HETATM   13  C22 UNL     1      -1.963  50.262 -16.345  1.00  0.00     0.124 C 
HETATM   14  C23 UNL     1      -2.500  49.847 -14.980  1.00  0.00     0.078 C 
HETATM   15  C24 UNL     1      -1.586  48.822 -14.275  1.00  0.00     0.128 C 
HETATM   16  C31 UNL     1      -0.608  48.097 -15.220  1.00  0.00     0.033 C 
HETATM   17  C32 UNL     1      -1.213  47.792 -16.589  1.00  0.00     0.015 C 
HETATM   18  C33 UNL     1      -1.836  49.029 -17.307  1.00  0.00     0.001 C 
HETATM   19  C34 UNL     1      -3.236  48.563 -17.799  1.00  0.00     0.019 C 
HETATM   20  O7  UNL     1      -0.634  50.806 -16.112  1.00  0.00    -0.223 OA
HETATM   21  O8  UNL     1      -0.096  51.474 -17.334  1.00  0.00    -0.224 OA
ENDROOT
BRANCH  15  22
HETATM   22  O1  UNL     1      -2.466  47.915 -13.595  1.00  0.00    -0.353 OA
BRANCH  22  23
HETATM   23  C25 UNL     1      -3.437  48.556 -12.759  1.00  0.00     0.292 C 
HETATM   24  O2  UNL     1      -2.816  49.015 -11.562  1.00  0.00    -0.348 OA
HETATM   25  C26 UNL     1      -3.739  49.662 -10.668  1.00  0.00     0.179 C 
HETATM   26  C28 UNL     1      -4.885  48.714 -10.258  1.00  0.00     0.180 C 
HETATM   27  C29 UNL     1      -5.549  48.119 -11.510  1.00  0.00     0.183 C 
HETATM   28  C30 UNL     1      -4.494  47.496 -12.422  1.00  0.00     0.204 C 
BRANCH  25  29
HETATM   29  C27 UNL     1      -2.967  50.148  -9.427  1.00  0.00     0.198 C 
BRANCH  29  30
HETATM   30  O3  UNL     1      -3.024  51.574  -9.304  1.00  0.00    -0.398 OA
HETATM   31  H41 UNL     1      -3.963  51.825  -9.241  1.00  0.00     0.209 HD
ENDBRANCH  29  30
ENDBRANCH  25  29
BRANCH  26  32
HETATM   32  O4  UNL     1      -5.841  49.418  -9.454  1.00  0.00    -0.390 OA
HETATM   33  H43 UNL     1      -6.566  49.727 -10.024  1.00  0.00     0.210 HD
ENDBRANCH  26  32
BRANCH  27  34
HETATM   34  O5  UNL     1      -6.525  47.133 -11.141  1.00  0.00    -0.390 OA
HETATM   35  H45 UNL     1      -6.681  46.607 -11.952  1.00  0.00     0.210 HD
ENDBRANCH  27  34
BRANCH  28  36
HETATM   36  O6  UNL     1      -5.138  47.001 -13.609  1.00  0.00    -0.388 OA
HETATM   37  H47 UNL     1      -4.406  46.694 -14.181  1.00  0.00     0.210 HD
ENDBRANCH  28  36
ENDBRANCH  22  23
ENDBRANCH  15  22
BRANCH   1  38
HETATM   38  C8  UNL     1       0.172  51.725 -23.565  1.00  0.00     0.008 C 
HETATM   39  C9  UNL     1       0.928  52.873 -24.247  1.00  0.00     0.014 C 
BRANCH  38  40
HETATM   40  C7  UNL     1      -1.273  51.648 -24.020  1.00  0.00    -0.026 C 
HETATM   41  C6  UNL     1      -1.833  50.685 -24.768  1.00  0.00    -0.026 C 
BRANCH  41  42
HETATM   42  C4  UNL     1      -3.267  50.629 -25.269  1.00  0.00     0.007 C 
HETATM   43  C5  UNL     1      -4.119  51.843 -24.875  1.00  0.00     0.014 C 
BRANCH  42  44
HETATM   44  C2  UNL     1      -3.921  49.268 -24.911  1.00  0.00    -0.015 C 
HETATM   45  C1  UNL     1      -4.103  48.343 -26.119  1.00  0.00     0.010 C 
HETATM   46  C3  UNL     1      -3.148  48.530 -23.811  1.00  0.00     0.010 C 
ENDBRANCH  42  44
ENDBRANCH  41  42
ENDBRANCH  38  40
ENDBRANCH   1  38
TORSDOF 11
ENDMDL
MODEL 8
REMARK minimizedAffinity -8.26242065
REMARK CNNscore 0.242180228
REMARK CNNaffinity 6.77898836
REMARK  11 active torsions:
REMARK  status: ('A' for Active; 'I' for Inactive)
REMARK    1  A    between atoms: C2_2  and  C4_4 
REMARK    2  A    between atoms: C4_4  and  C6_6 
REMARK    3  A    between atoms: C7_7  and  C8_8 
REMARK    4  A    between atoms: C8_8  and  C10_10 
REMARK    5  A    between atoms: C24_24  and  O1_25 
REMARK    6  A    between atoms: O1_25  and  C25_26 
REMARK    7  A    between atoms: C26_28  and  C27_29 
REMARK    8  A    between atoms: C27_29  and  O3_30 
REMARK    9  A    between atoms: C28_31  and  O4_32 
REMARK   10  A    between atoms: C29_33  and  O5_34 
REMARK   11  A    between atoms: C30_35  and  O6_36 
ROOT
HETATM    1  C10 UNL     1       0.280  51.903 -15.642  1.00  0.00     0.001 C 
HETATM    2  C11 UNL     1       1.479  52.459 -16.456  1.00  0.00     0.006 C 
HETATM    3  C12 UNL     1       1.145  52.243 -17.942  1.00  0.00     0.009 C 
HETATM    4  C13 UNL     1      -0.299  51.756 -17.929  1.00  0.00     0.036 C 
HETATM    5  C14 UNL     1      -0.417  50.921 -16.636  1.00  0.00    -0.033 C 
HETATM    6  C15 UNL     1       0.290  49.553 -16.702  1.00  0.00     0.016 C 
HETATM    7  C16 UNL     1      -1.921  50.717 -16.371  1.00  0.00     0.010 C 
HETATM    8  C17 UNL     1      -2.612  50.007 -17.547  1.00  0.00     0.010 C 
HETATM    9  C18 UNL     1      -2.378  50.690 -18.913  1.00  0.00     0.039 C 
HETATM   10  C19 UNL     1      -0.888  51.112 -19.190  1.00  0.00     0.123 C 
HETATM   11  C20 UNL     1      -0.069  50.044 -19.876  1.00  0.00     0.014 C 
HETATM   12  C21 UNL     1      -0.592  49.629 -21.042  1.00  0.00     0.014 C 
HETATM   13  C22 UNL     1      -1.942  50.244 -21.337  1.00  0.00     0.124 C 
HETATM   14  C23 UNL     1      -2.528  49.861 -22.692  1.00  0.00     0.078 C 
HETATM   15  C24 UNL     1      -3.852  50.597 -22.989  1.00  0.00     0.128 C 
HETATM   16  C31 UNL     1      -4.537  51.188 -21.741  1.00  0.00     0.033 C 
HETATM   17  C32 UNL     1      -4.396  50.303 -20.505  1.00  0.00     0.015 C 
HETATM   18  C33 UNL     1      -2.928  49.895 -20.169  1.00  0.00     0.001 C 
HETATM   19  C34 UNL     1      -2.969  48.360 -19.918  1.00  0.00     0.019 C 
HETATM   20  O7  UNL     1      -1.753  51.687 -21.368  1.00  0.00    -0.223 OA
HETATM   21  O8  UNL     1      -0.958  52.158 -20.196  1.00  0.00    -0.224 OA
ENDROOT
BRANCH  15  22
HETATM   22  O1  UNL     1      -4.683  49.647 -23.673  1.00  0.00    -0.353 OA
BRANCH  22  23
HETATM   23  C25 UNL     1      -5.620  48.972 -22.826  1.00  0.00     0.292 C 
HETATM   24  O2  UNL     1      -5.099  47.703 -22.443  1.00  0.00    -0.348 OA
HETATM   25  C26 UNL     1      -5.996  46.964 -21.596  1.00  0.00     0.179 C 
HETATM   26  C28 UNL     1      -7.350  46.713 -22.293  1.00  0.00     0.180 C 
HETATM   27  C29 UNL     1      -7.932  48.040 -22.804  1.00  0.00     0.183 C 
HETATM   28  C30 UNL     1      -6.899  48.779 -23.652  1.00  0.00     0.204 C 
BRANCH  25  29
HETATM   29  C27 UNL     1      -5.328  45.630 -21.213  1.00  0.00     0.198 C 
BRANCH  29  30
HETATM   30  O3  UNL     1      -5.973  44.522 -21.854  1.00  0.00    -0.398 OA
HETATM   31  H41 UNL     1      -5.918  44.667 -22.815  1.00  0.00     0.209 HD
ENDBRANCH  29  30
ENDBRANCH  25  29
BRANCH  26  32
HETATM   32  O4  UNL     1      -8.256  46.068 -21.389  1.00  0.00    -0.390 OA
HETATM   33  H43 UNL     1      -8.820  46.742 -20.973  1.00  0.00     0.210 HD
ENDBRANCH  26  32
BRANCH  27  34
HETATM   34  O5  UNL     1      -9.122  47.805 -23.572  1.00  0.00    -0.390 OA
HETATM   35  H45 UNL     1      -9.260  48.623 -24.093  1.00  0.00     0.210 HD
ENDBRANCH  27  34
BRANCH  28  36
HETATM   36  O6  UNL     1      -7.452  50.041 -24.066  1.00  0.00    -0.388 OA
HETATM   37  H47 UNL     1      -6.719  50.495 -24.530  1.00  0.00     0.210 HD
ENDBRANCH  28  36
ENDBRANCH  22  23
ENDBRANCH  15  22
BRANCH   1  38
HETATM   38  C8  UNL     1       0.611  51.418 -14.201  1.00  0.00     0.008 C 
HETATM   39  C9  UNL     1       1.383  50.092 -14.259  1.00  0.00     0.014 C 
BRANCH  38  40
HETATM   40  C7  UNL     1      -0.565  51.347 -13.246  1.00  0.00    -0.026 C 
HETATM   41  C6  UNL     1      -1.030  52.335 -12.465  1.00  0.00    -0.026 C 
BRANCH  41  42
HETATM   42  C4  UNL     1      -2.176  52.255 -11.470  1.00  0.00     0.007 C 
HETATM   43  C5  UNL     1      -3.302  51.296 -11.882  1.00  0.00     0.014 C 
BRANCH  42  44
HETATM   44  C2  UNL     1      -2.676  53.675 -11.092  1.00  0.00    -0.015 C 
HETATM   45  C1  UNL     1      -4.096  53.689 -10.520  1.00  0.00     0.010 C 
HETATM   46  C3  UNL     1      -1.722  54.381 -10.120  1.00  0.00     0.010 C 
ENDBRANCH  42  44
ENDBRANCH  41  42
ENDBRANCH  38  40
ENDBRANCH   1  38
TORSDOF 11
ENDMDL
MODEL 9
REMARK minimizedAffinity -9.05734158
REMARK CNNscore 0.241431385
REMARK CNNaffinity 6.5194459
REMARK  11 active torsions:
REMARK  status: ('A' for Active; 'I' for Inactive)
REMARK    1  A    between atoms: C2_2  and  C4_4 
REMARK    2  A    between atoms: C4_4  and  C6_6 
REMARK    3  A    between atoms: C7_7  and  C8_8 
REMARK    4  A    between atoms: C8_8  and  C10_10 
REMARK    5  A    between atoms: C24_24  and  O1_25 
REMARK    6  A    between atoms: O1_25  and  C25_26 
REMARK    7  A    between atoms: C26_28  and  C27_29 
REMARK    8  A    between atoms: C27_29  and  O3_30 
REMARK    9  A    between atoms: C28_31  and  O4_32 
REMARK   10  A    between atoms: C29_33  and  O5_34 
REMARK   11  A    between atoms: C30_35  and  O6_36 
ROOT
HETATM    1  C10 UNL     1      -0.516  51.251 -20.921  1.00  0.00     0.001 C 
HETATM    2  C11 UNL     1      -1.072  52.057 -19.717  1.00  0.00     0.006 C 
HETATM    3  C12 UNL     1      -2.418  51.416 -19.336  1.00  0.00     0.009 C 
HETATM    4  C13 UNL     1      -2.487  50.162 -20.199  1.00  0.00     0.036 C 
HETATM    5  C14 UNL     1      -1.782  50.557 -21.515  1.00  0.00    -0.033 C 
HETATM    6  C15 UNL     1      -2.604  51.503 -22.411  1.00  0.00     0.016 C 
HETATM    7  C16 UNL     1      -1.487  49.248 -22.273  1.00  0.00     0.010 C 
HETATM    8  C17 UNL     1      -2.773  48.455 -22.557  1.00  0.00     0.010 C 
HETATM    9  C18 UNL     1      -3.629  48.185 -21.300  1.00  0.00     0.039 C 
HETATM   10  C19 UNL     1      -3.825  49.430 -20.358  1.00  0.00     0.123 C 
HETATM   11  C20 UNL     1      -5.041  50.261 -20.689  1.00  0.00     0.014 C 
HETATM   12  C21 UNL     1      -6.190  49.565 -20.678  1.00  0.00     0.014 C 
HETATM   13  C22 UNL     1      -5.982  48.084 -20.450  1.00  0.00     0.124 C 
HETATM   14  C23 UNL     1      -7.270  47.274 -20.347  1.00  0.00     0.078 C 
HETATM   15  C24 UNL     1      -7.006  45.791 -20.010  1.00  0.00     0.128 C 
HETATM   16  C31 UNL     1      -5.562  45.330 -20.287  1.00  0.00     0.033 C 
HETATM   17  C32 UNL     1      -4.960  45.965 -21.539  1.00  0.00     0.015 C 
HETATM   18  C33 UNL     1      -5.043  47.522 -21.574  1.00  0.00     0.001 C 
HETATM   19  C34 UNL     1      -5.592  47.879 -22.986  1.00  0.00     0.019 C 
HETATM   20  O7  UNL     1      -5.307  47.942 -19.169  1.00  0.00    -0.223 OA
HETATM   21  O8  UNL     1      -4.156  48.884 -19.052  1.00  0.00    -0.224 OA
ENDROOT
BRANCH  15  22
HETATM   22  O1  UNL     1      -7.975  45.041 -20.758  1.00  0.00    -0.353 OA
BRANCH  22  23
HETATM   23  C25 UNL     1      -7.597  44.789 -22.117  1.00  0.00     0.292 C 
HETATM   24  O2  UNL     1      -8.428  45.542 -22.996  1.00  0.00    -0.348 OA
HETATM   25  C26 UNL     1      -8.110  45.328 -24.383  1.00  0.00     0.179 C 
HETATM   26  C28 UNL     1      -8.257  43.842 -24.771  1.00  0.00     0.180 C 
HETATM   27  C29 UNL     1      -7.445  42.963 -23.808  1.00  0.00     0.183 C 
HETATM   28  C30 UNL     1      -7.810  43.288 -22.361  1.00  0.00     0.204 C 
BRANCH  25  29
HETATM   29  C27 UNL     1      -9.036  46.208 -25.243  1.00  0.00     0.198 C 
BRANCH  29  30
HETATM   30  O3  UNL     1      -8.481  46.429 -26.546  1.00  0.00    -0.398 OA
HETATM   31  H41 UNL     1      -8.356  45.558 -26.962  1.00  0.00     0.209 HD
ENDBRANCH  29  30
ENDBRANCH  25  29
BRANCH  26  32
HETATM   32  O4  UNL     1      -7.834  43.645 -26.128  1.00  0.00    -0.390 OA
HETATM   33  H43 UNL     1      -6.908  43.349 -26.129  1.00  0.00     0.210 HD
ENDBRANCH  26  32
BRANCH  27  34
HETATM   34  O5  UNL     1      -7.682  41.573 -24.075  1.00  0.00    -0.390 OA
HETATM   35  H45 UNL     1      -7.385  41.100 -23.269  1.00  0.00     0.210 HD
ENDBRANCH  27  34
BRANCH  28  36
HETATM   36  O6  UNL     1      -6.994  42.494 -21.484  1.00  0.00    -0.388 OA
HETATM   37  H47 UNL     1      -7.216  42.806 -20.583  1.00  0.00     0.210 HD
ENDBRANCH  28  36
ENDBRANCH  22  23
ENDBRANCH  15  22
BRANCH   1  38
HETATM   38  C8  UNL     1       0.439  52.030 -21.870  1.00  0.00     0.008 C 
HETATM   39  C9  UNL     1       0.832  53.371 -21.234  1.00  0.00     0.014 C 
BRANCH  38  40
HETATM   40  C7  UNL     1      -0.047  52.200 -23.297  1.00  0.00    -0.026 C 
HETATM   41  C6  UNL     1       0.651  52.688 -24.334  1.00  0.00    -0.026 C 
BRANCH  41  42
HETATM   42  C4  UNL     1       0.153  52.907 -25.753  1.00  0.00     0.007 C 
HETATM   43  C5  UNL     1      -1.304  52.478 -25.982  1.00  0.00     0.014 C 
BRANCH  42  44
HETATM   44  C2  UNL     1       1.147  52.307 -26.783  1.00  0.00    -0.015 C 
HETATM   45  C1  UNL     1       2.231  51.433 -26.145  1.00  0.00     0.010 C 
HETATM   46  C3  UNL     1       0.429  51.516 -27.883  1.00  0.00     0.010 C 
ENDBRANCH  42  44
ENDBRANCH  41  42
ENDBRANCH  38  40
ENDBRANCH   1  38
TORSDOF 11
ENDMDL
