MODEL 1
REMARK minimizedAffinity -10.4778357
REMARK  6 active torsions:
REMARK  status: ('A' for Active; 'I' for Inactive)
REMARK    1  A    between atoms: C3_3  and  O1_4 
REMARK    2  A    between atoms: N1_14  and  O2_16 
REMARK    3  A    between atoms: O2_16  and  C13_17 
REMARK    4  A    between atoms: C13_17  and  C14_18 
REMARK       I    between atoms: C14_18  and  N2_20 
REMARK    5  A    between atoms: N2_20  and  C15_21 
REMARK    6  A    between atoms: C15_21  and  C17_23 
ROOT
HETATM    1  C1  UNL     1       1.804  50.779 -26.278  1.00  0.00     0.015 C 
HETATM    2  C2  UNL     1       0.888  51.510 -26.019  1.00  0.00    -0.078 C 
HETATM    3  C3  UNL     1      -0.249  52.401 -25.695  1.00  0.00     0.128 C 
HETATM    4  C4  UNL     1       0.249  53.860 -25.511  1.00  0.00     0.052 C 
HETATM    5  C5  UNL     1       0.356  54.103 -23.991  1.00  0.00     0.010 C 
HETATM    6  C6  UNL     1       0.087  52.738 -23.359  1.00  0.00     0.002 C 
HETATM    7  C7  UNL     1      -0.355  52.678 -21.891  1.00  0.00    -0.004 C 
HETATM    8  C8  UNL     1       0.665  53.362 -20.973  1.00  0.00     0.010 C 
HETATM    9  C9  UNL     1       0.214  53.294 -19.520  1.00  0.00     0.035 C 
HETATM   10  C10 UNL     1      -0.034  51.876 -19.064  1.00  0.00    -0.069 C 
HETATM   11  C11 UNL     1       0.484  51.463 -17.893  1.00  0.00     0.030 C 
HETATM   12  C12 UNL     1       0.153  50.141 -17.305  1.00  0.00     0.032 C 
HETATM   13  N1  UNL     1       0.626  49.877 -16.117  1.00  0.00    -0.271 N 
ATOM     14  H1  UNL     1       1.227  50.509 -15.589  1.00  0.00     0.194 HD
HETATM   15  C23 UNL     1      -0.774  49.228 -18.077  1.00  0.00     0.060 C 
HETATM   16  C24 UNL     1      -0.713  49.507 -19.574  1.00  0.00     0.020 C 
HETATM   17  C25 UNL     1      -0.922  51.002 -19.955  1.00  0.00    -0.016 C 
HETATM   18  C26 UNL     1      -2.394  51.397 -19.696  1.00  0.00     0.020 C 
HETATM   19  C27 UNL     1      -0.528  51.183 -21.474  1.00  0.00     0.002 C 
HETATM   20  C28 UNL     1      -1.462  50.428 -22.458  1.00  0.00     0.007 C 
HETATM   21  C29 UNL     1      -1.072  50.602 -23.937  1.00  0.00     0.014 C 
HETATM   22  C30 UNL     1      -0.927  52.086 -24.326  1.00  0.00     0.003 C 
HETATM   23  C31 UNL     1      -2.337  52.746 -24.285  1.00  0.00     0.020 C 
ENDROOT
BRANCH   3  24
HETATM   24  O1  UNL     1      -1.179  52.337 -26.768  1.00  0.00    -0.377 OA
HETATM   25  H2  UNL     1      -0.666  52.439 -27.588  1.00  0.00     0.211 HD
ENDBRANCH   3  24
BRANCH  13  26
HETATM   26  O2  UNL     1       0.207  48.620 -15.653  1.00  0.00    -0.271 OA
BRANCH  26  27
HETATM   27  C13 UNL     1      -0.215  48.743 -14.297  1.00  0.00     0.303 C 
BRANCH  27  28
HETATM   28  C14 UNL     1      -1.600  49.364 -14.229  1.00  0.00     0.244 C 
HETATM   29  O3  UNL     1      -2.551  48.938 -14.876  1.00  0.00    -0.271 OA
HETATM   30  N2  UNL     1      -1.667  50.489 -13.431  1.00  0.00    -0.351 N 
HETATM   31  H16 UNL     1      -0.899  50.639 -12.784  1.00  0.00     0.163 HD
BRANCH  30  32
HETATM   32  C15 UNL     1      -2.913  51.201 -13.201  1.00  0.00     0.113 C 
HETATM   33  C16 UNL     1      -3.488  51.776 -14.500  1.00  0.00     0.037 C 
BRANCH  32  34
HETATM   34  C17 UNL     1      -2.709  52.300 -12.169  1.00  0.00    -0.036 A 
HETATM   35  C18 UNL     1      -3.796  52.997 -11.614  1.00  0.00     0.009 A 
HETATM   36  C19 UNL     1      -3.591  53.989 -10.652  1.00  0.00     0.001 A 
HETATM   37  C20 UNL     1      -2.300  54.294 -10.227  1.00  0.00     0.000 A 
HETATM   38  C21 UNL     1      -1.211  53.617 -10.773  1.00  0.00     0.001 A 
HETATM   39  C22 UNL     1      -1.414  52.631 -11.742  1.00  0.00     0.009 A 
ENDBRANCH  32  34
ENDBRANCH  30  32
ENDBRANCH  27  28
ENDBRANCH  26  27
ENDBRANCH  13  26
TORSDOF 6
ENDMDL
MODEL 2
REMARK minimizedAffinity -10.2834854
REMARK  6 active torsions:
REMARK  status: ('A' for Active; 'I' for Inactive)
REMARK    1  A    between atoms: C3_3  and  O1_4 
REMARK    2  A    between atoms: N1_14  and  O2_16 
REMARK    3  A    between atoms: O2_16  and  C13_17 
REMARK    4  A    between atoms: C13_17  and  C14_18 
REMARK       I    between atoms: C14_18  and  N2_20 
REMARK    5  A    between atoms: N2_20  and  C15_21 
REMARK    6  A    between atoms: C15_21  and  C17_23 
ROOT
HETATM    1  C1  UNL     1       2.125  50.975 -26.233  1.00  0.00     0.015 C 
HETATM    2  C2  UNL     1       1.181  51.682 -26.007  1.00  0.00    -0.078 C 
HETATM    3  C3  UNL     1       0.011  52.542 -25.724  1.00  0.00     0.128 C 
HETATM    4  C4  UNL     1       0.471  54.003 -25.463  1.00  0.00     0.052 C 
HETATM    5  C5  UNL     1       0.480  54.197 -23.932  1.00  0.00     0.010 C 
HETATM    6  C6  UNL     1       0.198  52.807 -23.362  1.00  0.00     0.002 C 
HETATM    7  C7  UNL     1      -0.331  52.691 -21.927  1.00  0.00    -0.004 C 
HETATM    8  C8  UNL     1       0.619  53.361 -20.927  1.00  0.00     0.010 C 
HETATM    9  C9  UNL     1       0.081  53.237 -19.507  1.00  0.00     0.035 C 
HETATM   10  C10 UNL     1      -0.167  51.801 -19.113  1.00  0.00    -0.069 C 
HETATM   11  C11 UNL     1       0.286  51.358 -17.927  1.00  0.00     0.030 C 
HETATM   12  C12 UNL     1      -0.057  50.012 -17.402  1.00  0.00     0.032 C 
HETATM   13  N1  UNL     1       0.348  49.716 -16.198  1.00  0.00    -0.271 N 
ATOM     14  H1  UNL     1       0.905  50.340 -15.613  1.00  0.00     0.194 HD
HETATM   15  C23 UNL     1      -0.918  49.110 -18.259  1.00  0.00     0.060 C 
HETATM   16  C24 UNL     1      -0.772  49.440 -19.740  1.00  0.00     0.020 C 
HETATM   17  C25 UNL     1      -0.984  50.943 -20.084  1.00  0.00    -0.016 C 
HETATM   18  C26 UNL     1      -2.476  51.306 -19.904  1.00  0.00     0.020 C 
HETATM   19  C27 UNL     1      -0.502  51.181 -21.570  1.00  0.00     0.002 C 
HETATM   20  C28 UNL     1      -1.361  50.444 -22.634  1.00  0.00     0.007 C 
HETATM   21  C29 UNL     1      -0.885  50.673 -24.079  1.00  0.00     0.014 C 
HETATM   22  C30 UNL     1      -0.743  52.172 -24.410  1.00  0.00     0.003 C 
HETATM   23  C31 UNL     1      -2.165  52.807 -24.435  1.00  0.00     0.020 C 
ENDROOT
BRANCH   3  24
HETATM   24  O1  UNL     1      -0.851  52.499 -26.854  1.00  0.00    -0.377 OA
HETATM   25  H2  UNL     1      -0.291  52.637 -27.637  1.00  0.00     0.211 HD
ENDBRANCH   3  24
BRANCH  13  26
HETATM   26  O2  UNL     1      -0.075  48.438 -15.801  1.00  0.00    -0.271 OA
BRANCH  26  27
HETATM   27  C13 UNL     1      -0.435  48.475 -14.422  1.00  0.00     0.303 C 
BRANCH  27  28
HETATM   28  C14 UNL     1       0.220  49.664 -13.737  1.00  0.00     0.244 C 
HETATM   29  O3  UNL     1       1.436  49.779 -13.627  1.00  0.00    -0.271 OA
HETATM   30  N2  UNL     1      -0.680  50.556 -13.191  1.00  0.00    -0.351 N 
HETATM   31  H16 UNL     1      -1.643  50.490 -13.507  1.00  0.00     0.163 HD
BRANCH  30  32
HETATM   32  C15 UNL     1      -0.253  51.780 -12.532  1.00  0.00     0.113 C 
HETATM   33  C16 UNL     1       0.778  51.505 -11.433  1.00  0.00     0.037 C 
BRANCH  32  34
HETATM   34  C17 UNL     1      -1.456  52.522 -11.968  1.00  0.00    -0.036 A 
HETATM   35  C18 UNL     1      -2.752  52.307 -12.467  1.00  0.00     0.009 A 
HETATM   36  C19 UNL     1      -3.847  52.982 -11.923  1.00  0.00     0.001 A 
HETATM   37  C20 UNL     1      -3.663  53.877 -10.870  1.00  0.00     0.000 A 
HETATM   38  C21 UNL     1      -2.384  54.107 -10.370  1.00  0.00     0.001 A 
HETATM   39  C22 UNL     1      -1.287  53.439 -10.919  1.00  0.00     0.009 A 
ENDBRANCH  32  34
ENDBRANCH  30  32
ENDBRANCH  27  28
ENDBRANCH  26  27
ENDBRANCH  13  26
TORSDOF 6
ENDMDL
MODEL 3
REMARK minimizedAffinity -10.1823034
REMARK  6 active torsions:
REMARK  status: ('A' for Active; 'I' for Inactive)
REMARK    1  A    between atoms: C3_3  and  O1_4 
REMARK    2  A    between atoms: N1_14  and  O2_16 
REMARK    3  A    between atoms: O2_16  and  C13_17 
REMARK    4  A    between atoms: C13_17  and  C14_18 
REMARK       I    between atoms: C14_18  and  N2_20 
REMARK    5  A    between atoms: N2_20  and  C15_21 
REMARK    6  A    between atoms: C15_21  and  C17_23 
ROOT
HETATM    1  C1  UNL     1       1.810  50.727 -26.674  1.00  0.00     0.015 C 
HETATM    2  C2  UNL     1       0.902  51.473 -26.430  1.00  0.00    -0.078 C 
HETATM    3  C3  UNL     1      -0.225  52.382 -26.124  1.00  0.00     0.128 C 
HETATM    4  C4  UNL     1       0.304  53.813 -25.831  1.00  0.00     0.052 C 
HETATM    5  C5  UNL     1       0.325  53.970 -24.296  1.00  0.00     0.010 C 
HETATM    6  C6  UNL     1      -0.023  52.583 -23.758  1.00  0.00     0.002 C 
HETATM    7  C7  UNL     1      -0.556  52.459 -22.324  1.00  0.00    -0.004 C 
HETATM    8  C8  UNL     1       0.426  53.060 -21.311  1.00  0.00     0.010 C 
HETATM    9  C9  UNL     1      -0.115  52.929 -19.893  1.00  0.00     0.035 C 
HETATM   10  C10 UNL     1      -0.432  51.498 -19.532  1.00  0.00    -0.069 C 
HETATM   11  C11 UNL     1       0.000  51.006 -18.357  1.00  0.00     0.030 C 
HETATM   12  C12 UNL     1      -0.405  49.667 -17.863  1.00  0.00     0.032 C 
HETATM   13  N1  UNL     1      -0.014  49.324 -16.666  1.00  0.00    -0.271 N 
ATOM     14  H1  UNL     1       0.573  49.907 -16.069  1.00  0.00     0.194 HD
HETATM   15  C23 UNL     1      -1.310  48.827 -18.739  1.00  0.00     0.060 C 
HETATM   16  C24 UNL     1      -1.150  49.183 -20.212  1.00  0.00     0.020 C 
HETATM   17  C25 UNL     1      -1.290  50.702 -20.521  1.00  0.00    -0.016 C 
HETATM   18  C26 UNL     1      -2.762  51.132 -20.329  1.00  0.00     0.020 C 
HETATM   19  C27 UNL     1      -0.798  50.951 -22.002  1.00  0.00     0.002 C 
HETATM   20  C28 UNL     1      -1.693  50.281 -23.080  1.00  0.00     0.007 C 
HETATM   21  C29 UNL     1      -1.208  50.521 -24.521  1.00  0.00     0.014 C 
HETATM   22  C30 UNL     1      -0.995  52.018 -24.818  1.00  0.00     0.003 C 
HETATM   23  C31 UNL     1      -2.385  52.721 -24.824  1.00  0.00     0.020 C 
ENDROOT
BRANCH   3  24
HETATM   24  O1  UNL     1      -1.089  52.406 -27.253  1.00  0.00    -0.377 OA
HETATM   25  H2  UNL     1      -0.525  52.535 -28.034  1.00  0.00     0.211 HD
ENDBRANCH   3  24
BRANCH  13  26
HETATM   26  O2  UNL     1      -0.498  48.059 -16.298  1.00  0.00    -0.271 OA
BRANCH  26  27
HETATM   27  C13 UNL     1      -0.798  48.064 -14.904  1.00  0.00     0.303 C 
BRANCH  27  28
HETATM   28  C14 UNL     1       0.230  48.887 -14.145  1.00  0.00     0.244 C 
HETATM   29  O3  UNL     1       1.165  48.380 -13.534  1.00  0.00    -0.271 OA
HETATM   30  N2  UNL     1      -0.030  50.242 -14.148  1.00  0.00    -0.351 N 
HETATM   31  H16 UNL     1      -0.691  50.582 -14.841  1.00  0.00     0.163 HD
BRANCH  30  32
HETATM   32  C15 UNL     1       0.860  51.202 -13.516  1.00  0.00     0.113 C 
HETATM   33  C16 UNL     1       0.098  52.420 -12.984  1.00  0.00     0.037 C 
BRANCH  32  34
HETATM   34  C17 UNL     1       1.951  51.630 -14.486  1.00  0.00    -0.036 A 
HETATM   35  C18 UNL     1       1.658  52.391 -15.630  1.00  0.00     0.009 A 
HETATM   36  C19 UNL     1       2.676  52.793 -16.499  1.00  0.00     0.001 A 
HETATM   37  C20 UNL     1       3.999  52.445 -16.234  1.00  0.00     0.000 A 
HETATM   38  C21 UNL     1       4.304  51.684 -15.108  1.00  0.00     0.001 A 
HETATM   39  C22 UNL     1       3.287  51.274 -14.243  1.00  0.00     0.009 A 
ENDBRANCH  32  34
ENDBRANCH  30  32
ENDBRANCH  27  28
ENDBRANCH  26  27
ENDBRANCH  13  26
TORSDOF 6
ENDMDL
MODEL 4
REMARK minimizedAffinity -9.69394302
REMARK  6 active torsions:
REMARK  status: ('A' for Active; 'I' for Inactive)
REMARK    1  A    between atoms: C3_3  and  O1_4 
REMARK    2  A    between atoms: N1_14  and  O2_16 
REMARK    3  A    between atoms: O2_16  and  C13_17 
REMARK    4  A    between atoms: C13_17  and  C14_18 
REMARK       I    between atoms: C14_18  and  N2_20 
REMARK    5  A    between atoms: N2_20  and  C15_21 
REMARK    6  A    between atoms: C15_21  and  C17_23 
ROOT
HETATM    1  C1  UNL     1       0.305  55.840 -25.512  1.00  0.00     0.015 C 
HETATM    2  C2  UNL     1       0.119  54.704 -25.853  1.00  0.00    -0.078 C 
HETATM    3  C3  UNL     1      -0.101  53.299 -26.263  1.00  0.00     0.128 C 
HETATM    4  C4  UNL     1      -1.517  53.137 -26.880  1.00  0.00     0.052 C 
HETATM    5  C5  UNL     1      -2.413  52.536 -25.778  1.00  0.00     0.010 C 
HETATM    6  C6  UNL     1      -1.540  52.534 -24.524  1.00  0.00     0.002 C 
HETATM    7  C7  UNL     1      -1.908  51.595 -23.368  1.00  0.00    -0.004 C 
HETATM    8  C8  UNL     1      -3.337  51.853 -22.874  1.00  0.00     0.010 C 
HETATM    9  C9  UNL     1      -3.688  50.915 -21.727  1.00  0.00     0.035 C 
HETATM   10  C10 UNL     1      -2.710  51.021 -20.582  1.00  0.00    -0.069 C 
HETATM   11  C11 UNL     1      -3.179  51.137 -19.326  1.00  0.00     0.030 C 
HETATM   12  C12 UNL     1      -2.287  51.085 -18.141  1.00  0.00     0.032 C 
HETATM   13  N1  UNL     1      -2.850  51.104 -16.964  1.00  0.00    -0.271 N 
ATOM     14  H1  UNL     1      -3.856  51.182 -16.814  1.00  0.00     0.194 HD
HETATM   15  C23 UNL     1      -0.800  50.928 -18.374  1.00  0.00     0.060 C 
HETATM   16  C24 UNL     1      -0.385  51.479 -19.733  1.00  0.00     0.020 C 
HETATM   17  C25 UNL     1      -1.220  50.929 -20.926  1.00  0.00    -0.016 C 
HETATM   18  C26 UNL     1      -0.873  49.441 -21.154  1.00  0.00     0.020 C 
HETATM   19  C27 UNL     1      -0.894  51.806 -22.200  1.00  0.00     0.002 C 
HETATM   20  C28 UNL     1       0.572  51.672 -22.695  1.00  0.00     0.007 C 
HETATM   21  C29 UNL     1       0.887  52.531 -23.932  1.00  0.00     0.014 C 
HETATM   22  C30 UNL     1      -0.117  52.289 -25.075  1.00  0.00     0.003 C 
HETATM   23  C31 UNL     1       0.097  50.846 -25.622  1.00  0.00     0.020 C 
ENDROOT
BRANCH   3  24
HETATM   24  O1  UNL     1       0.890  52.962 -27.226  1.00  0.00    -0.377 OA
HETATM   25  H2  UNL     1       0.909  53.688 -27.873  1.00  0.00     0.211 HD
ENDBRANCH   3  24
BRANCH  13  26
HETATM   26  O2  UNL     1      -1.907  51.005 -15.929  1.00  0.00    -0.271 OA
BRANCH  26  27
HETATM   27  C13 UNL     1      -2.535  50.437 -14.782  1.00  0.00     0.303 C 
BRANCH  27  28
HETATM   28  C14 UNL     1      -2.944  51.530 -13.808  1.00  0.00     0.244 C 
HETATM   29  O3  UNL     1      -3.527  52.549 -14.162  1.00  0.00    -0.271 OA
HETATM   30  N2  UNL     1      -2.535  51.300 -12.510  1.00  0.00    -0.351 N 
HETATM   31  H16 UNL     1      -2.250  50.352 -12.279  1.00  0.00     0.163 HD
BRANCH  30  32
HETATM   32  C15 UNL     1      -2.867  52.205 -11.423  1.00  0.00     0.113 C 
HETATM   33  C16 UNL     1      -4.150  52.993 -11.709  1.00  0.00     0.037 C 
BRANCH  32  34
HETATM   34  C17 UNL     1      -1.706  53.149 -11.149  1.00  0.00    -0.036 A 
HETATM   35  C18 UNL     1      -1.864  54.297 -10.355  1.00  0.00     0.009 A 
HETATM   36  C19 UNL     1      -0.781  55.141 -10.096  1.00  0.00     0.001 A 
HETATM   37  C20 UNL     1       0.475  54.847 -10.623  1.00  0.00     0.000 A 
HETATM   38  C21 UNL     1       0.646  53.716 -11.419  1.00  0.00     0.001 A 
HETATM   39  C22 UNL     1      -0.437  52.877 -11.685  1.00  0.00     0.009 A 
ENDBRANCH  32  34
ENDBRANCH  30  32
ENDBRANCH  27  28
ENDBRANCH  26  27
ENDBRANCH  13  26
TORSDOF 6
ENDMDL
MODEL 5
REMARK minimizedAffinity -9.57389736
REMARK  6 active torsions:
REMARK  status: ('A' for Active; 'I' for Inactive)
REMARK    1  A    between atoms: C3_3  and  O1_4 
REMARK    2  A    between atoms: N1_14  and  O2_16 
REMARK    3  A    between atoms: O2_16  and  C13_17 
REMARK    4  A    between atoms: C13_17  and  C14_18 
REMARK       I    between atoms: C14_18  and  N2_20 
REMARK    5  A    between atoms: N2_20  and  C15_21 
REMARK    6  A    between atoms: C15_21  and  C17_23 
ROOT
HETATM    1  C1  UNL     1       0.078  55.657 -26.245  1.00  0.00     0.015 C 
HETATM    2  C2  UNL     1      -0.075  54.505 -26.546  1.00  0.00    -0.078 C 
HETATM    3  C3  UNL     1      -0.256  53.081 -26.907  1.00  0.00     0.128 C 
HETATM    4  C4  UNL     1      -1.651  52.865 -27.555  1.00  0.00     0.052 C 
HETATM    5  C5  UNL     1      -2.565  52.288 -26.454  1.00  0.00     0.010 C 
HETATM    6  C6  UNL     1      -1.726  52.352 -25.179  1.00  0.00     0.002 C 
HETATM    7  C7  UNL     1      -2.107  51.451 -23.997  1.00  0.00    -0.004 C 
HETATM    8  C8  UNL     1      -3.554  51.698 -23.552  1.00  0.00     0.010 C 
HETATM    9  C9  UNL     1      -3.918  50.797 -22.379  1.00  0.00     0.035 C 
HETATM   10  C10 UNL     1      -2.974  50.967 -21.213  1.00  0.00    -0.069 C 
HETATM   11  C11 UNL     1      -3.479  51.122 -19.976  1.00  0.00     0.030 C 
HETATM   12  C12 UNL     1      -2.619  51.134 -18.766  1.00  0.00     0.032 C 
HETATM   13  N1  UNL     1      -3.215  51.186 -17.607  1.00  0.00    -0.271 N 
ATOM     14  H1  UNL     1      -4.226  51.249 -17.487  1.00  0.00     0.194 HD
HETATM   15  C23 UNL     1      -1.124  50.999 -18.953  1.00  0.00     0.060 C 
HETATM   16  C24 UNL     1      -0.683  51.506 -20.321  1.00  0.00     0.020 C 
HETATM   17  C25 UNL     1      -1.473  50.894 -21.514  1.00  0.00    -0.016 C 
HETATM   18  C26 UNL     1      -1.091  49.406 -21.675  1.00  0.00     0.020 C 
HETATM   19  C27 UNL     1      -1.130  51.728 -22.812  1.00  0.00     0.002 C 
HETATM   20  C28 UNL     1       0.351  51.606 -23.261  1.00  0.00     0.007 C 
HETATM   21  C29 UNL     1       0.683  52.424 -24.523  1.00  0.00     0.014 C 
HETATM   22  C30 UNL     1      -0.285  52.117 -25.682  1.00  0.00     0.003 C 
HETATM   23  C31 UNL     1      -0.026  50.659 -26.166  1.00  0.00     0.020 C 
ENDROOT
BRANCH   3  24
HETATM   24  O1  UNL     1       0.768  52.728 -27.829  1.00  0.00    -0.377 OA
HETATM   25  H2  UNL     1       0.790  53.429 -28.503  1.00  0.00     0.211 HD
ENDBRANCH   3  24
BRANCH  13  26
HETATM   26  O2  UNL     1      -2.299  51.147 -16.544  1.00  0.00    -0.271 OA
BRANCH  26  27
HETATM   27  C13 UNL     1      -2.481  49.933 -15.819  1.00  0.00     0.303 C 
BRANCH  27  28
HETATM   28  C14 UNL     1      -1.318  49.706 -14.867  1.00  0.00     0.244 C 
HETATM   29  O3  UNL     1      -1.256  48.741 -14.113  1.00  0.00    -0.271 OA
HETATM   30  N2  UNL     1      -0.382  50.720 -14.880  1.00  0.00    -0.351 N 
HETATM   31  H16 UNL     1      -0.408  51.359 -15.670  1.00  0.00     0.163 HD
BRANCH  30  32
HETATM   32  C15 UNL     1       0.826  50.669 -14.074  1.00  0.00     0.113 C 
HETATM   33  C16 UNL     1       0.633  51.352 -12.716  1.00  0.00     0.037 C 
BRANCH  32  34
HETATM   34  C17 UNL     1       1.991  51.292 -14.829  1.00  0.00    -0.036 A 
HETATM   35  C18 UNL     1       1.783  52.177 -15.900  1.00  0.00     0.009 A 
HETATM   36  C19 UNL     1       2.865  52.756 -16.568  1.00  0.00     0.001 A 
HETATM   37  C20 UNL     1       4.169  52.462 -16.172  1.00  0.00     0.000 A 
HETATM   38  C21 UNL     1       4.391  51.579 -15.117  1.00  0.00     0.001 A 
HETATM   39  C22 UNL     1       3.310  50.994 -14.454  1.00  0.00     0.009 A 
ENDBRANCH  32  34
ENDBRANCH  30  32
ENDBRANCH  27  28
ENDBRANCH  26  27
ENDBRANCH  13  26
TORSDOF 6
ENDMDL
MODEL 6
REMARK minimizedAffinity -9.46470737
REMARK  6 active torsions:
REMARK  status: ('A' for Active; 'I' for Inactive)
REMARK    1  A    between atoms: C3_3  and  O1_4 
REMARK    2  A    between atoms: N1_14  and  O2_16 
REMARK    3  A    between atoms: O2_16  and  C13_17 
REMARK    4  A    between atoms: C13_17  and  C14_18 
REMARK       I    between atoms: C14_18  and  N2_20 
REMARK    5  A    between atoms: N2_20  and  C15_21 
REMARK    6  A    between atoms: C15_21  and  C17_23 
ROOT
HETATM    1  C1  UNL     1      -9.149  48.443 -19.940  1.00  0.00     0.015 C 
HETATM    2  C2  UNL     1      -8.805  47.864 -20.934  1.00  0.00    -0.078 C 
HETATM    3  C3  UNL     1      -8.377  47.163 -22.165  1.00  0.00     0.128 C 
HETATM    4  C4  UNL     1      -7.830  45.752 -21.816  1.00  0.00     0.052 C 
HETATM    5  C5  UNL     1      -6.290  45.861 -21.822  1.00  0.00     0.010 C 
HETATM    6  C6  UNL     1      -6.007  47.352 -22.000  1.00  0.00     0.002 C 
HETATM    7  C7  UNL     1      -4.630  47.785 -22.521  1.00  0.00    -0.004 C 
HETATM    8  C8  UNL     1      -3.504  47.256 -21.624  1.00  0.00     0.010 C 
HETATM    9  C9  UNL     1      -2.144  47.693 -22.152  1.00  0.00     0.035 C 
HETATM   10  C10 UNL     1      -2.041  49.193 -22.294  1.00  0.00    -0.069 C 
HETATM   11  C11 UNL     1      -0.957  49.825 -21.810  1.00  0.00     0.030 C 
HETATM   12  C12 UNL     1      -0.710  51.269 -22.052  1.00  0.00     0.032 C 
HETATM   13  N1  UNL     1       0.420  51.764 -21.627  1.00  0.00    -0.271 N 
ATOM     14  H1  UNL     1       1.123  51.227 -21.119  1.00  0.00     0.194 HD
HETATM   15  C23 UNL     1      -1.740  52.046 -22.842  1.00  0.00     0.060 C 
HETATM   16  C24 UNL     1      -3.126  51.424 -22.720  1.00  0.00     0.020 C 
HETATM   17  C25 UNL     1      -3.173  49.902 -23.043  1.00  0.00    -0.016 C 
HETATM   18  C26 UNL     1      -2.949  49.691 -24.558  1.00  0.00     0.020 C 
HETATM   19  C27 UNL     1      -4.577  49.344 -22.578  1.00  0.00     0.002 C 
HETATM   20  C28 UNL     1      -5.777  49.920 -23.379  1.00  0.00     0.007 C 
HETATM   21  C29 UNL     1      -7.142  49.378 -22.920  1.00  0.00     0.014 C 
HETATM   22  C30 UNL     1      -7.173  47.837 -22.890  1.00  0.00     0.003 C 
HETATM   23  C31 UNL     1      -7.095  47.315 -24.356  1.00  0.00     0.020 C 
ENDROOT
BRANCH   3  24
HETATM   24  O1  UNL     1      -9.508  47.047 -23.020  1.00  0.00    -0.377 OA
HETATM   25  H2  UNL     1     -10.240  46.719 -22.471  1.00  0.00     0.211 HD
ENDBRANCH   3  24
BRANCH  13  26
HETATM   26  O2  UNL     1       0.554  53.123 -21.954  1.00  0.00    -0.271 OA
BRANCH  26  27
HETATM   27  C13 UNL     1       1.417  53.746 -21.007  1.00  0.00     0.303 C 
BRANCH  27  28
HETATM   28  C14 UNL     1       0.850  53.606 -19.603  1.00  0.00     0.244 C 
HETATM   29  O3  UNL     1      -0.220  54.104 -19.268  1.00  0.00    -0.271 OA
HETATM   30  N2  UNL     1       1.682  52.934 -18.731  1.00  0.00    -0.351 N 
HETATM   31  H16 UNL     1       2.434  52.388 -19.142  1.00  0.00     0.163 HD
BRANCH  30  32
HETATM   32  C15 UNL     1       1.302  52.659 -17.356  1.00  0.00     0.113 C 
HETATM   33  C16 UNL     1       2.502  52.735 -16.407  1.00  0.00     0.037 C 
BRANCH  32  34
HETATM   34  C17 UNL     1       0.623  51.301 -17.258  1.00  0.00    -0.036 A 
HETATM   35  C18 UNL     1       0.743  50.501 -16.110  1.00  0.00     0.009 A 
HETATM   36  C19 UNL     1       0.095  49.266 -16.029  1.00  0.00     0.001 A 
HETATM   37  C20 UNL     1      -0.686  48.816 -17.092  1.00  0.00     0.000 A 
HETATM   38  C21 UNL     1      -0.809  49.595 -18.241  1.00  0.00     0.001 A 
HETATM   39  C22 UNL     1      -0.155  50.826 -18.326  1.00  0.00     0.009 A 
ENDBRANCH  32  34
ENDBRANCH  30  32
ENDBRANCH  27  28
ENDBRANCH  26  27
ENDBRANCH  13  26
TORSDOF 6
ENDMDL
MODEL 7
REMARK minimizedAffinity -9.4458046
REMARK  6 active torsions:
REMARK  status: ('A' for Active; 'I' for Inactive)
REMARK    1  A    between atoms: C3_3  and  O1_4 
REMARK    2  A    between atoms: N1_14  and  O2_16 
REMARK    3  A    between atoms: O2_16  and  C13_17 
REMARK    4  A    between atoms: C13_17  and  C14_18 
REMARK       I    between atoms: C14_18  and  N2_20 
REMARK    5  A    between atoms: N2_20  and  C15_21 
REMARK    6  A    between atoms: C15_21  and  C17_23 
ROOT
HETATM    1  C1  UNL     1       1.767  50.760 -26.256  1.00  0.00     0.015 C 
HETATM    2  C2  UNL     1       0.856  51.495 -25.990  1.00  0.00    -0.078 C 
HETATM    3  C3  UNL     1      -0.274  52.391 -25.657  1.00  0.00     0.128 C 
HETATM    4  C4  UNL     1       0.235  53.845 -25.463  1.00  0.00     0.052 C 
HETATM    5  C5  UNL     1       0.345  54.076 -23.941  1.00  0.00     0.010 C 
HETATM    6  C6  UNL     1       0.067  52.709 -23.319  1.00  0.00     0.002 C 
HETATM    7  C7  UNL     1      -0.373  52.641 -21.851  1.00  0.00    -0.004 C 
HETATM    8  C8  UNL     1       0.653  53.311 -20.930  1.00  0.00     0.010 C 
HETATM    9  C9  UNL     1       0.204  53.235 -19.476  1.00  0.00     0.035 C 
HETATM   10  C10 UNL     1      -0.052  51.816 -19.031  1.00  0.00    -0.069 C 
HETATM   11  C11 UNL     1       0.464  51.391 -17.864  1.00  0.00     0.030 C 
HETATM   12  C12 UNL     1       0.125  50.067 -17.284  1.00  0.00     0.032 C 
HETATM   13  N1  UNL     1       0.597  49.791 -16.100  1.00  0.00    -0.271 N 
ATOM     14  H1  UNL     1       1.204  50.415 -15.568  1.00  0.00     0.194 HD
HETATM   15  C23 UNL     1      -0.809  49.166 -18.062  1.00  0.00     0.060 C 
HETATM   16  C24 UNL     1      -0.749  49.455 -19.558  1.00  0.00     0.020 C 
HETATM   17  C25 UNL     1      -0.948  50.954 -19.926  1.00  0.00    -0.016 C 
HETATM   18  C26 UNL     1      -2.417  51.358 -19.663  1.00  0.00     0.020 C 
HETATM   19  C27 UNL     1      -0.555  51.144 -21.445  1.00  0.00     0.002 C 
HETATM   20  C28 UNL     1      -1.496  50.402 -22.434  1.00  0.00     0.007 C 
HETATM   21  C29 UNL     1      -1.107  50.585 -23.912  1.00  0.00     0.014 C 
HETATM   22  C30 UNL     1      -0.952  52.071 -24.289  1.00  0.00     0.003 C 
HETATM   23  C31 UNL     1      -2.358  52.740 -24.242  1.00  0.00     0.020 C 
ENDROOT
BRANCH   3  24
HETATM   24  O1  UNL     1      -1.206  52.341 -26.730  1.00  0.00    -0.377 OA
HETATM   25  H2  UNL     1      -0.694  52.446 -27.549  1.00  0.00     0.211 HD
ENDBRANCH   3  24
BRANCH  13  26
HETATM   26  O2  UNL     1       0.171  48.533 -15.644  1.00  0.00    -0.271 OA
BRANCH  26  27
HETATM   27  C13 UNL     1       1.230  47.920 -14.914  1.00  0.00     0.303 C 
BRANCH  27  28
HETATM   28  C14 UNL     1       0.883  46.476 -14.591  1.00  0.00     0.244 C 
HETATM   29  O3  UNL     1      -0.140  46.158 -13.994  1.00  0.00    -0.271 OA
HETATM   30  N2  UNL     1       1.856  45.572 -14.967  1.00  0.00    -0.351 N 
HETATM   31  H16 UNL     1       2.555  45.898 -15.629  1.00  0.00     0.163 HD
BRANCH  30  32
HETATM   32  C15 UNL     1       1.693  44.140 -14.785  1.00  0.00     0.113 C 
HETATM   33  C16 UNL     1       0.484  43.812 -13.903  1.00  0.00     0.037 C 
BRANCH  32  34
HETATM   34  C17 UNL     1       2.963  43.534 -14.206  1.00  0.00    -0.036 A 
HETATM   35  C18 UNL     1       3.641  44.136 -13.133  1.00  0.00     0.009 A 
HETATM   36  C19 UNL     1       4.794  43.554 -12.601  1.00  0.00     0.001 A 
HETATM   37  C20 UNL     1       5.282  42.360 -13.129  1.00  0.00     0.000 A 
HETATM   38  C21 UNL     1       4.625  41.754 -14.198  1.00  0.00     0.001 A 
HETATM   39  C22 UNL     1       3.477  42.340 -14.737  1.00  0.00     0.009 A 
ENDBRANCH  32  34
ENDBRANCH  30  32
ENDBRANCH  27  28
ENDBRANCH  26  27
ENDBRANCH  13  26
TORSDOF 6
ENDMDL
MODEL 8
REMARK minimizedAffinity -9.19256496
REMARK  6 active torsions:
REMARK  status: ('A' for Active; 'I' for Inactive)
REMARK    1  A    between atoms: C3_3  and  O1_4 
REMARK    2  A    between atoms: N1_14  and  O2_16 
REMARK    3  A    between atoms: O2_16  and  C13_17 
REMARK    4  A    between atoms: C13_17  and  C14_18 
REMARK       I    between atoms: C14_18  and  N2_20 
REMARK    5  A    between atoms: N2_20  and  C15_21 
REMARK    6  A    between atoms: C15_21  and  C17_23 
ROOT
HETATM    1  C1  UNL     1      -0.084  51.868 -23.937  1.00  0.00     0.015 C 
HETATM    2  C2  UNL     1      -0.377  51.730 -22.780  1.00  0.00    -0.078 C 
HETATM    3  C3  UNL     1      -0.749  51.566 -21.358  1.00  0.00     0.128 C 
HETATM    4  C4  UNL     1      -0.004  50.349 -20.745  1.00  0.00     0.052 C 
HETATM    5  C5  UNL     1      -1.008  49.177 -20.730  1.00  0.00     0.010 C 
HETATM    6  C6  UNL     1      -2.229  49.701 -21.484  1.00  0.00     0.002 C 
HETATM    7  C7  UNL     1      -3.583  49.013 -21.268  1.00  0.00    -0.004 C 
HETATM    8  C8  UNL     1      -3.506  47.517 -21.597  1.00  0.00     0.010 C 
HETATM    9  C9  UNL     1      -4.857  46.847 -21.379  1.00  0.00     0.035 C 
HETATM   10  C10 UNL     1      -5.957  47.504 -22.177  1.00  0.00    -0.069 C 
HETATM   11  C11 UNL     1      -6.799  46.736 -22.891  1.00  0.00     0.030 C 
HETATM   12  C12 UNL     1      -7.996  47.294 -23.569  1.00  0.00     0.032 C 
HETATM   13  N1  UNL     1      -8.805  46.450 -24.150  1.00  0.00    -0.271 N 
ATOM     14  H1  UNL     1      -8.647  45.443 -24.189  1.00  0.00     0.194 HD
HETATM   15  C23 UNL     1      -8.243  48.783 -23.469  1.00  0.00     0.060 C 
HETATM   16  C24 UNL     1      -6.945  49.553 -23.256  1.00  0.00     0.020 C 
HETATM   17  C25 UNL     1      -6.079  49.028 -22.074  1.00  0.00    -0.016 C 
HETATM   18  C26 UNL     1      -6.778  49.362 -20.737  1.00  0.00     0.020 C 
HETATM   19  C27 UNL     1      -4.653  49.703 -22.171  1.00  0.00     0.002 C 
HETATM   20  C28 UNL     1      -4.671  51.241 -21.949  1.00  0.00     0.007 C 
HETATM   21  C29 UNL     1      -3.282  51.895 -22.050  1.00  0.00     0.014 C 
HETATM   22  C30 UNL     1      -2.251  51.206 -21.135  1.00  0.00     0.003 C 
HETATM   23  C31 UNL     1      -2.636  51.495 -19.654  1.00  0.00     0.020 C 
ENDROOT
BRANCH   3  24
HETATM   24  O1  UNL     1      -0.386  52.755 -20.668  1.00  0.00    -0.377 OA
HETATM   25  H2  UNL     1       0.523  52.968 -20.938  1.00  0.00     0.211 HD
ENDBRANCH   3  24
BRANCH  13  26
HETATM   26  O2  UNL     1      -9.918  47.093 -24.713  1.00  0.00    -0.271 OA
BRANCH  26  27
HETATM   27  C13 UNL     1     -10.236  46.468 -25.954  1.00  0.00     0.303 C 
BRANCH  27  28
HETATM   28  C14 UNL     1      -9.503  47.154 -27.095  1.00  0.00     0.244 C 
HETATM   29  O3  UNL     1     -10.029  48.004 -27.806  1.00  0.00    -0.271 OA
HETATM   30  N2  UNL     1      -8.223  46.680 -27.299  1.00  0.00    -0.351 N 
HETATM   31  H16 UNL     1      -7.808  46.138 -26.546  1.00  0.00     0.163 HD
BRANCH  30  32
HETATM   32  C15 UNL     1      -7.344  47.237 -28.313  1.00  0.00     0.113 C 
HETATM   33  C16 UNL     1      -7.033  46.222 -29.417  1.00  0.00     0.037 C 
BRANCH  32  34
HETATM   34  C17 UNL     1      -6.061  47.748 -27.675  1.00  0.00    -0.036 A 
HETATM   35  C18 UNL     1      -5.939  47.891 -26.283  1.00  0.00     0.009 A 
HETATM   36  C19 UNL     1      -4.745  48.342 -25.713  1.00  0.00     0.001 A 
HETATM   37  C20 UNL     1      -3.657  48.652 -26.526  1.00  0.00     0.000 A 
HETATM   38  C21 UNL     1      -3.765  48.523 -27.909  1.00  0.00     0.001 A 
HETATM   39  C22 UNL     1      -4.960  48.080 -28.480  1.00  0.00     0.009 A 
ENDBRANCH  32  34
ENDBRANCH  30  32
ENDBRANCH  27  28
ENDBRANCH  26  27
ENDBRANCH  13  26
TORSDOF 6
ENDMDL
MODEL 9
REMARK minimizedAffinity -9.17545795
REMARK  6 active torsions:
REMARK  status: ('A' for Active; 'I' for Inactive)
REMARK    1  A    between atoms: C3_3  and  O1_4 
REMARK    2  A    between atoms: N1_14  and  O2_16 
REMARK    3  A    between atoms: O2_16  and  C13_17 
REMARK    4  A    between atoms: C13_17  and  C14_18 
REMARK       I    between atoms: C14_18  and  N2_20 
REMARK    5  A    between atoms: N2_20  and  C15_21 
REMARK    6  A    between atoms: C15_21  and  C17_23 
ROOT
HETATM    1  C1  UNL     1       2.274  51.273 -26.358  1.00  0.00     0.015 C 
HETATM    2  C2  UNL     1       1.224  51.553 -26.869  1.00  0.00    -0.078 C 
HETATM    3  C3  UNL     1      -0.074  51.885 -27.497  1.00  0.00     0.128 C 
HETATM    4  C4  UNL     1      -0.377  53.400 -27.333  1.00  0.00     0.052 C 
HETATM    5  C5  UNL     1      -1.367  53.529 -26.156  1.00  0.00     0.010 C 
HETATM    6  C6  UNL     1      -1.466  52.119 -25.575  1.00  0.00     0.002 C 
HETATM    7  C7  UNL     1      -2.686  51.757 -24.718  1.00  0.00    -0.004 C 
HETATM    8  C8  UNL     1      -2.827  52.706 -23.522  1.00  0.00     0.010 C 
HETATM    9  C9  UNL     1      -4.041  52.334 -22.680  1.00  0.00     0.035 C 
HETATM   10  C10 UNL     1      -3.993  50.901 -22.209  1.00  0.00    -0.069 C 
HETATM   11  C11 UNL     1      -4.245  50.624 -20.917  1.00  0.00     0.030 C 
HETATM   12  C12 UNL     1      -4.374  49.233 -20.416  1.00  0.00     0.032 C 
HETATM   13  N1  UNL     1      -4.720  49.074 -19.168  1.00  0.00    -0.271 N 
ATOM     14  H1  UNL     1      -4.877  49.844 -18.517  1.00  0.00     0.194 HD
HETATM   15  C23 UNL     1      -4.180  48.100 -21.400  1.00  0.00     0.060 C 
HETATM   16  C24 UNL     1      -3.279  48.512 -22.557  1.00  0.00     0.020 C 
HETATM   17  C25 UNL     1      -3.712  49.828 -23.267  1.00  0.00    -0.016 C 
HETATM   18  C26 UNL     1      -5.018  49.581 -24.056  1.00  0.00     0.020 C 
HETATM   19  C27 UNL     1      -2.534  50.286 -24.217  1.00  0.00     0.002 C 
HETATM   20  C28 UNL     1      -2.267  49.312 -25.397  1.00  0.00     0.007 C 
HETATM   21  C29 UNL     1      -1.116  49.759 -26.316  1.00  0.00     0.014 C 
HETATM   22  C30 UNL     1      -1.300  51.206 -26.811  1.00  0.00     0.003 C 
HETATM   23  C31 UNL     1      -2.519  51.245 -27.780  1.00  0.00     0.020 C 
ENDROOT
BRANCH   3  24
HETATM   24  O1  UNL     1       0.006  51.553 -28.877  1.00  0.00    -0.377 OA
HETATM   25  H2  UNL     1       0.843  51.923 -29.205  1.00  0.00     0.211 HD
ENDBRANCH   3  24
BRANCH  13  26
HETATM   26  O2  UNL     1      -4.852  47.719 -18.828  1.00  0.00    -0.271 OA
BRANCH  26  27
HETATM   27  C13 UNL     1      -4.210  47.489 -17.576  1.00  0.00     0.303 C 
BRANCH  27  28
HETATM   28  C14 UNL     1      -3.093  48.498 -17.362  1.00  0.00     0.244 C 
HETATM   29  O3  UNL     1      -3.275  49.585 -16.825  1.00  0.00    -0.271 OA
HETATM   30  N2  UNL     1      -1.881  48.106 -17.893  1.00  0.00    -0.351 N 
HETATM   31  H16 UNL     1      -1.778  47.122 -18.128  1.00  0.00     0.163 HD
BRANCH  30  32
HETATM   32  C15 UNL     1      -0.679  48.911 -17.754  1.00  0.00     0.113 C 
HETATM   33  C16 UNL     1      -0.565  49.528 -16.357  1.00  0.00     0.037 C 
BRANCH  32  34
HETATM   34  C17 UNL     1      -0.641  49.991 -18.825  1.00  0.00    -0.036 A 
HETATM   35  C18 UNL     1      -0.681  51.356 -18.493  1.00  0.00     0.009 A 
HETATM   36  C19 UNL     1      -0.624  52.335 -19.488  1.00  0.00     0.001 A 
HETATM   37  C20 UNL     1      -0.521  51.964 -20.828  1.00  0.00     0.000 A 
HETATM   38  C21 UNL     1      -0.488  50.614 -21.173  1.00  0.00     0.001 A 
HETATM   39  C22 UNL     1      -0.553  49.635 -20.180  1.00  0.00     0.009 A 
ENDBRANCH  32  34
ENDBRANCH  30  32
ENDBRANCH  27  28
ENDBRANCH  26  27
ENDBRANCH  13  26
TORSDOF 6
ENDMDL
