MODEL 1
REMARK minimizedAffinity -8.82084084
REMARK CNNscore 0.832717717
REMARK CNNaffinity 6.7961936
REMARK  4 active torsions:
REMARK  status: ('A' for Active; 'I' for Inactive)
REMARK    1  A    between atoms: C4_4  and  O1_5 
REMARK    2  A    between atoms: C5_6  and  O2_7 
REMARK    3  A    between atoms: C8_11  and  C9_12 
REMARK    4  A    between atoms: C22_26  and  C23_27 
ROOT
HETATM    1  C1  UNL     1      -5.151  42.067 -15.039  1.00  0.00     0.040 C 
HETATM    2  C2  UNL     1      -5.445  41.853 -16.517  1.00  0.00     0.123 C 
HETATM    3  C3  UNL     1      -4.192  41.401 -17.262  1.00  0.00     0.069 C 
HETATM    4  C4  UNL     1      -4.515  41.235 -18.740  1.00  0.00     0.188 C 
HETATM    5  C5  UNL     1      -5.119  42.520 -19.344  1.00  0.00     0.240 C 
HETATM    6  O3  UNL     1      -4.065  43.504 -19.431  1.00  0.00    -0.341 OA
HETATM    7  C6  UNL     1      -4.597  44.771 -19.867  1.00  0.00     0.156 C 
HETATM    8  C7  UNL     1      -3.445  45.779 -19.930  1.00  0.00     0.056 C 
HETATM    9  C8  UNL     1      -3.882  47.227 -20.281  1.00  0.00     0.043 C 
HETATM   10  C10 UNL     1      -5.116  47.629 -19.466  1.00  0.00    -0.065 C 
HETATM   11  C11 UNL     1      -5.230  48.822 -18.851  1.00  0.00    -0.022 C 
HETATM   12  C12 UNL     1      -4.193  49.904 -18.886  1.00  0.00     0.035 C 
HETATM   13  C13 UNL     1      -3.147  49.690 -19.980  1.00  0.00     0.030 C 
HETATM   14  C14 UNL     1      -2.675  48.204 -20.031  1.00  0.00     0.012 C 
HETATM   15  C15 UNL     1      -1.473  47.977 -21.010  1.00  0.00     0.007 C 
HETATM   16  C16 UNL     1      -0.335  49.026 -20.918  1.00  0.00     0.016 C 
HETATM   17  C17 UNL     1      -0.932  50.433 -20.994  1.00  0.00     0.023 C 
HETATM   18  C18 UNL     1      -1.420  50.732 -22.430  1.00  0.00     0.022 C 
HETATM   19  C19 UNL     1      -1.923  50.546 -19.772  1.00  0.00     0.077 C 
HETATM   20  C20 UNL     1      -1.168  50.496 -18.437  1.00  0.00     0.042 C 
HETATM   21  C21 UNL     1      -0.006  51.405 -18.818  1.00  0.00     0.047 C 
HETATM   22  C22 UNL     1      -0.470  51.751 -20.231  1.00  0.00     0.098 C 
HETATM   23  O7  UNL     1      -1.982  51.998 -20.093  1.00  0.00    -0.362 OA
HETATM   24  C27 UNL     1      -6.226  46.604 -19.362  1.00  0.00     0.069 C 
HETATM   25  C28 UNL     1      -5.688  45.251 -18.899  1.00  0.00     0.158 C 
HETATM   26  O8  UNL     1      -6.769  44.309 -18.849  1.00  0.00    -0.347 OA
HETATM   27  C29 UNL     1      -6.289  43.016 -18.429  1.00  0.00     0.325 C 
HETATM   28  O9  UNL     1      -5.913  43.093 -17.046  1.00  0.00    -0.351 OA
ENDROOT
BRANCH  22  29
HETATM   29  C23 UNL     1       0.294  52.766 -20.945  1.00  0.00    -0.015 A 
HETATM   30  C24 UNL     1       0.292  52.929 -22.264  1.00  0.00     0.090 A 
HETATM   31  C25 UNL     1       1.210  54.035 -22.533  1.00  0.00     0.283 A 
HETATM   32  O5  UNL     1       1.471  54.461 -23.641  1.00  0.00    -0.260 OA
HETATM   33  O6  UNL     1       1.721  54.496 -21.357  1.00  0.00    -0.314 OA
HETATM   34  C26 UNL     1       1.182  53.730 -20.277  1.00  0.00     0.216 A 
ENDBRANCH  22  29
BRANCH   9  35
HETATM   35  C9  UNL     1      -4.320  47.322 -21.750  1.00  0.00     0.245 C 
HETATM   36  O4  UNL     1      -4.216  48.329 -22.443  1.00  0.00    -0.306 OA
ENDBRANCH   9  35
BRANCH   5  37
HETATM   37  O2  UNL     1      -5.564  42.222 -20.668  1.00  0.00    -0.360 OA
HETATM   38  H9  UNL     1      -4.867  41.657 -21.051  1.00  0.00     0.213 HD
ENDBRANCH   5  37
BRANCH   4  39
HETATM   39  O1  UNL     1      -3.322  40.878 -19.457  1.00  0.00    -0.390 OA
HETATM   40  H8  UNL     1      -2.801  41.705 -19.527  1.00  0.00     0.210 HD
ENDBRANCH   4  39
TORSDOF 4
ENDMDL
MODEL 2
REMARK minimizedAffinity -7.46973276
REMARK CNNscore 0.689523339
REMARK CNNaffinity 6.30576754
REMARK  4 active torsions:
REMARK  status: ('A' for Active; 'I' for Inactive)
REMARK    1  A    between atoms: C4_4  and  O1_5 
REMARK    2  A    between atoms: C5_6  and  O2_7 
REMARK    3  A    between atoms: C8_11  and  C9_12 
REMARK    4  A    between atoms: C22_26  and  C23_27 
ROOT
HETATM    1  C1  UNL     1      -5.234  49.935  -9.598  1.00  0.00     0.040 C 
HETATM    2  C2  UNL     1      -4.639  50.492 -10.884  1.00  0.00     0.123 C 
HETATM    3  C3  UNL     1      -3.520  49.591 -11.399  1.00  0.00     0.069 C 
HETATM    4  C4  UNL     1      -2.924  50.198 -12.661  1.00  0.00     0.188 C 
HETATM    5  C5  UNL     1      -2.445  51.647 -12.432  1.00  0.00     0.240 C 
HETATM    6  O3  UNL     1      -1.264  51.595 -11.602  1.00  0.00    -0.341 OA
HETATM    7  C6  UNL     1      -0.845  52.928 -11.244  1.00  0.00     0.156 C 
HETATM    8  C7  UNL     1       0.399  52.816 -10.357  1.00  0.00     0.056 C 
HETATM    9  C8  UNL     1       0.907  54.172  -9.797  1.00  0.00     0.043 C 
HETATM   10  C10 UNL     1      -0.261  55.004  -9.258  1.00  0.00    -0.065 C 
HETATM   11  C11 UNL     1      -0.215  55.650  -8.077  1.00  0.00    -0.022 C 
HETATM   12  C12 UNL     1       0.963  55.657  -7.151  1.00  0.00     0.035 C 
HETATM   13  C13 UNL     1       2.248  55.170  -7.821  1.00  0.00     0.030 C 
HETATM   14  C14 UNL     1       1.989  53.899  -8.689  1.00  0.00     0.012 C 
HETATM   15  C15 UNL     1       3.306  53.259  -9.244  1.00  0.00     0.007 C 
HETATM   16  C16 UNL     1       4.464  53.131  -8.221  1.00  0.00     0.016 C 
HETATM   17  C17 UNL     1       4.682  54.479  -7.528  1.00  0.00     0.023 C 
HETATM   18  C18 UNL     1       5.330  55.486  -8.504  1.00  0.00     0.022 C 
HETATM   19  C19 UNL     1       3.316  54.819  -6.815  1.00  0.00     0.077 C 
HETATM   20  C20 UNL     1       3.013  53.825  -5.687  1.00  0.00     0.042 C 
HETATM   21  C21 UNL     1       4.414  53.750  -5.092  1.00  0.00     0.047 C 
HETATM   22  C22 UNL     1       5.086  54.763  -6.015  1.00  0.00     0.098 C 
HETATM   23  O7  UNL     1       4.068  55.911  -6.137  1.00  0.00    -0.362 OA
HETATM   24  C27 UNL     1      -1.509  55.061 -10.115  1.00  0.00     0.069 C 
HETATM   25  C28 UNL     1      -1.975  53.660 -10.507  1.00  0.00     0.158 C 
HETATM   26  O8  UNL     1      -3.136  53.770 -11.344  1.00  0.00    -0.347 OA
HETATM   27  C29 UNL     1      -3.592  52.463 -11.743  1.00  0.00     0.325 C 
HETATM   28  O9  UNL     1      -4.131  51.793 -10.594  1.00  0.00    -0.351 OA
ENDROOT
BRANCH  22  29
HETATM   29  C23 UNL     1       6.457  55.140  -5.695  1.00  0.00    -0.015 A 
HETATM   30  C24 UNL     1       7.394  54.301  -5.268  1.00  0.00     0.090 A 
HETATM   31  C25 UNL     1       8.591  55.112  -5.052  1.00  0.00     0.283 A 
HETATM   32  O5  UNL     1       9.653  54.681  -4.647  1.00  0.00    -0.260 OA
HETATM   33  O6  UNL     1       8.322  56.410  -5.368  1.00  0.00    -0.314 OA
HETATM   34  C26 UNL     1       6.961  56.519  -5.793  1.00  0.00     0.216 A 
ENDBRANCH  22  29
BRANCH   9  35
HETATM   35  C9  UNL     1       1.527  55.024 -10.915  1.00  0.00     0.245 C 
HETATM   36  O4  UNL     1       2.409  55.860 -10.745  1.00  0.00    -0.306 OA
ENDBRANCH   9  35
BRANCH   5  37
HETATM   37  O2  UNL     1      -2.081  52.201 -13.698  1.00  0.00    -0.360 OA
HETATM   38  H9  UNL     1      -1.607  51.486 -14.161  1.00  0.00     0.213 HD
ENDBRANCH   5  37
BRANCH   4  39
HETATM   39  O1  UNL     1      -1.823  49.392 -13.112  1.00  0.00    -0.390 OA
HETATM   40  H8  UNL     1      -1.082  49.596 -12.505  1.00  0.00     0.210 HD
ENDBRANCH   4  39
TORSDOF 4
ENDMDL
MODEL 3
REMARK minimizedAffinity -7.32302475
REMARK CNNscore 0.653762996
REMARK CNNaffinity 6.2165947
REMARK  4 active torsions:
REMARK  status: ('A' for Active; 'I' for Inactive)
REMARK    1  A    between atoms: C4_4  and  O1_5 
REMARK    2  A    between atoms: C5_6  and  O2_7 
REMARK    3  A    between atoms: C8_11  and  C9_12 
REMARK    4  A    between atoms: C22_26  and  C23_27 
ROOT
HETATM    1  C1  UNL     1       3.629  52.825 -16.452  1.00  0.00     0.040 C 
HETATM    2  C2  UNL     1       2.794  51.784 -15.720  1.00  0.00     0.123 C 
HETATM    3  C3  UNL     1       1.342  52.239 -15.598  1.00  0.00     0.069 C 
HETATM    4  C4  UNL     1       0.548  51.193 -14.829  1.00  0.00     0.188 C 
HETATM    5  C5  UNL     1       1.179  50.887 -13.454  1.00  0.00     0.240 C 
HETATM    6  O3  UNL     1       0.963  52.035 -12.605  1.00  0.00    -0.341 OA
HETATM    7  C6  UNL     1       1.645  51.862 -11.347  1.00  0.00     0.156 C 
HETATM    8  C7  UNL     1       1.394  53.108 -10.491  1.00  0.00     0.056 C 
HETATM    9  C8  UNL     1       2.160  53.119  -9.140  1.00  0.00     0.043 C 
HETATM   10  C10 UNL     1       3.618  52.695  -9.344  1.00  0.00    -0.065 C 
HETATM   11  C11 UNL     1       4.655  53.345  -8.781  1.00  0.00    -0.022 C 
HETATM   12  C12 UNL     1       4.530  54.541  -7.886  1.00  0.00     0.035 C 
HETATM   13  C13 UNL     1       3.107  54.747  -7.364  1.00  0.00     0.030 C 
HETATM   14  C14 UNL     1       2.053  54.551  -8.499  1.00  0.00     0.012 C 
HETATM   15  C15 UNL     1       0.600  54.931  -8.056  1.00  0.00     0.007 C 
HETATM   16  C16 UNL     1       0.474  56.258  -7.263  1.00  0.00     0.016 C 
HETATM   17  C17 UNL     1       1.487  56.264  -6.115  1.00  0.00     0.023 C 
HETATM   18  C18 UNL     1       1.050  55.278  -5.008  1.00  0.00     0.022 C 
HETATM   19  C19 UNL     1       2.904  56.128  -6.794  1.00  0.00     0.077 C 
HETATM   20  C20 UNL     1       3.239  57.365  -7.638  1.00  0.00     0.042 C 
HETATM   21  C21 UNL     1       2.737  58.425  -6.664  1.00  0.00     0.047 C 
HETATM   22  C22 UNL     1       2.322  57.487  -5.534  1.00  0.00     0.098 C 
HETATM   23  O7  UNL     1       3.458  56.453  -5.450  1.00  0.00    -0.362 OA
HETATM   24  C27 UNL     1       3.860  51.497 -10.239  1.00  0.00     0.069 C 
HETATM   25  C28 UNL     1       3.148  51.656 -11.581  1.00  0.00     0.158 C 
HETATM   26  O8  UNL     1       3.379  50.484 -12.376  1.00  0.00    -0.347 OA
HETATM   27  C29 UNL     1       2.707  50.598 -13.645  1.00  0.00     0.325 C 
HETATM   28  O9  UNL     1       3.366  51.606 -14.425  1.00  0.00    -0.351 OA
ENDROOT
BRANCH  22  29
HETATM   29  C23 UNL     1       1.912  58.107  -4.280  1.00  0.00    -0.015 A 
HETATM   30  C24 UNL     1       0.678  58.082  -3.789  1.00  0.00     0.090 A 
HETATM   31  C25 UNL     1       0.727  58.843  -2.542  1.00  0.00     0.283 A 
HETATM   32  O5  UNL     1      -0.229  59.044  -1.817  1.00  0.00    -0.260 OA
HETATM   33  O6  UNL     1       1.998  59.288  -2.332  1.00  0.00    -0.314 OA
HETATM   34  C26 UNL     1       2.832  58.857  -3.410  1.00  0.00     0.216 A 
ENDBRANCH  22  29
BRANCH   9  35
HETATM   35  C9  UNL     1       1.570  52.081  -8.172  1.00  0.00     0.245 C 
HETATM   36  O4  UNL     1       0.468  51.559  -8.301  1.00  0.00    -0.306 OA
ENDBRANCH   9  35
BRANCH   5  37
HETATM   37  O2  UNL     1       0.490  49.772 -12.887  1.00  0.00    -0.360 OA
HETATM   38  H9  UNL     1      -0.452  49.926 -13.086  1.00  0.00     0.213 HD
ENDBRANCH   5  37
BRANCH   4  39
HETATM   39  O1  UNL     1      -0.803  51.648 -14.650  1.00  0.00    -0.390 OA
HETATM   40  H8  UNL     1      -0.760  52.326 -13.944  1.00  0.00     0.210 HD
ENDBRANCH   4  39
TORSDOF 4
ENDMDL
MODEL 4
REMARK minimizedAffinity -7.01476145
REMARK CNNscore 0.62395817
REMARK CNNaffinity 6.40580893
REMARK  4 active torsions:
REMARK  status: ('A' for Active; 'I' for Inactive)
REMARK    1  A    between atoms: C4_4  and  O1_5 
REMARK    2  A    between atoms: C5_6  and  O2_7 
REMARK    3  A    between atoms: C8_11  and  C9_12 
REMARK    4  A    between atoms: C22_26  and  C23_27 
ROOT
HETATM    1  C1  UNL     1      -1.977  47.195 -13.034  1.00  0.00     0.040 C 
HETATM    2  C2  UNL     1      -2.567  48.504 -13.540  1.00  0.00     0.123 C 
HETATM    3  C3  UNL     1      -1.604  49.203 -14.495  1.00  0.00     0.069 C 
HETATM    4  C4  UNL     1      -2.210  50.523 -14.948  1.00  0.00     0.188 C 
HETATM    5  C5  UNL     1      -2.595  51.419 -13.752  1.00  0.00     0.240 C 
HETATM    6  O3  UNL     1      -1.374  51.902 -13.151  1.00  0.00    -0.341 OA
HETATM    7  C6  UNL     1      -1.666  52.641 -11.948  1.00  0.00     0.156 C 
HETATM    8  C7  UNL     1      -0.341  53.118 -11.346  1.00  0.00     0.056 C 
HETATM    9  C8  UNL     1      -0.485  53.839  -9.978  1.00  0.00     0.043 C 
HETATM   10  C10 UNL     1      -1.429  53.061  -9.056  1.00  0.00    -0.065 C 
HETATM   11  C11 UNL     1      -1.154  52.822  -7.760  1.00  0.00    -0.022 C 
HETATM   12  C12 UNL     1       0.083  53.284  -7.049  1.00  0.00     0.035 C 
HETATM   13  C13 UNL     1       0.842  54.365  -7.819  1.00  0.00     0.030 C 
HETATM   14  C14 UNL     1       0.941  54.017  -9.337  1.00  0.00     0.012 C 
HETATM   15  C15 UNL     1       1.866  55.000 -10.131  1.00  0.00     0.007 C 
HETATM   16  C16 UNL     1       3.214  55.341  -9.446  1.00  0.00     0.016 C 
HETATM   17  C17 UNL     1       2.956  55.773  -8.001  1.00  0.00     0.023 C 
HETATM   18  C18 UNL     1       2.307  57.175  -7.967  1.00  0.00     0.022 C 
HETATM   19  C19 UNL     1       2.249  54.546  -7.306  1.00  0.00     0.077 C 
HETATM   20  C20 UNL     1       3.193  53.341  -7.208  1.00  0.00     0.042 C 
HETATM   21  C21 UNL     1       4.449  54.093  -6.783  1.00  0.00     0.047 C 
HETATM   22  C22 UNL     1       3.838  55.490  -6.707  1.00  0.00     0.098 C 
HETATM   23  O7  UNL     1       2.473  55.280  -6.029  1.00  0.00    -0.362 OA
HETATM   24  C27 UNL     1      -2.711  52.543  -9.675  1.00  0.00     0.069 C 
HETATM   25  C28 UNL     1      -2.429  51.755 -10.953  1.00  0.00     0.158 C 
HETATM   26  O8  UNL     1      -3.673  51.316 -11.517  1.00  0.00    -0.347 OA
HETATM   27  C29 UNL     1      -3.440  50.580 -12.734  1.00  0.00     0.325 C 
HETATM   28  O9  UNL     1      -2.820  49.329 -12.403  1.00  0.00    -0.351 OA
ENDROOT
BRANCH  22  29
HETATM   29  C23 UNL     1       4.679  56.548  -6.162  1.00  0.00    -0.015 A 
HETATM   30  C24 UNL     1       4.417  57.230  -5.053  1.00  0.00     0.090 A 
HETATM   31  C25 UNL     1       5.506  58.195  -4.909  1.00  0.00     0.283 A 
HETATM   32  O5  UNL     1       5.596  59.004  -4.005  1.00  0.00    -0.260 OA
HETATM   33  O6  UNL     1       6.384  58.045  -5.939  1.00  0.00    -0.314 OA
HETATM   34  C26 UNL     1       5.925  57.000  -6.800  1.00  0.00     0.216 A 
ENDBRANCH  22  29
BRANCH   9  35
HETATM   35  C9  UNL     1      -1.139  55.218 -10.156  1.00  0.00     0.245 C 
HETATM   36  O4  UNL     1      -1.219  56.068  -9.275  1.00  0.00    -0.306 OA
ENDBRANCH   9  35
BRANCH   5  37
HETATM   37  O2  UNL     1      -3.323  52.541 -14.255  1.00  0.00    -0.360 OA
HETATM   38  H9  UNL     1      -2.854  52.806 -15.067  1.00  0.00     0.213 HD
ENDBRANCH   5  37
BRANCH   4  39
HETATM   39  O1  UNL     1      -1.277  51.218 -15.792  1.00  0.00    -0.390 OA
HETATM   40  H8  UNL     1      -0.599  51.584 -15.187  1.00  0.00     0.210 HD
ENDBRANCH   4  39
TORSDOF 4
ENDMDL
MODEL 5
REMARK minimizedAffinity -7.03686762
REMARK CNNscore 0.58503294
REMARK CNNaffinity 6.42998266
REMARK  4 active torsions:
REMARK  status: ('A' for Active; 'I' for Inactive)
REMARK    1  A    between atoms: C4_4  and  O1_5 
REMARK    2  A    between atoms: C5_6  and  O2_7 
REMARK    3  A    between atoms: C8_11  and  C9_12 
REMARK    4  A    between atoms: C22_26  and  C23_27 
ROOT
HETATM    1  C1  UNL     1      -9.073  49.448  -6.712  1.00  0.00     0.040 C 
HETATM    2  C2  UNL     1      -8.364  48.500  -7.670  1.00  0.00     0.123 C 
HETATM    3  C3  UNL     1      -7.291  47.694  -6.943  1.00  0.00     0.069 C 
HETATM    4  C4  UNL     1      -6.581  46.788  -7.938  1.00  0.00     0.188 C 
HETATM    5  C5  UNL     1      -6.005  47.581  -9.130  1.00  0.00     0.240 C 
HETATM    6  O3  UNL     1      -4.880  48.347  -8.647  1.00  0.00    -0.341 OA
HETATM    7  C6  UNL     1      -4.379  49.211  -9.687  1.00  0.00     0.156 C 
HETATM    8  C7  UNL     1      -3.199  50.008  -9.120  1.00  0.00     0.056 C 
HETATM    9  C8  UNL     1      -2.620  51.070 -10.095  1.00  0.00     0.043 C 
HETATM   10  C10 UNL     1      -3.748  51.869 -10.753  1.00  0.00    -0.065 C 
HETATM   11  C11 UNL     1      -3.719  53.209 -10.879  1.00  0.00    -0.022 C 
HETATM   12  C12 UNL     1      -2.597  54.088 -10.412  1.00  0.00     0.035 C 
HETATM   13  C13 UNL     1      -1.318  53.306 -10.108  1.00  0.00     0.030 C 
HETATM   14  C14 UNL     1      -1.626  52.002  -9.309  1.00  0.00     0.012 C 
HETATM   15  C15 UNL     1      -0.333  51.266  -8.818  1.00  0.00     0.007 C 
HETATM   16  C16 UNL     1       0.752  52.179  -8.193  1.00  0.00     0.016 C 
HETATM   17  C17 UNL     1       1.035  53.353  -9.133  1.00  0.00     0.023 C 
HETATM   18  C18 UNL     1       1.813  52.869 -10.378  1.00  0.00     0.022 C 
HETATM   19  C19 UNL     1      -0.339  54.113  -9.294  1.00  0.00     0.077 C 
HETATM   20  C20 UNL     1      -0.781  54.751  -7.970  1.00  0.00     0.042 C 
HETATM   21  C21 UNL     1       0.575  55.296  -7.537  1.00  0.00     0.047 C 
HETATM   22  C22 UNL     1       1.373  54.863  -8.764  1.00  0.00     0.098 C 
HETATM   23  O7  UNL     1       0.456  55.184  -9.956  1.00  0.00    -0.362 OA
HETATM   24  C27 UNL     1      -4.938  51.078 -11.258  1.00  0.00     0.069 C 
HETATM   25  C28 UNL     1      -5.488  50.154 -10.174  1.00  0.00     0.158 C 
HETATM   26  O8  UNL     1      -6.589  49.405 -10.710  1.00  0.00    -0.347 OA
HETATM   27  C29 UNL     1      -7.122  48.512  -9.713  1.00  0.00     0.325 C 
HETATM   28  O9  UNL     1      -7.774  49.291  -8.701  1.00  0.00    -0.351 OA
ENDROOT
BRANCH  22  29
HETATM   29  C23 UNL     1       2.749  55.335  -8.855  1.00  0.00    -0.015 A 
HETATM   30  C24 UNL     1       3.738  54.680  -9.454  1.00  0.00     0.090 A 
HETATM   31  C25 UNL     1       4.931  55.507  -9.278  1.00  0.00     0.283 A 
HETATM   32  O5  UNL     1       6.038  55.218  -9.690  1.00  0.00    -0.260 OA
HETATM   33  O6  UNL     1       4.604  56.633  -8.585  1.00  0.00    -0.314 OA
HETATM   34  C26 UNL     1       3.210  56.603  -8.269  1.00  0.00     0.216 A 
ENDBRANCH  22  29
BRANCH   9  35
HETATM   35  C9  UNL     1      -1.874  50.392 -11.255  1.00  0.00     0.245 C 
HETATM   36  O4  UNL     1      -1.815  50.837 -12.397  1.00  0.00    -0.306 OA
ENDBRANCH   9  35
BRANCH   5  37
HETATM   37  O2  UNL     1      -5.528  46.645 -10.098  1.00  0.00    -0.360 OA
HETATM   38  H9  UNL     1      -5.086  45.947  -9.581  1.00  0.00     0.213 HD
ENDBRANCH   5  37
BRANCH   4  39
HETATM   39  O1  UNL     1      -5.523  46.078  -7.273  1.00  0.00    -0.390 OA
HETATM   40  H8  UNL     1      -4.803  46.732  -7.153  1.00  0.00     0.210 HD
ENDBRANCH   4  39
TORSDOF 4
ENDMDL
MODEL 6
REMARK minimizedAffinity -8.87605762
REMARK CNNscore 0.584059477
REMARK CNNaffinity 6.4961853
REMARK  4 active torsions:
REMARK  status: ('A' for Active; 'I' for Inactive)
REMARK    1  A    between atoms: C4_4  and  O1_5 
REMARK    2  A    between atoms: C5_6  and  O2_7 
REMARK    3  A    between atoms: C8_11  and  C9_12 
REMARK    4  A    between atoms: C22_26  and  C23_27 
ROOT
HETATM    1  C1  UNL     1      -8.470  41.412 -21.745  1.00  0.00     0.040 C 
HETATM    2  C2  UNL     1      -9.150  42.412 -22.671  1.00  0.00     0.123 C 
HETATM    3  C3  UNL     1      -8.438  42.475 -24.019  1.00  0.00     0.069 C 
HETATM    4  C4  UNL     1      -9.120  43.510 -24.902  1.00  0.00     0.188 C 
HETATM    5  C5  UNL     1      -9.193  44.891 -24.218  1.00  0.00     0.240 C 
HETATM    6  O3  UNL     1      -7.857  45.438 -24.184  1.00  0.00    -0.341 OA
HETATM    7  C6  UNL     1      -7.839  46.672 -23.439  1.00  0.00     0.156 C 
HETATM    8  C7  UNL     1      -6.402  47.201 -23.423  1.00  0.00     0.056 C 
HETATM    9  C8  UNL     1      -6.201  48.476 -22.558  1.00  0.00     0.043 C 
HETATM   10  C10 UNL     1      -6.903  48.325 -21.205  1.00  0.00    -0.065 C 
HETATM   11  C11 UNL     1      -6.324  48.668 -20.039  1.00  0.00    -0.022 C 
HETATM   12  C12 UNL     1      -4.947  49.244 -19.904  1.00  0.00     0.035 C 
HETATM   13  C13 UNL     1      -4.383  49.754 -21.231  1.00  0.00     0.030 C 
HETATM   14  C14 UNL     1      -4.660  48.746 -22.390  1.00  0.00     0.012 C 
HETATM   15  C15 UNL     1      -3.943  49.139 -23.725  1.00  0.00     0.007 C 
HETATM   16  C16 UNL     1      -2.465  49.583 -23.579  1.00  0.00     0.016 C 
HETATM   17  C17 UNL     1      -2.359  50.652 -22.489  1.00  0.00     0.023 C 
HETATM   18  C18 UNL     1      -2.965  51.985 -22.984  1.00  0.00     0.022 C 
HETATM   19  C19 UNL     1      -2.893  49.972 -21.169  1.00  0.00     0.077 C 
HETATM   20  C20 UNL     1      -1.967  48.835 -20.715  1.00  0.00     0.042 C 
HETATM   21  C21 UNL     1      -0.637  49.535 -20.966  1.00  0.00     0.047 C 
HETATM   22  C22 UNL     1      -1.194  50.879 -21.430  1.00  0.00     0.098 C 
HETATM   23  O7  UNL     1      -2.357  51.170 -20.466  1.00  0.00    -0.362 OA
HETATM   24  C27 UNL     1      -8.303  47.747 -21.226  1.00  0.00     0.069 C 
HETATM   25  C28 UNL     1      -8.348  46.437 -22.010  1.00  0.00     0.158 C 
HETATM   26  O8  UNL     1      -9.697  45.948 -22.028  1.00  0.00    -0.347 OA
HETATM   27  C29 UNL     1      -9.775  44.718 -22.774  1.00  0.00     0.325 C 
HETATM   28  O9  UNL     1      -9.109  43.687 -22.031  1.00  0.00    -0.351 OA
ENDROOT
BRANCH  22  29
HETATM   29  C23 UNL     1      -0.234  51.955 -21.636  1.00  0.00    -0.015 A 
HETATM   30  C24 UNL     1       0.222  52.758 -20.681  1.00  0.00     0.090 A 
HETATM   31  C25 UNL     1       1.134  53.691 -21.342  1.00  0.00     0.283 A 
HETATM   32  O5  UNL     1       1.735  54.585 -20.778  1.00  0.00    -0.260 OA
HETATM   33  O6  UNL     1       1.193  53.401 -22.672  1.00  0.00    -0.314 OA
HETATM   34  C26 UNL     1       0.337  52.290 -22.950  1.00  0.00     0.216 A 
ENDBRANCH  22  29
BRANCH   9  35
HETATM   35  C9  UNL     1      -6.862  49.693 -23.223  1.00  0.00     0.245 C 
HETATM   36  O4  UNL     1      -6.432  50.841 -23.156  1.00  0.00    -0.306 OA
ENDBRANCH   9  35
BRANCH   5  37
HETATM   37  O2  UNL     1     -10.007  45.744 -25.024  1.00  0.00    -0.360 OA
HETATM   38  H9  UNL     1      -9.746  45.551 -25.944  1.00  0.00     0.213 HD
ENDBRANCH   5  37
BRANCH   4  39
HETATM   39  O1  UNL     1      -8.411  43.625 -26.147  1.00  0.00    -0.390 OA
HETATM   40  H8  UNL     1      -7.602  44.138 -25.942  1.00  0.00     0.210 HD
ENDBRANCH   4  39
TORSDOF 4
ENDMDL
MODEL 7
REMARK minimizedAffinity -6.76734829
REMARK CNNscore 0.532435119
REMARK CNNaffinity 5.89793539
REMARK  4 active torsions:
REMARK  status: ('A' for Active; 'I' for Inactive)
REMARK    1  A    between atoms: C4_4  and  O1_5 
REMARK    2  A    between atoms: C5_6  and  O2_7 
REMARK    3  A    between atoms: C8_11  and  C9_12 
REMARK    4  A    between atoms: C22_26  and  C23_27 
ROOT
HETATM    1  C1  UNL     1      -2.169  53.001  -9.063  1.00  0.00     0.040 C 
HETATM    2  C2  UNL     1      -1.082  52.730 -10.095  1.00  0.00     0.123 C 
HETATM    3  C3  UNL     1      -0.297  51.472  -9.739  1.00  0.00     0.069 C 
HETATM    4  C4  UNL     1       0.803  51.254 -10.768  1.00  0.00     0.188 C 
HETATM    5  C5  UNL     1       1.716  52.491 -10.904  1.00  0.00     0.240 C 
HETATM    6  O3  UNL     1       2.516  52.582  -9.704  1.00  0.00    -0.341 OA
HETATM    7  C6  UNL     1       3.297  53.794  -9.715  1.00  0.00     0.156 C 
HETATM    8  C7  UNL     1       4.114  53.847  -8.420  1.00  0.00     0.056 C 
HETATM    9  C8  UNL     1       4.929  55.156  -8.233  1.00  0.00     0.043 C 
HETATM   10  C10 UNL     1       4.067  56.379  -8.564  1.00  0.00    -0.065 C 
HETATM   11  C11 UNL     1       4.034  57.482  -7.793  1.00  0.00    -0.022 C 
HETATM   12  C12 UNL     1       4.828  57.670  -6.535  1.00  0.00     0.035 C 
HETATM   13  C13 UNL     1       5.960  56.652  -6.389  1.00  0.00     0.030 C 
HETATM   14  C14 UNL     1       5.481  55.214  -6.761  1.00  0.00     0.012 C 
HETATM   15  C15 UNL     1       6.552  54.114  -6.451  1.00  0.00     0.007 C 
HETATM   16  C16 UNL     1       7.250  54.238  -5.073  1.00  0.00     0.016 C 
HETATM   17  C17 UNL     1       7.769  55.666  -4.891  1.00  0.00     0.023 C 
HETATM   18  C18 UNL     1       8.990  55.915  -5.805  1.00  0.00     0.022 C 
HETATM   19  C19 UNL     1       6.498  56.597  -4.982  1.00  0.00     0.077 C 
HETATM   20  C20 UNL     1       5.546  56.357  -3.803  1.00  0.00     0.042 C 
HETATM   21  C21 UNL     1       6.595  56.267  -2.701  1.00  0.00     0.047 C 
HETATM   22  C22 UNL     1       7.824  56.541  -3.563  1.00  0.00     0.098 C 
HETATM   23  O7  UNL     1       7.395  57.684  -4.499  1.00  0.00    -0.362 OA
HETATM   24  C27 UNL     1       3.218  56.294  -9.816  1.00  0.00     0.069 C 
HETATM   25  C28 UNL     1       2.378  55.018  -9.829  1.00  0.00     0.158 C 
HETATM   26  O8  UNL     1       1.620  54.968 -11.047  1.00  0.00    -0.347 OA
HETATM   27  C29 UNL     1       0.827  53.766 -11.095  1.00  0.00     0.325 C 
HETATM   28  O9  UNL     1      -0.216  53.864 -10.115  1.00  0.00    -0.351 OA
ENDROOT
BRANCH  22  29
HETATM   29  C23 UNL     1       9.093  56.712  -2.867  1.00  0.00    -0.015 A 
HETATM   30  C24 UNL     1       9.760  57.857  -2.775  1.00  0.00     0.090 A 
HETATM   31  C25 UNL     1      10.974  57.555  -2.018  1.00  0.00     0.283 A 
HETATM   32  O5  UNL     1      11.837  58.367  -1.746  1.00  0.00    -0.260 OA
HETATM   33  O6  UNL     1      10.980  56.236  -1.679  1.00  0.00    -0.314 OA
HETATM   34  C26 UNL     1       9.799  55.613  -2.190  1.00  0.00     0.216 A 
ENDBRANCH  22  29
BRANCH   9  35
HETATM   35  C9  UNL     1       6.104  55.211  -9.221  1.00  0.00     0.245 C 
HETATM   36  O4  UNL     1       6.777  54.241  -9.554  1.00  0.00    -0.306 OA
ENDBRANCH   9  35
BRANCH   5  37
HETATM   37  O2  UNL     1       2.592  52.278 -12.012  1.00  0.00    -0.360 OA
HETATM   38  H9  UNL     1       2.864  51.343 -11.946  1.00  0.00     0.213 HD
ENDBRANCH   5  37
BRANCH   4  39
HETATM   39  O1  UNL     1       1.590  50.111 -10.399  1.00  0.00    -0.390 OA
HETATM   40  H8  UNL     1       2.159  50.410  -9.660  1.00  0.00     0.210 HD
ENDBRANCH   4  39
TORSDOF 4
ENDMDL
MODEL 8
REMARK minimizedAffinity -7.48181105
REMARK CNNscore 0.522458792
REMARK CNNaffinity 6.7374649
REMARK  4 active torsions:
REMARK  status: ('A' for Active; 'I' for Inactive)
REMARK    1  A    between atoms: C4_4  and  O1_5 
REMARK    2  A    between atoms: C5_6  and  O2_7 
REMARK    3  A    between atoms: C8_11  and  C9_12 
REMARK    4  A    between atoms: C22_26  and  C23_27 
ROOT
HETATM    1  C1  UNL     1      -0.077  50.651 -18.594  1.00  0.00     0.040 C 
HETATM    2  C2  UNL     1      -1.004  50.055 -17.543  1.00  0.00     0.123 C 
HETATM    3  C3  UNL     1      -2.113  51.037 -17.177  1.00  0.00     0.069 C 
HETATM    4  C4  UNL     1      -2.995  50.425 -16.099  1.00  0.00     0.188 C 
HETATM    5  C5  UNL     1      -2.176  49.987 -14.866  1.00  0.00     0.240 C 
HETATM    6  O3  UNL     1      -1.741  51.181 -14.180  1.00  0.00    -0.341 OA
HETATM    7  C6  UNL     1      -0.860  50.839 -13.091  1.00  0.00     0.156 C 
HETATM    8  C7  UNL     1      -0.419  52.137 -12.407  1.00  0.00     0.056 C 
HETATM    9  C8  UNL     1       0.627  51.939 -11.275  1.00  0.00     0.043 C 
HETATM   10  C10 UNL     1       1.732  50.978 -11.726  1.00  0.00    -0.065 C 
HETATM   11  C11 UNL     1       3.040  51.217 -11.513  1.00  0.00    -0.022 C 
HETATM   12  C12 UNL     1       3.587  52.422 -10.811  1.00  0.00     0.035 C 
HETATM   13  C13 UNL     1       2.519  53.189 -10.028  1.00  0.00     0.030 C 
HETATM   14  C14 UNL     1       1.206  53.340 -10.858  1.00  0.00     0.012 C 
HETATM   15  C15 UNL     1       0.153  54.274 -10.172  1.00  0.00     0.007 C 
HETATM   16  C16 UNL     1       0.718  55.594  -9.588  1.00  0.00     0.016 C 
HETATM   17  C17 UNL     1       1.930  55.284  -8.706  1.00  0.00     0.023 C 
HETATM   18  C18 UNL     1       1.479  54.611  -7.390  1.00  0.00     0.022 C 
HETATM   19  C19 UNL     1       2.976  54.575  -9.650  1.00  0.00     0.077 C 
HETATM   20  C20 UNL     1       3.493  55.535 -10.730  1.00  0.00     0.042 C 
HETATM   21  C21 UNL     1       3.674  56.764  -9.847  1.00  0.00     0.047 C 
HETATM   22  C22 UNL     1       3.265  56.129  -8.521  1.00  0.00     0.098 C 
HETATM   23  O7  UNL     1       3.941  54.747  -8.529  1.00  0.00    -0.362 OA
HETATM   24  C27 UNL     1       1.289  49.725 -12.454  1.00  0.00     0.069 C 
HETATM   25  C28 UNL     1       0.355  50.060 -13.614  1.00  0.00     0.158 C 
HETATM   26  O8  UNL     1      -0.061  48.842 -14.248  1.00  0.00    -0.347 OA
HETATM   27  C29 UNL     1      -0.958  49.125 -15.340  1.00  0.00     0.325 C 
HETATM   28  O9  UNL     1      -0.214  49.753 -16.394  1.00  0.00    -0.351 OA
ENDROOT
BRANCH  22  29
HETATM   29  C23 UNL     1       3.446  56.935  -7.320  1.00  0.00    -0.015 A 
HETATM   30  C24 UNL     1       4.407  56.752  -6.422  1.00  0.00     0.090 A 
HETATM   31  C25 UNL     1       4.188  57.763  -5.388  1.00  0.00     0.283 A 
HETATM   32  O5  UNL     1       4.874  57.892  -4.392  1.00  0.00    -0.260 OA
HETATM   33  O6  UNL     1       3.103  58.519  -5.717  1.00  0.00    -0.314 OA
HETATM   34  C26 UNL     1       2.560  58.051  -6.953  1.00  0.00     0.216 A 
ENDBRANCH  22  29
BRANCH   9  35
HETATM   35  C9  UNL     1      -0.017  51.268 -10.052  1.00  0.00     0.245 C 
HETATM   36  O4  UNL     1      -1.226  51.181  -9.863  1.00  0.00    -0.306 OA
ENDBRANCH   9  35
BRANCH   5  37
HETATM   37  O2  UNL     1      -3.041  49.257 -13.994  1.00  0.00    -0.360 OA
HETATM   38  H9  UNL     1      -3.884  49.748 -14.003  1.00  0.00     0.213 HD
ENDBRANCH   5  37
BRANCH   4  39
HETATM   39  O1  UNL     1      -3.999  51.372 -15.700  1.00  0.00    -0.390 OA
HETATM   40  H8  UNL     1      -3.535  52.024 -15.136  1.00  0.00     0.210 HD
ENDBRANCH   4  39
TORSDOF 4
ENDMDL
MODEL 9
REMARK minimizedAffinity -9.56330204
REMARK CNNscore 0.501045883
REMARK CNNaffinity 6.41395569
REMARK  4 active torsions:
REMARK  status: ('A' for Active; 'I' for Inactive)
REMARK    1  A    between atoms: C4_4  and  O1_5 
REMARK    2  A    between atoms: C5_6  and  O2_7 
REMARK    3  A    between atoms: C8_11  and  C9_12 
REMARK    4  A    between atoms: C22_26  and  C23_27 
ROOT
HETATM    1  C1  UNL     1      -9.245  44.452 -28.019  1.00  0.00     0.040 C 
HETATM    2  C2  UNL     1     -10.134  45.037 -26.930  1.00  0.00     0.123 C 
HETATM    3  C3  UNL     1     -10.431  46.508 -27.203  1.00  0.00     0.069 C 
HETATM    4  C4  UNL     1     -11.289  47.068 -26.078  1.00  0.00     0.188 C 
HETATM    5  C5  UNL     1     -10.636  46.853 -24.696  1.00  0.00     0.240 C 
HETATM    6  O3  UNL     1      -9.499  47.739 -24.603  1.00  0.00    -0.341 OA
HETATM    7  C6  UNL     1      -8.769  47.491 -23.385  1.00  0.00     0.156 C 
HETATM    8  C7  UNL     1      -7.570  48.444 -23.343  1.00  0.00     0.056 C 
HETATM    9  C8  UNL     1      -6.619  48.220 -22.135  1.00  0.00     0.043 C 
HETATM   10  C10 UNL     1      -6.330  46.728 -21.947  1.00  0.00    -0.065 C 
HETATM   11  C11 UNL     1      -5.093  46.246 -21.717  1.00  0.00    -0.022 C 
HETATM   12  C12 UNL     1      -3.856  47.084 -21.602  1.00  0.00     0.035 C 
HETATM   13  C13 UNL     1      -4.161  48.570 -21.404  1.00  0.00     0.030 C 
HETATM   14  C14 UNL     1      -5.300  49.047 -22.358  1.00  0.00     0.012 C 
HETATM   15  C15 UNL     1      -5.519  50.598 -22.321  1.00  0.00     0.007 C 
HETATM   16  C16 UNL     1      -4.225  51.451 -22.363  1.00  0.00     0.016 C 
HETATM   17  C17 UNL     1      -3.246  50.945 -21.301  1.00  0.00     0.023 C 
HETATM   18  C18 UNL     1      -3.742  51.325 -19.888  1.00  0.00     0.022 C 
HETATM   19  C19 UNL     1      -2.957  49.438 -21.670  1.00  0.00     0.077 C 
HETATM   20  C20 UNL     1      -2.206  49.325 -23.003  1.00  0.00     0.042 C 
HETATM   21  C21 UNL     1      -1.221  50.467 -22.786  1.00  0.00     0.047 C 
HETATM   22  C22 UNL     1      -1.660  50.854 -21.376  1.00  0.00     0.098 C 
HETATM   23  O7  UNL     1      -1.871  49.512 -20.654  1.00  0.00    -0.362 OA
HETATM   24  C27 UNL     1      -7.513  45.787 -22.049  1.00  0.00     0.069 C 
HETATM   25  C28 UNL     1      -8.303  46.029 -23.333  1.00  0.00     0.158 C 
HETATM   26  O8  UNL     1      -9.428  45.139 -23.366  1.00  0.00    -0.347 OA
HETATM   27  C29 UNL     1     -10.204  45.354 -24.561  1.00  0.00     0.325 C 
HETATM   28  O9  UNL     1      -9.445  44.895 -25.689  1.00  0.00    -0.351 OA
ENDROOT
BRANCH  22  29
HETATM   29  C23 UNL     1      -0.848  51.846 -20.682  1.00  0.00    -0.015 A 
HETATM   30  C24 UNL     1      -0.066  52.738 -21.279  1.00  0.00     0.090 A 
HETATM   31  C25 UNL     1       0.568  53.500 -20.204  1.00  0.00     0.283 A 
HETATM   32  O5  UNL     1       1.364  54.403 -20.374  1.00  0.00    -0.260 OA
HETATM   33  O6  UNL     1       0.129  53.035 -19.001  1.00  0.00    -0.314 OA
HETATM   34  C26 UNL     1      -0.790  51.963 -19.216  1.00  0.00     0.216 A 
ENDBRANCH  22  29
BRANCH   9  35
HETATM   35  C9  UNL     1      -7.287  48.670 -20.827  1.00  0.00     0.245 C 
HETATM   36  O4  UNL     1      -6.691  48.858 -19.771  1.00  0.00    -0.306 OA
ENDBRANCH   9  35
BRANCH   5  37
HETATM   37  O2  UNL     1     -11.581  47.230 -23.694  1.00  0.00    -0.360 OA
HETATM   38  H9  UNL     1     -12.001  48.043 -24.032  1.00  0.00     0.213 HD
ENDBRANCH   5  37
BRANCH   4  39
HETATM   39  O1  UNL     1     -11.513  48.471 -26.293  1.00  0.00    -0.390 OA
HETATM   40  H8  UNL     1     -10.673  48.911 -26.050  1.00  0.00     0.210 HD
ENDBRANCH   4  39
TORSDOF 4
ENDMDL
