MODEL 1
REMARK minimizedAffinity -7.96701097
REMARK CNNscore 0.59166193
REMARK CNNaffinity 6.49821663
REMARK  4 active torsions:
REMARK  status: ('A' for Active; 'I' for Inactive)
REMARK    1  A    between atoms: C4_4  and  O1_5 
REMARK    2  A    between atoms: C4_4  and  C5_6 
REMARK    3  A    between atoms: C5_6  and  C6_7 
REMARK    4  A    between atoms: C6_7  and  C8_9 
ROOT
HETATM    1  C8  UNL     1       5.540  56.055  -7.611  1.00  0.00    -0.001 C 
HETATM    2  C9  UNL     1       6.284  55.305  -8.747  1.00  0.00     0.007 C 
HETATM    3  C10 UNL     1       5.190  54.637  -9.617  1.00  0.00     0.015 C 
HETATM    4  C11 UNL     1       3.850  55.225  -9.108  1.00  0.00    -0.013 C 
HETATM    5  C12 UNL     1       3.649  56.587  -9.853  1.00  0.00     0.021 C 
HETATM    6  C13 UNL     1       2.559  54.441  -9.349  1.00  0.00    -0.070 C 
HETATM    7  C14 UNL     1       2.347  53.772 -10.493  1.00  0.00    -0.022 C 
HETATM    8  C15 UNL     1       1.069  53.089 -10.846  1.00  0.00     0.034 C 
HETATM    9  C16 UNL     1       0.060  52.912  -9.682  1.00  0.00     0.013 C 
HETATM   10  C17 UNL     1      -1.353  52.441 -10.191  1.00  0.00     0.018 C 
HETATM   11  C18 UNL     1      -1.905  51.347  -9.242  1.00  0.00     0.023 C 
HETATM   12  C19 UNL     1      -1.356  51.816 -11.607  1.00  0.00     0.023 C 
HETATM   13  C20 UNL     1      -2.344  53.613 -10.226  1.00  0.00     0.135 C 
HETATM   14  O2  UNL     1      -3.565  53.425 -10.184  1.00  0.00    -0.297 OA
HETATM   15  C21 UNL     1      -1.812  55.017 -10.421  1.00  0.00     0.080 C 
HETATM   16  C22 UNL     1      -0.574  55.368  -9.594  1.00  0.00     0.017 C 
HETATM   17  C23 UNL     1       0.019  54.201  -8.771  1.00  0.00    -0.031 C 
HETATM   18  C24 UNL     1      -0.870  53.979  -7.514  1.00  0.00     0.016 C 
HETATM   19  C25 UNL     1       1.487  54.510  -8.255  1.00  0.00     0.024 C 
HETATM   20  C26 UNL     1       1.618  55.802  -7.401  1.00  0.00     0.010 C 
HETATM   21  C27 UNL     1       3.038  56.116  -6.868  1.00  0.00     0.011 C 
HETATM   22  C28 UNL     1       4.160  55.330  -7.567  1.00  0.00    -0.029 C 
HETATM   23  C29 UNL     1       4.302  53.914  -6.914  1.00  0.00     0.016 C 
ENDROOT
BRANCH   1  24
HETATM   24  C6  UNL     1       6.367  56.380  -6.328  1.00  0.00    -0.008 C 
HETATM   25  C7  UNL     1       6.157  57.865  -5.976  1.00  0.00     0.010 C 
BRANCH  24  26
HETATM   26  C5  UNL     1       7.866  56.008  -6.365  1.00  0.00     0.078 C 
BRANCH  26  27
HETATM   27  C4  UNL     1       8.672  56.201  -5.060  1.00  0.00     0.191 A 
HETATM   28  C3  UNL     1       9.828  55.276  -5.000  1.00  0.00     0.054 A 
HETATM   29  C2  UNL     1      10.977  55.945  -4.928  1.00  0.00     0.015 A 
HETATM   30  C1  UNL     1      12.371  55.461  -4.863  1.00  0.00     0.054 C 
HETATM   31  C30 UNL     1      10.618  57.366  -4.920  1.00  0.00     0.291 A 
HETATM   32  O3  UNL     1       9.267  57.490  -5.002  1.00  0.00    -0.276 OA
HETATM   33  O4  UNL     1      11.407  58.295  -4.865  1.00  0.00    -0.260 OA
BRANCH  27  34
HETATM   34  O1  UNL     1       7.889  55.956  -3.911  1.00  0.00    -0.362 OA
HETATM   35  H5  UNL     1       7.215  56.655  -3.891  1.00  0.00     0.213 HD
ENDBRANCH  27  34
ENDBRANCH  26  27
ENDBRANCH  24  26
ENDBRANCH   1  24
TORSDOF 4
ENDMDL
MODEL 2
REMARK minimizedAffinity -7.92500114
REMARK CNNscore 0.551974118
REMARK CNNaffinity 6.4114418
REMARK  4 active torsions:
REMARK  status: ('A' for Active; 'I' for Inactive)
REMARK    1  A    between atoms: C4_4  and  O1_5 
REMARK    2  A    between atoms: C4_4  and  C5_6 
REMARK    3  A    between atoms: C5_6  and  C6_7 
REMARK    4  A    between atoms: C6_7  and  C8_9 
ROOT
HETATM    1  C8  UNL     1       5.670  56.072  -8.019  1.00  0.00    -0.001 C 
HETATM    2  C9  UNL     1       6.344  55.180  -9.095  1.00  0.00     0.007 C 
HETATM    3  C10 UNL     1       5.195  54.465  -9.850  1.00  0.00     0.015 C 
HETATM    4  C11 UNL     1       3.896  55.152  -9.359  1.00  0.00    -0.013 C 
HETATM    5  C12 UNL     1       3.711  56.435 -10.236  1.00  0.00     0.021 C 
HETATM    6  C13 UNL     1       2.571  54.395  -9.470  1.00  0.00    -0.070 C 
HETATM    7  C14 UNL     1       2.293  53.619 -10.528  1.00  0.00    -0.022 C 
HETATM    8  C15 UNL     1       0.980  52.951 -10.762  1.00  0.00     0.034 C 
HETATM    9  C16 UNL     1       0.012  52.933  -9.550  1.00  0.00     0.013 C 
HETATM   10  C17 UNL     1      -1.434  52.464  -9.956  1.00  0.00     0.018 C 
HETATM   11  C18 UNL     1      -1.984  51.496  -8.878  1.00  0.00     0.023 C 
HETATM   12  C19 UNL     1      -1.513  51.695 -11.297  1.00  0.00     0.023 C 
HETATM   13  C20 UNL     1      -2.387  53.662 -10.080  1.00  0.00     0.135 C 
HETATM   14  O2  UNL     1      -3.610  53.525  -9.974  1.00  0.00    -0.297 OA
HETATM   15  C21 UNL     1      -1.817  55.018 -10.441  1.00  0.00     0.080 C 
HETATM   16  C22 UNL     1      -0.536  55.407  -9.700  1.00  0.00     0.017 C 
HETATM   17  C23 UNL     1       0.050  54.311  -8.779  1.00  0.00    -0.031 C 
HETATM   18  C24 UNL     1      -0.797  54.254  -7.475  1.00  0.00     0.016 C 
HETATM   19  C25 UNL     1       1.547  54.618  -8.352  1.00  0.00     0.024 C 
HETATM   20  C26 UNL     1       1.753  55.986  -7.644  1.00  0.00     0.010 C 
HETATM   21  C27 UNL     1       3.202  56.302  -7.199  1.00  0.00     0.011 C 
HETATM   22  C28 UNL     1       4.270  55.406  -7.850  1.00  0.00    -0.029 C 
HETATM   23  C29 UNL     1       4.390  54.062  -7.056  1.00  0.00     0.016 C 
ENDROOT
BRANCH   1  24
HETATM   24  C6  UNL     1       6.557  56.498  -6.808  1.00  0.00    -0.008 C 
HETATM   25  C7  UNL     1       7.455  55.308  -6.419  1.00  0.00     0.010 C 
BRANCH  24  26
HETATM   26  C5  UNL     1       5.816  57.078  -5.584  1.00  0.00     0.078 C 
BRANCH  26  27
HETATM   27  C4  UNL     1       6.676  57.759  -4.496  1.00  0.00     0.191 A 
HETATM   28  C3  UNL     1       7.978  58.210  -5.043  1.00  0.00     0.054 A 
HETATM   29  C2  UNL     1       8.118  59.529  -4.921  1.00  0.00     0.015 A 
HETATM   30  C1  UNL     1       9.224  60.421  -5.329  1.00  0.00     0.054 C 
HETATM   31  C30 UNL     1       6.901  60.008  -4.262  1.00  0.00     0.291 A 
HETATM   32  O3  UNL     1       6.073  58.956  -4.026  1.00  0.00    -0.276 OA
HETATM   33  O4  UNL     1       6.659  61.169  -3.980  1.00  0.00    -0.260 OA
BRANCH  27  34
HETATM   34  O1  UNL     1       6.963  56.885  -3.423  1.00  0.00    -0.362 OA
HETATM   35  H5  UNL     1       6.113  56.705  -2.989  1.00  0.00     0.213 HD
ENDBRANCH  27  34
ENDBRANCH  26  27
ENDBRANCH  24  26
ENDBRANCH   1  24
TORSDOF 4
ENDMDL
MODEL 3
REMARK minimizedAffinity -8.1055336
REMARK CNNscore 0.437438607
REMARK CNNaffinity 6.68024492
REMARK  4 active torsions:
REMARK  status: ('A' for Active; 'I' for Inactive)
REMARK    1  A    between atoms: C4_4  and  O1_5 
REMARK    2  A    between atoms: C4_4  and  C5_6 
REMARK    3  A    between atoms: C5_6  and  C6_7 
REMARK    4  A    between atoms: C6_7  and  C8_9 
ROOT
HETATM    1  C8  UNL     1      -3.144  49.201 -21.526  1.00  0.00    -0.001 C 
HETATM    2  C9  UNL     1      -2.577  47.758 -21.473  1.00  0.00     0.007 C 
HETATM    3  C10 UNL     1      -3.722  46.860 -20.942  1.00  0.00     0.015 C 
HETATM    4  C11 UNL     1      -4.982  47.762 -20.945  1.00  0.00    -0.013 C 
HETATM    5  C12 UNL     1      -5.570  47.701 -22.394  1.00  0.00     0.021 C 
HETATM    6  C13 UNL     1      -6.149  47.406 -20.023  1.00  0.00    -0.070 C 
HETATM    7  C14 UNL     1      -6.514  46.131 -19.811  1.00  0.00    -0.022 C 
HETATM    8  C15 UNL     1      -7.712  45.717 -19.026  1.00  0.00     0.034 C 
HETATM    9  C16 UNL     1      -8.376  46.832 -18.177  1.00  0.00     0.013 C 
HETATM   10  C17 UNL     1      -9.774  46.387 -17.607  1.00  0.00     0.018 C 
HETATM   11  C18 UNL     1      -9.902  46.854 -16.135  1.00  0.00     0.023 C 
HETATM   12  C19 UNL     1     -10.009  44.857 -17.589  1.00  0.00     0.023 C 
HETATM   13  C20 UNL     1     -10.921  46.998 -18.424  1.00  0.00     0.135 C 
HETATM   14  O2  UNL     1     -12.051  47.138 -17.942  1.00  0.00    -0.297 OA
HETATM   15  C21 UNL     1     -10.684  47.339 -19.880  1.00  0.00     0.080 C 
HETATM   16  C22 UNL     1      -9.359  48.044 -20.179  1.00  0.00     0.017 C 
HETATM   17  C23 UNL     1      -8.409  48.198 -18.969  1.00  0.00    -0.031 C 
HETATM   18  C24 UNL     1      -8.930  49.359 -18.074  1.00  0.00     0.016 C 
HETATM   19  C25 UNL     1      -6.930  48.572 -19.406  1.00  0.00     0.024 C 
HETATM   20  C26 UNL     1      -6.812  49.863 -20.263  1.00  0.00     0.010 C 
HETATM   21  C27 UNL     1      -5.377  50.261 -20.687  1.00  0.00     0.011 C 
HETATM   22  C28 UNL     1      -4.339  49.137 -20.527  1.00  0.00    -0.029 C 
HETATM   23  C29 UNL     1      -3.821  49.102 -19.049  1.00  0.00     0.016 C 
ENDROOT
BRANCH   1  24
HETATM   24  C6  UNL     1      -2.102  50.362 -21.528  1.00  0.00    -0.008 C 
HETATM   25  C7  UNL     1      -1.363  50.351 -22.880  1.00  0.00     0.010 C 
BRANCH  24  26
HETATM   26  C5  UNL     1      -1.117  50.404 -20.339  1.00  0.00     0.078 C 
BRANCH  26  27
HETATM   27  C4  UNL     1      -1.056  51.713 -19.520  1.00  0.00     0.191 A 
HETATM   28  C3  UNL     1      -0.235  51.545 -18.297  1.00  0.00     0.054 A 
HETATM   29  C2  UNL     1       0.805  52.376 -18.299  1.00  0.00     0.015 A 
HETATM   30  C1  UNL     1       1.891  52.561 -17.315  1.00  0.00     0.054 C 
HETATM   31  C30 UNL     1       0.702  53.152 -19.537  1.00  0.00     0.291 A 
HETATM   32  O3  UNL     1      -0.392  52.745 -20.234  1.00  0.00    -0.276 OA
HETATM   33  O4  UNL     1       1.481  54.019 -19.896  1.00  0.00    -0.260 OA
BRANCH  27  34
HETATM   34  O1  UNL     1      -2.337  52.136 -19.100  1.00  0.00    -0.362 OA
HETATM   35  H5  UNL     1      -2.820  52.372 -19.908  1.00  0.00     0.213 HD
ENDBRANCH  27  34
ENDBRANCH  26  27
ENDBRANCH  24  26
ENDBRANCH   1  24
TORSDOF 4
ENDMDL
MODEL 4
REMARK minimizedAffinity -10.0096312
REMARK CNNscore 0.407271445
REMARK CNNaffinity 7.22615194
REMARK  4 active torsions:
REMARK  status: ('A' for Active; 'I' for Inactive)
REMARK    1  A    between atoms: C4_4  and  O1_5 
REMARK    2  A    between atoms: C4_4  and  C5_6 
REMARK    3  A    between atoms: C5_6  and  C6_7 
REMARK    4  A    between atoms: C6_7  and  C8_9 
ROOT
HETATM    1  C8  UNL     1      -1.611  51.504 -21.335  1.00  0.00    -0.001 C 
HETATM    2  C9  UNL     1      -2.096  50.031 -21.276  1.00  0.00     0.007 C 
HETATM    3  C10 UNL     1      -1.680  49.491 -19.885  1.00  0.00     0.015 C 
HETATM    4  C11 UNL     1      -1.196  50.732 -19.094  1.00  0.00    -0.013 C 
HETATM    5  C12 UNL     1      -2.474  51.398 -18.484  1.00  0.00     0.021 C 
HETATM    6  C13 UNL     1      -0.244  50.532 -17.914  1.00  0.00    -0.070 C 
HETATM    7  C14 UNL     1      -0.373  49.492 -17.076  1.00  0.00    -0.022 C 
HETATM    8  C15 UNL     1       0.438  49.300 -15.839  1.00  0.00     0.034 C 
HETATM    9  C16 UNL     1       1.685  50.212 -15.707  1.00  0.00     0.013 C 
HETATM   10  C17 UNL     1       2.319  50.141 -14.268  1.00  0.00     0.018 C 
HETATM   11  C18 UNL     1       3.863  50.081 -14.388  1.00  0.00     0.023 C 
HETATM   12  C19 UNL     1       1.908  48.900 -13.440  1.00  0.00     0.023 C 
HETATM   13  C20 UNL     1       1.933  51.373 -13.437  1.00  0.00     0.135 C 
HETATM   14  O2  UNL     1       2.617  51.740 -12.475  1.00  0.00    -0.297 OA
HETATM   15  C21 UNL     1       0.632  52.085 -13.742  1.00  0.00     0.080 C 
HETATM   16  C22 UNL     1       0.344  52.313 -15.227  1.00  0.00     0.017 C 
HETATM   17  C23 UNL     1       1.366  51.678 -16.199  1.00  0.00    -0.031 C 
HETATM   18  C24 UNL     1       2.646  52.561 -16.219  1.00  0.00     0.016 C 
HETATM   19  C25 UNL     1       0.821  51.611 -17.688  1.00  0.00     0.024 C 
HETATM   20  C26 UNL     1       0.392  52.980 -18.286  1.00  0.00     0.010 C 
HETATM   21  C27 UNL     1      -0.125  52.945 -19.745  1.00  0.00     0.011 C 
HETATM   22  C28 UNL     1      -0.492  51.539 -20.249  1.00  0.00    -0.029 C 
HETATM   23  C29 UNL     1       0.794  50.807 -20.758  1.00  0.00     0.016 C 
ENDROOT
BRANCH   1  24
HETATM   24  C6  UNL     1      -1.434  52.125 -22.755  1.00  0.00    -0.008 C 
HETATM   25  C7  UNL     1      -2.573  51.615 -23.657  1.00  0.00     0.010 C 
BRANCH  24  26
HETATM   26  C5  UNL     1      -0.052  51.938 -23.419  1.00  0.00     0.078 C 
BRANCH  26  27
HETATM   27  C4  UNL     1       0.327  52.923 -24.549  1.00  0.00     0.191 A 
HETATM   28  C3  UNL     1       1.117  52.251 -25.607  1.00  0.00     0.054 A 
HETATM   29  C2  UNL     1       0.494  52.310 -26.783  1.00  0.00     0.015 A 
HETATM   30  C1  UNL     1       0.881  51.776 -28.105  1.00  0.00     0.054 C 
HETATM   31  C30 UNL     1      -0.747  53.052 -26.547  1.00  0.00     0.291 A 
HETATM   32  O3  UNL     1      -0.823  53.397 -25.234  1.00  0.00    -0.276 OA
HETATM   33  O4  UNL     1      -1.589  53.309 -27.392  1.00  0.00    -0.260 OA
BRANCH  27  34
HETATM   34  O1  UNL     1       1.108  53.999 -24.074  1.00  0.00    -0.362 OA
HETATM   35  H5  UNL     1       0.532  54.510 -23.483  1.00  0.00     0.213 HD
ENDBRANCH  27  34
ENDBRANCH  26  27
ENDBRANCH  24  26
ENDBRANCH   1  24
TORSDOF 4
ENDMDL
MODEL 5
REMARK minimizedAffinity -8.23488808
REMARK CNNscore 0.38919875
REMARK CNNaffinity 5.6449523
REMARK  4 active torsions:
REMARK  status: ('A' for Active; 'I' for Inactive)
REMARK    1  A    between atoms: C4_4  and  O1_5 
REMARK    2  A    between atoms: C4_4  and  C5_6 
REMARK    3  A    between atoms: C5_6  and  C6_7 
REMARK    4  A    between atoms: C6_7  and  C8_9 
ROOT
HETATM    1  C8  UNL     1     -10.312  46.081 -27.063  1.00  0.00    -0.001 C 
HETATM    2  C9  UNL     1     -10.613  45.865 -28.570  1.00  0.00     0.007 C 
HETATM    3  C10 UNL     1     -12.152  45.729 -28.692  1.00  0.00     0.015 C 
HETATM    4  C11 UNL     1     -12.707  46.120 -27.299  1.00  0.00    -0.013 C 
HETATM    5  C12 UNL     1     -12.818  47.681 -27.285  1.00  0.00     0.021 C 
HETATM    6  C13 UNL     1     -14.090  45.614 -26.885  1.00  0.00    -0.070 C 
HETATM    7  C14 UNL     1     -15.102  45.540 -27.764  1.00  0.00    -0.022 C 
HETATM    8  C15 UNL     1     -16.503  45.174 -27.406  1.00  0.00     0.034 C 
HETATM    9  C16 UNL     1     -16.698  44.568 -25.993  1.00  0.00     0.013 C 
HETATM   10  C17 UNL     1     -18.218  44.470 -25.596  1.00  0.00     0.018 C 
HETATM   11  C18 UNL     1     -18.483  43.108 -24.904  1.00  0.00     0.023 C 
HETATM   12  C19 UNL     1     -19.203  44.540 -26.787  1.00  0.00     0.023 C 
HETATM   13  C20 UNL     1     -18.609  45.600 -24.634  1.00  0.00     0.135 C 
HETATM   14  O2  UNL     1     -19.585  45.497 -23.883  1.00  0.00    -0.297 OA
HETATM   15  C21 UNL     1     -17.842  46.904 -24.684  1.00  0.00     0.080 C 
HETATM   16  C22 UNL     1     -16.321  46.766 -24.781  1.00  0.00     0.017 C 
HETATM   17  C23 UNL     1     -15.802  45.317 -24.930  1.00  0.00    -0.031 C 
HETATM   18  C24 UNL     1     -15.869  44.621 -23.540  1.00  0.00     0.016 C 
HETATM   19  C25 UNL     1     -14.289  45.264 -25.406  1.00  0.00     0.024 C 
HETATM   20  C26 UNL     1     -13.292  46.029 -24.492  1.00  0.00     0.010 C 
HETATM   21  C27 UNL     1     -11.806  45.976 -24.924  1.00  0.00     0.011 C 
HETATM   22  C28 UNL     1     -11.589  45.508 -26.373  1.00  0.00    -0.029 C 
HETATM   23  C29 UNL     1     -11.591  43.943 -26.430  1.00  0.00     0.016 C 
ENDROOT
BRANCH   1  24
HETATM   24  C6  UNL     1      -8.867  45.745 -26.583  1.00  0.00    -0.008 C 
HETATM   25  C7  UNL     1      -8.647  46.395 -25.203  1.00  0.00     0.010 C 
BRANCH  24  26
HETATM   26  C5  UNL     1      -7.721  46.083 -27.562  1.00  0.00     0.078 C 
BRANCH  26  27
HETATM   27  C4  UNL     1      -7.185  47.532 -27.546  1.00  0.00     0.191 A 
HETATM   28  C3  UNL     1      -6.307  47.769 -26.375  1.00  0.00     0.054 A 
HETATM   29  C2  UNL     1      -5.079  48.112 -26.756  1.00  0.00     0.015 A 
HETATM   30  C1  UNL     1      -3.876  48.426 -25.959  1.00  0.00     0.054 C 
HETATM   31  C30 UNL     1      -5.100  48.132 -28.221  1.00  0.00     0.291 A 
HETATM   32  O3  UNL     1      -6.340  47.788 -28.659  1.00  0.00    -0.276 OA
HETATM   33  O4  UNL     1      -4.151  48.402 -28.939  1.00  0.00    -0.260 OA
BRANCH  27  34
HETATM   34  O1  UNL     1      -8.227  48.483 -27.477  1.00  0.00    -0.362 OA
HETATM   35  H5  UNL     1      -8.714  48.409 -28.314  1.00  0.00     0.213 HD
ENDBRANCH  27  34
ENDBRANCH  26  27
ENDBRANCH  24  26
ENDBRANCH   1  24
TORSDOF 4
ENDMDL
MODEL 6
REMARK minimizedAffinity -8.41670895
REMARK CNNscore 0.302055985
REMARK CNNaffinity 6.09594488
REMARK  4 active torsions:
REMARK  status: ('A' for Active; 'I' for Inactive)
REMARK    1  A    between atoms: C4_4  and  O1_5 
REMARK    2  A    between atoms: C4_4  and  C5_6 
REMARK    3  A    between atoms: C5_6  and  C6_7 
REMARK    4  A    between atoms: C6_7  and  C8_9 
ROOT
HETATM    1  C8  UNL     1      -8.864  47.252 -24.284  1.00  0.00    -0.001 C 
HETATM    2  C9  UNL     1      -8.433  45.778 -24.062  1.00  0.00     0.007 C 
HETATM    3  C10 UNL     1      -7.157  45.825 -23.184  1.00  0.00     0.015 C 
HETATM    4  C11 UNL     1      -7.035  47.299 -22.721  1.00  0.00    -0.013 C 
HETATM    5  C12 UNL     1      -7.944  47.445 -21.455  1.00  0.00     0.021 C 
HETATM    6  C13 UNL     1      -5.666  47.831 -22.296  1.00  0.00    -0.070 C 
HETATM    7  C14 UNL     1      -4.803  47.072 -21.601  1.00  0.00    -0.022 C 
HETATM    8  C15 UNL     1      -3.506  47.561 -21.050  1.00  0.00     0.034 C 
HETATM    9  C16 UNL     1      -3.028  48.937 -21.581  1.00  0.00     0.013 C 
HETATM   10  C17 UNL     1      -1.811  49.498 -20.755  1.00  0.00     0.018 C 
HETATM   11  C18 UNL     1      -0.768  50.110 -21.725  1.00  0.00     0.023 C 
HETATM   12  C19 UNL     1      -1.049  48.439 -19.924  1.00  0.00     0.023 C 
HETATM   13  C20 UNL     1      -2.270  50.583 -19.770  1.00  0.00     0.135 C 
HETATM   14  O2  UNL     1      -1.483  51.432 -19.336  1.00  0.00    -0.297 OA
HETATM   15  C21 UNL     1      -3.688  50.544 -19.244  1.00  0.00     0.080 C 
HETATM   16  C22 UNL     1      -4.767  50.261 -20.291  1.00  0.00     0.017 C 
HETATM   17  C23 UNL     1      -4.238  49.943 -21.709  1.00  0.00    -0.031 C 
HETATM   18  C24 UNL     1      -3.800  51.273 -22.386  1.00  0.00     0.016 C 
HETATM   19  C25 UNL     1      -5.350  49.291 -22.636  1.00  0.00     0.024 C 
HETATM   20  C26 UNL     1      -6.642  50.140 -22.796  1.00  0.00     0.010 C 
HETATM   21  C27 UNL     1      -7.735  49.535 -23.711  1.00  0.00     0.011 C 
HETATM   22  C28 UNL     1      -7.545  48.039 -24.015  1.00  0.00    -0.029 C 
HETATM   23  C29 UNL     1      -6.544  47.863 -25.206  1.00  0.00     0.016 C 
ENDROOT
BRANCH   1  24
HETATM   24  C6  UNL     1      -9.783  47.534 -25.513  1.00  0.00    -0.008 C 
HETATM   25  C7  UNL     1      -9.475  48.949 -26.037  1.00  0.00     0.010 C 
BRANCH  24  26
HETATM   26  C5  UNL     1     -11.298  47.320 -25.302  1.00  0.00     0.078 C 
BRANCH  26  27
HETATM   27  C4  UNL     1     -12.228  47.642 -26.493  1.00  0.00     0.191 A 
HETATM   28  C3  UNL     1     -11.915  46.790 -27.666  1.00  0.00     0.054 A 
HETATM   29  C2  UNL     1     -12.964  46.047 -28.013  1.00  0.00     0.015 A 
HETATM   30  C1  UNL     1     -13.122  45.051 -29.093  1.00  0.00     0.054 C 
HETATM   31  C30 UNL     1     -14.036  46.395 -27.077  1.00  0.00     0.291 A 
HETATM   32  O3  UNL     1     -13.581  47.327 -26.198  1.00  0.00    -0.276 OA
HETATM   33  O4  UNL     1     -15.158  45.916 -27.076  1.00  0.00    -0.260 OA
BRANCH  27  34
HETATM   34  O1  UNL     1     -12.105  48.983 -26.915  1.00  0.00    -0.362 OA
HETATM   35  H5  UNL     1     -12.441  49.527 -26.185  1.00  0.00     0.213 HD
ENDBRANCH  27  34
ENDBRANCH  26  27
ENDBRANCH  24  26
ENDBRANCH   1  24
TORSDOF 4
ENDMDL
MODEL 7
REMARK minimizedAffinity -9.26313877
REMARK CNNscore 0.284988165
REMARK CNNaffinity 6.66657114
REMARK  4 active torsions:
REMARK  status: ('A' for Active; 'I' for Inactive)
REMARK    1  A    between atoms: C4_4  and  O1_5 
REMARK    2  A    between atoms: C4_4  and  C5_6 
REMARK    3  A    between atoms: C5_6  and  C6_7 
REMARK    4  A    between atoms: C6_7  and  C8_9 
ROOT
HETATM    1  C8  UNL     1      -1.806  50.565 -22.530  1.00  0.00    -0.001 C 
HETATM    2  C9  UNL     1      -1.368  51.140 -21.157  1.00  0.00     0.007 C 
HETATM    3  C10 UNL     1      -2.365  50.579 -20.112  1.00  0.00     0.015 C 
HETATM    4  C11 UNL     1      -3.189  49.507 -20.869  1.00  0.00    -0.013 C 
HETATM    5  C12 UNL     1      -2.353  48.185 -20.820  1.00  0.00     0.021 C 
HETATM    6  C13 UNL     1      -4.573  49.127 -20.340  1.00  0.00    -0.070 C 
HETATM    7  C14 UNL     1      -4.820  49.032 -19.024  1.00  0.00    -0.022 C 
HETATM    8  C15 UNL     1      -6.105  48.551 -18.441  1.00  0.00     0.034 C 
HETATM    9  C16 UNL     1      -7.294  48.447 -19.431  1.00  0.00     0.013 C 
HETATM   10  C17 UNL     1      -8.518  47.679 -18.806  1.00  0.00     0.018 C 
HETATM   11  C18 UNL     1      -9.831  48.413 -19.180  1.00  0.00     0.023 C 
HETATM   12  C19 UNL     1      -8.506  47.590 -17.261  1.00  0.00     0.023 C 
HETATM   13  C20 UNL     1      -8.588  46.238 -19.330  1.00  0.00     0.135 C 
HETATM   14  O2  UNL     1      -9.647  45.600 -19.319  1.00  0.00    -0.297 OA
HETATM   15  C21 UNL     1      -7.311  45.554 -19.769  1.00  0.00     0.080 C 
HETATM   16  C22 UNL     1      -6.375  46.407 -20.629  1.00  0.00     0.017 C 
HETATM   17  C23 UNL     1      -6.818  47.875 -20.824  1.00  0.00    -0.031 C 
HETATM   18  C24 UNL     1      -7.966  47.912 -21.873  1.00  0.00     0.016 C 
HETATM   19  C25 UNL     1      -5.648  48.791 -21.380  1.00  0.00     0.024 C 
HETATM   20  C26 UNL     1      -5.024  48.306 -22.719  1.00  0.00     0.010 C 
HETATM   21  C27 UNL     1      -3.892  49.193 -23.293  1.00  0.00     0.011 C 
HETATM   22  C28 UNL     1      -3.300  50.191 -22.284  1.00  0.00    -0.029 C 
HETATM   23  C29 UNL     1      -4.189  51.479 -22.229  1.00  0.00     0.016 C 
ENDROOT
BRANCH   1  24
HETATM   24  C6  UNL     1      -1.324  51.337 -23.797  1.00  0.00    -0.008 C 
HETATM   25  C7  UNL     1      -1.348  50.370 -24.996  1.00  0.00     0.010 C 
BRANCH  24  26
HETATM   26  C5  UNL     1       0.032  52.069 -23.681  1.00  0.00     0.078 C 
BRANCH  26  27
HETATM   27  C4  UNL     1       0.386  53.078 -24.796  1.00  0.00     0.191 A 
HETATM   28  C3  UNL     1       1.190  52.439 -25.865  1.00  0.00     0.054 A 
HETATM   29  C2  UNL     1       0.564  52.500 -27.039  1.00  0.00     0.015 A 
HETATM   30  C1  UNL     1       0.961  51.995 -28.369  1.00  0.00     0.054 C 
HETATM   31  C30 UNL     1      -0.694  53.210 -26.792  1.00  0.00     0.291 A 
HETATM   32  O3  UNL     1      -0.776  53.535 -25.474  1.00  0.00    -0.276 OA
HETATM   33  O4  UNL     1      -1.542  53.460 -27.631  1.00  0.00    -0.260 OA
BRANCH  27  34
HETATM   34  O1  UNL     1       1.143  54.165 -24.308  1.00  0.00    -0.362 OA
HETATM   35  H5  UNL     1       0.555  54.655 -23.709  1.00  0.00     0.213 HD
ENDBRANCH  27  34
ENDBRANCH  26  27
ENDBRANCH  24  26
ENDBRANCH   1  24
TORSDOF 4
ENDMDL
MODEL 8
REMARK minimizedAffinity -10.4410229
REMARK CNNscore 0.284912288
REMARK CNNaffinity 6.73675299
REMARK  4 active torsions:
REMARK  status: ('A' for Active; 'I' for Inactive)
REMARK    1  A    between atoms: C4_4  and  O1_5 
REMARK    2  A    between atoms: C4_4  and  C5_6 
REMARK    3  A    between atoms: C5_6  and  C6_7 
REMARK    4  A    between atoms: C6_7  and  C8_9 
ROOT
HETATM    1  C8  UNL     1      -0.382  51.261 -21.464  1.00  0.00    -0.001 C 
HETATM    2  C9  UNL     1      -0.549  51.753 -20.002  1.00  0.00     0.007 C 
HETATM    3  C10 UNL     1      -1.748  50.969 -19.413  1.00  0.00     0.015 C 
HETATM    4  C11 UNL     1      -2.076  49.877 -20.462  1.00  0.00    -0.013 C 
HETATM    5  C12 UNL     1      -1.114  48.677 -20.171  1.00  0.00     0.021 C 
HETATM    6  C13 UNL     1      -3.480  49.270 -20.485  1.00  0.00    -0.070 C 
HETATM    7  C14 UNL     1      -4.154  49.017 -19.352  1.00  0.00    -0.022 C 
HETATM    8  C15 UNL     1      -5.470  48.318 -19.293  1.00  0.00     0.034 C 
HETATM    9  C16 UNL     1      -6.205  48.156 -20.649  1.00  0.00     0.013 C 
HETATM   10  C17 UNL     1      -7.434  47.179 -20.542  1.00  0.00     0.018 C 
HETATM   11  C18 UNL     1      -8.630  47.767 -21.333  1.00  0.00     0.023 C 
HETATM   12  C19 UNL     1      -7.951  46.943 -19.103  1.00  0.00     0.023 C 
HETATM   13  C20 UNL     1      -7.090  45.798 -21.117  1.00  0.00     0.135 C 
HETATM   14  O2  UNL     1      -7.972  45.030 -21.517  1.00  0.00    -0.297 OA
HETATM   15  C21 UNL     1      -5.649  45.333 -21.096  1.00  0.00     0.080 C 
HETATM   16  C22 UNL     1      -4.618  46.378 -21.523  1.00  0.00     0.017 C 
HETATM   17  C23 UNL     1      -5.188  47.789 -21.800  1.00  0.00    -0.031 C 
HETATM   18  C24 UNL     1      -5.886  47.776 -23.190  1.00  0.00     0.016 C 
HETATM   19  C25 UNL     1      -4.055  48.898 -21.856  1.00  0.00     0.024 C 
HETATM   20  C26 UNL     1      -2.934  48.631 -22.899  1.00  0.00     0.010 C 
HETATM   21  C27 UNL     1      -1.826  49.709 -22.987  1.00  0.00     0.011 C 
HETATM   22  C28 UNL     1      -1.790  50.674 -21.790  1.00  0.00    -0.029 C 
HETATM   23  C29 UNL     1      -2.831  51.823 -22.004  1.00  0.00     0.016 C 
ENDROOT
BRANCH   1  24
HETATM   24  C6  UNL     1       0.387  52.208 -22.437  1.00  0.00    -0.008 C 
HETATM   25  C7  UNL     1       1.042  53.330 -21.609  1.00  0.00     0.010 C 
BRANCH  24  26
HETATM   26  C5  UNL     1      -0.420  52.773 -23.626  1.00  0.00     0.078 C 
BRANCH  26  27
HETATM   27  C4  UNL     1       0.382  53.420 -24.778  1.00  0.00     0.191 A 
HETATM   28  C3  UNL     1       1.043  52.392 -25.618  1.00  0.00     0.054 A 
HETATM   29  C2  UNL     1       0.616  52.454 -26.878  1.00  0.00     0.015 A 
HETATM   30  C1  UNL     1       0.973  51.637 -28.056  1.00  0.00     0.054 C 
HETATM   31  C30 UNL     1      -0.348  53.556 -26.926  1.00  0.00     0.291 A 
HETATM   32  O3  UNL     1      -0.470  54.103 -25.687  1.00  0.00    -0.276 OA
HETATM   33  O4  UNL     1      -0.958  53.920 -27.918  1.00  0.00    -0.260 OA
BRANCH  27  34
HETATM   34  O1  UNL     1       1.398  54.276 -24.302  1.00  0.00    -0.362 OA
HETATM   35  H5  UNL     1       0.944  55.018 -23.870  1.00  0.00     0.213 HD
ENDBRANCH  27  34
ENDBRANCH  26  27
ENDBRANCH  24  26
ENDBRANCH   1  24
TORSDOF 4
ENDMDL
MODEL 9
REMARK minimizedAffinity -9.16672421
REMARK CNNscore 0.249524221
REMARK CNNaffinity 6.05158567
REMARK  4 active torsions:
REMARK  status: ('A' for Active; 'I' for Inactive)
REMARK    1  A    between atoms: C4_4  and  O1_5 
REMARK    2  A    between atoms: C4_4  and  C5_6 
REMARK    3  A    between atoms: C5_6  and  C6_7 
REMARK    4  A    between atoms: C6_7  and  C8_9 
ROOT
HETATM    1  C8  UNL     1      -6.981  48.483 -24.751  1.00  0.00    -0.001 C 
HETATM    2  C9  UNL     1      -8.120  49.011 -23.839  1.00  0.00     0.007 C 
HETATM    3  C10 UNL     1      -7.431  49.635 -22.600  1.00  0.00     0.015 C 
HETATM    4  C11 UNL     1      -5.921  49.674 -22.949  1.00  0.00    -0.013 C 
HETATM    5  C12 UNL     1      -5.688  50.984 -23.772  1.00  0.00     0.021 C 
HETATM    6  C13 UNL     1      -4.900  49.726 -21.811  1.00  0.00    -0.070 C 
HETATM    7  C14 UNL     1      -5.120  50.450 -20.703  1.00  0.00    -0.022 C 
HETATM    8  C15 UNL     1      -4.122  50.645 -19.612  1.00  0.00     0.034 C 
HETATM    9  C16 UNL     1      -2.889  49.706 -19.655  1.00  0.00     0.013 C 
HETATM   10  C17 UNL     1      -1.767  50.156 -18.647  1.00  0.00     0.018 C 
HETATM   11  C18 UNL     1      -1.187  48.910 -17.932  1.00  0.00     0.023 C 
HETATM   12  C19 UNL     1      -2.250  51.105 -17.523  1.00  0.00     0.023 C 
HETATM   13  C20 UNL     1      -0.630  50.884 -19.378  1.00  0.00     0.135 C 
HETATM   14  O2  UNL     1       0.505  50.952 -18.895  1.00  0.00    -0.297 OA
HETATM   15  C21 UNL     1      -0.938  51.617 -20.666  1.00  0.00     0.080 C 
HETATM   16  C22 UNL     1      -1.831  50.862 -21.652  1.00  0.00     0.017 C 
HETATM   17  C23 UNL     1      -2.381  49.511 -21.138  1.00  0.00    -0.031 C 
HETATM   18  C24 UNL     1      -1.245  48.452 -21.213  1.00  0.00     0.016 C 
HETATM   19  C25 UNL     1      -3.583  48.972 -22.024  1.00  0.00     0.024 C 
HETATM   20  C26 UNL     1      -3.252  48.801 -23.533  1.00  0.00     0.010 C 
HETATM   21  C27 UNL     1      -4.402  48.257 -24.416  1.00  0.00     0.011 C 
HETATM   22  C28 UNL     1      -5.790  48.328 -23.756  1.00  0.00    -0.029 C 
HETATM   23  C29 UNL     1      -6.001  47.082 -22.832  1.00  0.00     0.016 C 
ENDROOT
BRANCH   1  24
HETATM   24  C6  UNL     1      -7.368  47.382 -25.787  1.00  0.00    -0.008 C 
HETATM   25  C7  UNL     1      -6.665  47.699 -27.120  1.00  0.00     0.010 C 
BRANCH  24  26
HETATM   26  C5  UNL     1      -8.879  47.126 -25.984  1.00  0.00     0.078 C 
BRANCH  26  27
HETATM   27  C4  UNL     1      -9.658  48.138 -26.853  1.00  0.00     0.191 A 
HETATM   28  C3  UNL     1      -9.995  47.564 -28.178  1.00  0.00     0.054 A 
HETATM   29  C2  UNL     1     -11.313  47.525 -28.364  1.00  0.00     0.015 A 
HETATM   30  C1  UNL     1     -12.110  47.032 -29.505  1.00  0.00     0.054 C 
HETATM   31  C30 UNL     1     -11.910  48.098 -27.154  1.00  0.00     0.291 A 
HETATM   32  O3  UNL     1     -10.924  48.446 -26.286  1.00  0.00    -0.276 OA
HETATM   33  O4  UNL     1     -13.105  48.231 -26.950  1.00  0.00    -0.260 OA
BRANCH  27  34
HETATM   34  O1  UNL     1      -8.915  49.315 -27.093  1.00  0.00    -0.362 OA
HETATM   35  H5  UNL     1      -8.818  49.751 -26.231  1.00  0.00     0.213 HD
ENDBRANCH  27  34
ENDBRANCH  26  27
ENDBRANCH  24  26
ENDBRANCH   1  24
TORSDOF 4
ENDMDL
