MODEL 1
REMARK minimizedAffinity -8.39931488
REMARK CNNscore 0.59748137
REMARK CNNaffinity 6.83445692
REMARK  19 active torsions:
REMARK  status: ('A' for Active; 'I' for Inactive)
REMARK    1  A    between atoms: C14_15  and  O2_16 
REMARK    2  A    between atoms: C14_15  and  C15_17 
REMARK    3  A    between atoms: C15_17  and  C16_19 
REMARK    4  A    between atoms: C16_19  and  O4_20 
REMARK    5  A    between atoms: O4_20  and  C17_21 
REMARK    6  A    between atoms: C17_21  and  C18_23 
REMARK    7  A    between atoms: C18_23  and  C19_24 
REMARK    8  A    between atoms: C19_24  and  C20_25 
REMARK       I    between atoms: C20_25  and  N1_27 
REMARK    9  A    between atoms: N1_27  and  C21_28 
REMARK   10  A    between atoms: C21_28  and  C22_29 
REMARK   11  A    between atoms: C22_29  and  C23_30 
REMARK   12  A    between atoms: C23_30  and  C24_31 
REMARK   13  A    between atoms: C24_31  and  C25_32 
REMARK   14  A    between atoms: C25_32  and  C26_33 
REMARK       I    between atoms: C26_33  and  N2_35 
REMARK   15  A    between atoms: N2_35  and  C27_36 
REMARK   16  A    between atoms: C27_36  and  C28_37 
REMARK   17  A    between atoms: C28_37  and  C29_38 
REMARK   18  A    between atoms: C32_41  and  O8_42 
REMARK   19  A    between atoms: C33_43  and  O9_44 
ROOT
HETATM    1  C17 UNL     1       3.717   8.704  14.389  1.00  0.00     0.259 C 
HETATM    2  O5  UNL     1       4.084   8.678  15.555  1.00  0.00    -0.265 OA
ENDROOT
BRANCH   1   3
HETATM    3  O4  UNL     1       4.540   8.633  13.310  1.00  0.00    -0.314 OA
BRANCH   3   4
HETATM    4  C16 UNL     1       5.539   7.635  13.371  1.00  0.00     0.260 C 
BRANCH   4   5
HETATM    5  C15 UNL     1       7.014   8.008  13.536  1.00  0.00     0.185 C 
HETATM    6  O3  UNL     1       7.782   7.897  12.564  1.00  0.00    -0.292 OA
BRANCH   5   7
HETATM    7  C14 UNL     1       7.629   8.365  14.922  1.00  0.00     0.128 C 
HETATM    8  C13 UNL     1       8.965   7.692  15.208  1.00  0.00     0.047 C 
HETATM    9  C12 UNL     1      10.039   8.715  14.861  1.00  0.00     0.009 C 
HETATM   10  C11 UNL     1       9.358  10.097  14.802  1.00  0.00     0.002 C 
HETATM   11  C10 UNL     1      10.046  11.162  15.680  1.00  0.00    -0.004 C 
HETATM   12  C35 UNL     1       7.869   9.887  15.204  1.00  0.00    -0.002 C 
HETATM   13  C9  UNL     1      11.449  11.518  15.180  1.00  0.00     0.010 C 
HETATM   14  C39 UNL     1      10.115  10.734  17.170  1.00  0.00     0.002 C 
HETATM   15  C8  UNL     1      12.026  12.670  16.000  1.00  0.00     0.035 C 
HETATM   16  C7  UNL     1      12.033  12.362  17.479  1.00  0.00    -0.068 C 
HETATM   17  C2  UNL     1      10.718  11.855  18.097  1.00  0.00    -0.016 C 
HETATM   18  C6  UNL     1      13.162  12.546  18.184  1.00  0.00     0.053 C 
HETATM   19  C1  UNL     1       9.757  13.051  18.264  1.00  0.00     0.020 C 
HETATM   20  C3  UNL     1      11.007  11.226  19.495  1.00  0.00     0.022 C 
HETATM   21  C4  UNL     1      11.917  12.073  20.372  1.00  0.00     0.084 C 
HETATM   22  C5  UNL     1      13.208  12.375  19.656  1.00  0.00     0.149 C 
HETATM   23  O1  UNL     1      14.265  12.559  20.253  1.00  0.00    -0.293 OA
HETATM   24  C38 UNL     1       8.784  10.111  17.648  1.00  0.00     0.007 C 
HETATM   25  C37 UNL     1       7.622  10.327  16.686  1.00  0.00     0.013 C 
HETATM   26  C36 UNL     1       6.936  10.791  14.365  1.00  0.00     0.019 C 
BRANCH   7  27
HETATM   27  O2  UNL     1       6.692   7.836  15.885  1.00  0.00    -0.381 OA
HETATM   28  H19 UNL     1       5.828   7.769  15.423  1.00  0.00     0.211 HD
ENDBRANCH   7  27
ENDBRANCH   5   7
ENDBRANCH   4   5
ENDBRANCH   3   4
ENDBRANCH   1   3
BRANCH   1  29
HETATM   29  C18 UNL     1       2.281   8.767  13.930  1.00  0.00     0.120 C 
BRANCH  29  30
HETATM   30  C19 UNL     1       2.188   8.676  12.414  1.00  0.00     0.112 C 
BRANCH  30  31
HETATM   31  C20 UNL     1       0.755   8.790  11.935  1.00  0.00     0.217 C 
HETATM   32  O6  UNL     1       0.419   8.623  10.768  1.00  0.00    -0.274 OA
HETATM   33  N1  UNL     1      -0.119   9.106  12.947  1.00  0.00    -0.361 N 
HETATM   34  H26 UNL     1       0.200   8.932  13.902  1.00  0.00     0.162 HD
BRANCH  33  35
HETATM   35  C21 UNL     1      -1.540   9.236  12.727  1.00  0.00     0.122 C 
BRANCH  35  36
HETATM   36  C22 UNL     1      -2.310   7.929  12.902  1.00  0.00     0.020 C 
BRANCH  36  37
HETATM   37  C23 UNL     1      -3.836   8.035  12.956  1.00  0.00     0.002 C 
BRANCH  37  38
HETATM   38  C24 UNL     1      -4.437   8.975  14.008  1.00  0.00     0.009 C 
BRANCH  38  39
HETATM   39  C25 UNL     1      -4.804   8.431  15.388  1.00  0.00     0.103 C 
BRANCH  39  40
HETATM   40  C26 UNL     1      -6.156   7.743  15.482  1.00  0.00     0.217 C 
HETATM   41  O7  UNL     1      -7.231   8.332  15.450  1.00  0.00    -0.274 OA
HETATM   42  N2  UNL     1      -6.070   6.370  15.535  1.00  0.00    -0.361 N 
HETATM   43  H37 UNL     1      -5.183   5.920  15.344  1.00  0.00     0.162 HD
BRANCH  42  44
HETATM   44  C27 UNL     1      -7.256   5.530  15.587  1.00  0.00     0.127 C 
BRANCH  44  45
HETATM   45  C28 UNL     1      -7.881   5.269  14.210  1.00  0.00     0.058 C 
BRANCH  45  46
HETATM   46  C29 UNL     1      -7.070   4.317  13.363  1.00  0.00    -0.054 A 
HETATM   47  C30 UNL     1      -7.593   3.062  13.007  1.00  0.00     0.010 A 
HETATM   48  C31 UNL     1      -6.839   2.173  12.240  1.00  0.00     0.040 A 
HETATM   49  C32 UNL     1      -5.567   2.543  11.825  1.00  0.00     0.098 A 
HETATM   50  C33 UNL     1      -5.040   3.787  12.162  1.00  0.00     0.099 A 
HETATM   51  C34 UNL     1      -5.784   4.679  12.928  1.00  0.00     0.046 A 
BRANCH  49  52
HETATM   52  O8  UNL     1      -4.837   1.666  11.076  1.00  0.00    -0.358 OA
HETATM   53  H44 UNL     1      -3.983   2.119  10.930  1.00  0.00     0.217 HD
ENDBRANCH  49  52
BRANCH  50  54
HETATM   54  O9  UNL     1      -3.784   4.090  11.716  1.00  0.00    -0.358 OA
HETATM   55  H45 UNL     1      -3.589   5.012  11.965  1.00  0.00     0.217 HD
ENDBRANCH  50  54
ENDBRANCH  45  46
ENDBRANCH  44  45
ENDBRANCH  42  44
ENDBRANCH  39  40
ENDBRANCH  38  39
ENDBRANCH  37  38
ENDBRANCH  36  37
ENDBRANCH  35  36
ENDBRANCH  33  35
ENDBRANCH  30  31
ENDBRANCH  29  30
ENDBRANCH   1  29
TORSDOF 19
ENDMDL
MODEL 2
REMARK minimizedAffinity -8.53577518
REMARK CNNscore 0.573475182
REMARK CNNaffinity 7.20328665
REMARK  19 active torsions:
REMARK  status: ('A' for Active; 'I' for Inactive)
REMARK    1  A    between atoms: C14_15  and  O2_16 
REMARK    2  A    between atoms: C14_15  and  C15_17 
REMARK    3  A    between atoms: C15_17  and  C16_19 
REMARK    4  A    between atoms: C16_19  and  O4_20 
REMARK    5  A    between atoms: O4_20  and  C17_21 
REMARK    6  A    between atoms: C17_21  and  C18_23 
REMARK    7  A    between atoms: C18_23  and  C19_24 
REMARK    8  A    between atoms: C19_24  and  C20_25 
REMARK       I    between atoms: C20_25  and  N1_27 
REMARK    9  A    between atoms: N1_27  and  C21_28 
REMARK   10  A    between atoms: C21_28  and  C22_29 
REMARK   11  A    between atoms: C22_29  and  C23_30 
REMARK   12  A    between atoms: C23_30  and  C24_31 
REMARK   13  A    between atoms: C24_31  and  C25_32 
REMARK   14  A    between atoms: C25_32  and  C26_33 
REMARK       I    between atoms: C26_33  and  N2_35 
REMARK   15  A    between atoms: N2_35  and  C27_36 
REMARK   16  A    between atoms: C27_36  and  C28_37 
REMARK   17  A    between atoms: C28_37  and  C29_38 
REMARK   18  A    between atoms: C32_41  and  O8_42 
REMARK   19  A    between atoms: C33_43  and  O9_44 
ROOT
HETATM    1  C17 UNL     1      -4.319   2.176  11.749  1.00  0.00     0.259 C 
HETATM    2  O5  UNL     1      -4.347   0.998  11.424  1.00  0.00    -0.265 OA
ENDROOT
BRANCH   1   3
HETATM    3  O4  UNL     1      -3.219   2.838  12.194  1.00  0.00    -0.314 OA
BRANCH   3   4
HETATM    4  C16 UNL     1      -3.315   4.248  12.193  1.00  0.00     0.260 C 
BRANCH   4   5
HETATM    5  C15 UNL     1      -2.911   5.065  13.422  1.00  0.00     0.185 C 
HETATM    6  O3  UNL     1      -3.797   5.556  14.144  1.00  0.00    -0.292 OA
BRANCH   5   7
HETATM    7  C14 UNL     1      -1.430   5.447  13.714  1.00  0.00     0.128 C 
HETATM    8  C13 UNL     1      -0.414   4.400  13.277  1.00  0.00     0.047 C 
HETATM    9  C12 UNL     1       0.106   4.853  11.919  1.00  0.00     0.009 C 
HETATM   10  C11 UNL     1      -0.252   6.344  11.761  1.00  0.00     0.002 C 
HETATM   11  C10 UNL     1       0.954   7.233  11.398  1.00  0.00    -0.004 C 
HETATM   12  C35 UNL     1      -0.923   6.792  13.093  1.00  0.00    -0.002 C 
HETATM   13  C9  UNL     1       1.508   6.929  10.003  1.00  0.00     0.010 C 
HETATM   14  C39 UNL     1       2.093   7.130  12.447  1.00  0.00     0.002 C 
HETATM   15  C8  UNL     1       2.607   7.925   9.641  1.00  0.00     0.035 C 
HETATM   16  C7  UNL     1       3.708   7.952  10.676  1.00  0.00    -0.068 C 
HETATM   17  C2  UNL     1       3.287   8.112  12.146  1.00  0.00    -0.016 C 
HETATM   18  C6  UNL     1       4.987   7.844  10.277  1.00  0.00     0.053 C 
HETATM   19  C1  UNL     1       2.903   9.586  12.393  1.00  0.00     0.020 C 
HETATM   20  C3  UNL     1       4.479   7.726  13.076  1.00  0.00     0.022 C 
HETATM   21  C4  UNL     1       5.808   8.335  12.654  1.00  0.00     0.084 C 
HETATM   22  C5  UNL     1       6.121   7.978  11.224  1.00  0.00     0.149 C 
HETATM   23  O1  UNL     1       7.271   7.875  10.807  1.00  0.00    -0.293 OA
HETATM   24  C38 UNL     1       1.544   7.162  13.891  1.00  0.00     0.007 C 
HETATM   25  C37 UNL     1       0.084   7.591  13.986  1.00  0.00     0.013 C 
HETATM   26  C36 UNL     1      -2.080   7.784  12.823  1.00  0.00     0.019 C 
BRANCH   7  27
HETATM   27  O2  UNL     1      -1.348   5.517  15.154  1.00  0.00    -0.381 OA
HETATM   28  H19 UNL     1      -2.261   5.683  15.476  1.00  0.00     0.211 HD
ENDBRANCH   7  27
ENDBRANCH   5   7
ENDBRANCH   4   5
ENDBRANCH   3   4
ENDBRANCH   1   3
BRANCH   1  29
HETATM   29  C18 UNL     1      -5.486   3.129  11.666  1.00  0.00     0.120 C 
BRANCH  29  30
HETATM   30  C19 UNL     1      -6.734   2.519  12.287  1.00  0.00     0.112 C 
BRANCH  30  31
HETATM   31  C20 UNL     1      -7.574   3.565  12.992  1.00  0.00     0.217 C 
HETATM   32  O6  UNL     1      -8.799   3.526  13.039  1.00  0.00    -0.274 OA
HETATM   33  N1  UNL     1      -6.816   4.557  13.565  1.00  0.00    -0.361 N 
HETATM   34  H26 UNL     1      -5.830   4.347  13.727  1.00  0.00     0.162 HD
BRANCH  33  35
HETATM   35  C21 UNL     1      -7.405   5.641  14.315  1.00  0.00     0.122 C 
BRANCH  35  36
HETATM   36  C22 UNL     1      -7.029   5.638  15.795  1.00  0.00     0.020 C 
BRANCH  36  37
HETATM   37  C23 UNL     1      -7.542   6.811  16.634  1.00  0.00     0.002 C 
BRANCH  37  38
HETATM   38  C24 UNL     1      -8.180   7.985  15.883  1.00  0.00     0.009 C 
BRANCH  38  39
HETATM   39  C25 UNL     1      -9.647   8.334  16.131  1.00  0.00     0.103 C 
BRANCH  39  40
HETATM   40  C26 UNL     1     -10.503   8.492  14.885  1.00  0.00     0.217 C 
HETATM   41  O7  UNL     1     -10.579   9.527  14.230  1.00  0.00    -0.274 OA
HETATM   42  N2  UNL     1     -11.139   7.333  14.505  1.00  0.00    -0.361 N 
HETATM   43  H37 UNL     1     -10.881   6.458  14.945  1.00  0.00     0.162 HD
BRANCH  42  44
HETATM   44  C27 UNL     1     -11.971   7.270  13.315  1.00  0.00     0.127 C 
BRANCH  44  45
HETATM   45  C28 UNL     1     -13.364   6.679  13.574  1.00  0.00     0.058 C 
BRANCH  45  46
HETATM   46  C29 UNL     1     -14.481   7.663  13.322  1.00  0.00    -0.054 A 
HETATM   47  C30 UNL     1     -14.691   8.738  14.203  1.00  0.00     0.010 A 
HETATM   48  C31 UNL     1     -15.735   9.639  13.983  1.00  0.00     0.040 A 
HETATM   49  C32 UNL     1     -16.561   9.466  12.882  1.00  0.00     0.098 A 
HETATM   50  C33 UNL     1     -16.358   8.411  11.996  1.00  0.00     0.099 A 
HETATM   51  C34 UNL     1     -15.322   7.508  12.207  1.00  0.00     0.046 A 
BRANCH  49  52
HETATM   52  O8  UNL     1     -17.579  10.352  12.676  1.00  0.00    -0.358 OA
HETATM   53  H44 UNL     1     -18.035  10.021  11.877  1.00  0.00     0.217 HD
ENDBRANCH  49  52
BRANCH  50  54
HETATM   54  O9  UNL     1     -17.204   8.303  10.928  1.00  0.00    -0.358 OA
HETATM   55  H45 UNL     1     -16.891   7.571  10.367  1.00  0.00     0.217 HD
ENDBRANCH  50  54
ENDBRANCH  45  46
ENDBRANCH  44  45
ENDBRANCH  42  44
ENDBRANCH  39  40
ENDBRANCH  38  39
ENDBRANCH  37  38
ENDBRANCH  36  37
ENDBRANCH  35  36
ENDBRANCH  33  35
ENDBRANCH  30  31
ENDBRANCH  29  30
ENDBRANCH   1  29
TORSDOF 19
ENDMDL
MODEL 3
REMARK minimizedAffinity -8.21915531
REMARK CNNscore 0.500399828
REMARK CNNaffinity 7.12893295
REMARK  19 active torsions:
REMARK  status: ('A' for Active; 'I' for Inactive)
REMARK    1  A    between atoms: C14_15  and  O2_16 
REMARK    2  A    between atoms: C14_15  and  C15_17 
REMARK    3  A    between atoms: C15_17  and  C16_19 
REMARK    4  A    between atoms: C16_19  and  O4_20 
REMARK    5  A    between atoms: O4_20  and  C17_21 
REMARK    6  A    between atoms: C17_21  and  C18_23 
REMARK    7  A    between atoms: C18_23  and  C19_24 
REMARK    8  A    between atoms: C19_24  and  C20_25 
REMARK       I    between atoms: C20_25  and  N1_27 
REMARK    9  A    between atoms: N1_27  and  C21_28 
REMARK   10  A    between atoms: C21_28  and  C22_29 
REMARK   11  A    between atoms: C22_29  and  C23_30 
REMARK   12  A    between atoms: C23_30  and  C24_31 
REMARK   13  A    between atoms: C24_31  and  C25_32 
REMARK   14  A    between atoms: C25_32  and  C26_33 
REMARK       I    between atoms: C26_33  and  N2_35 
REMARK   15  A    between atoms: N2_35  and  C27_36 
REMARK   16  A    between atoms: C27_36  and  C28_37 
REMARK   17  A    between atoms: C28_37  and  C29_38 
REMARK   18  A    between atoms: C32_41  and  O8_42 
REMARK   19  A    between atoms: C33_43  and  O9_44 
ROOT
HETATM    1  C17 UNL     1      -4.769   8.274  14.066  1.00  0.00     0.259 C 
HETATM    2  O5  UNL     1      -5.148   8.522  12.930  1.00  0.00    -0.265 OA
ENDROOT
BRANCH   1   3
HETATM    3  O4  UNL     1      -3.902   9.035  14.783  1.00  0.00    -0.314 OA
BRANCH   3   4
HETATM    4  C16 UNL     1      -3.346   8.413  15.925  1.00  0.00     0.260 C 
BRANCH   4   5
HETATM    5  C15 UNL     1      -1.849   8.511  16.223  1.00  0.00     0.185 C 
HETATM    6  O3  UNL     1      -1.445   9.363  17.035  1.00  0.00    -0.292 OA
BRANCH   5   7
HETATM    7  C14 UNL     1      -0.789   7.697  15.425  1.00  0.00     0.128 C 
HETATM    8  C13 UNL     1      -1.366   6.552  14.602  1.00  0.00     0.047 C 
HETATM    9  C12 UNL     1      -1.513   7.082  13.182  1.00  0.00     0.009 C 
HETATM   10  C11 UNL     1      -0.636   8.345  13.067  1.00  0.00     0.002 C 
HETATM   11  C10 UNL     1       0.347   8.307  11.879  1.00  0.00    -0.004 C 
HETATM   12  C35 UNL     1       0.104   8.508  14.427  1.00  0.00    -0.002 C 
HETATM   13  C9  UNL     1      -0.369   8.338  10.525  1.00  0.00     0.010 C 
HETATM   14  C39 UNL     1       1.293   7.079  11.942  1.00  0.00     0.002 C 
HETATM   15  C8  UNL     1       0.649   8.439   9.391  1.00  0.00     0.035 C 
HETATM   16  C7  UNL     1       1.669   7.325   9.448  1.00  0.00    -0.068 C 
HETATM   17  C2  UNL     1       2.372   7.084  10.794  1.00  0.00    -0.016 C 
HETATM   18  C6  UNL     1       1.922   6.608   8.339  1.00  0.00     0.053 C 
HETATM   19  C1  UNL     1       3.435   8.183  11.001  1.00  0.00     0.020 C 
HETATM   20  C3  UNL     1       3.069   5.688  10.778  1.00  0.00     0.022 C 
HETATM   21  C4  UNL     1       3.864   5.416   9.509  1.00  0.00     0.084 C 
HETATM   22  C5  UNL     1       2.989   5.580   8.293  1.00  0.00     0.149 C 
HETATM   23  O1  UNL     1       3.182   4.956   7.254  1.00  0.00    -0.293 OA
HETATM   24  C38 UNL     1       1.833   6.847  13.371  1.00  0.00     0.007 C 
HETATM   25  C37 UNL     1       1.587   8.014  14.320  1.00  0.00     0.013 C 
HETATM   26  C36 UNL     1       0.215   9.999  14.821  1.00  0.00     0.019 C 
BRANCH   7  27
HETATM   27  O2  UNL     1       0.044   7.090  16.437  1.00  0.00    -0.381 OA
HETATM   28  H19 UNL     1      -0.051   7.644  17.243  1.00  0.00     0.211 HD
ENDBRANCH   7  27
ENDBRANCH   5   7
ENDBRANCH   4   5
ENDBRANCH   3   4
ENDBRANCH   1   3
BRANCH   1  29
HETATM   29  C18 UNL     1      -5.234   7.108  14.903  1.00  0.00     0.120 C 
BRANCH  29  30
HETATM   30  C19 UNL     1      -6.702   7.254  15.276  1.00  0.00     0.112 C 
BRANCH  30  31
HETATM   31  C20 UNL     1      -7.592   6.418  14.378  1.00  0.00     0.217 C 
HETATM   32  O6  UNL     1      -7.244   5.348  13.892  1.00  0.00    -0.274 OA
HETATM   33  N1  UNL     1      -8.822   6.992  14.167  1.00  0.00    -0.361 N 
HETATM   34  H26 UNL     1      -9.117   7.708  14.834  1.00  0.00     0.162 HD
BRANCH  33  35
HETATM   35  C21 UNL     1      -9.843   6.357  13.368  1.00  0.00     0.122 C 
BRANCH  35  36
HETATM   36  C22 UNL     1     -11.102   7.202  13.196  1.00  0.00     0.020 C 
BRANCH  36  37
HETATM   37  C23 UNL     1     -12.148   7.107  14.310  1.00  0.00     0.002 C 
BRANCH  37  38
HETATM   38  C24 UNL     1     -13.597   6.835  13.890  1.00  0.00     0.009 C 
BRANCH  38  39
HETATM   39  C25 UNL     1     -14.593   6.290  14.914  1.00  0.00     0.103 C 
BRANCH  39  40
HETATM   40  C26 UNL     1     -15.029   4.850  14.701  1.00  0.00     0.217 C 
HETATM   41  O7  UNL     1     -14.276   3.885  14.772  1.00  0.00    -0.274 OA
HETATM   42  N2  UNL     1     -16.382   4.713  14.489  1.00  0.00    -0.361 N 
HETATM   43  H37 UNL     1     -16.994   5.504  14.651  1.00  0.00     0.162 HD
BRANCH  42  44
HETATM   44  C27 UNL     1     -17.000   3.410  14.305  1.00  0.00     0.127 C 
BRANCH  44  45
HETATM   45  C28 UNL     1     -16.142   2.247  14.823  1.00  0.00     0.058 C 
BRANCH  45  46
HETATM   46  C29 UNL     1     -16.918   1.273  15.676  1.00  0.00    -0.054 A 
HETATM   47  C30 UNL     1     -18.319   1.210  15.586  1.00  0.00     0.010 A 
HETATM   48  C31 UNL     1     -19.040   0.323  16.387  1.00  0.00     0.040 A 
HETATM   49  C32 UNL     1     -18.359  -0.502  17.272  1.00  0.00     0.098 A 
HETATM   50  C33 UNL     1     -16.971  -0.456  17.364  1.00  0.00     0.099 A 
HETATM   51  C34 UNL     1     -16.243   0.425  16.571  1.00  0.00     0.046 A 
BRANCH  49  52
HETATM   52  O8  UNL     1     -19.074  -1.365  18.051  1.00  0.00    -0.358 OA
HETATM   53  H44 UNL     1     -18.401  -1.811  18.604  1.00  0.00     0.217 HD
ENDBRANCH  49  52
BRANCH  50  54
HETATM   54  O9  UNL     1     -16.362  -1.300  18.251  1.00  0.00    -0.358 OA
HETATM   55  H45 UNL     1     -15.398  -1.206  18.145  1.00  0.00     0.217 HD
ENDBRANCH  50  54
ENDBRANCH  45  46
ENDBRANCH  44  45
ENDBRANCH  42  44
ENDBRANCH  39  40
ENDBRANCH  38  39
ENDBRANCH  37  38
ENDBRANCH  36  37
ENDBRANCH  35  36
ENDBRANCH  33  35
ENDBRANCH  30  31
ENDBRANCH  29  30
ENDBRANCH   1  29
TORSDOF 19
ENDMDL
MODEL 4
REMARK minimizedAffinity -8.91852283
REMARK CNNscore 0.449723184
REMARK CNNaffinity 6.67085314
REMARK  19 active torsions:
REMARK  status: ('A' for Active; 'I' for Inactive)
REMARK    1  A    between atoms: C14_15  and  O2_16 
REMARK    2  A    between atoms: C14_15  and  C15_17 
REMARK    3  A    between atoms: C15_17  and  C16_19 
REMARK    4  A    between atoms: C16_19  and  O4_20 
REMARK    5  A    between atoms: O4_20  and  C17_21 
REMARK    6  A    between atoms: C17_21  and  C18_23 
REMARK    7  A    between atoms: C18_23  and  C19_24 
REMARK    8  A    between atoms: C19_24  and  C20_25 
REMARK       I    between atoms: C20_25  and  N1_27 
REMARK    9  A    between atoms: N1_27  and  C21_28 
REMARK   10  A    between atoms: C21_28  and  C22_29 
REMARK   11  A    between atoms: C22_29  and  C23_30 
REMARK   12  A    between atoms: C23_30  and  C24_31 
REMARK   13  A    between atoms: C24_31  and  C25_32 
REMARK   14  A    between atoms: C25_32  and  C26_33 
REMARK       I    between atoms: C26_33  and  N2_35 
REMARK   15  A    between atoms: N2_35  and  C27_36 
REMARK   16  A    between atoms: C27_36  and  C28_37 
REMARK   17  A    between atoms: C28_37  and  C29_38 
REMARK   18  A    between atoms: C32_41  and  O8_42 
REMARK   19  A    between atoms: C33_43  and  O9_44 
ROOT
HETATM    1  C17 UNL     1       3.956   6.523  10.472  1.00  0.00     0.259 C 
HETATM    2  O5  UNL     1       3.420   6.548  11.570  1.00  0.00    -0.265 OA
ENDROOT
BRANCH   1   3
HETATM    3  O4  UNL     1       5.289   6.372  10.257  1.00  0.00    -0.314 OA
BRANCH   3   4
HETATM    4  C16 UNL     1       6.107   6.473  11.406  1.00  0.00     0.260 C 
BRANCH   4   5
HETATM    5  C15 UNL     1       6.686   7.820  11.843  1.00  0.00     0.185 C 
HETATM    6  O3  UNL     1       7.138   8.595  10.982  1.00  0.00    -0.292 OA
BRANCH   5   7
HETATM    7  C14 UNL     1       6.884   8.190  13.343  1.00  0.00     0.128 C 
HETATM    8  C13 UNL     1       7.861   7.290  14.088  1.00  0.00     0.047 C 
HETATM    9  C12 UNL     1       9.195   8.024  14.095  1.00  0.00     0.009 C 
HETATM   10  C11 UNL     1       8.911   9.503  13.762  1.00  0.00     0.002 C 
HETATM   11  C10 UNL     1       9.503  10.491  14.787  1.00  0.00    -0.004 C 
HETATM   12  C35 UNL     1       7.365   9.650  13.640  1.00  0.00    -0.002 C 
HETATM   13  C9  UNL     1      11.035  10.493  14.782  1.00  0.00     0.010 C 
HETATM   14  C39 UNL     1       8.985  10.222  16.225  1.00  0.00     0.002 C 
HETATM   15  C8  UNL     1      11.565  11.581  15.712  1.00  0.00     0.035 C 
HETATM   16  C7  UNL     1      11.021  11.442  17.115  1.00  0.00    -0.068 C 
HETATM   17  C2  UNL     1       9.498  11.288  17.265  1.00  0.00    -0.016 C 
HETATM   18  C6  UNL     1      11.871  11.464  18.155  1.00  0.00     0.053 C 
HETATM   19  C1  UNL     1       8.838  12.668  17.055  1.00  0.00     0.020 C 
HETATM   20  C3  UNL     1       9.163  10.769  18.697  1.00  0.00     0.022 C 
HETATM   21  C4  UNL     1       9.910  11.499  19.803  1.00  0.00     0.084 C 
HETATM   22  C5  UNL     1      11.396  11.447  19.560  1.00  0.00     0.149 C 
HETATM   23  O1  UNL     1      12.215  11.472  20.474  1.00  0.00    -0.293 OA
HETATM   24  C38 UNL     1       7.465   9.944  16.241  1.00  0.00     0.007 C 
HETATM   25  C37 UNL     1       6.760  10.291  14.935  1.00  0.00     0.013 C 
HETATM   26  C36 UNL     1       6.991  10.632  12.505  1.00  0.00     0.019 C 
BRANCH   7  27
HETATM   27  O2  UNL     1       5.590   7.974  13.947  1.00  0.00    -0.381 OA
HETATM   28  H19 UNL     1       4.931   8.037  13.220  1.00  0.00     0.211 HD
ENDBRANCH   7  27
ENDBRANCH   5   7
ENDBRANCH   4   5
ENDBRANCH   3   4
ENDBRANCH   1   3
BRANCH   1  29
HETATM   29  C18 UNL     1       3.234   6.603   9.149  1.00  0.00     0.120 C 
BRANCH  29  30
HETATM   30  C19 UNL     1       2.676   7.999   8.915  1.00  0.00     0.112 C 
BRANCH  30  31
HETATM   31  C20 UNL     1       1.180   8.049   9.154  1.00  0.00     0.217 C 
HETATM   32  O6  UNL     1       0.363   8.278   8.268  1.00  0.00    -0.274 OA
HETATM   33  N1  UNL     1       0.844   7.815  10.465  1.00  0.00    -0.361 N 
HETATM   34  H26 UNL     1       1.545   7.351  11.045  1.00  0.00     0.162 HD
BRANCH  33  35
HETATM   35  C21 UNL     1      -0.528   7.784  10.916  1.00  0.00     0.122 C 
BRANCH  35  36
HETATM   36  C22 UNL     1      -0.958   9.047  11.658  1.00  0.00     0.020 C 
BRANCH  36  37
HETATM   37  C23 UNL     1      -1.739   8.844  12.959  1.00  0.00     0.002 C 
BRANCH  37  38
HETATM   38  C24 UNL     1      -3.223   8.478  12.836  1.00  0.00     0.009 C 
BRANCH  38  39
HETATM   39  C25 UNL     1      -4.148   8.653  14.040  1.00  0.00     0.103 C 
BRANCH  39  40
HETATM   40  C26 UNL     1      -4.534   7.372  14.760  1.00  0.00     0.217 C 
HETATM   41  O7  UNL     1      -3.751   6.683  15.407  1.00  0.00    -0.274 OA
HETATM   42  N2  UNL     1      -5.878   7.083  14.685  1.00  0.00    -0.361 N 
HETATM   43  H37 UNL     1      -6.517   7.783  14.328  1.00  0.00     0.162 HD
BRANCH  42  44
HETATM   44  C27 UNL     1      -6.450   5.921  15.344  1.00  0.00     0.127 C 
BRANCH  44  45
HETATM   45  C28 UNL     1      -7.550   5.233  14.524  1.00  0.00     0.058 C 
BRANCH  45  46
HETATM   46  C29 UNL     1      -7.011   4.218  13.544  1.00  0.00    -0.054 A 
HETATM   47  C30 UNL     1      -7.709   3.022  13.306  1.00  0.00     0.010 A 
HETATM   48  C31 UNL     1      -7.203   2.074  12.415  1.00  0.00     0.040 A 
HETATM   49  C32 UNL     1      -6.006   2.326  11.760  1.00  0.00     0.098 A 
HETATM   50  C33 UNL     1      -5.309   3.512  11.980  1.00  0.00     0.099 A 
HETATM   51  C34 UNL     1      -5.804   4.462  12.867  1.00  0.00     0.046 A 
BRANCH  49  52
HETATM   52  O8  UNL     1      -5.520   1.393  10.891  1.00  0.00    -0.358 OA
HETATM   53  H44 UNL     1      -4.670   1.765  10.581  1.00  0.00     0.217 HD
ENDBRANCH  49  52
BRANCH  50  54
HETATM   54  O9  UNL     1      -4.140   3.700  11.298  1.00  0.00    -0.358 OA
HETATM   55  H45 UNL     1      -3.814   4.597  11.497  1.00  0.00     0.217 HD
ENDBRANCH  50  54
ENDBRANCH  45  46
ENDBRANCH  44  45
ENDBRANCH  42  44
ENDBRANCH  39  40
ENDBRANCH  38  39
ENDBRANCH  37  38
ENDBRANCH  36  37
ENDBRANCH  35  36
ENDBRANCH  33  35
ENDBRANCH  30  31
ENDBRANCH  29  30
ENDBRANCH   1  29
TORSDOF 19
ENDMDL
MODEL 5
REMARK minimizedAffinity -8.33474255
REMARK CNNscore 0.444612712
REMARK CNNaffinity 7.19208288
REMARK  19 active torsions:
REMARK  status: ('A' for Active; 'I' for Inactive)
REMARK    1  A    between atoms: C14_15  and  O2_16 
REMARK    2  A    between atoms: C14_15  and  C15_17 
REMARK    3  A    between atoms: C15_17  and  C16_19 
REMARK    4  A    between atoms: C16_19  and  O4_20 
REMARK    5  A    between atoms: O4_20  and  C17_21 
REMARK    6  A    between atoms: C17_21  and  C18_23 
REMARK    7  A    between atoms: C18_23  and  C19_24 
REMARK    8  A    between atoms: C19_24  and  C20_25 
REMARK       I    between atoms: C20_25  and  N1_27 
REMARK    9  A    between atoms: N1_27  and  C21_28 
REMARK   10  A    between atoms: C21_28  and  C22_29 
REMARK   11  A    between atoms: C22_29  and  C23_30 
REMARK   12  A    between atoms: C23_30  and  C24_31 
REMARK   13  A    between atoms: C24_31  and  C25_32 
REMARK   14  A    between atoms: C25_32  and  C26_33 
REMARK       I    between atoms: C26_33  and  N2_35 
REMARK   15  A    between atoms: N2_35  and  C27_36 
REMARK   16  A    between atoms: C27_36  and  C28_37 
REMARK   17  A    between atoms: C28_37  and  C29_38 
REMARK   18  A    between atoms: C32_41  and  O8_42 
REMARK   19  A    between atoms: C33_43  and  O9_44 
ROOT
HETATM    1  C17 UNL     1      -9.503   8.465  15.125  1.00  0.00     0.259 C 
HETATM    2  O5  UNL     1      -9.310   9.567  15.617  1.00  0.00    -0.265 OA
ENDROOT
BRANCH   1   3
HETATM    3  O4  UNL     1      -8.748   7.360  15.363  1.00  0.00    -0.314 OA
BRANCH   3   4
HETATM    4  C16 UNL     1      -7.455   7.607  15.879  1.00  0.00     0.260 C 
BRANCH   4   5
HETATM    5  C15 UNL     1      -6.273   6.711  15.501  1.00  0.00     0.185 C 
HETATM    6  O3  UNL     1      -6.437   5.478  15.452  1.00  0.00    -0.292 OA
BRANCH   5   7
HETATM    7  C14 UNL     1      -4.829   7.268  15.337  1.00  0.00     0.128 C 
HETATM    8  C13 UNL     1      -3.750   6.422  16.002  1.00  0.00     0.047 C 
HETATM    9  C12 UNL     1      -3.160   5.546  14.905  1.00  0.00     0.009 C 
HETATM   10  C11 UNL     1      -3.559   6.169  13.552  1.00  0.00     0.002 C 
HETATM   11  C10 UNL     1      -2.363   6.416  12.611  1.00  0.00    -0.004 C 
HETATM   12  C35 UNL     1      -4.330   7.484  13.868  1.00  0.00    -0.002 C 
HETATM   13  C9  UNL     1      -1.709   5.114  12.138  1.00  0.00     0.010 C 
HETATM   14  C39 UNL     1      -1.292   7.335  13.255  1.00  0.00     0.002 C 
HETATM   15  C8  UNL     1      -0.625   5.411  11.105  1.00  0.00     0.035 C 
HETATM   16  C7  UNL     1       0.406   6.383  11.631  1.00  0.00    -0.068 C 
HETATM   17  C2  UNL     1      -0.116   7.683  12.267  1.00  0.00    -0.016 C 
HETATM   18  C6  UNL     1       1.711   6.082  11.519  1.00  0.00     0.053 C 
HETATM   19  C1  UNL     1      -0.566   8.638  11.142  1.00  0.00     0.020 C 
HETATM   20  C3  UNL     1       1.026   8.357  13.090  1.00  0.00     0.022 C 
HETATM   21  C4  UNL     1       2.358   8.416  12.356  1.00  0.00     0.084 C 
HETATM   22  C5  UNL     1       2.775   7.039  11.909  1.00  0.00     0.149 C 
HETATM   23  O1  UNL     1       3.953   6.715  11.783  1.00  0.00    -0.293 OA
HETATM   24  C38 UNL     1      -1.934   8.536  13.985  1.00  0.00     0.007 C 
HETATM   25  C37 UNL     1      -3.411   8.735  13.664  1.00  0.00     0.013 C 
HETATM   26  C36 UNL     1      -5.500   7.691  12.878  1.00  0.00     0.019 C 
BRANCH   7  27
HETATM   27  O2  UNL     1      -4.843   8.532  16.035  1.00  0.00    -0.381 OA
HETATM   28  H19 UNL     1      -5.780   8.825  16.059  1.00  0.00     0.211 HD
ENDBRANCH   7  27
ENDBRANCH   5   7
ENDBRANCH   4   5
ENDBRANCH   3   4
ENDBRANCH   1   3
BRANCH   1  29
HETATM   29  C18 UNL     1     -10.646   8.110  14.206  1.00  0.00     0.120 C 
BRANCH  29  30
HETATM   30  C19 UNL     1     -11.177   9.345  13.494  1.00  0.00     0.112 C 
BRANCH  30  31
HETATM   31  C20 UNL     1     -12.610   9.155  13.041  1.00  0.00     0.217 C 
HETATM   32  O6  UNL     1     -13.077   9.686  12.039  1.00  0.00    -0.274 OA
HETATM   33  N1  UNL     1     -13.326   8.331  13.876  1.00  0.00    -0.361 N 
HETATM   34  H26 UNL     1     -12.787   7.718  14.490  1.00  0.00     0.162 HD
BRANCH  33  35
HETATM   35  C21 UNL     1     -14.705   7.985  13.621  1.00  0.00     0.122 C 
BRANCH  35  36
HETATM   36  C22 UNL     1     -14.943   6.484  13.475  1.00  0.00     0.020 C 
BRANCH  36  37
HETATM   37  C23 UNL     1     -16.014   5.870  14.380  1.00  0.00     0.002 C 
BRANCH  37  38
HETATM   38  C24 UNL     1     -16.128   4.341  14.394  1.00  0.00     0.009 C 
BRANCH  38  39
HETATM   39  C25 UNL     1     -14.910   3.495  14.762  1.00  0.00     0.103 C 
BRANCH  39  40
HETATM   40  C26 UNL     1     -15.153   1.997  14.842  1.00  0.00     0.217 C 
HETATM   41  O7  UNL     1     -14.574   1.246  15.621  1.00  0.00    -0.274 OA
HETATM   42  N2  UNL     1     -16.148   1.557  14.000  1.00  0.00    -0.361 N 
HETATM   43  H37 UNL     1     -16.742   2.234  13.535  1.00  0.00     0.162 HD
BRANCH  42  44
HETATM   44  C27 UNL     1     -16.557   0.162  13.959  1.00  0.00     0.127 C 
BRANCH  44  45
HETATM   45  C28 UNL     1     -17.577  -0.208  15.044  1.00  0.00     0.058 C 
BRANCH  45  46
HETATM   46  C29 UNL     1     -17.175  -1.423  15.845  1.00  0.00    -0.054 A 
HETATM   47  C30 UNL     1     -17.069  -2.679  15.224  1.00  0.00     0.010 A 
HETATM   48  C31 UNL     1     -16.716  -3.808  15.966  1.00  0.00     0.040 A 
HETATM   49  C32 UNL     1     -16.463  -3.677  17.324  1.00  0.00     0.098 A 
HETATM   50  C33 UNL     1     -16.555  -2.436  17.950  1.00  0.00     0.099 A 
HETATM   51  C34 UNL     1     -16.908  -1.306  17.220  1.00  0.00     0.046 A 
BRANCH  49  52
HETATM   52  O8  UNL     1     -16.119  -4.786  18.041  1.00  0.00    -0.358 OA
HETATM   53  H44 UNL     1     -16.022  -4.465  18.959  1.00  0.00     0.217 HD
ENDBRANCH  49  52
BRANCH  50  54
HETATM   54  O9  UNL     1     -16.287  -2.376  19.290  1.00  0.00    -0.358 OA
HETATM   55  H45 UNL     1     -16.318  -1.441  19.563  1.00  0.00     0.217 HD
ENDBRANCH  50  54
ENDBRANCH  45  46
ENDBRANCH  44  45
ENDBRANCH  42  44
ENDBRANCH  39  40
ENDBRANCH  38  39
ENDBRANCH  37  38
ENDBRANCH  36  37
ENDBRANCH  35  36
ENDBRANCH  33  35
ENDBRANCH  30  31
ENDBRANCH  29  30
ENDBRANCH   1  29
TORSDOF 19
ENDMDL
MODEL 6
REMARK minimizedAffinity -8.12384987
REMARK CNNscore 0.356771201
REMARK CNNaffinity 6.98024321
REMARK  19 active torsions:
REMARK  status: ('A' for Active; 'I' for Inactive)
REMARK    1  A    between atoms: C14_15  and  O2_16 
REMARK    2  A    between atoms: C14_15  and  C15_17 
REMARK    3  A    between atoms: C15_17  and  C16_19 
REMARK    4  A    between atoms: C16_19  and  O4_20 
REMARK    5  A    between atoms: O4_20  and  C17_21 
REMARK    6  A    between atoms: C17_21  and  C18_23 
REMARK    7  A    between atoms: C18_23  and  C19_24 
REMARK    8  A    between atoms: C19_24  and  C20_25 
REMARK       I    between atoms: C20_25  and  N1_27 
REMARK    9  A    between atoms: N1_27  and  C21_28 
REMARK   10  A    between atoms: C21_28  and  C22_29 
REMARK   11  A    between atoms: C22_29  and  C23_30 
REMARK   12  A    between atoms: C23_30  and  C24_31 
REMARK   13  A    between atoms: C24_31  and  C25_32 
REMARK   14  A    between atoms: C25_32  and  C26_33 
REMARK       I    between atoms: C26_33  and  N2_35 
REMARK   15  A    between atoms: N2_35  and  C27_36 
REMARK   16  A    between atoms: C27_36  and  C28_37 
REMARK   17  A    between atoms: C28_37  and  C29_38 
REMARK   18  A    between atoms: C32_41  and  O8_42 
REMARK   19  A    between atoms: C33_43  and  O9_44 
ROOT
HETATM    1  C17 UNL     1      -0.689   5.273  11.839  1.00  0.00     0.259 C 
HETATM    2  O5  UNL     1      -0.872   4.095  11.570  1.00  0.00    -0.265 OA
ENDROOT
BRANCH   1   3
HETATM    3  O4  UNL     1      -1.427   5.996  12.722  1.00  0.00    -0.314 OA
BRANCH   3   4
HETATM    4  C16 UNL     1      -0.962   7.307  12.975  1.00  0.00     0.260 C 
BRANCH   4   5
HETATM    5  C15 UNL     1      -1.365   8.053  14.249  1.00  0.00     0.185 C 
HETATM    6  O3  UNL     1      -0.546   8.155  15.179  1.00  0.00    -0.292 OA
BRANCH   5   7
HETATM    7  C14 UNL     1      -2.821   8.547  14.494  1.00  0.00     0.128 C 
HETATM    8  C13 UNL     1      -3.520   9.082  13.251  1.00  0.00     0.047 C 
HETATM    9  C12 UNL     1      -4.374   7.938  12.718  1.00  0.00     0.009 C 
HETATM   10  C11 UNL     1      -4.528   6.908  13.856  1.00  0.00     0.002 C 
HETATM   11  C10 UNL     1      -5.993   6.532  14.153  1.00  0.00    -0.004 C 
HETATM   12  C35 UNL     1      -3.816   7.505  15.106  1.00  0.00    -0.002 C 
HETATM   13  C9  UNL     1      -6.650   5.772  12.997  1.00  0.00     0.010 C 
HETATM   14  C39 UNL     1      -6.852   7.771  14.520  1.00  0.00     0.002 C 
HETATM   15  C8  UNL     1      -8.047   5.306  13.396  1.00  0.00     0.035 C 
HETATM   16  C7  UNL     1      -8.914   6.453  13.863  1.00  0.00    -0.068 C 
HETATM   17  C2  UNL     1      -8.324   7.391  14.929  1.00  0.00    -0.016 C 
HETATM   18  C6  UNL     1     -10.144   6.601  13.342  1.00  0.00     0.053 C 
HETATM   19  C1  UNL     1      -8.381   6.680  16.298  1.00  0.00     0.020 C 
HETATM   20  C3  UNL     1      -9.165   8.703  14.994  1.00  0.00     0.022 C 
HETATM   21  C4  UNL     1     -10.668   8.468  15.017  1.00  0.00     0.084 C 
HETATM   22  C5  UNL     1     -11.088   7.632  13.835  1.00  0.00     0.149 C 
HETATM   23  O1  UNL     1     -12.202   7.724  13.327  1.00  0.00    -0.293 OA
HETATM   24  C38 UNL     1      -6.107   8.716  15.490  1.00  0.00     0.007 C 
HETATM   25  C37 UNL     1      -4.858   8.101  16.111  1.00  0.00     0.013 C 
HETATM   26  C36 UNL     1      -3.086   6.400  15.907  1.00  0.00     0.019 C 
BRANCH   7  27
HETATM   27  O2  UNL     1      -2.680   9.668  15.394  1.00  0.00    -0.381 OA
HETATM   28  H19 UNL     1      -1.822   9.544  15.858  1.00  0.00     0.211 HD
ENDBRANCH   7  27
ENDBRANCH   5   7
ENDBRANCH   4   5
ENDBRANCH   3   4
ENDBRANCH   1   3
BRANCH   1  29
HETATM   29  C18 UNL     1       0.421   6.131  11.284  1.00  0.00     0.120 C 
BRANCH  29  30
HETATM   30  C19 UNL     1       1.617   5.281  10.879  1.00  0.00     0.112 C 
BRANCH  30  31
HETATM   31  C20 UNL     1       2.785   6.137  10.435  1.00  0.00     0.217 C 
HETATM   32  O6  UNL     1       2.739   6.894   9.471  1.00  0.00    -0.274 OA
HETATM   33  N1  UNL     1       3.897   5.969  11.224  1.00  0.00    -0.361 N 
HETATM   34  H26 UNL     1       3.748   5.562  12.149  1.00  0.00     0.162 HD
BRANCH  33  35
HETATM   35  C21 UNL     1       5.118   6.707  11.003  1.00  0.00     0.122 C 
BRANCH  35  36
HETATM   36  C22 UNL     1       5.075   8.137  11.536  1.00  0.00     0.020 C 
BRANCH  36  37
HETATM   37  C23 UNL     1       4.548   8.322  12.962  1.00  0.00     0.002 C 
BRANCH  37  38
HETATM   38  C24 UNL     1       5.502   8.947  13.986  1.00  0.00     0.009 C 
BRANCH  38  39
HETATM   39  C25 UNL     1       6.013   8.107  15.156  1.00  0.00     0.103 C 
BRANCH  39  40
HETATM   40  C26 UNL     1       7.517   8.139  15.377  1.00  0.00     0.217 C 
HETATM   41  O7  UNL     1       8.343   7.794  14.539  1.00  0.00    -0.274 OA
HETATM   42  N2  UNL     1       7.880   8.668  16.594  1.00  0.00    -0.361 N 
HETATM   43  H37 UNL     1       7.183   9.134  17.162  1.00  0.00     0.162 HD
BRANCH  42  44
HETATM   44  C27 UNL     1       9.275   8.821  16.977  1.00  0.00     0.127 C 
BRANCH  44  45
HETATM   45  C28 UNL     1       9.781  10.266  16.874  1.00  0.00     0.058 C 
BRANCH  45  46
HETATM   46  C29 UNL     1       9.949  10.932  18.219  1.00  0.00    -0.054 A 
HETATM   47  C30 UNL     1       8.823  11.328  18.961  1.00  0.00     0.010 A 
HETATM   48  C31 UNL     1       8.976  11.960  20.196  1.00  0.00     0.040 A 
HETATM   49  C32 UNL     1      10.254  12.190  20.689  1.00  0.00     0.098 A 
HETATM   50  C33 UNL     1      11.378  11.794  19.968  1.00  0.00     0.099 A 
HETATM   51  C34 UNL     1      11.236  11.164  18.736  1.00  0.00     0.046 A 
BRANCH  49  52
HETATM   52  O8  UNL     1      10.393  12.809  21.896  1.00  0.00    -0.358 OA
HETATM   53  H44 UNL     1      11.359  12.890  22.021  1.00  0.00     0.217 HD
ENDBRANCH  49  52
BRANCH  50  54
HETATM   54  O9  UNL     1      12.606  12.044  20.514  1.00  0.00    -0.358 OA
HETATM   55  H45 UNL     1      13.281  11.645  19.935  1.00  0.00     0.217 HD
ENDBRANCH  50  54
ENDBRANCH  45  46
ENDBRANCH  44  45
ENDBRANCH  42  44
ENDBRANCH  39  40
ENDBRANCH  38  39
ENDBRANCH  37  38
ENDBRANCH  36  37
ENDBRANCH  35  36
ENDBRANCH  33  35
ENDBRANCH  30  31
ENDBRANCH  29  30
ENDBRANCH   1  29
TORSDOF 19
ENDMDL
MODEL 7
REMARK minimizedAffinity -9.23991585
REMARK CNNscore 0.303191483
REMARK CNNaffinity 7.50366592
REMARK  19 active torsions:
REMARK  status: ('A' for Active; 'I' for Inactive)
REMARK    1  A    between atoms: C14_15  and  O2_16 
REMARK    2  A    between atoms: C14_15  and  C15_17 
REMARK    3  A    between atoms: C15_17  and  C16_19 
REMARK    4  A    between atoms: C16_19  and  O4_20 
REMARK    5  A    between atoms: O4_20  and  C17_21 
REMARK    6  A    between atoms: C17_21  and  C18_23 
REMARK    7  A    between atoms: C18_23  and  C19_24 
REMARK    8  A    between atoms: C19_24  and  C20_25 
REMARK       I    between atoms: C20_25  and  N1_27 
REMARK    9  A    between atoms: N1_27  and  C21_28 
REMARK   10  A    between atoms: C21_28  and  C22_29 
REMARK   11  A    between atoms: C22_29  and  C23_30 
REMARK   12  A    between atoms: C23_30  and  C24_31 
REMARK   13  A    between atoms: C24_31  and  C25_32 
REMARK   14  A    between atoms: C25_32  and  C26_33 
REMARK       I    between atoms: C26_33  and  N2_35 
REMARK   15  A    between atoms: N2_35  and  C27_36 
REMARK   16  A    between atoms: C27_36  and  C28_37 
REMARK   17  A    between atoms: C28_37  and  C29_38 
REMARK   18  A    between atoms: C32_41  and  O8_42 
REMARK   19  A    between atoms: C33_43  and  O9_44 
ROOT
HETATM    1  C17 UNL     1      -4.481   8.998  14.222  1.00  0.00     0.259 C 
HETATM    2  O5  UNL     1      -4.565   8.825  13.015  1.00  0.00    -0.265 OA
ENDROOT
BRANCH   1   3
HETATM    3  O4  UNL     1      -3.401   9.514  14.864  1.00  0.00    -0.314 OA
BRANCH   3   4
HETATM    4  C16 UNL     1      -2.958   8.787  15.993  1.00  0.00     0.260 C 
BRANCH   4   5
HETATM    5  C15 UNL     1      -1.469   8.686  16.329  1.00  0.00     0.185 C 
HETATM    6  O3  UNL     1      -0.997   9.409  17.225  1.00  0.00    -0.292 OA
BRANCH   5   7
HETATM    7  C14 UNL     1      -0.483   7.831  15.480  1.00  0.00     0.128 C 
HETATM    8  C13 UNL     1      -1.146   6.714  14.683  1.00  0.00     0.047 C 
HETATM    9  C12 UNL     1      -1.339   7.255  13.272  1.00  0.00     0.009 C 
HETATM   10  C11 UNL     1      -0.416   8.480  13.118  1.00  0.00     0.002 C 
HETATM   11  C10 UNL     1       0.507   8.406  11.884  1.00  0.00    -0.004 C 
HETATM   12  C35 UNL     1       0.395   8.607  14.441  1.00  0.00    -0.002 C 
HETATM   13  C9  UNL     1      -0.271   8.473  10.566  1.00  0.00     0.010 C 
HETATM   14  C39 UNL     1       1.403   7.140  11.900  1.00  0.00     0.002 C 
HETATM   15  C8  UNL     1       0.695   8.535   9.385  1.00  0.00     0.035 C 
HETATM   16  C7  UNL     1       1.669   7.379   9.391  1.00  0.00    -0.068 C 
HETATM   17  C2  UNL     1       2.425   7.104  10.702  1.00  0.00    -0.016 C 
HETATM   18  C6  UNL     1       1.839   6.657   8.270  1.00  0.00     0.053 C 
HETATM   19  C1  UNL     1       3.542   8.157  10.860  1.00  0.00     0.020 C 
HETATM   20  C3  UNL     1       3.061   5.680  10.650  1.00  0.00     0.022 C 
HETATM   21  C4  UNL     1       3.782   5.379   9.344  1.00  0.00     0.084 C 
HETATM   22  C5  UNL     1       2.859   5.585   8.171  1.00  0.00     0.149 C 
HETATM   23  O1  UNL     1       2.975   4.957   7.123  1.00  0.00    -0.293 OA
HETATM   24  C38 UNL     1       2.000   6.880  13.301  1.00  0.00     0.007 C 
HETATM   25  C37 UNL     1       1.848   8.053  14.263  1.00  0.00     0.013 C 
HETATM   26  C36 UNL     1       0.587  10.092  14.833  1.00  0.00     0.019 C 
BRANCH   7  27
HETATM   27  O2  UNL     1       0.371   7.186  16.450  1.00  0.00    -0.381 OA
HETATM   28  H19 UNL     1       0.337   7.740  17.260  1.00  0.00     0.211 HD
ENDBRANCH   7  27
ENDBRANCH   5   7
ENDBRANCH   4   5
ENDBRANCH   3   4
ENDBRANCH   1   3
BRANCH   1  29
HETATM   29  C18 UNL     1      -5.580   8.721  15.219  1.00  0.00     0.120 C 
BRANCH  29  30
HETATM   30  C19 UNL     1      -6.890   8.406  14.513  1.00  0.00     0.112 C 
BRANCH  30  31
HETATM   31  C20 UNL     1      -8.081   8.619  15.426  1.00  0.00     0.217 C 
HETATM   32  O6  UNL     1      -8.374   7.857  16.340  1.00  0.00    -0.274 OA
HETATM   33  N1  UNL     1      -8.794   9.751  15.113  1.00  0.00    -0.361 N 
HETATM   34  H26 UNL     1      -8.315  10.456  14.550  1.00  0.00     0.162 HD
BRANCH  33  35
HETATM   35  C21 UNL     1      -9.951  10.167  15.870  1.00  0.00     0.122 C 
BRANCH  35  36
HETATM   36  C22 UNL     1     -11.168  10.487  15.004  1.00  0.00     0.020 C 
BRANCH  36  37
HETATM   37  C23 UNL     1     -12.360   9.533  15.120  1.00  0.00     0.002 C 
BRANCH  37  38
HETATM   38  C24 UNL     1     -12.458   8.404  14.088  1.00  0.00     0.009 C 
BRANCH  38  39
HETATM   39  C25 UNL     1     -11.762   7.070  14.357  1.00  0.00     0.103 C 
BRANCH  39  40
HETATM   40  C26 UNL     1     -10.720   6.656  13.331  1.00  0.00     0.217 C 
HETATM   41  O7  UNL     1     -10.785   6.926  12.136  1.00  0.00    -0.274 OA
HETATM   42  N2  UNL     1      -9.640   6.003  13.879  1.00  0.00    -0.361 N 
HETATM   43  H37 UNL     1      -9.524   5.990  14.885  1.00  0.00     0.162 HD
BRANCH  42  44
HETATM   44  C27 UNL     1      -8.517   5.563  13.066  1.00  0.00     0.127 C 
BRANCH  44  45
HETATM   45  C28 UNL     1      -7.326   5.058  13.891  1.00  0.00     0.058 C 
BRANCH  45  46
HETATM   46  C29 UNL     1      -6.256   4.406  13.049  1.00  0.00    -0.054 A 
HETATM   47  C30 UNL     1      -4.922   4.843  13.133  1.00  0.00     0.010 A 
HETATM   48  C31 UNL     1      -3.934   4.255  12.342  1.00  0.00     0.040 A 
HETATM   49  C32 UNL     1      -4.279   3.229  11.474  1.00  0.00     0.098 A 
HETATM   50  C33 UNL     1      -5.595   2.780  11.387  1.00  0.00     0.099 A 
HETATM   51  C34 UNL     1      -6.587   3.360  12.170  1.00  0.00     0.046 A 
BRANCH  49  52
HETATM   52  O8  UNL     1      -3.306   2.661  10.704  1.00  0.00    -0.358 OA
HETATM   53  H44 UNL     1      -3.777   1.998  10.162  1.00  0.00     0.217 HD
ENDBRANCH  49  52
BRANCH  50  54
HETATM   54  O9  UNL     1      -5.865   1.762  10.516  1.00  0.00    -0.358 OA
HETATM   55  H45 UNL     1      -6.801   1.512  10.625  1.00  0.00     0.217 HD
ENDBRANCH  50  54
ENDBRANCH  45  46
ENDBRANCH  44  45
ENDBRANCH  42  44
ENDBRANCH  39  40
ENDBRANCH  38  39
ENDBRANCH  37  38
ENDBRANCH  36  37
ENDBRANCH  35  36
ENDBRANCH  33  35
ENDBRANCH  30  31
ENDBRANCH  29  30
ENDBRANCH   1  29
TORSDOF 19
ENDMDL
MODEL 8
REMARK minimizedAffinity -8.7589817
REMARK CNNscore 0.30026266
REMARK CNNaffinity 6.4923501
REMARK  19 active torsions:
REMARK  status: ('A' for Active; 'I' for Inactive)
REMARK    1  A    between atoms: C14_15  and  O2_16 
REMARK    2  A    between atoms: C14_15  and  C15_17 
REMARK    3  A    between atoms: C15_17  and  C16_19 
REMARK    4  A    between atoms: C16_19  and  O4_20 
REMARK    5  A    between atoms: O4_20  and  C17_21 
REMARK    6  A    between atoms: C17_21  and  C18_23 
REMARK    7  A    between atoms: C18_23  and  C19_24 
REMARK    8  A    between atoms: C19_24  and  C20_25 
REMARK       I    between atoms: C20_25  and  N1_27 
REMARK    9  A    between atoms: N1_27  and  C21_28 
REMARK   10  A    between atoms: C21_28  and  C22_29 
REMARK   11  A    between atoms: C22_29  and  C23_30 
REMARK   12  A    between atoms: C23_30  and  C24_31 
REMARK   13  A    between atoms: C24_31  and  C25_32 
REMARK   14  A    between atoms: C25_32  and  C26_33 
REMARK       I    between atoms: C26_33  and  N2_35 
REMARK   15  A    between atoms: N2_35  and  C27_36 
REMARK   16  A    between atoms: C27_36  and  C28_37 
REMARK   17  A    between atoms: C28_37  and  C29_38 
REMARK   18  A    between atoms: C32_41  and  O8_42 
REMARK   19  A    between atoms: C33_43  and  O9_44 
ROOT
HETATM    1  C17 UNL     1       4.418   8.414  11.646  1.00  0.00     0.259 C 
HETATM    2  O5  UNL     1       3.587   9.149  12.159  1.00  0.00    -0.265 OA
ENDROOT
BRANCH   1   3
HETATM    3  O4  UNL     1       4.990   7.339  12.251  1.00  0.00    -0.314 OA
BRANCH   3   4
HETATM    4  C16 UNL     1       5.565   7.589  13.518  1.00  0.00     0.260 C 
BRANCH   4   5
HETATM    5  C15 UNL     1       7.035   7.991  13.649  1.00  0.00     0.185 C 
HETATM    6  O3  UNL     1       7.781   7.900  12.658  1.00  0.00    -0.292 OA
BRANCH   5   7
HETATM    7  C14 UNL     1       7.677   8.355  15.020  1.00  0.00     0.128 C 
HETATM    8  C13 UNL     1       9.017   7.679  15.285  1.00  0.00     0.047 C 
HETATM    9  C12 UNL     1      10.087   8.697  14.912  1.00  0.00     0.009 C 
HETATM   10  C11 UNL     1       9.410  10.081  14.858  1.00  0.00     0.002 C 
HETATM   11  C10 UNL     1      10.116  11.148  15.716  1.00  0.00    -0.004 C 
HETATM   12  C35 UNL     1       7.928   9.877  15.289  1.00  0.00    -0.002 C 
HETATM   13  C9  UNL     1      11.511  11.498  15.188  1.00  0.00     0.010 C 
HETATM   14  C39 UNL     1      10.213  10.729  17.207  1.00  0.00     0.002 C 
HETATM   15  C8  UNL     1      12.107  12.652  15.989  1.00  0.00     0.035 C 
HETATM   16  C7  UNL     1      12.141  12.353  17.470  1.00  0.00    -0.068 C 
HETATM   17  C2  UNL     1      10.837  11.854  18.116  1.00  0.00    -0.016 C 
HETATM   18  C6  UNL     1      13.284  12.538  18.153  1.00  0.00     0.053 C 
HETATM   19  C1  UNL     1       9.882  13.053  18.293  1.00  0.00     0.020 C 
HETATM   20  C3  UNL     1      11.150  11.232  19.512  1.00  0.00     0.022 C 
HETATM   21  C4  UNL     1      12.079  12.082  20.367  1.00  0.00     0.084 C 
HETATM   22  C5  UNL     1      13.357  12.375  19.624  1.00  0.00     0.149 C 
HETATM   23  O1  UNL     1      14.426  12.559  20.200  1.00  0.00    -0.293 OA
HETATM   24  C38 UNL     1       8.890  10.113  17.714  1.00  0.00     0.007 C 
HETATM   25  C37 UNL     1       7.710  10.327  16.773  1.00  0.00     0.013 C 
HETATM   26  C36 UNL     1       6.981  10.780  14.463  1.00  0.00     0.019 C 
BRANCH   7  27
HETATM   27  O2  UNL     1       6.758   7.833  16.004  1.00  0.00    -0.381 OA
HETATM   28  H19 UNL     1       5.885   7.766  15.559  1.00  0.00     0.211 HD
ENDBRANCH   7  27
ENDBRANCH   5   7
ENDBRANCH   4   5
ENDBRANCH   3   4
ENDBRANCH   1   3
BRANCH   1  29
HETATM   29  C18 UNL     1       4.925   8.529  10.230  1.00  0.00     0.120 C 
BRANCH  29  30
HETATM   30  C19 UNL     1       3.814   8.249   9.228  1.00  0.00     0.112 C 
BRANCH  30  31
HETATM   31  C20 UNL     1       3.132   6.925   9.507  1.00  0.00     0.217 C 
HETATM   32  O6  UNL     1       3.607   5.841   9.186  1.00  0.00    -0.274 OA
HETATM   33  N1  UNL     1       1.927   7.074  10.150  1.00  0.00    -0.361 N 
HETATM   34  H26 UNL     1       1.767   7.963  10.628  1.00  0.00     0.162 HD
BRANCH  33  35
HETATM   35  C21 UNL     1       1.118   5.945  10.542  1.00  0.00     0.122 C 
BRANCH  35  36
HETATM   36  C22 UNL     1      -0.255   6.334  11.086  1.00  0.00     0.020 C 
BRANCH  36  37
HETATM   37  C23 UNL     1      -0.295   7.508  12.068  1.00  0.00     0.002 C 
BRANCH  37  38
HETATM   38  C24 UNL     1       0.123   7.226  13.516  1.00  0.00     0.009 C 
BRANCH  38  39
HETATM   39  C25 UNL     1      -0.829   6.477  14.447  1.00  0.00     0.103 C 
BRANCH  39  40
HETATM   40  C26 UNL     1      -2.100   5.951  13.799  1.00  0.00     0.217 C 
HETATM   41  O7  UNL     1      -2.328   4.763  13.598  1.00  0.00    -0.274 OA
HETATM   42  N2  UNL     1      -3.020   6.935  13.519  1.00  0.00    -0.361 N 
HETATM   43  H37 UNL     1      -2.882   7.866  13.894  1.00  0.00     0.162 HD
BRANCH  42  44
HETATM   44  C27 UNL     1      -4.316   6.628  12.935  1.00  0.00     0.127 C 
BRANCH  44  45
HETATM   45  C28 UNL     1      -5.145   5.643  13.771  1.00  0.00     0.058 C 
BRANCH  45  46
HETATM   46  C29 UNL     1      -5.514   4.389  13.014  1.00  0.00    -0.054 A 
HETATM   47  C30 UNL     1      -4.656   3.878  12.025  1.00  0.00     0.010 A 
HETATM   48  C31 UNL     1      -5.004   2.730  11.312  1.00  0.00     0.040 A 
HETATM   49  C32 UNL     1      -6.205   2.093  11.592  1.00  0.00     0.098 A 
HETATM   50  C33 UNL     1      -7.060   2.583  12.575  1.00  0.00     0.099 A 
HETATM   51  C34 UNL     1      -6.723   3.727  13.291  1.00  0.00     0.046 A 
BRANCH  49  52
HETATM   52  O8  UNL     1      -6.536   0.972  10.888  1.00  0.00    -0.358 OA
HETATM   53  H44 UNL     1      -7.418   0.720  11.227  1.00  0.00     0.217 HD
ENDBRANCH  49  52
BRANCH  50  54
HETATM   54  O9  UNL     1      -8.224   1.904  12.805  1.00  0.00    -0.358 OA
HETATM   55  H45 UNL     1      -8.672   2.320  13.564  1.00  0.00     0.217 HD
ENDBRANCH  50  54
ENDBRANCH  45  46
ENDBRANCH  44  45
ENDBRANCH  42  44
ENDBRANCH  39  40
ENDBRANCH  38  39
ENDBRANCH  37  38
ENDBRANCH  36  37
ENDBRANCH  35  36
ENDBRANCH  33  35
ENDBRANCH  30  31
ENDBRANCH  29  30
ENDBRANCH   1  29
TORSDOF 19
ENDMDL
MODEL 9
REMARK minimizedAffinity -8.63743114
REMARK CNNscore 0.290954053
REMARK CNNaffinity 7.02047348
REMARK  19 active torsions:
REMARK  status: ('A' for Active; 'I' for Inactive)
REMARK    1  A    between atoms: C14_15  and  O2_16 
REMARK    2  A    between atoms: C14_15  and  C15_17 
REMARK    3  A    between atoms: C15_17  and  C16_19 
REMARK    4  A    between atoms: C16_19  and  O4_20 
REMARK    5  A    between atoms: O4_20  and  C17_21 
REMARK    6  A    between atoms: C17_21  and  C18_23 
REMARK    7  A    between atoms: C18_23  and  C19_24 
REMARK    8  A    between atoms: C19_24  and  C20_25 
REMARK       I    between atoms: C20_25  and  N1_27 
REMARK    9  A    between atoms: N1_27  and  C21_28 
REMARK   10  A    between atoms: C21_28  and  C22_29 
REMARK   11  A    between atoms: C22_29  and  C23_30 
REMARK   12  A    between atoms: C23_30  and  C24_31 
REMARK   13  A    between atoms: C24_31  and  C25_32 
REMARK   14  A    between atoms: C25_32  and  C26_33 
REMARK       I    between atoms: C26_33  and  N2_35 
REMARK   15  A    between atoms: N2_35  and  C27_36 
REMARK   16  A    between atoms: C27_36  and  C28_37 
REMARK   17  A    between atoms: C28_37  and  C29_38 
REMARK   18  A    between atoms: C32_41  and  O8_42 
REMARK   19  A    between atoms: C33_43  and  O9_44 
ROOT
HETATM    1  C17 UNL     1       2.007   7.511  10.293  1.00  0.00     0.259 C 
HETATM    2  O5  UNL     1       0.951   6.972   9.994  1.00  0.00    -0.265 OA
ENDROOT
BRANCH   1   3
HETATM    3  O4  UNL     1       2.180   8.364  11.337  1.00  0.00    -0.314 OA
BRANCH   3   4
HETATM    4  C16 UNL     1       1.713   7.898  12.588  1.00  0.00     0.260 C 
BRANCH   4   5
HETATM    5  C15 UNL     1       1.125   8.865  13.617  1.00  0.00     0.185 C 
HETATM    6  O3  UNL     1       1.888   9.454  14.403  1.00  0.00    -0.292 OA
BRANCH   5   7
HETATM    7  C14 UNL     1      -0.410   9.016  13.832  1.00  0.00     0.128 C 
HETATM    8  C13 UNL     1      -1.204   9.239  12.550  1.00  0.00     0.047 C 
HETATM    9  C12 UNL     1      -1.750   7.877  12.145  1.00  0.00     0.009 C 
HETATM   10  C11 UNL     1      -1.664   6.958  13.381  1.00  0.00     0.002 C 
HETATM   11  C10 UNL     1      -2.998   6.271  13.733  1.00  0.00    -0.004 C 
HETATM   12  C35 UNL     1      -1.131   7.829  14.556  1.00  0.00    -0.002 C 
HETATM   13  C9  UNL     1      -3.439   5.265  12.666  1.00  0.00     0.010 C 
HETATM   14  C39 UNL     1      -4.135   7.297  13.986  1.00  0.00     0.002 C 
HETATM   15  C8  UNL     1      -4.687   4.517  13.128  1.00  0.00     0.035 C 
HETATM   16  C7  UNL     1      -5.811   5.462  13.490  1.00  0.00    -0.068 C 
HETATM   17  C2  UNL     1      -5.476   6.615  14.451  1.00  0.00    -0.016 C 
HETATM   18  C6  UNL     1      -7.034   5.256  12.973  1.00  0.00     0.053 C 
HETATM   19  C1  UNL     1      -5.375   6.051  15.884  1.00  0.00     0.020 C 
HETATM   20  C3  UNL     1      -6.609   7.686  14.396  1.00  0.00     0.022 C 
HETATM   21  C4  UNL     1      -8.011   7.098  14.461  1.00  0.00     0.084 C 
HETATM   22  C5  UNL     1      -8.205   6.073  13.374  1.00  0.00     0.149 C 
HETATM   23  O1  UNL     1      -9.302   5.842  12.874  1.00  0.00    -0.293 OA
HETATM   24  C38 UNL     1      -3.651   8.484  14.848  1.00  0.00     0.007 C 
HETATM   25  C37 UNL     1      -2.298   8.254  15.511  1.00  0.00     0.013 C 
HETATM   26  C36 UNL     1      -0.166   7.019  15.453  1.00  0.00     0.019 C 
BRANCH   7  27
HETATM   27  O2  UNL     1      -0.553  10.221  14.614  1.00  0.00    -0.381 OA
HETATM   28  H19 UNL     1       0.303  10.354  15.077  1.00  0.00     0.211 HD
ENDBRANCH   7  27
ENDBRANCH   5   7
ENDBRANCH   4   5
ENDBRANCH   3   4
ENDBRANCH   1   3
BRANCH   1  29
HETATM   29  C18 UNL     1       3.326   7.289   9.594  1.00  0.00     0.120 C 
BRANCH  29  30
HETATM   30  C19 UNL     1       4.120   6.179  10.267  1.00  0.00     0.112 C 
BRANCH  30  31
HETATM   31  C20 UNL     1       5.293   6.730  11.053  1.00  0.00     0.217 C 
HETATM   32  O6  UNL     1       6.395   6.941  10.560  1.00  0.00    -0.274 OA
HETATM   33  N1  UNL     1       4.986   6.958  12.373  1.00  0.00    -0.361 N 
HETATM   34  H26 UNL     1       3.995   7.036  12.608  1.00  0.00     0.162 HD
BRANCH  33  35
HETATM   35  C21 UNL     1       5.943   7.511  13.302  1.00  0.00     0.122 C 
BRANCH  35  36
HETATM   36  C22 UNL     1       7.343   7.676  12.715  1.00  0.00     0.020 C 
BRANCH  36  37
HETATM   37  C23 UNL     1       8.496   7.784  13.716  1.00  0.00     0.002 C 
BRANCH  37  38
HETATM   38  C24 UNL     1       8.139   7.736  15.206  1.00  0.00     0.009 C 
BRANCH  38  39
HETATM   39  C25 UNL     1       9.202   8.076  16.251  1.00  0.00     0.103 C 
BRANCH  39  40
HETATM   40  C26 UNL     1       9.111   9.470  16.849  1.00  0.00     0.217 C 
HETATM   41  O7  UNL     1       8.060  10.084  17.006  1.00  0.00    -0.274 OA
HETATM   42  N2  UNL     1      10.322   9.964  17.275  1.00  0.00    -0.361 N 
HETATM   43  H37 UNL     1      11.123   9.345  17.323  1.00  0.00     0.162 HD
BRANCH  42  44
HETATM   44  C27 UNL     1      10.437  11.266  17.912  1.00  0.00     0.127 C 
BRANCH  44  45
HETATM   45  C28 UNL     1      10.713  11.186  19.420  1.00  0.00     0.058 C 
BRANCH  45  46
HETATM   46  C29 UNL     1      10.141  12.352  20.190  1.00  0.00    -0.054 A 
HETATM   47  C30 UNL     1       9.945  13.592  19.557  1.00  0.00     0.010 A 
HETATM   48  C31 UNL     1       9.434  14.677  20.272  1.00  0.00     0.040 A 
HETATM   49  C32 UNL     1       9.114  14.518  21.613  1.00  0.00     0.098 A 
HETATM   50  C33 UNL     1       9.295  13.292  22.249  1.00  0.00     0.099 A 
HETATM   51  C34 UNL     1       9.805  12.206  21.547  1.00  0.00     0.046 A 
BRANCH  49  52
HETATM   52  O8  UNL     1       8.616  15.585  22.303  1.00  0.00    -0.358 OA
HETATM   53  H44 UNL     1       8.497  15.254  23.215  1.00  0.00     0.217 HD
ENDBRANCH  49  52
BRANCH  50  54
HETATM   54  O9  UNL     1       8.955  13.203  23.570  1.00  0.00    -0.358 OA
HETATM   55  H45 UNL     1       9.064  12.275  23.848  1.00  0.00     0.217 HD
ENDBRANCH  50  54
ENDBRANCH  45  46
ENDBRANCH  44  45
ENDBRANCH  42  44
ENDBRANCH  39  40
ENDBRANCH  38  39
ENDBRANCH  37  38
ENDBRANCH  36  37
ENDBRANCH  35  36
ENDBRANCH  33  35
ENDBRANCH  30  31
ENDBRANCH  29  30
ENDBRANCH   1  29
TORSDOF 19
ENDMDL
