MODEL 1
REMARK minimizedAffinity -7.97186232
REMARK CNNscore 0.443318605
REMARK CNNaffinity 7.03495169
REMARK  13 active torsions:
REMARK  status: ('A' for Active; 'I' for Inactive)
REMARK    1  A    between atoms: O1_2  and  C2_3 
REMARK    2  A    between atoms: C8_9  and  O2_10 
REMARK    3  A    between atoms: O2_10  and  C9_11 
REMARK    4  A    between atoms: C10_13  and  C11_14 
REMARK    5  A    between atoms: C11_14  and  O4_15 
REMARK    6  A    between atoms: C12_16  and  O5_17 
REMARK    7  A    between atoms: C13_18  and  O6_19 
REMARK    8  A    between atoms: C14_20  and  O7_21 
REMARK    9  A    between atoms: C24_31  and  C25_32 
REMARK   10  A    between atoms: C25_32  and  C27_34 
REMARK   11  A    between atoms: C27_34  and  C28_35 
REMARK   12  A    between atoms: C29_36  and  C30_37 
REMARK   13  A    between atoms: C30_37  and  O8_40 
ROOT
HETATM    1  C2  UNL     1      -1.235  52.918  -7.625  1.00  0.00     0.149 C 
HETATM    2  C3  UNL     1      -2.204  52.491  -8.689  1.00  0.00     0.009 C 
HETATM    3  C4  UNL     1      -1.935  52.542 -10.009  1.00  0.00    -0.066 C 
HETATM    4  C5  UNL     1      -0.587  53.131 -10.424  1.00  0.00     0.024 C 
HETATM    5  C6  UNL     1      -0.461  53.330 -11.948  1.00  0.00     0.012 C 
HETATM    6  C7  UNL     1      -0.891  52.130 -12.789  1.00  0.00     0.034 C 
HETATM    7  C8  UNL     1      -1.901  51.186 -12.126  1.00  0.00     0.136 C 
HETATM    8  C15 UNL     1      -2.826  51.907 -11.092  1.00  0.00     0.002 C 
HETATM    9  C16 UNL     1      -3.798  50.841 -10.511  1.00  0.00     0.022 C 
HETATM   10  C17 UNL     1      -3.720  52.980 -11.754  1.00  0.00     0.022 C 
HETATM   11  C18 UNL     1      -0.238  54.436  -9.586  1.00  0.00    -0.030 C 
HETATM   12  C19 UNL     1      -1.242  55.567  -9.968  1.00  0.00     0.016 C 
HETATM   13  C20 UNL     1       1.193  54.941  -9.975  1.00  0.00     0.011 C 
HETATM   14  C21 UNL     1       1.923  55.900  -9.008  1.00  0.00     0.011 C 
HETATM   15  C22 UNL     1       1.582  55.733  -7.515  1.00  0.00    -0.032 C 
HETATM   16  C23 UNL     1       0.641  56.912  -7.104  1.00  0.00     0.016 C 
HETATM   17  C24 UNL     1       2.782  55.730  -6.501  1.00  0.00    -0.002 C 
HETATM   18  C33 UNL     1       2.173  55.002  -5.265  1.00  0.00     0.006 C 
HETATM   19  C34 UNL     1       0.901  54.275  -5.741  1.00  0.00     0.011 C 
HETATM   20  C35 UNL     1       0.990  54.291  -7.276  1.00  0.00    -0.029 C 
HETATM   21  C36 UNL     1       1.983  53.148  -7.691  1.00  0.00     0.016 C 
HETATM   22  C37 UNL     1      -0.375  54.156  -8.024  1.00  0.00     0.036 C 
ENDROOT
BRANCH   7  23
HETATM   23  O2  UNL     1      -2.711  50.522 -13.112  1.00  0.00    -0.352 OA
BRANCH  23  24
HETATM   24  C9  UNL     1      -1.967  49.840 -14.135  1.00  0.00     0.292 C 
HETATM   25  O3  UNL     1      -1.501  50.769 -15.114  1.00  0.00    -0.348 OA
HETATM   26  C10 UNL     1      -0.784  50.137 -16.188  1.00  0.00     0.179 C 
HETATM   27  C12 UNL     1      -1.663  49.103 -16.922  1.00  0.00     0.180 C 
HETATM   28  C13 UNL     1      -2.236  48.097 -15.918  1.00  0.00     0.183 C 
HETATM   29  C14 UNL     1      -2.948  48.845 -14.791  1.00  0.00     0.204 C 
BRANCH  26  30
HETATM   30  C11 UNL     1      -0.284  51.228 -17.151  1.00  0.00     0.198 C 
BRANCH  30  31
HETATM   31  O4  UNL     1      -1.092  51.292 -18.326  1.00  0.00    -0.398 OA
HETATM   32  H16 UNL     1      -0.654  51.908 -18.940  1.00  0.00     0.209 HD
ENDBRANCH  30  31
ENDBRANCH  26  30
BRANCH  27  33
HETATM   33  O5  UNL     1      -0.891  48.386 -17.898  1.00  0.00    -0.390 OA
HETATM   34  H18 UNL     1      -1.529  47.954 -18.498  1.00  0.00     0.210 HD
ENDBRANCH  27  33
BRANCH  28  35
HETATM   35  O6  UNL     1      -1.154  47.296 -15.403  1.00  0.00    -0.390 OA
HETATM   36  H20 UNL     1      -0.637  47.012 -16.184  1.00  0.00     0.210 HD
ENDBRANCH  28  35
BRANCH  29  37
HETATM   37  O7  UNL     1      -3.496  47.927 -13.833  1.00  0.00    -0.388 OA
HETATM   38  H22 UNL     1      -3.699  48.468 -13.048  1.00  0.00     0.210 HD
ENDBRANCH  29  37
ENDBRANCH  23  24
ENDBRANCH   7  23
BRANCH   1  39
HETATM   39  O1  UNL     1      -0.424  51.784  -7.310  1.00  0.00    -0.386 OA
HETATM   40  C1  UNL     1      -0.871  51.051  -6.176  1.00  0.00     0.202 C 
ENDBRANCH   1  39
BRANCH  17  41
HETATM   41  C25 UNL     1       3.475  57.075  -6.127  1.00  0.00    -0.010 C 
HETATM   42  C26 UNL     1       2.608  58.290  -6.480  1.00  0.00     0.010 C 
BRANCH  41  43
HETATM   43  C27 UNL     1       4.883  57.231  -6.761  1.00  0.00     0.031 C 
BRANCH  43  44
HETATM   44  C28 UNL     1       5.207  56.252  -7.860  1.00  0.00    -0.027 C 
HETATM   45  C29 UNL     1       5.859  55.093  -7.658  1.00  0.00     0.006 C 
BRANCH  45  46
HETATM   46  C30 UNL     1       6.226  54.050  -8.693  1.00  0.00     0.068 C 
HETATM   47  C31 UNL     1       6.635  52.750  -7.993  1.00  0.00     0.050 C 
HETATM   48  C32 UNL     1       5.148  53.755  -9.742  1.00  0.00     0.050 C 
BRANCH  46  49
HETATM   49  O8  UNL     1       7.359  54.547  -9.410  1.00  0.00    -0.387 OA
HETATM   50  H54 UNL     1       8.040  54.789  -8.760  1.00  0.00     0.211 HD
ENDBRANCH  46  49
ENDBRANCH  45  46
ENDBRANCH  43  44
ENDBRANCH  41  43
ENDBRANCH  17  41
TORSDOF 13
ENDMDL
MODEL 2
REMARK minimizedAffinity -9.47891808
REMARK CNNscore 0.374311835
REMARK CNNaffinity 7.05025244
REMARK  13 active torsions:
REMARK  status: ('A' for Active; 'I' for Inactive)
REMARK    1  A    between atoms: O1_2  and  C2_3 
REMARK    2  A    between atoms: C8_9  and  O2_10 
REMARK    3  A    between atoms: O2_10  and  C9_11 
REMARK    4  A    between atoms: C10_13  and  C11_14 
REMARK    5  A    between atoms: C11_14  and  O4_15 
REMARK    6  A    between atoms: C12_16  and  O5_17 
REMARK    7  A    between atoms: C13_18  and  O6_19 
REMARK    8  A    between atoms: C14_20  and  O7_21 
REMARK    9  A    between atoms: C24_31  and  C25_32 
REMARK   10  A    between atoms: C25_32  and  C27_34 
REMARK   11  A    between atoms: C27_34  and  C28_35 
REMARK   12  A    between atoms: C29_36  and  C30_37 
REMARK   13  A    between atoms: C30_37  and  O8_40 
ROOT
HETATM    1  C2  UNL     1      -4.423  47.396 -20.315  1.00  0.00     0.149 C 
HETATM    2  C3  UNL     1      -5.720  47.063 -20.992  1.00  0.00     0.009 C 
HETATM    3  C4  UNL     1      -6.057  47.505 -22.221  1.00  0.00    -0.066 C 
HETATM    4  C5  UNL     1      -5.076  48.450 -22.916  1.00  0.00     0.024 C 
HETATM    5  C6  UNL     1      -5.642  49.054 -24.217  1.00  0.00     0.012 C 
HETATM    6  C7  UNL     1      -6.296  48.046 -25.160  1.00  0.00     0.034 C 
HETATM    7  C8  UNL     1      -6.838  46.775 -24.496  1.00  0.00     0.136 C 
HETATM    8  C15 UNL     1      -7.276  46.997 -23.012  1.00  0.00     0.002 C 
HETATM    9  C16 UNL     1      -7.809  45.639 -22.474  1.00  0.00     0.022 C 
HETATM   10  C17 UNL     1      -8.452  47.992 -22.891  1.00  0.00     0.022 C 
HETATM   11  C18 UNL     1      -4.504  49.540 -21.910  1.00  0.00    -0.030 C 
HETATM   12  C19 UNL     1      -5.662  50.495 -21.485  1.00  0.00     0.016 C 
HETATM   13  C20 UNL     1      -3.431  50.415 -22.641  1.00  0.00     0.011 C 
HETATM   14  C21 UNL     1      -2.433  51.225 -21.784  1.00  0.00     0.011 C 
HETATM   15  C22 UNL     1      -2.076  50.614 -20.415  1.00  0.00    -0.032 C 
HETATM   16  C23 UNL     1      -2.837  51.425 -19.315  1.00  0.00     0.016 C 
HETATM   17  C24 UNL     1      -0.558  50.603 -20.009  1.00  0.00    -0.002 C 
HETATM   18  C33 UNL     1      -0.508  49.472 -18.938  1.00  0.00     0.006 C 
HETATM   19  C34 UNL     1      -1.797  48.641 -19.086  1.00  0.00     0.011 C 
HETATM   20  C35 UNL     1      -2.387  49.068 -20.441  1.00  0.00    -0.029 C 
HETATM   21  C36 UNL     1      -1.584  48.304 -21.552  1.00  0.00     0.016 C 
HETATM   22  C37 UNL     1      -3.925  48.847 -20.598  1.00  0.00     0.036 C 
ENDROOT
BRANCH   7  23
HETATM   23  O2  UNL     1      -7.939  46.231 -25.245  1.00  0.00    -0.352 OA
BRANCH  23  24
HETATM   24  C9  UNL     1      -9.027  47.145 -25.458  1.00  0.00     0.292 C 
HETATM   25  O3  UNL     1     -10.274  46.504 -25.192  1.00  0.00    -0.348 OA
HETATM   26  C10 UNL     1     -11.405  47.360 -25.430  1.00  0.00     0.179 C 
HETATM   27  C12 UNL     1     -11.445  47.849 -26.893  1.00  0.00     0.180 C 
HETATM   28  C13 UNL     1     -10.112  48.510 -27.260  1.00  0.00     0.183 C 
HETATM   29  C14 UNL     1      -8.960  47.555 -26.945  1.00  0.00     0.204 C 
BRANCH  26  30
HETATM   30  C11 UNL     1     -12.686  46.591 -25.063  1.00  0.00     0.198 C 
BRANCH  30  31
HETATM   31  O4  UNL     1     -13.762  47.485 -24.776  1.00  0.00    -0.398 OA
HETATM   32  H16 UNL     1     -14.497  46.947 -24.435  1.00  0.00     0.209 HD
ENDBRANCH  30  31
ENDBRANCH  26  30
BRANCH  27  33
HETATM   33  O5  UNL     1     -12.497  48.809 -27.075  1.00  0.00    -0.390 OA
HETATM   34  H18 UNL     1     -12.649  48.879 -28.037  1.00  0.00     0.210 HD
ENDBRANCH  27  33
BRANCH  28  35
HETATM   35  O6  UNL     1      -9.987  49.735 -26.512  1.00  0.00    -0.390 OA
HETATM   36  H20 UNL     1     -10.841  50.200 -26.615  1.00  0.00     0.210 HD
ENDBRANCH  28  35
BRANCH  29  37
HETATM   37  O7  UNL     1      -7.697  48.148 -27.278  1.00  0.00    -0.388 OA
HETATM   38  H22 UNL     1      -7.031  47.599 -26.826  1.00  0.00     0.210 HD
ENDBRANCH  29  37
ENDBRANCH  23  24
ENDBRANCH   7  23
BRANCH   1  39
HETATM   39  O1  UNL     1      -3.467  46.415 -20.723  1.00  0.00    -0.386 OA
HETATM   40  C1  UNL     1      -3.843  45.079 -20.413  1.00  0.00     0.202 C 
ENDBRANCH   1  39
BRANCH  17  41
HETATM   41  C25 UNL     1       0.117  51.921 -19.525  1.00  0.00    -0.010 C 
HETATM   42  C26 UNL     1      -0.912  52.980 -19.111  1.00  0.00     0.010 C 
BRANCH  41  43
HETATM   43  C27 UNL     1       1.099  52.520 -20.567  1.00  0.00     0.031 C 
BRANCH  43  44
HETATM   44  C28 UNL     1       0.475  52.938 -21.873  1.00  0.00    -0.027 C 
HETATM   45  C29 UNL     1       0.906  52.516 -23.075  1.00  0.00     0.006 C 
BRANCH  45  46
HETATM   46  C30 UNL     1       0.345  52.877 -24.435  1.00  0.00     0.068 C 
HETATM   47  C31 UNL     1       0.938  51.950 -25.501  1.00  0.00     0.050 C 
HETATM   48  C32 UNL     1      -1.183  52.875 -24.539  1.00  0.00     0.050 C 
BRANCH  46  49
HETATM   49  O8  UNL     1       0.766  54.214 -24.723  1.00  0.00    -0.387 OA
HETATM   50  H54 UNL     1       1.730  54.253 -24.614  1.00  0.00     0.211 HD
ENDBRANCH  46  49
ENDBRANCH  45  46
ENDBRANCH  43  44
ENDBRANCH  41  43
ENDBRANCH  17  41
TORSDOF 13
ENDMDL
MODEL 3
REMARK minimizedAffinity -8.70564651
REMARK CNNscore 0.334751606
REMARK CNNaffinity 7.10512161
REMARK  13 active torsions:
REMARK  status: ('A' for Active; 'I' for Inactive)
REMARK    1  A    between atoms: O1_2  and  C2_3 
REMARK    2  A    between atoms: C8_9  and  O2_10 
REMARK    3  A    between atoms: O2_10  and  C9_11 
REMARK    4  A    between atoms: C10_13  and  C11_14 
REMARK    5  A    between atoms: C11_14  and  O4_15 
REMARK    6  A    between atoms: C12_16  and  O5_17 
REMARK    7  A    between atoms: C13_18  and  O6_19 
REMARK    8  A    between atoms: C14_20  and  O7_21 
REMARK    9  A    between atoms: C24_31  and  C25_32 
REMARK   10  A    between atoms: C25_32  and  C27_34 
REMARK   11  A    between atoms: C27_34  and  C28_35 
REMARK   12  A    between atoms: C29_36  and  C30_37 
REMARK   13  A    between atoms: C30_37  and  O8_40 
ROOT
HETATM    1  C2  UNL     1      -0.201  52.594 -19.211  1.00  0.00     0.149 C 
HETATM    2  C3  UNL     1      -0.016  52.496 -17.725  1.00  0.00     0.009 C 
HETATM    3  C4  UNL     1      -0.071  51.335 -17.041  1.00  0.00    -0.066 C 
HETATM    4  C5  UNL     1      -0.407  50.072 -17.834  1.00  0.00     0.024 C 
HETATM    5  C6  UNL     1      -0.643  48.842 -16.935  1.00  0.00     0.012 C 
HETATM    6  C7  UNL     1       0.414  48.625 -15.853  1.00  0.00     0.034 C 
HETATM    7  C8  UNL     1       1.173  49.882 -15.410  1.00  0.00     0.136 C 
HETATM    8  C15 UNL     1       0.332  51.191 -15.562  1.00  0.00     0.002 C 
HETATM    9  C16 UNL     1       1.214  52.373 -15.069  1.00  0.00     0.022 C 
HETATM   10  C17 UNL     1      -0.921  51.191 -14.658  1.00  0.00     0.022 C 
HETATM   11  C18 UNL     1      -1.582  50.330 -18.872  1.00  0.00    -0.030 C 
HETATM   12  C19 UNL     1      -2.901  50.606 -18.087  1.00  0.00     0.016 C 
HETATM   13  C20 UNL     1      -1.817  49.040 -19.728  1.00  0.00     0.011 C 
HETATM   14  C21 UNL     1      -2.574  49.174 -21.069  1.00  0.00     0.011 C 
HETATM   15  C22 UNL     1      -2.412  50.522 -21.798  1.00  0.00    -0.032 C 
HETATM   16  C23 UNL     1      -3.732  51.336 -21.599  1.00  0.00     0.016 C 
HETATM   17  C24 UNL     1      -2.133  50.472 -23.343  1.00  0.00    -0.002 C 
HETATM   18  C33 UNL     1      -1.484  51.863 -23.610  1.00  0.00     0.006 C 
HETATM   19  C34 UNL     1      -1.037  52.430 -22.250  1.00  0.00     0.011 C 
HETATM   20  C35 UNL     1      -1.102  51.235 -21.284  1.00  0.00    -0.029 C 
HETATM   21  C36 UNL     1       0.192  50.379 -21.525  1.00  0.00     0.016 C 
HETATM   22  C37 UNL     1      -1.266  51.604 -19.775  1.00  0.00     0.036 C 
ENDROOT
BRANCH   7  23
HETATM   23  O2  UNL     1       1.625  49.757 -14.049  1.00  0.00    -0.352 OA
BRANCH  23  24
HETATM   24  C9  UNL     1       0.637  50.085 -13.058  1.00  0.00     0.292 C 
HETATM   25  O3  UNL     1       1.060  51.209 -12.288  1.00  0.00    -0.348 OA
HETATM   26  C10 UNL     1       0.128  51.558 -11.249  1.00  0.00     0.179 C 
HETATM   27  C12 UNL     1      -0.087  50.387 -10.268  1.00  0.00     0.180 C 
HETATM   28  C13 UNL     1      -0.501  49.128 -11.039  1.00  0.00     0.183 C 
HETATM   29  C14 UNL     1       0.517  48.846 -12.145  1.00  0.00     0.204 C 
BRANCH  26  30
HETATM   30  C11 UNL     1       0.652  52.808 -10.521  1.00  0.00     0.198 C 
BRANCH  30  31
HETATM   31  O4  UNL     1       1.034  53.825 -11.447  1.00  0.00    -0.398 OA
HETATM   32  H16 UNL     1       1.467  54.530 -10.934  1.00  0.00     0.209 HD
ENDBRANCH  30  31
ENDBRANCH  26  30
BRANCH  27  33
HETATM   33  O5  UNL     1      -1.121  50.705  -9.323  1.00  0.00    -0.390 OA
HETATM   34  H18 UNL     1      -1.033  50.068  -8.588  1.00  0.00     0.210 HD
ENDBRANCH  27  33
BRANCH  28  35
HETATM   35  O6  UNL     1      -1.816  49.338 -11.588  1.00  0.00    -0.390 OA
HETATM   36  H20 UNL     1      -2.357  49.698 -10.856  1.00  0.00     0.210 HD
ENDBRANCH  28  35
BRANCH  29  37
HETATM   37  O7  UNL     1       0.155  47.671 -12.885  1.00  0.00    -0.388 OA
HETATM   38  H22 UNL     1       0.690  47.708 -13.699  1.00  0.00     0.210 HD
ENDBRANCH  29  37
ENDBRANCH  23  24
ENDBRANCH   7  23
BRANCH   1  39
HETATM   39  O1  UNL     1       1.081  52.399 -19.813  1.00  0.00    -0.386 OA
HETATM   40  C1  UNL     1       1.677  53.593 -20.302  1.00  0.00     0.202 C 
ENDBRANCH   1  39
BRANCH  17  41
HETATM   41  C25 UNL     1      -3.301  50.154 -24.324  1.00  0.00    -0.010 C 
HETATM   42  C26 UNL     1      -3.037  48.888 -25.149  1.00  0.00     0.010 C 
BRANCH  41  43
HETATM   43  C27 UNL     1      -3.640  51.337 -25.271  1.00  0.00     0.031 C 
BRANCH  43  44
HETATM   44  C28 UNL     1      -2.454  52.118 -25.775  1.00  0.00    -0.027 C 
HETATM   45  C29 UNL     1      -1.958  52.004 -27.020  1.00  0.00     0.006 C 
BRANCH  45  46
HETATM   46  C30 UNL     1      -0.778  52.744 -27.614  1.00  0.00     0.068 C 
HETATM   47  C31 UNL     1      -0.089  53.575 -26.527  1.00  0.00     0.050 C 
HETATM   48  C32 UNL     1       0.256  51.867 -28.329  1.00  0.00     0.050 C 
BRANCH  46  49
HETATM   49  O8  UNL     1      -1.296  53.641 -28.601  1.00  0.00    -0.387 OA
HETATM   50  H54 UNL     1      -1.992  54.174 -28.183  1.00  0.00     0.211 HD
ENDBRANCH  46  49
ENDBRANCH  45  46
ENDBRANCH  43  44
ENDBRANCH  41  43
ENDBRANCH  17  41
TORSDOF 13
ENDMDL
MODEL 4
REMARK minimizedAffinity -9.70688629
REMARK CNNscore 0.324370176
REMARK CNNaffinity 7.16285181
REMARK  13 active torsions:
REMARK  status: ('A' for Active; 'I' for Inactive)
REMARK    1  A    between atoms: O1_2  and  C2_3 
REMARK    2  A    between atoms: C8_9  and  O2_10 
REMARK    3  A    between atoms: O2_10  and  C9_11 
REMARK    4  A    between atoms: C10_13  and  C11_14 
REMARK    5  A    between atoms: C11_14  and  O4_15 
REMARK    6  A    between atoms: C12_16  and  O5_17 
REMARK    7  A    between atoms: C13_18  and  O6_19 
REMARK    8  A    between atoms: C14_20  and  O7_21 
REMARK    9  A    between atoms: C24_31  and  C25_32 
REMARK   10  A    between atoms: C25_32  and  C27_34 
REMARK   11  A    between atoms: C27_34  and  C28_35 
REMARK   12  A    between atoms: C29_36  and  C30_37 
REMARK   13  A    between atoms: C30_37  and  O8_40 
ROOT
HETATM    1  C2  UNL     1      -4.561  47.161 -20.479  1.00  0.00     0.149 C 
HETATM    2  C3  UNL     1      -5.982  46.839 -20.836  1.00  0.00     0.009 C 
HETATM    3  C4  UNL     1      -6.559  47.194 -22.001  1.00  0.00    -0.066 C 
HETATM    4  C5  UNL     1      -5.720  48.028 -22.970  1.00  0.00     0.024 C 
HETATM    5  C6  UNL     1      -6.531  48.550 -24.173  1.00  0.00     0.012 C 
HETATM    6  C7  UNL     1      -7.404  47.502 -24.862  1.00  0.00     0.034 C 
HETATM    7  C8  UNL     1      -7.830  46.318 -23.985  1.00  0.00     0.136 C 
HETATM    8  C15 UNL     1      -7.935  46.684 -22.469  1.00  0.00     0.002 C 
HETATM    9  C16 UNL     1      -8.382  45.404 -21.710  1.00  0.00     0.022 C 
HETATM   10  C17 UNL     1      -9.026  47.744 -22.196  1.00  0.00     0.022 C 
HETATM   11  C18 UNL     1      -4.913  49.167 -22.210  1.00  0.00    -0.030 C 
HETATM   12  C19 UNL     1      -5.923  50.211 -21.641  1.00  0.00     0.016 C 
HETATM   13  C20 UNL     1      -3.994  49.925 -23.227  1.00  0.00     0.011 C 
HETATM   14  C21 UNL     1      -2.811  50.752 -22.676  1.00  0.00     0.011 C 
HETATM   15  C22 UNL     1      -2.189  50.239 -21.363  1.00  0.00    -0.032 C 
HETATM   16  C23 UNL     1      -2.672  51.174 -20.206  1.00  0.00     0.016 C 
HETATM   17  C24 UNL     1      -0.621  50.185 -21.285  1.00  0.00    -0.002 C 
HETATM   18  C33 UNL     1      -0.379  49.145 -20.149  1.00  0.00     0.006 C 
HETATM   19  C34 UNL     1      -1.695  48.370 -19.947  1.00  0.00     0.011 C 
HETATM   20  C35 UNL     1      -2.547  48.713 -21.181  1.00  0.00    -0.029 C 
HETATM   21  C36 UNL     1      -2.024  47.820 -22.362  1.00  0.00     0.016 C 
HETATM   22  C37 UNL     1      -4.089  48.557 -20.991  1.00  0.00     0.036 C 
ENDROOT
BRANCH   7  23
HETATM   23  O2  UNL     1      -9.083  45.770 -24.434  1.00  0.00    -0.352 OA
BRANCH  23  24
HETATM   24  C9  UNL     1      -9.463  46.159 -25.764  1.00  0.00     0.292 C 
HETATM   25  O3  UNL     1      -8.305  46.416 -26.557  1.00  0.00    -0.348 OA
HETATM   26  C10 UNL     1      -8.625  46.851 -27.890  1.00  0.00     0.179 C 
HETATM   27  C12 UNL     1      -9.465  48.146 -27.875  1.00  0.00     0.180 C 
HETATM   28  C13 UNL     1     -10.707  47.953 -26.999  1.00  0.00     0.183 C 
HETATM   29  C14 UNL     1     -10.287  47.455 -25.615  1.00  0.00     0.204 C 
BRANCH  26  30
HETATM   30  C11 UNL     1      -7.313  47.046 -28.670  1.00  0.00     0.198 C 
BRANCH  30  31
HETATM   31  O4  UNL     1      -6.966  48.428 -28.763  1.00  0.00    -0.398 OA
HETATM   32  H16 UNL     1      -6.205  48.490 -29.365  1.00  0.00     0.209 HD
ENDBRANCH  30  31
ENDBRANCH  26  30
BRANCH  27  33
HETATM   33  O5  UNL     1      -9.890  48.487 -29.203  1.00  0.00    -0.390 OA
HETATM   34  H18 UNL     1     -10.175  49.420 -29.175  1.00  0.00     0.210 HD
ENDBRANCH  27  33
BRANCH  28  35
HETATM   35  O6  UNL     1     -11.581  47.007 -27.645  1.00  0.00    -0.390 OA
HETATM   36  H20 UNL     1     -11.645  47.295 -28.577  1.00  0.00     0.210 HD
ENDBRANCH  28  35
BRANCH  29  37
HETATM   37  O7  UNL     1     -11.433  47.265 -24.771  1.00  0.00    -0.388 OA
HETATM   38  H22 UNL     1     -11.112  46.725 -24.025  1.00  0.00     0.210 HD
ENDBRANCH  29  37
ENDBRANCH  23  24
ENDBRANCH   7  23
BRANCH   1  39
HETATM   39  O1  UNL     1      -3.744  46.103 -20.987  1.00  0.00    -0.386 OA
HETATM   40  C1  UNL     1      -3.831  44.897 -20.238  1.00  0.00     0.202 C 
ENDBRANCH   1  39
BRANCH  17  41
HETATM   41  C25 UNL     1       0.183  51.503 -21.075  1.00  0.00    -0.010 C 
HETATM   42  C26 UNL     1      -0.167  52.190 -19.749  1.00  0.00     0.010 C 
BRANCH  41  43
HETATM   43  C27 UNL     1       0.020  52.508 -22.248  1.00  0.00     0.031 C 
BRANCH  43  44
HETATM   44  C28 UNL     1       0.148  51.915 -23.626  1.00  0.00    -0.027 C 
HETATM   45  C29 UNL     1       0.744  52.541 -24.657  1.00  0.00     0.006 C 
BRANCH  45  46
HETATM   46  C30 UNL     1       0.922  52.028 -26.070  1.00  0.00     0.068 C 
HETATM   47  C31 UNL     1       2.344  51.485 -26.248  1.00  0.00     0.050 C 
HETATM   48  C32 UNL     1      -0.094  50.973 -26.520  1.00  0.00     0.050 C 
BRANCH  46  49
HETATM   49  O8  UNL     1       0.758  53.145 -26.949  1.00  0.00    -0.387 OA
HETATM   50  H54 UNL     1       1.358  53.848 -26.652  1.00  0.00     0.211 HD
ENDBRANCH  46  49
ENDBRANCH  45  46
ENDBRANCH  43  44
ENDBRANCH  41  43
ENDBRANCH  17  41
TORSDOF 13
ENDMDL
MODEL 5
REMARK minimizedAffinity -8.55978298
REMARK CNNscore 0.322803259
REMARK CNNaffinity 7.25021029
REMARK  13 active torsions:
REMARK  status: ('A' for Active; 'I' for Inactive)
REMARK    1  A    between atoms: O1_2  and  C2_3 
REMARK    2  A    between atoms: C8_9  and  O2_10 
REMARK    3  A    between atoms: O2_10  and  C9_11 
REMARK    4  A    between atoms: C10_13  and  C11_14 
REMARK    5  A    between atoms: C11_14  and  O4_15 
REMARK    6  A    between atoms: C12_16  and  O5_17 
REMARK    7  A    between atoms: C13_18  and  O6_19 
REMARK    8  A    between atoms: C14_20  and  O7_21 
REMARK    9  A    between atoms: C24_31  and  C25_32 
REMARK   10  A    between atoms: C25_32  and  C27_34 
REMARK   11  A    between atoms: C27_34  and  C28_35 
REMARK   12  A    between atoms: C29_36  and  C30_37 
REMARK   13  A    between atoms: C30_37  and  O8_40 
ROOT
HETATM    1  C2  UNL     1      -0.311  52.454 -19.062  1.00  0.00     0.149 C 
HETATM    2  C3  UNL     1      -0.249  52.372 -17.565  1.00  0.00     0.009 C 
HETATM    3  C4  UNL     1      -0.348  51.217 -16.876  1.00  0.00    -0.066 C 
HETATM    4  C5  UNL     1      -0.603  49.943 -17.681  1.00  0.00     0.024 C 
HETATM    5  C6  UNL     1      -0.900  48.719 -16.792  1.00  0.00     0.012 C 
HETATM    6  C7  UNL     1       0.067  48.524 -15.625  1.00  0.00     0.034 C 
HETATM    7  C8  UNL     1       0.772  49.794 -15.133  1.00  0.00     0.136 C 
HETATM    8  C15 UNL     1      -0.067  51.092 -15.367  1.00  0.00     0.002 C 
HETATM    9  C16 UNL     1       0.759  52.288 -14.815  1.00  0.00     0.022 C 
HETATM   10  C17 UNL     1      -1.390  51.086 -14.570  1.00  0.00     0.022 C 
HETATM   11  C18 UNL     1      -1.691  50.178 -18.815  1.00  0.00    -0.030 C 
HETATM   12  C19 UNL     1      -3.074  50.446 -18.144  1.00  0.00     0.016 C 
HETATM   13  C20 UNL     1      -1.841  48.877 -19.675  1.00  0.00     0.011 C 
HETATM   14  C21 UNL     1      -2.486  48.990 -21.074  1.00  0.00     0.011 C 
HETATM   15  C22 UNL     1      -2.278  50.332 -21.801  1.00  0.00    -0.032 C 
HETATM   16  C23 UNL     1      -3.619  51.133 -21.720  1.00  0.00     0.016 C 
HETATM   17  C24 UNL     1      -1.872  50.271 -23.318  1.00  0.00    -0.002 C 
HETATM   18  C33 UNL     1      -1.218  51.667 -23.545  1.00  0.00     0.006 C 
HETATM   19  C34 UNL     1      -0.891  52.252 -22.158  1.00  0.00     0.011 C 
HETATM   20  C35 UNL     1      -1.024  51.065 -21.189  1.00  0.00    -0.029 C 
HETATM   21  C36 UNL     1       0.295  50.222 -21.313  1.00  0.00     0.016 C 
HETATM   22  C37 UNL     1      -1.316  51.447 -19.702  1.00  0.00     0.036 C 
ENDROOT
BRANCH   7  23
HETATM   23  O2  UNL     1       1.112  49.687 -13.739  1.00  0.00    -0.352 OA
BRANCH  23  24
HETATM   24  C9  UNL     1       1.857  48.508 -13.393  1.00  0.00     0.292 C 
HETATM   25  O3  UNL     1       1.475  47.416 -14.229  1.00  0.00    -0.348 OA
HETATM   26  C10 UNL     1       2.160  46.195 -13.901  1.00  0.00     0.179 C 
HETATM   27  C12 UNL     1       1.888  45.770 -12.442  1.00  0.00     0.180 C 
HETATM   28  C13 UNL     1       2.235  46.920 -11.490  1.00  0.00     0.183 C 
HETATM   29  C14 UNL     1       1.500  48.188 -11.926  1.00  0.00     0.204 C 
BRANCH  26  30
HETATM   30  C11 UNL     1       1.717  45.104 -14.891  1.00  0.00     0.198 C 
BRANCH  30  31
HETATM   31  O4  UNL     1       2.657  44.030 -14.934  1.00  0.00    -0.398 OA
HETATM   32  H16 UNL     1       2.385  43.442 -15.660  1.00  0.00     0.209 HD
ENDBRANCH  30  31
ENDBRANCH  26  30
BRANCH  27  33
HETATM   33  O5  UNL     1       2.687  44.630 -12.092  1.00  0.00    -0.390 OA
HETATM   34  H18 UNL     1       2.294  44.250 -11.283  1.00  0.00     0.210 HD
ENDBRANCH  27  33
BRANCH  28  35
HETATM   35  O6  UNL     1       3.663  47.117 -11.510  1.00  0.00    -0.390 OA
HETATM   36  H20 UNL     1       4.057  46.227 -11.413  1.00  0.00     0.210 HD
ENDBRANCH  28  35
BRANCH  29  37
HETATM   37  O7  UNL     1       1.806  49.283 -11.051  1.00  0.00    -0.388 OA
HETATM   38  H22 UNL     1       1.514  50.081 -11.529  1.00  0.00     0.210 HD
ENDBRANCH  29  37
ENDBRANCH  23  24
ENDBRANCH   7  23
BRANCH   1  39
HETATM   39  O1  UNL     1       1.018  52.268 -19.554  1.00  0.00    -0.386 OA
HETATM   40  C1  UNL     1       1.641  53.466 -20.000  1.00  0.00     0.202 C 
ENDBRANCH   1  39
BRANCH  17  41
HETATM   41  C25 UNL     1      -2.952  49.931 -24.389  1.00  0.00    -0.010 C 
HETATM   42  C26 UNL     1      -3.554  48.536 -24.181  1.00  0.00     0.010 C 
BRANCH  41  43
HETATM   43  C27 UNL     1      -2.430  50.068 -25.845  1.00  0.00     0.031 C 
BRANCH  43  44
HETATM   44  C28 UNL     1      -0.995  50.509 -25.975  1.00  0.00    -0.027 C 
HETATM   45  C29 UNL     1      -0.591  51.508 -26.780  1.00  0.00     0.006 C 
BRANCH  45  46
HETATM   46  C30 UNL     1       0.821  52.021 -26.975  1.00  0.00     0.068 C 
HETATM   47  C31 UNL     1       1.767  51.313 -26.000  1.00  0.00     0.050 C 
HETATM   48  C32 UNL     1       1.370  51.910 -28.401  1.00  0.00     0.050 C 
BRANCH  46  49
HETATM   49  O8  UNL     1       0.811  53.415 -26.655  1.00  0.00    -0.387 OA
HETATM   50  H54 UNL     1       0.418  53.515 -25.772  1.00  0.00     0.211 HD
ENDBRANCH  46  49
ENDBRANCH  45  46
ENDBRANCH  43  44
ENDBRANCH  41  43
ENDBRANCH  17  41
TORSDOF 13
ENDMDL
MODEL 6
REMARK minimizedAffinity -9.6728878
REMARK CNNscore 0.321165621
REMARK CNNaffinity 7.43266153
REMARK  13 active torsions:
REMARK  status: ('A' for Active; 'I' for Inactive)
REMARK    1  A    between atoms: O1_2  and  C2_3 
REMARK    2  A    between atoms: C8_9  and  O2_10 
REMARK    3  A    between atoms: O2_10  and  C9_11 
REMARK    4  A    between atoms: C10_13  and  C11_14 
REMARK    5  A    between atoms: C11_14  and  O4_15 
REMARK    6  A    between atoms: C12_16  and  O5_17 
REMARK    7  A    between atoms: C13_18  and  O6_19 
REMARK    8  A    between atoms: C14_20  and  O7_21 
REMARK    9  A    between atoms: C24_31  and  C25_32 
REMARK   10  A    between atoms: C25_32  and  C27_34 
REMARK   11  A    between atoms: C27_34  and  C28_35 
REMARK   12  A    between atoms: C29_36  and  C30_37 
REMARK   13  A    between atoms: C30_37  and  O8_40 
ROOT
HETATM    1  C2  UNL     1      -3.978  48.640 -19.491  1.00  0.00     0.149 C 
HETATM    2  C3  UNL     1      -3.216  48.537 -18.202  1.00  0.00     0.009 C 
HETATM    3  C4  UNL     1      -2.147  49.302 -17.903  1.00  0.00    -0.066 C 
HETATM    4  C5  UNL     1      -1.662  50.275 -18.978  1.00  0.00     0.024 C 
HETATM    5  C6  UNL     1      -0.324  50.951 -18.618  1.00  0.00     0.012 C 
HETATM    6  C7  UNL     1      -0.251  51.517 -17.200  1.00  0.00     0.034 C 
HETATM    7  C8  UNL     1      -1.184  50.857 -16.178  1.00  0.00     0.136 C 
HETATM    8  C15 UNL     1      -1.496  49.361 -16.508  1.00  0.00     0.002 C 
HETATM    9  C16 UNL     1      -2.435  48.822 -15.393  1.00  0.00     0.022 C 
HETATM   10  C17 UNL     1      -0.232  48.475 -16.464  1.00  0.00     0.022 C 
HETATM   11  C18 UNL     1      -1.661  49.601 -20.417  1.00  0.00    -0.030 C 
HETATM   12  C19 UNL     1      -0.578  48.479 -20.452  1.00  0.00     0.016 C 
HETATM   13  C20 UNL     1      -1.257  50.665 -21.493  1.00  0.00     0.011 C 
HETATM   14  C21 UNL     1      -1.608  50.386 -22.972  1.00  0.00     0.011 C 
HETATM   15  C22 UNL     1      -2.874  49.541 -23.212  1.00  0.00    -0.032 C 
HETATM   16  C23 UNL     1      -2.419  48.101 -23.617  1.00  0.00     0.016 C 
HETATM   17  C24 UNL     1      -3.868  50.038 -24.323  1.00  0.00    -0.002 C 
HETATM   18  C33 UNL     1      -5.202  49.346 -23.911  1.00  0.00     0.006 C 
HETATM   19  C34 UNL     1      -5.048  48.883 -22.450  1.00  0.00     0.011 C 
HETATM   20  C35 UNL     1      -3.797  49.616 -21.935  1.00  0.00    -0.029 C 
HETATM   21  C36 UNL     1      -4.236  51.082 -21.585  1.00  0.00     0.016 C 
HETATM   22  C37 UNL     1      -3.075  48.936 -20.728  1.00  0.00     0.036 C 
ENDROOT
BRANCH   7  23
HETATM   23  O2  UNL     1      -0.640  50.951 -14.849  1.00  0.00    -0.352 OA
BRANCH  23  24
HETATM   24  C9  UNL     1      -1.607  50.808 -13.796  1.00  0.00     0.292 C 
HETATM   25  O3  UNL     1      -2.274  52.048 -13.561  1.00  0.00    -0.348 OA
HETATM   26  C10 UNL     1      -3.226  51.976 -12.485  1.00  0.00     0.179 C 
HETATM   27  C12 UNL     1      -2.551  51.562 -11.161  1.00  0.00     0.180 C 
HETATM   28  C13 UNL     1      -1.776  50.254 -11.356  1.00  0.00     0.183 C 
HETATM   29  C14 UNL     1      -0.814  50.398 -12.536  1.00  0.00     0.204 C 
BRANCH  26  30
HETATM   30  C11 UNL     1      -3.920  53.343 -12.355  1.00  0.00     0.198 C 
BRANCH  30  31
HETATM   31  O4  UNL     1      -4.302  53.854 -13.632  1.00  0.00    -0.398 OA
HETATM   32  H16 UNL     1      -4.619  54.763 -13.492  1.00  0.00     0.209 HD
ENDBRANCH  30  31
ENDBRANCH  26  30
BRANCH  27  33
HETATM   33  O5  UNL     1      -3.535  51.362 -10.135  1.00  0.00    -0.390 OA
HETATM   34  H18 UNL     1      -3.057  51.367  -9.283  1.00  0.00     0.210 HD
ENDBRANCH  27  33
BRANCH  28  35
HETATM   35  O6  UNL     1      -2.721  49.191 -11.585  1.00  0.00    -0.390 OA
HETATM   36  H20 UNL     1      -3.406  49.289 -10.894  1.00  0.00     0.210 HD
ENDBRANCH  28  35
BRANCH  29  37
HETATM   37  O7  UNL     1      -0.073  49.187 -12.743  1.00  0.00    -0.388 OA
HETATM   38  H22 UNL     1       0.311  49.273 -13.634  1.00  0.00     0.210 HD
ENDBRANCH  29  37
ENDBRANCH  23  24
ENDBRANCH   7  23
BRANCH   1  39
HETATM   39  O1  UNL     1      -4.982  49.641 -19.312  1.00  0.00    -0.386 OA
HETATM   40  C1  UNL     1      -6.285  49.117 -19.085  1.00  0.00     0.202 C 
ENDBRANCH   1  39
BRANCH  17  41
HETATM   41  C25 UNL     1      -3.514  49.817 -25.824  1.00  0.00    -0.010 C 
HETATM   42  C26 UNL     1      -4.330  48.680 -26.450  1.00  0.00     0.010 C 
BRANCH  41  43
HETATM   43  C27 UNL     1      -1.999  49.571 -26.062  1.00  0.00     0.031 C 
BRANCH  43  44
HETATM   44  C28 UNL     1      -1.234  50.750 -26.607  1.00  0.00    -0.027 C 
HETATM   45  C29 UNL     1       0.088  50.927 -26.433  1.00  0.00     0.006 C 
BRANCH  45  46
HETATM   46  C30 UNL     1       0.940  52.071 -26.940  1.00  0.00     0.068 C 
HETATM   47  C31 UNL     1       2.400  51.620 -27.049  1.00  0.00     0.050 C 
HETATM   48  C32 UNL     1       0.489  52.689 -28.268  1.00  0.00     0.050 C 
BRANCH  46  49
HETATM   49  O8  UNL     1       0.868  53.116 -25.966  1.00  0.00    -0.387 OA
HETATM   50  H54 UNL     1       1.101  52.735 -25.103  1.00  0.00     0.211 HD
ENDBRANCH  46  49
ENDBRANCH  45  46
ENDBRANCH  43  44
ENDBRANCH  41  43
ENDBRANCH  17  41
TORSDOF 13
ENDMDL
MODEL 7
REMARK minimizedAffinity -8.42013836
REMARK CNNscore 0.288196057
REMARK CNNaffinity 6.74440336
REMARK  13 active torsions:
REMARK  status: ('A' for Active; 'I' for Inactive)
REMARK    1  A    between atoms: O1_2  and  C2_3 
REMARK    2  A    between atoms: C8_9  and  O2_10 
REMARK    3  A    between atoms: O2_10  and  C9_11 
REMARK    4  A    between atoms: C10_13  and  C11_14 
REMARK    5  A    between atoms: C11_14  and  O4_15 
REMARK    6  A    between atoms: C12_16  and  O5_17 
REMARK    7  A    between atoms: C13_18  and  O6_19 
REMARK    8  A    between atoms: C14_20  and  O7_21 
REMARK    9  A    between atoms: C24_31  and  C25_32 
REMARK   10  A    between atoms: C25_32  and  C27_34 
REMARK   11  A    between atoms: C27_34  and  C28_35 
REMARK   12  A    between atoms: C29_36  and  C30_37 
REMARK   13  A    between atoms: C30_37  and  O8_40 
ROOT
HETATM    1  C2  UNL     1      -3.633  49.902 -18.377  1.00  0.00     0.149 C 
HETATM    2  C3  UNL     1      -4.726  48.874 -18.366  1.00  0.00     0.009 C 
HETATM    3  C4  UNL     1      -4.676  47.723 -19.067  1.00  0.00    -0.066 C 
HETATM    4  C5  UNL     1      -3.459  47.505 -19.966  1.00  0.00     0.024 C 
HETATM    5  C6  UNL     1      -3.594  46.264 -20.871  1.00  0.00     0.012 C 
HETATM    6  C7  UNL     1      -4.064  44.998 -20.158  1.00  0.00     0.034 C 
HETATM    7  C8  UNL     1      -4.883  45.225 -18.882  1.00  0.00     0.136 C 
HETATM    8  C15 UNL     1      -5.681  46.569 -18.896  1.00  0.00     0.002 C 
HETATM    9  C16 UNL     1      -6.466  46.660 -17.557  1.00  0.00     0.022 C 
HETATM   10  C17 UNL     1      -6.745  46.608 -20.015  1.00  0.00     0.022 C 
HETATM   11  C18 UNL     1      -3.077  48.828 -20.761  1.00  0.00    -0.030 C 
HETATM   12  C19 UNL     1      -4.209  49.150 -21.784  1.00  0.00     0.016 C 
HETATM   13  C20 UNL     1      -1.767  48.583 -21.585  1.00  0.00     0.011 C 
HETATM   14  C21 UNL     1      -0.964  49.810 -22.071  1.00  0.00     0.011 C 
HETATM   15  C22 UNL     1      -1.048  51.063 -21.178  1.00  0.00    -0.032 C 
HETATM   16  C23 UNL     1      -1.995  52.090 -21.880  1.00  0.00     0.016 C 
HETATM   17  C24 UNL     1       0.297  51.815 -20.869  1.00  0.00    -0.002 C 
HETATM   18  C33 UNL     1      -0.052  52.601 -19.569  1.00  0.00     0.006 C 
HETATM   19  C34 UNL     1      -1.327  51.970 -18.978  1.00  0.00     0.011 C 
HETATM   20  C35 UNL     1      -1.487  50.635 -19.725  1.00  0.00    -0.029 C 
HETATM   21  C36 UNL     1      -0.492  49.617 -19.063  1.00  0.00     0.016 C 
HETATM   22  C37 UNL     1      -2.940  50.064 -19.765  1.00  0.00     0.036 C 
ENDROOT
BRANCH   7  23
HETATM   23  O2  UNL     1      -5.790  44.131 -18.651  1.00  0.00    -0.352 OA
BRANCH  23  24
HETATM   24  C9  UNL     1      -5.467  42.926 -19.363  1.00  0.00     0.292 C 
HETATM   25  O3  UNL     1      -6.531  42.570 -20.245  1.00  0.00    -0.348 OA
HETATM   26  C10 UNL     1      -6.281  41.345 -20.956  1.00  0.00     0.179 C 
HETATM   27  C12 UNL     1      -6.076  40.162 -19.986  1.00  0.00     0.180 C 
HETATM   28  C13 UNL     1      -4.973  40.498 -18.977  1.00  0.00     0.183 C 
HETATM   29  C14 UNL     1      -5.291  41.828 -18.293  1.00  0.00     0.204 C 
BRANCH  26  30
HETATM   30  C11 UNL     1      -7.458  41.086 -21.912  1.00  0.00     0.198 C 
BRANCH  30  31
HETATM   31  O4  UNL     1      -8.318  40.063 -21.411  1.00  0.00    -0.398 OA
HETATM   32  H16 UNL     1      -8.963  39.863 -22.111  1.00  0.00     0.209 HD
ENDBRANCH  30  31
ENDBRANCH  26  30
BRANCH  27  33
HETATM   33  O5  UNL     1      -5.693  38.980 -20.707  1.00  0.00    -0.390 OA
HETATM   34  H18 UNL     1      -5.836  38.226 -20.104  1.00  0.00     0.210 HD
ENDBRANCH  27  33
BRANCH  28  35
HETATM   35  O6  UNL     1      -3.716  40.565 -19.678  1.00  0.00    -0.390 OA
HETATM   36  H20 UNL     1      -3.679  39.764 -20.238  1.00  0.00     0.210 HD
ENDBRANCH  28  35
BRANCH  29  37
HETATM   37  O7  UNL     1      -4.273  42.169 -17.340  1.00  0.00    -0.388 OA
HETATM   38  H22 UNL     1      -4.414  43.113 -17.145  1.00  0.00     0.210 HD
ENDBRANCH  29  37
ENDBRANCH  23  24
ENDBRANCH   7  23
BRANCH   1  39
HETATM   39  O1  UNL     1      -2.700  49.541 -17.355  1.00  0.00    -0.386 OA
HETATM   40  C1  UNL     1      -2.913  50.210 -16.118  1.00  0.00     0.202 C 
ENDBRANCH   1  39
BRANCH  17  41
HETATM   41  C25 UNL     1       0.940  52.718 -21.964  1.00  0.00    -0.010 C 
HETATM   42  C26 UNL     1       1.465  54.040 -21.390  1.00  0.00     0.010 C 
BRANCH  41  43
HETATM   43  C27 UNL     1      -0.015  53.004 -23.156  1.00  0.00     0.031 C 
BRANCH  43  44
HETATM   44  C28 UNL     1       0.340  52.310 -24.445  1.00  0.00    -0.027 C 
HETATM   45  C29 UNL     1      -0.494  52.215 -25.496  1.00  0.00     0.006 C 
BRANCH  45  46
HETATM   46  C30 UNL     1      -0.227  51.542 -26.827  1.00  0.00     0.068 C 
HETATM   47  C31 UNL     1      -1.530  50.952 -27.377  1.00  0.00     0.050 C 
HETATM   48  C32 UNL     1       0.430  52.426 -27.891  1.00  0.00     0.050 C 
BRANCH  46  49
HETATM   49  O8  UNL     1       0.682  50.465 -26.581  1.00  0.00    -0.387 OA
HETATM   50  H54 UNL     1       0.309  49.917 -25.871  1.00  0.00     0.211 HD
ENDBRANCH  46  49
ENDBRANCH  45  46
ENDBRANCH  43  44
ENDBRANCH  41  43
ENDBRANCH  17  41
TORSDOF 13
ENDMDL
MODEL 8
REMARK minimizedAffinity -9.60157013
REMARK CNNscore 0.255749136
REMARK CNNaffinity 6.36646414
REMARK  13 active torsions:
REMARK  status: ('A' for Active; 'I' for Inactive)
REMARK    1  A    between atoms: O1_2  and  C2_3 
REMARK    2  A    between atoms: C8_9  and  O2_10 
REMARK    3  A    between atoms: O2_10  and  C9_11 
REMARK    4  A    between atoms: C10_13  and  C11_14 
REMARK    5  A    between atoms: C11_14  and  O4_15 
REMARK    6  A    between atoms: C12_16  and  O5_17 
REMARK    7  A    between atoms: C13_18  and  O6_19 
REMARK    8  A    between atoms: C14_20  and  O7_21 
REMARK    9  A    between atoms: C24_31  and  C25_32 
REMARK   10  A    between atoms: C25_32  and  C27_34 
REMARK   11  A    between atoms: C27_34  and  C28_35 
REMARK   12  A    between atoms: C29_36  and  C30_37 
REMARK   13  A    between atoms: C30_37  and  O8_40 
ROOT
HETATM    1  C2  UNL     1      -3.259  49.078 -24.514  1.00  0.00     0.149 C 
HETATM    2  C3  UNL     1      -4.379  48.087 -24.398  1.00  0.00     0.009 C 
HETATM    3  C4  UNL     1      -5.384  48.195 -23.505  1.00  0.00    -0.066 C 
HETATM    4  C5  UNL     1      -5.320  49.364 -22.522  1.00  0.00     0.024 C 
HETATM    5  C6  UNL     1      -6.396  49.284 -21.421  1.00  0.00     0.012 C 
HETATM    6  C7  UNL     1      -7.807  48.981 -21.923  1.00  0.00     0.034 C 
HETATM    7  C8  UNL     1      -7.885  48.232 -23.259  1.00  0.00     0.136 C 
HETATM    8  C15 UNL     1      -6.646  47.315 -23.521  1.00  0.00     0.002 C 
HETATM    9  C16 UNL     1      -6.865  46.616 -24.893  1.00  0.00     0.022 C 
HETATM   10  C17 UNL     1      -6.527  46.179 -22.480  1.00  0.00     0.022 C 
HETATM   11  C18 UNL     1      -3.850  49.570 -21.953  1.00  0.00    -0.030 C 
HETATM   12  C19 UNL     1      -3.476  48.346 -21.061  1.00  0.00     0.016 C 
HETATM   13  C20 UNL     1      -3.815  50.837 -21.035  1.00  0.00     0.011 C 
HETATM   14  C21 UNL     1      -2.448  51.491 -20.732  1.00  0.00     0.011 C 
HETATM   15  C22 UNL     1      -1.381  51.351 -21.834  1.00  0.00    -0.032 C 
HETATM   16  C23 UNL     1      -0.351  50.269 -21.371  1.00  0.00     0.016 C 
HETATM   17  C24 UNL     1      -0.558  52.639 -22.202  1.00  0.00    -0.002 C 
HETATM   18  C33 UNL     1      -0.044  52.308 -23.636  1.00  0.00     0.006 C 
HETATM   19  C34 UNL     1      -0.893  51.138 -24.170  1.00  0.00     0.011 C 
HETATM   20  C35 UNL     1      -2.092  51.052 -23.210  1.00  0.00    -0.029 C 
HETATM   21  C36 UNL     1      -3.101  52.179 -23.632  1.00  0.00     0.016 C 
HETATM   22  C37 UNL     1      -2.793  49.658 -23.142  1.00  0.00     0.036 C 
ENDROOT
BRANCH   7  23
HETATM   23  O2  UNL     1      -9.088  47.447 -23.340  1.00  0.00    -0.352 OA
BRANCH  23  24
HETATM   24  C9  UNL     1      -9.840  47.629 -24.551  1.00  0.00     0.292 C 
HETATM   25  O3  UNL     1      -9.854  46.422 -25.312  1.00  0.00    -0.348 OA
HETATM   26  C10 UNL     1     -10.558  46.555 -26.559  1.00  0.00     0.179 C 
HETATM   27  C12 UNL     1      -9.930  47.650 -27.448  1.00  0.00     0.180 C 
HETATM   28  C13 UNL     1      -9.843  48.968 -26.671  1.00  0.00     0.183 C 
HETATM   29  C14 UNL     1      -9.116  48.736 -25.346  1.00  0.00     0.204 C 
BRANCH  26  30
HETATM   30  C11 UNL     1     -10.559  45.191 -27.270  1.00  0.00     0.198 C 
BRANCH  30  31
HETATM   31  O4  UNL     1      -9.428  44.408 -26.888  1.00  0.00    -0.398 OA
HETATM   32  H16 UNL     1      -9.421  43.620 -27.459  1.00  0.00     0.209 HD
ENDBRANCH  30  31
ENDBRANCH  26  30
BRANCH  27  33
HETATM   33  O5  UNL     1     -10.727  47.864 -28.623  1.00  0.00    -0.390 OA
HETATM   34  H18 UNL     1     -10.165  48.350 -29.257  1.00  0.00     0.210 HD
ENDBRANCH  27  33
BRANCH  28  35
HETATM   35  O6  UNL     1     -11.179  49.458 -26.448  1.00  0.00    -0.390 OA
HETATM   36  H20 UNL     1     -11.634  49.395 -27.311  1.00  0.00     0.210 HD
ENDBRANCH  28  35
BRANCH  29  37
HETATM   37  O7  UNL     1      -9.019  49.955 -24.595  1.00  0.00    -0.388 OA
HETATM   38  H22 UNL     1      -8.782  49.679 -23.691  1.00  0.00     0.210 HD
ENDBRANCH  29  37
ENDBRANCH  23  24
ENDBRANCH   7  23
BRANCH   1  39
HETATM   39  O1  UNL     1      -3.690  50.106 -25.409  1.00  0.00    -0.386 OA
HETATM   40  C1  UNL     1      -3.326  49.881 -26.765  1.00  0.00     0.202 C 
ENDBRANCH   1  39
BRANCH  17  41
HETATM   41  C25 UNL     1       0.578  53.121 -21.252  1.00  0.00    -0.010 C 
HETATM   42  C26 UNL     1       1.772  52.158 -21.240  1.00  0.00     0.010 C 
BRANCH  41  43
HETATM   43  C27 UNL     1       0.091  53.372 -19.799  1.00  0.00     0.031 C 
BRANCH  43  44
HETATM   44  C28 UNL     1       0.798  52.572 -18.736  1.00  0.00    -0.027 C 
HETATM   45  C29 UNL     1       0.897  52.960 -17.451  1.00  0.00     0.006 C 
BRANCH  45  46
HETATM   46  C30 UNL     1       1.582  52.226 -16.317  1.00  0.00     0.068 C 
HETATM   47  C31 UNL     1       1.098  50.773 -16.275  1.00  0.00     0.050 C 
HETATM   48  C32 UNL     1       3.114  52.260 -16.341  1.00  0.00     0.050 C 
BRANCH  46  49
HETATM   49  O8  UNL     1       1.184  52.864 -15.100  1.00  0.00    -0.387 OA
HETATM   50  H54 UNL     1       0.213  52.900 -15.087  1.00  0.00     0.211 HD
ENDBRANCH  46  49
ENDBRANCH  45  46
ENDBRANCH  43  44
ENDBRANCH  41  43
ENDBRANCH  17  41
TORSDOF 13
ENDMDL
MODEL 9
REMARK minimizedAffinity -8.82429314
REMARK CNNscore 0.246151164
REMARK CNNaffinity 7.02081537
REMARK  13 active torsions:
REMARK  status: ('A' for Active; 'I' for Inactive)
REMARK    1  A    between atoms: O1_2  and  C2_3 
REMARK    2  A    between atoms: C8_9  and  O2_10 
REMARK    3  A    between atoms: O2_10  and  C9_11 
REMARK    4  A    between atoms: C10_13  and  C11_14 
REMARK    5  A    between atoms: C11_14  and  O4_15 
REMARK    6  A    between atoms: C12_16  and  O5_17 
REMARK    7  A    between atoms: C13_18  and  O6_19 
REMARK    8  A    between atoms: C14_20  and  O7_21 
REMARK    9  A    between atoms: C24_31  and  C25_32 
REMARK   10  A    between atoms: C25_32  and  C27_34 
REMARK   11  A    between atoms: C27_34  and  C28_35 
REMARK   12  A    between atoms: C29_36  and  C30_37 
REMARK   13  A    between atoms: C30_37  and  O8_40 
ROOT
HETATM    1  C2  UNL     1      -4.634  47.106 -20.167  1.00  0.00     0.149 C 
HETATM    2  C3  UNL     1      -6.119  46.888 -20.170  1.00  0.00     0.009 C 
HETATM    3  C4  UNL     1      -6.957  47.462 -21.057  1.00  0.00    -0.066 C 
HETATM    4  C5  UNL     1      -6.346  48.437 -22.063  1.00  0.00     0.024 C 
HETATM    5  C6  UNL     1      -7.406  49.188 -22.894  1.00  0.00     0.012 C 
HETATM    6  C7  UNL     1      -8.503  48.303 -23.484  1.00  0.00     0.034 C 
HETATM    7  C8  UNL     1      -8.767  46.991 -22.736  1.00  0.00     0.136 C 
HETATM    8  C15 UNL     1      -8.440  47.079 -21.209  1.00  0.00     0.002 C 
HETATM    9  C16 UNL     1      -8.762  45.693 -20.582  1.00  0.00     0.022 C 
HETATM   10  C17 UNL     1      -9.340  48.097 -20.475  1.00  0.00     0.022 C 
HETATM   11  C18 UNL     1      -5.286  49.401 -21.374  1.00  0.00    -0.030 C 
HETATM   12  C19 UNL     1      -6.031  50.348 -20.384  1.00  0.00     0.016 C 
HETATM   13  C20 UNL     1      -4.616  50.307 -22.462  1.00  0.00     0.011 C 
HETATM   14  C21 UNL     1      -3.273  50.992 -22.124  1.00  0.00     0.011 C 
HETATM   15  C22 UNL     1      -2.365  50.235 -21.136  1.00  0.00    -0.032 C 
HETATM   16  C23 UNL     1      -2.456  50.957 -19.752  1.00  0.00     0.016 C 
HETATM   17  C24 UNL     1      -0.840  50.130 -21.499  1.00  0.00    -0.002 C 
HETATM   18  C33 UNL     1      -0.382  48.897 -20.664  1.00  0.00     0.006 C 
HETATM   19  C34 UNL     1      -1.650  48.130 -20.243  1.00  0.00     0.011 C 
HETATM   20  C35 UNL     1      -2.771  48.711 -21.122  1.00  0.00    -0.029 C 
HETATM   21  C36 UNL     1      -2.645  48.034 -22.533  1.00  0.00     0.016 C 
HETATM   22  C37 UNL     1      -4.216  48.560 -20.547  1.00  0.00     0.036 C 
ENDROOT
BRANCH   7  23
HETATM   23  O2  UNL     1     -10.130  46.563 -22.910  1.00  0.00    -0.352 OA
BRANCH  23  24
HETATM   24  C9  UNL     1     -10.335  45.648 -23.998  1.00  0.00     0.292 C 
HETATM   25  O3  UNL     1      -9.106  45.013 -24.352  1.00  0.00    -0.348 OA
HETATM   26  C10 UNL     1      -9.241  44.115 -25.467  1.00  0.00     0.179 C 
HETATM   27  C12 UNL     1      -9.755  44.848 -26.723  1.00  0.00     0.180 C 
HETATM   28  C13 UNL     1     -11.055  45.592 -26.400  1.00  0.00     0.183 C 
HETATM   29  C14 UNL     1     -10.841  46.496 -25.185  1.00  0.00     0.204 C 
BRANCH  26  30
HETATM   30  C11 UNL     1      -7.879  43.449 -25.726  1.00  0.00     0.198 C 
BRANCH  30  31
HETATM   31  O4  UNL     1      -7.720  42.270 -24.938  1.00  0.00    -0.398 OA
HETATM   32  H16 UNL     1      -6.801  41.971 -25.054  1.00  0.00     0.209 HD
ENDBRANCH  30  31
ENDBRANCH  26  30
BRANCH  27  33
HETATM   33  O5  UNL     1     -10.015  43.913 -27.782  1.00  0.00    -0.390 OA
HETATM   34  H18 UNL     1     -10.075  44.432 -28.606  1.00  0.00     0.210 HD
ENDBRANCH  27  33
BRANCH  28  35
HETATM   35  O6  UNL     1     -12.089  44.620 -26.145  1.00  0.00    -0.390 OA
HETATM   36  H20 UNL     1     -12.031  43.972 -26.875  1.00  0.00     0.210 HD
ENDBRANCH  28  35
BRANCH  29  37
HETATM   37  O7  UNL     1     -12.044  47.206 -24.857  1.00  0.00    -0.388 OA
HETATM   38  H22 UNL     1     -11.901  47.548 -23.956  1.00  0.00     0.210 HD
ENDBRANCH  29  37
ENDBRANCH  23  24
ENDBRANCH   7  23
BRANCH   1  39
HETATM   39  O1  UNL     1      -4.060  46.138 -21.048  1.00  0.00    -0.386 OA
HETATM   40  C1  UNL     1      -4.655  44.850 -20.956  1.00  0.00     0.202 C 
ENDBRANCH   1  39
BRANCH  17  41
HETATM   41  C25 UNL     1       0.083  51.369 -21.300  1.00  0.00    -0.010 C 
HETATM   42  C26 UNL     1      -0.037  51.960 -19.890  1.00  0.00     0.010 C 
BRANCH  41  43
HETATM   43  C27 UNL     1      -0.152  52.480 -22.358  1.00  0.00     0.031 C 
BRANCH  43  44
HETATM   44  C28 UNL     1      -0.067  52.030 -23.794  1.00  0.00    -0.027 C 
HETATM   45  C29 UNL     1       0.651  52.669 -24.735  1.00  0.00     0.006 C 
BRANCH  45  46
HETATM   46  C30 UNL     1       0.798  52.293 -26.195  1.00  0.00     0.068 C 
HETATM   47  C31 UNL     1       0.288  50.865 -26.415  1.00  0.00     0.050 C 
HETATM   48  C32 UNL     1       0.122  53.242 -27.190  1.00  0.00     0.050 C 
BRANCH  46  49
HETATM   49  O8  UNL     1       2.195  52.320 -26.499  1.00  0.00    -0.387 OA
HETATM   50  H54 UNL     1       2.652  51.763 -25.848  1.00  0.00     0.211 HD
ENDBRANCH  46  49
ENDBRANCH  45  46
ENDBRANCH  43  44
ENDBRANCH  41  43
ENDBRANCH  17  41
TORSDOF 13
ENDMDL
