MODEL 1
REMARK minimizedAffinity -7.76231098
REMARK CNNscore 0.755913556
REMARK CNNaffinity 7.09236193
REMARK  11 active torsions:
REMARK  status: ('A' for Active; 'I' for Inactive)
REMARK    1  A    between atoms: C4_4  and  C5_5 
REMARK    2  A    between atoms: C5_5  and  C6_6 
REMARK    3  A    between atoms: C6_6  and  C7_7 
REMARK    4  A    between atoms: C9_9  and  C10_10 
REMARK    5  A    between atoms: C10_10  and  C11_11 
REMARK    6  A    between atoms: C11_11  and  C12_12 
REMARK    7  A    between atoms: C14_14  and  C15_15 
REMARK    8  A    between atoms: C15_15  and  C16_16 
REMARK    9  A    between atoms: C16_16  and  O1_17 
REMARK   10  A    between atoms: O1_17  and  C17_18 
REMARK   11  A    between atoms: C23_24  and  O2_25 
ROOT
HETATM    1  C16 UNL     1      -4.667   8.471  13.758  1.00  0.00     0.175 C 
ENDROOT
BRANCH   1   2
HETATM    2  C15 UNL     1      -3.915   9.346  14.778  1.00  0.00     0.054 C 
BRANCH   2   3
HETATM    3  C14 UNL     1      -2.520   9.681  14.310  1.00  0.00    -0.022 C 
HETATM    4  C12 UNL     1      -1.354   9.179  14.769  1.00  0.00    -0.087 C 
HETATM    5  C13 UNL     1      -1.247   8.093  15.807  1.00  0.00     0.043 C 
BRANCH   4   6
HETATM    6  C11 UNL     1      -0.032   9.694  14.229  1.00  0.00     0.037 C 
BRANCH   6   7
HETATM    7  C10 UNL     1       0.908   8.560  13.797  1.00  0.00     0.031 C 
BRANCH   7   8
HETATM    8  C9  UNL     1       1.102   8.541  12.300  1.00  0.00    -0.024 C 
HETATM    9  C7  UNL     1       0.421   7.809  11.396  1.00  0.00    -0.087 C 
HETATM   10  C8  UNL     1      -0.710   6.878  11.761  1.00  0.00     0.043 C 
BRANCH   9  11
HETATM   11  C6  UNL     1       0.697   7.840   9.896  1.00  0.00     0.037 C 
BRANCH  11  12
HETATM   12  C5  UNL     1       2.162   7.927   9.440  1.00  0.00     0.031 C 
BRANCH  12  13
HETATM   13  C4  UNL     1       2.605   6.660   8.755  1.00  0.00    -0.024 C 
HETATM   14  C2  UNL     1       2.448   6.336   7.456  1.00  0.00    -0.091 C 
HETATM   15  C1  UNL     1       1.711   7.177   6.450  1.00  0.00     0.042 C 
HETATM   16  C3  UNL     1       3.008   5.048   6.912  1.00  0.00     0.042 C 
ENDBRANCH  12  13
ENDBRANCH  11  12
ENDBRANCH   9  11
ENDBRANCH   7   8
ENDBRANCH   6   7
ENDBRANCH   4   6
ENDBRANCH   2   3
ENDBRANCH   1   2
BRANCH   1  17
HETATM   17  O1  UNL     1      -5.935   8.054  14.272  1.00  0.00    -0.355 OA
BRANCH  17  18
HETATM   18  C17 UNL     1      -6.211   6.639  14.193  1.00  0.00     0.166 C 
HETATM   19  C18 UNL     1      -6.011   6.135  15.631  1.00  0.00     0.079 C 
HETATM   20  C19 UNL     1      -7.660   6.513  13.712  1.00  0.00     0.073 C 
HETATM   21  C20 UNL     1      -8.083   5.059  13.622  1.00  0.00     0.047 C 
HETATM   22  C21 UNL     1      -7.009   4.238  12.973  1.00  0.00    -0.021 A 
HETATM   23  C22 UNL     1      -7.312   2.956  12.499  1.00  0.00     0.046 A 
HETATM   24  C27 UNL     1      -5.695   4.714  12.865  1.00  0.00     0.085 A 
HETATM   25  C23 UNL     1      -6.324   2.179  11.908  1.00  0.00     0.066 A 
HETATM   26  C24 UNL     1      -5.024   2.659  11.765  1.00  0.00     0.046 A 
HETATM   27  C25 UNL     1      -4.700   3.938  12.240  1.00  0.00    -0.025 A 
HETATM   28  C26 UNL     1      -3.297   4.462  12.095  1.00  0.00     0.051 C 
HETATM   29  O3  UNL     1      -5.300   5.939  13.335  1.00  0.00    -0.314 OA
BRANCH  25  30
HETATM   30  O2  UNL     1      -6.671   0.928  11.483  1.00  0.00    -0.361 OA
HETATM   31  H36 UNL     1      -5.874   0.496  11.132  1.00  0.00     0.217 HD
ENDBRANCH  25  30
ENDBRANCH  17  18
ENDBRANCH   1  17
TORSDOF 11
ENDMDL
MODEL 2
REMARK minimizedAffinity -8.3329916
REMARK CNNscore 0.707973421
REMARK CNNaffinity 6.89656687
REMARK  11 active torsions:
REMARK  status: ('A' for Active; 'I' for Inactive)
REMARK    1  A    between atoms: C4_4  and  C5_5 
REMARK    2  A    between atoms: C5_5  and  C6_6 
REMARK    3  A    between atoms: C6_6  and  C7_7 
REMARK    4  A    between atoms: C9_9  and  C10_10 
REMARK    5  A    between atoms: C10_10  and  C11_11 
REMARK    6  A    between atoms: C11_11  and  C12_12 
REMARK    7  A    between atoms: C14_14  and  C15_15 
REMARK    8  A    between atoms: C15_15  and  C16_16 
REMARK    9  A    between atoms: C16_16  and  O1_17 
REMARK   10  A    between atoms: O1_17  and  C17_18 
REMARK   11  A    between atoms: C23_24  and  O2_25 
ROOT
HETATM    1  C16 UNL     1      -3.418   8.410  12.864  1.00  0.00     0.175 C 
ENDROOT
BRANCH   1   2
HETATM    2  C15 UNL     1      -1.913   8.425  12.538  1.00  0.00     0.054 C 
BRANCH   2   3
HETATM    3  C14 UNL     1      -1.355   7.030  12.393  1.00  0.00    -0.022 C 
HETATM    4  C12 UNL     1      -0.585   6.356  13.273  1.00  0.00    -0.087 C 
HETATM    5  C13 UNL     1      -0.209   6.865  14.639  1.00  0.00     0.043 C 
BRANCH   4   6
HETATM    6  C11 UNL     1      -0.047   4.980  12.921  1.00  0.00     0.037 C 
BRANCH   6   7
HETATM    7  C10 UNL     1       0.555   4.929  11.509  1.00  0.00     0.031 C 
BRANCH   7   8
HETATM    8  C9  UNL     1       1.654   5.948  11.339  1.00  0.00    -0.024 C 
HETATM    9  C7  UNL     1       2.807   5.803  10.654  1.00  0.00    -0.087 C 
HETATM   10  C8  UNL     1       3.170   4.550   9.894  1.00  0.00     0.043 C 
BRANCH   9  11
HETATM   11  C6  UNL     1       3.876   6.886  10.549  1.00  0.00     0.037 C 
BRANCH  11  12
HETATM   12  C5  UNL     1       3.576   8.102   9.657  1.00  0.00     0.031 C 
BRANCH  12  13
HETATM   13  C4  UNL     1       3.114   7.682   8.286  1.00  0.00    -0.024 C 
HETATM   14  C2  UNL     1       1.867   7.767   7.782  1.00  0.00    -0.091 C 
HETATM   15  C1  UNL     1       0.665   8.241   8.553  1.00  0.00     0.042 C 
HETATM   16  C3  UNL     1       1.582   7.359   6.360  1.00  0.00     0.042 C 
ENDBRANCH  12  13
ENDBRANCH  11  12
ENDBRANCH   9  11
ENDBRANCH   7   8
ENDBRANCH   6   7
ENDBRANCH   4   6
ENDBRANCH   2   3
ENDBRANCH   1   2
BRANCH   1  17
HETATM   17  O1  UNL     1      -3.650   8.003  14.215  1.00  0.00    -0.355 OA
BRANCH  17  18
HETATM   18  C17 UNL     1      -4.428   6.799  14.385  1.00  0.00     0.166 C 
HETATM   19  C18 UNL     1      -3.824   6.131  15.631  1.00  0.00     0.079 C 
HETATM   20  C19 UNL     1      -5.876   7.252  14.593  1.00  0.00     0.073 C 
HETATM   21  C20 UNL     1      -6.795   6.066  14.820  1.00  0.00     0.047 C 
HETATM   22  C21 UNL     1      -6.491   4.971  13.843  1.00  0.00    -0.021 A 
HETATM   23  C22 UNL     1      -7.415   3.934  13.658  1.00  0.00     0.046 A 
HETATM   24  C27 UNL     1      -5.282   4.943  13.134  1.00  0.00     0.085 A 
HETATM   25  C23 UNL     1      -7.140   2.907  12.766  1.00  0.00     0.066 A 
HETATM   26  C24 UNL     1      -5.957   2.891  12.032  1.00  0.00     0.046 A 
HETATM   27  C25 UNL     1      -5.016   3.916  12.208  1.00  0.00    -0.025 A 
HETATM   28  C26 UNL     1      -3.733   3.904  11.423  1.00  0.00     0.051 C 
HETATM   29  O3  UNL     1      -4.306   5.893  13.279  1.00  0.00    -0.314 OA
BRANCH  25  30
HETATM   30  O2  UNL     1      -8.067   1.910  12.642  1.00  0.00    -0.361 OA
HETATM   31  H36 UNL     1      -7.721   1.250  12.017  1.00  0.00     0.217 HD
ENDBRANCH  25  30
ENDBRANCH  17  18
ENDBRANCH   1  17
TORSDOF 11
ENDMDL
MODEL 3
REMARK minimizedAffinity -7.70740461
REMARK CNNscore 0.626593649
REMARK CNNaffinity 6.82820559
REMARK  11 active torsions:
REMARK  status: ('A' for Active; 'I' for Inactive)
REMARK    1  A    between atoms: C4_4  and  C5_5 
REMARK    2  A    between atoms: C5_5  and  C6_6 
REMARK    3  A    between atoms: C6_6  and  C7_7 
REMARK    4  A    between atoms: C9_9  and  C10_10 
REMARK    5  A    between atoms: C10_10  and  C11_11 
REMARK    6  A    between atoms: C11_11  and  C12_12 
REMARK    7  A    between atoms: C14_14  and  C15_15 
REMARK    8  A    between atoms: C15_15  and  C16_16 
REMARK    9  A    between atoms: C16_16  and  O1_17 
REMARK   10  A    between atoms: O1_17  and  C17_18 
REMARK   11  A    between atoms: C23_24  and  O2_25 
ROOT
HETATM    1  C16 UNL     1      -2.614   9.270  13.575  1.00  0.00     0.175 C 
ENDROOT
BRANCH   1   2
HETATM    2  C15 UNL     1      -1.542   9.900  14.483  1.00  0.00     0.054 C 
BRANCH   2   3
HETATM    3  C14 UNL     1      -0.428   8.931  14.795  1.00  0.00    -0.022 C 
HETATM    4  C12 UNL     1       0.901   9.153  14.724  1.00  0.00    -0.087 C 
HETATM    5  C13 UNL     1       1.524  10.483  14.392  1.00  0.00     0.043 C 
BRANCH   4   6
HETATM    6  C11 UNL     1       1.882   8.028  15.002  1.00  0.00     0.037 C 
BRANCH   6   7
HETATM    7  C10 UNL     1       1.505   6.728  14.277  1.00  0.00     0.031 C 
BRANCH   7   8
HETATM    8  C9  UNL     1       1.195   6.977  12.821  1.00  0.00    -0.024 C 
HETATM    9  C7  UNL     1       0.315   6.311  12.045  1.00  0.00    -0.087 C 
HETATM   10  C8  UNL     1      -0.554   5.185  12.552  1.00  0.00     0.043 C 
BRANCH   9  11
HETATM   11  C6  UNL     1       0.078   6.620  10.571  1.00  0.00     0.037 C 
BRANCH  11  12
HETATM   12  C5  UNL     1       0.590   7.964  10.031  1.00  0.00     0.031 C 
BRANCH  12  13
HETATM   13  C4  UNL     1       0.807   7.916   8.540  1.00  0.00    -0.024 C 
HETATM   14  C2  UNL     1       1.791   7.278   7.877  1.00  0.00    -0.091 C 
HETATM   15  C1  UNL     1       2.926   6.541   8.537  1.00  0.00     0.042 C 
HETATM   16  C3  UNL     1       1.829   7.277   6.372  1.00  0.00     0.042 C 
ENDBRANCH  12  13
ENDBRANCH  11  12
ENDBRANCH   9  11
ENDBRANCH   7   8
ENDBRANCH   6   7
ENDBRANCH   4   6
ENDBRANCH   2   3
ENDBRANCH   1   2
BRANCH   1  17
HETATM   17  O1  UNL     1      -2.507   7.844  13.564  1.00  0.00    -0.355 OA
BRANCH  17  18
HETATM   18  C17 UNL     1      -3.704   7.120  13.921  1.00  0.00     0.166 C 
HETATM   19  C18 UNL     1      -3.527   6.811  15.416  1.00  0.00     0.079 C 
HETATM   20  C19 UNL     1      -4.875   8.067  13.641  1.00  0.00     0.073 C 
HETATM   21  C20 UNL     1      -6.199   7.427  14.013  1.00  0.00     0.047 C 
HETATM   22  C21 UNL     1      -6.254   6.011  13.524  1.00  0.00    -0.021 A 
HETATM   23  C22 UNL     1      -7.486   5.347  13.468  1.00  0.00     0.046 A 
HETATM   24  C27 UNL     1      -5.089   5.322  13.154  1.00  0.00     0.085 A 
HETATM   25  C23 UNL     1      -7.549   4.030  13.030  1.00  0.00     0.066 A 
HETATM   26  C24 UNL     1      -6.401   3.352  12.628  1.00  0.00     0.046 A 
HETATM   27  C25 UNL     1      -5.157   3.998  12.683  1.00  0.00    -0.025 A 
HETATM   28  C26 UNL     1      -3.912   3.271  12.256  1.00  0.00     0.051 C 
HETATM   29  O3  UNL     1      -3.839   5.880  13.213  1.00  0.00    -0.314 OA
BRANCH  25  30
HETATM   30  O2  UNL     1      -8.774   3.425  13.017  1.00  0.00    -0.361 OA
HETATM   31  H36 UNL     1      -8.654   2.505  12.726  1.00  0.00     0.217 HD
ENDBRANCH  25  30
ENDBRANCH  17  18
ENDBRANCH   1  17
TORSDOF 11
ENDMDL
MODEL 4
REMARK minimizedAffinity -7.08659792
REMARK CNNscore 0.576840818
REMARK CNNaffinity 5.9834199
REMARK  11 active torsions:
REMARK  status: ('A' for Active; 'I' for Inactive)
REMARK    1  A    between atoms: C4_4  and  C5_5 
REMARK    2  A    between atoms: C5_5  and  C6_6 
REMARK    3  A    between atoms: C6_6  and  C7_7 
REMARK    4  A    between atoms: C9_9  and  C10_10 
REMARK    5  A    between atoms: C10_10  and  C11_11 
REMARK    6  A    between atoms: C11_11  and  C12_12 
REMARK    7  A    between atoms: C14_14  and  C15_15 
REMARK    8  A    between atoms: C15_15  and  C16_16 
REMARK    9  A    between atoms: C16_16  and  O1_17 
REMARK   10  A    between atoms: O1_17  and  C17_18 
REMARK   11  A    between atoms: C23_24  and  O2_25 
ROOT
HETATM    1  C16 UNL     1      -9.224   7.137  15.341  1.00  0.00     0.175 C 
ENDROOT
BRANCH   1   2
HETATM    2  C15 UNL     1     -10.409   8.049  14.975  1.00  0.00     0.054 C 
BRANCH   2   3
HETATM    3  C14 UNL     1     -10.536   9.216  15.924  1.00  0.00    -0.022 C 
HETATM    4  C12 UNL     1     -10.416  10.529  15.636  1.00  0.00    -0.087 C 
HETATM    5  C13 UNL     1     -10.213  11.080  14.250  1.00  0.00     0.043 C 
BRANCH   4   6
HETATM    6  C11 UNL     1     -10.497  11.566  16.742  1.00  0.00     0.037 C 
BRANCH   6   7
HETATM    7  C10 UNL     1     -11.362  11.098  17.922  1.00  0.00     0.031 C 
BRANCH   7   8
HETATM    8  C9  UNL     1     -10.666  11.325  19.242  1.00  0.00    -0.024 C 
HETATM    9  C7  UNL     1     -11.106  10.982  20.470  1.00  0.00    -0.087 C 
HETATM   10  C8  UNL     1     -12.408  10.259  20.713  1.00  0.00     0.043 C 
BRANCH   9  11
HETATM   11  C6  UNL     1     -10.341  11.267  21.758  1.00  0.00     0.037 C 
BRANCH  11  12
HETATM   12  C5  UNL     1     -10.949  10.765  23.077  1.00  0.00     0.031 C 
BRANCH  12  13
HETATM   13  C4  UNL     1     -11.414   9.335  22.963  1.00  0.00    -0.024 C 
HETATM   14  C2  UNL     1     -11.682   8.481  23.970  1.00  0.00    -0.091 C 
HETATM   15  C1  UNL     1     -11.486   8.793  25.428  1.00  0.00     0.042 C 
HETATM   16  C3  UNL     1     -12.201   7.096  23.685  1.00  0.00     0.042 C 
ENDBRANCH  12  13
ENDBRANCH  11  12
ENDBRANCH   9  11
ENDBRANCH   7   8
ENDBRANCH   6   7
ENDBRANCH   4   6
ENDBRANCH   2   3
ENDBRANCH   1   2
BRANCH   1  17
HETATM   17  O1  UNL     1      -8.247   7.117  14.298  1.00  0.00    -0.355 OA
BRANCH  17  18
HETATM   18  C17 UNL     1      -7.614   5.843  14.054  1.00  0.00     0.166 C 
HETATM   19  C18 UNL     1      -7.578   5.168  15.434  1.00  0.00     0.079 C 
HETATM   20  C19 UNL     1      -8.508   5.106  13.052  1.00  0.00     0.073 C 
HETATM   21  C20 UNL     1      -7.961   3.725  12.740  1.00  0.00     0.047 C 
HETATM   22  C21 UNL     1      -6.480   3.787  12.511  1.00  0.00    -0.021 A 
HETATM   23  C22 UNL     1      -5.832   2.707  11.898  1.00  0.00     0.046 A 
HETATM   24  C27 UNL     1      -5.723   4.889  12.933  1.00  0.00     0.085 A 
HETATM   25  C23 UNL     1      -4.459   2.745  11.692  1.00  0.00     0.066 A 
HETATM   26  C24 UNL     1      -3.706   3.852  12.077  1.00  0.00     0.046 A 
HETATM   27  C25 UNL     1      -4.336   4.939  12.699  1.00  0.00    -0.025 A 
HETATM   28  C26 UNL     1      -3.529   6.136  13.122  1.00  0.00     0.051 C 
HETATM   29  O3  UNL     1      -6.267   5.970  13.575  1.00  0.00    -0.314 OA
BRANCH  25  30
HETATM   30  O2  UNL     1      -3.876   1.655  11.109  1.00  0.00    -0.361 OA
HETATM   31  H36 UNL     1      -2.917   1.811  11.067  1.00  0.00     0.217 HD
ENDBRANCH  25  30
ENDBRANCH  17  18
ENDBRANCH   1  17
TORSDOF 11
ENDMDL
MODEL 5
REMARK minimizedAffinity -8.1343298
REMARK CNNscore 0.543833017
REMARK CNNaffinity 6.21074677
REMARK  11 active torsions:
REMARK  status: ('A' for Active; 'I' for Inactive)
REMARK    1  A    between atoms: C4_4  and  C5_5 
REMARK    2  A    between atoms: C5_5  and  C6_6 
REMARK    3  A    between atoms: C6_6  and  C7_7 
REMARK    4  A    between atoms: C9_9  and  C10_10 
REMARK    5  A    between atoms: C10_10  and  C11_11 
REMARK    6  A    between atoms: C11_11  and  C12_12 
REMARK    7  A    between atoms: C14_14  and  C15_15 
REMARK    8  A    between atoms: C15_15  and  C16_16 
REMARK    9  A    between atoms: C16_16  and  O1_17 
REMARK   10  A    between atoms: O1_17  and  C17_18 
REMARK   11  A    between atoms: C23_24  and  O2_25 
ROOT
HETATM    1  C16 UNL     1      -1.733   8.257  12.793  1.00  0.00     0.175 C 
ENDROOT
BRANCH   1   2
HETATM    2  C15 UNL     1      -0.857   8.868  11.684  1.00  0.00     0.054 C 
BRANCH   2   3
HETATM    3  C14 UNL     1       0.146   7.875  11.149  1.00  0.00    -0.022 C 
HETATM    4  C12 UNL     1       0.463   7.639   9.859  1.00  0.00    -0.087 C 
HETATM    5  C13 UNL     1      -0.088   8.415   8.692  1.00  0.00     0.043 C 
BRANCH   4   6
HETATM    6  C11 UNL     1       1.447   6.539   9.501  1.00  0.00     0.037 C 
BRANCH   6   7
HETATM    7  C10 UNL     1       2.576   7.036   8.586  1.00  0.00     0.031 C 
BRANCH   7   8
HETATM    8  C9  UNL     1       3.476   8.014   9.300  1.00  0.00    -0.024 C 
HETATM    9  C7  UNL     1       4.446   7.733  10.194  1.00  0.00    -0.087 C 
HETATM   10  C8  UNL     1       4.812   6.329  10.608  1.00  0.00     0.043 C 
BRANCH   9  11
HETATM   11  C6  UNL     1       5.300   8.792  10.883  1.00  0.00     0.037 C 
BRANCH  11  12
HETATM   12  C5  UNL     1       6.434   8.309  11.801  1.00  0.00     0.031 C 
BRANCH  12  13
HETATM   13  C4  UNL     1       6.259   8.813  13.210  1.00  0.00    -0.024 C 
HETATM   14  C2  UNL     1       7.115   8.672  14.240  1.00  0.00    -0.091 C 
HETATM   15  C1  UNL     1       8.402   7.895  14.180  1.00  0.00     0.042 C 
HETATM   16  C3  UNL     1       6.817   9.294  15.579  1.00  0.00     0.042 C 
ENDBRANCH  12  13
ENDBRANCH  11  12
ENDBRANCH   9  11
ENDBRANCH   7   8
ENDBRANCH   6   7
ENDBRANCH   4   6
ENDBRANCH   2   3
ENDBRANCH   1   2
BRANCH   1  17
HETATM   17  O1  UNL     1      -1.867   6.844  12.625  1.00  0.00    -0.355 OA
BRANCH  17  18
HETATM   18  C17 UNL     1      -3.058   6.253  13.187  1.00  0.00     0.166 C 
HETATM   19  C18 UNL     1      -2.636   5.826  14.602  1.00  0.00     0.079 C 
HETATM   20  C19 UNL     1      -4.122   7.355  13.188  1.00  0.00     0.073 C 
HETATM   21  C20 UNL     1      -5.423   6.861  13.796  1.00  0.00     0.047 C 
HETATM   22  C21 UNL     1      -5.763   5.498  13.272  1.00  0.00    -0.021 A 
HETATM   23  C22 UNL     1      -7.060   4.998  13.441  1.00  0.00     0.046 A 
HETATM   24  C27 UNL     1      -4.797   4.696  12.647  1.00  0.00     0.085 A 
HETATM   25  C23 UNL     1      -7.385   3.731  12.972  1.00  0.00     0.066 A 
HETATM   26  C24 UNL     1      -6.441   2.944  12.319  1.00  0.00     0.046 A 
HETATM   27  C25 UNL     1      -5.135   3.424  12.147  1.00  0.00    -0.025 A 
HETATM   28  C26 UNL     1      -4.106   2.578  11.448  1.00  0.00     0.051 C 
HETATM   29  O3  UNL     1      -3.496   5.088  12.473  1.00  0.00    -0.314 OA
BRANCH  25  30
HETATM   30  O2  UNL     1      -8.660   3.286  13.184  1.00  0.00    -0.361 OA
HETATM   31  H36 UNL     1      -8.724   2.379  12.839  1.00  0.00     0.217 HD
ENDBRANCH  25  30
ENDBRANCH  17  18
ENDBRANCH   1  17
TORSDOF 11
ENDMDL
MODEL 6
REMARK minimizedAffinity -7.89845085
REMARK CNNscore 0.537455857
REMARK CNNaffinity 7.05415297
REMARK  11 active torsions:
REMARK  status: ('A' for Active; 'I' for Inactive)
REMARK    1  A    between atoms: C4_4  and  C5_5 
REMARK    2  A    between atoms: C5_5  and  C6_6 
REMARK    3  A    between atoms: C6_6  and  C7_7 
REMARK    4  A    between atoms: C9_9  and  C10_10 
REMARK    5  A    between atoms: C10_10  and  C11_11 
REMARK    6  A    between atoms: C11_11  and  C12_12 
REMARK    7  A    between atoms: C14_14  and  C15_15 
REMARK    8  A    between atoms: C15_15  and  C16_16 
REMARK    9  A    between atoms: C16_16  and  O1_17 
REMARK   10  A    between atoms: O1_17  and  C17_18 
REMARK   11  A    between atoms: C23_24  and  O2_25 
ROOT
HETATM    1  C16 UNL     1      -7.342   6.231  15.744  1.00  0.00     0.175 C 
ENDROOT
BRANCH   1   2
HETATM    2  C15 UNL     1      -8.026   7.303  16.612  1.00  0.00     0.054 C 
BRANCH   2   3
HETATM    3  C14 UNL     1      -9.332   7.764  16.012  1.00  0.00    -0.022 C 
HETATM    4  C12 UNL     1      -9.828   7.467  14.793  1.00  0.00    -0.087 C 
HETATM    5  C13 UNL     1      -9.180   6.520  13.818  1.00  0.00     0.043 C 
BRANCH   4   6
HETATM    6  C11 UNL     1     -11.132   8.089  14.324  1.00  0.00     0.037 C 
BRANCH   6   7
HETATM    7  C10 UNL     1     -11.969   7.125  13.471  1.00  0.00     0.031 C 
BRANCH   7   8
HETATM    8  C9  UNL     1     -12.943   6.342  14.317  1.00  0.00    -0.024 C 
HETATM    9  C7  UNL     1     -14.268   6.195  14.116  1.00  0.00    -0.087 C 
HETATM   10  C8  UNL     1     -15.002   6.794  12.941  1.00  0.00     0.043 C 
BRANCH   9  11
HETATM   11  C6  UNL     1     -15.184   5.395  15.037  1.00  0.00     0.037 C 
BRANCH  11  12
HETATM   12  C5  UNL     1     -15.977   4.231  14.421  1.00  0.00     0.031 C 
BRANCH  12  13
HETATM   13  C4  UNL     1     -15.343   2.901  14.734  1.00  0.00    -0.024 C 
HETATM   14  C2  UNL     1     -15.771   1.980  15.619  1.00  0.00    -0.091 C 
HETATM   15  C1  UNL     1     -16.953   2.159  16.533  1.00  0.00     0.042 C 
HETATM   16  C3  UNL     1     -15.052   0.665  15.770  1.00  0.00     0.042 C 
ENDBRANCH  12  13
ENDBRANCH  11  12
ENDBRANCH   9  11
ENDBRANCH   7   8
ENDBRANCH   6   7
ENDBRANCH   4   6
ENDBRANCH   2   3
ENDBRANCH   1   2
BRANCH   1  17
HETATM   17  O1  UNL     1      -5.919   6.324  15.836  1.00  0.00    -0.355 OA
BRANCH  17  18
HETATM   18  C17 UNL     1      -5.195   6.146  14.599  1.00  0.00     0.166 C 
HETATM   19  C18 UNL     1      -5.563   7.383  13.765  1.00  0.00     0.079 C 
HETATM   20  C19 UNL     1      -3.711   6.099  14.975  1.00  0.00     0.073 C 
HETATM   21  C20 UNL     1      -2.838   5.948  13.743  1.00  0.00     0.047 C 
HETATM   22  C21 UNL     1      -3.405   4.912  12.821  1.00  0.00    -0.021 A 
HETATM   23  C22 UNL     1      -2.604   4.384  11.800  1.00  0.00     0.046 A 
HETATM   24  C27 UNL     1      -4.736   4.485  12.935  1.00  0.00     0.085 A 
HETATM   25  C23 UNL     1      -3.122   3.433  10.929  1.00  0.00     0.066 A 
HETATM   26  C24 UNL     1      -4.432   2.979  11.059  1.00  0.00     0.046 A 
HETATM   27  C25 UNL     1      -5.251   3.500  12.071  1.00  0.00    -0.025 A 
HETATM   28  C26 UNL     1      -6.669   3.019  12.215  1.00  0.00     0.051 C 
HETATM   29  O3  UNL     1      -5.601   4.974  13.878  1.00  0.00    -0.314 OA
BRANCH  25  30
HETATM   30  O2  UNL     1      -2.302   2.970   9.939  1.00  0.00    -0.361 OA
HETATM   31  H36 UNL     1      -2.811   2.346   9.392  1.00  0.00     0.217 HD
ENDBRANCH  25  30
ENDBRANCH  17  18
ENDBRANCH   1  17
TORSDOF 11
ENDMDL
MODEL 7
REMARK minimizedAffinity -8.28052235
REMARK CNNscore 0.526247144
REMARK CNNaffinity 6.48646879
REMARK  11 active torsions:
REMARK  status: ('A' for Active; 'I' for Inactive)
REMARK    1  A    between atoms: C4_4  and  C5_5 
REMARK    2  A    between atoms: C5_5  and  C6_6 
REMARK    3  A    between atoms: C6_6  and  C7_7 
REMARK    4  A    between atoms: C9_9  and  C10_10 
REMARK    5  A    between atoms: C10_10  and  C11_11 
REMARK    6  A    between atoms: C11_11  and  C12_12 
REMARK    7  A    between atoms: C14_14  and  C15_15 
REMARK    8  A    between atoms: C15_15  and  C16_16 
REMARK    9  A    between atoms: C16_16  and  O1_17 
REMARK   10  A    between atoms: O1_17  and  C17_18 
REMARK   11  A    between atoms: C23_24  and  O2_25 
ROOT
HETATM    1  C16 UNL     1      -0.893   4.210  12.507  1.00  0.00     0.175 C 
ENDROOT
BRANCH   1   2
HETATM    2  C15 UNL     1       0.429   4.805  11.987  1.00  0.00     0.054 C 
BRANCH   2   3
HETATM    3  C14 UNL     1       1.008   5.814  12.949  1.00  0.00    -0.022 C 
HETATM    4  C12 UNL     1       0.711   7.127  13.043  1.00  0.00    -0.087 C 
HETATM    5  C13 UNL     1      -0.353   7.818  12.232  1.00  0.00     0.043 C 
BRANCH   4   6
HETATM    6  C11 UNL     1       1.456   8.012  14.026  1.00  0.00     0.037 C 
BRANCH   6   7
HETATM    7  C10 UNL     1       2.910   8.264  13.604  1.00  0.00     0.031 C 
BRANCH   7   8
HETATM    8  C9  UNL     1       3.223   7.611  12.280  1.00  0.00    -0.024 C 
HETATM    9  C7  UNL     1       4.050   8.067  11.317  1.00  0.00    -0.087 C 
HETATM   10  C8  UNL     1       4.847   9.343  11.442  1.00  0.00     0.043 C 
BRANCH   9  11
HETATM   11  C6  UNL     1       4.294   7.347   9.995  1.00  0.00     0.037 C 
BRANCH  11  12
HETATM   12  C5  UNL     1       3.531   6.037   9.743  1.00  0.00     0.031 C 
BRANCH  12  13
HETATM   13  C4  UNL     1       2.754   6.087   8.453  1.00  0.00    -0.024 C 
HETATM   14  C2  UNL     1       2.501   7.171   7.693  1.00  0.00    -0.091 C 
HETATM   15  C1  UNL     1       2.898   8.577   8.053  1.00  0.00     0.042 C 
HETATM   16  C3  UNL     1       1.757   7.040   6.390  1.00  0.00     0.042 C 
ENDBRANCH  12  13
ENDBRANCH  11  12
ENDBRANCH   9  11
ENDBRANCH   7   8
ENDBRANCH   6   7
ENDBRANCH   4   6
ENDBRANCH   2   3
ENDBRANCH   1   2
BRANCH   1  17
HETATM   17  O1  UNL     1      -1.416   3.241  11.595  1.00  0.00    -0.355 OA
BRANCH  17  18
HETATM   18  C17 UNL     1      -2.851   3.242  11.431  1.00  0.00     0.166 C 
HETATM   19  C18 UNL     1      -3.063   3.674   9.971  1.00  0.00     0.079 C 
HETATM   20  C19 UNL     1      -3.313   1.808  11.703  1.00  0.00     0.073 C 
HETATM   21  C20 UNL     1      -4.814   1.672  11.525  1.00  0.00     0.047 C 
HETATM   22  C21 UNL     1      -5.526   2.819  12.176  1.00  0.00    -0.021 A 
HETATM   23  C22 UNL     1      -6.903   2.731  12.415  1.00  0.00     0.046 A 
HETATM   24  C27 UNL     1      -4.847   3.998  12.517  1.00  0.00     0.085 A 
HETATM   25  C23 UNL     1      -7.577   3.792  13.005  1.00  0.00     0.066 A 
HETATM   26  C24 UNL     1      -6.903   4.951  13.380  1.00  0.00     0.046 A 
HETATM   27  C25 UNL     1      -5.526   5.062  13.142  1.00  0.00    -0.025 A 
HETATM   28  C26 UNL     1      -4.791   6.313  13.537  1.00  0.00     0.051 C 
HETATM   29  O3  UNL     1      -3.511   4.187  12.285  1.00  0.00    -0.314 OA
BRANCH  25  30
HETATM   30  O2  UNL     1      -8.924   3.658  13.196  1.00  0.00    -0.361 OA
HETATM   31  H36 UNL     1      -9.259   4.487  13.578  1.00  0.00     0.217 HD
ENDBRANCH  25  30
ENDBRANCH  17  18
ENDBRANCH   1  17
TORSDOF 11
ENDMDL
MODEL 8
REMARK minimizedAffinity -7.86661339
REMARK CNNscore 0.516996086
REMARK CNNaffinity 5.79003477
REMARK  11 active torsions:
REMARK  status: ('A' for Active; 'I' for Inactive)
REMARK    1  A    between atoms: C4_4  and  C5_5 
REMARK    2  A    between atoms: C5_5  and  C6_6 
REMARK    3  A    between atoms: C6_6  and  C7_7 
REMARK    4  A    between atoms: C9_9  and  C10_10 
REMARK    5  A    between atoms: C10_10  and  C11_11 
REMARK    6  A    between atoms: C11_11  and  C12_12 
REMARK    7  A    between atoms: C14_14  and  C15_15 
REMARK    8  A    between atoms: C15_15  and  C16_16 
REMARK    9  A    between atoms: C16_16  and  O1_17 
REMARK   10  A    between atoms: O1_17  and  C17_18 
REMARK   11  A    between atoms: C23_24  and  O2_25 
ROOT
HETATM    1  C16 UNL     1      -5.091   9.260  15.437  1.00  0.00     0.175 C 
ENDROOT
BRANCH   1   2
HETATM    2  C15 UNL     1      -4.300  10.499  15.895  1.00  0.00     0.054 C 
BRANCH   2   3
HETATM    3  C14 UNL     1      -3.303  10.162  16.978  1.00  0.00    -0.022 C 
HETATM    4  C12 UNL     1      -3.010  10.882  18.080  1.00  0.00    -0.087 C 
HETATM    5  C13 UNL     1      -3.714  12.152  18.479  1.00  0.00     0.043 C 
BRANCH   4   6
HETATM    6  C11 UNL     1      -1.914  10.422  19.026  1.00  0.00     0.037 C 
BRANCH   6   7
HETATM    7  C10 UNL     1      -0.644  11.278  18.914  1.00  0.00     0.031 C 
BRANCH   7   8
HETATM    8  C9  UNL     1       0.456  10.754  19.805  1.00  0.00    -0.024 C 
HETATM    9  C7  UNL     1       1.317  11.474  20.552  1.00  0.00    -0.087 C 
HETATM   10  C8  UNL     1       1.285  12.981  20.637  1.00  0.00     0.043 C 
BRANCH   9  11
HETATM   11  C6  UNL     1       2.415  10.859  21.414  1.00  0.00     0.037 C 
BRANCH  11  12
HETATM   12  C5  UNL     1       2.846  11.624  22.675  1.00  0.00     0.031 C 
BRANCH  12  13
HETATM   13  C4  UNL     1       4.322  11.472  22.937  1.00  0.00    -0.024 C 
HETATM   14  C2  UNL     1       5.298  12.359  22.659  1.00  0.00    -0.091 C 
HETATM   15  C1  UNL     1       5.084  13.665  21.944  1.00  0.00     0.042 C 
HETATM   16  C3  UNL     1       6.726  12.077  23.045  1.00  0.00     0.042 C 
ENDBRANCH  12  13
ENDBRANCH  11  12
ENDBRANCH   9  11
ENDBRANCH   7   8
ENDBRANCH   6   7
ENDBRANCH   4   6
ENDBRANCH   2   3
ENDBRANCH   1   2
BRANCH   1  17
HETATM   17  O1  UNL     1      -4.293   8.077  15.525  1.00  0.00    -0.355 OA
BRANCH  17  18
HETATM   18  C17 UNL     1      -4.277   7.240  14.349  1.00  0.00     0.166 C 
HETATM   19  C18 UNL     1      -4.414   8.228  13.180  1.00  0.00     0.079 C 
HETATM   20  C19 UNL     1      -2.930   6.511  14.361  1.00  0.00     0.073 C 
HETATM   21  C20 UNL     1      -2.778   5.618  13.143  1.00  0.00     0.047 C 
HETATM   22  C21 UNL     1      -4.039   4.846  12.898  1.00  0.00    -0.021 A 
HETATM   23  C22 UNL     1      -4.015   3.739  12.041  1.00  0.00     0.046 A 
HETATM   24  C27 UNL     1      -5.255   5.232  13.481  1.00  0.00     0.085 A 
HETATM   25  C23 UNL     1      -5.179   3.023  11.794  1.00  0.00     0.066 A 
HETATM   26  C24 UNL     1      -6.382   3.379  12.398  1.00  0.00     0.046 A 
HETATM   27  C25 UNL     1      -6.428   4.489  13.254  1.00  0.00    -0.025 A 
HETATM   28  C26 UNL     1      -7.725   4.884  13.905  1.00  0.00     0.051 C 
HETATM   29  O3  UNL     1      -5.379   6.323  14.301  1.00  0.00    -0.314 OA
BRANCH  25  30
HETATM   30  O2  UNL     1      -5.101   1.965  10.933  1.00  0.00    -0.361 OA
HETATM   31  H36 UNL     1      -5.993   1.591  10.831  1.00  0.00     0.217 HD
ENDBRANCH  25  30
ENDBRANCH  17  18
ENDBRANCH   1  17
TORSDOF 11
ENDMDL
MODEL 9
REMARK minimizedAffinity -7.94736671
REMARK CNNscore 0.504846394
REMARK CNNaffinity 5.73018408
REMARK  11 active torsions:
REMARK  status: ('A' for Active; 'I' for Inactive)
REMARK    1  A    between atoms: C4_4  and  C5_5 
REMARK    2  A    between atoms: C5_5  and  C6_6 
REMARK    3  A    between atoms: C6_6  and  C7_7 
REMARK    4  A    between atoms: C9_9  and  C10_10 
REMARK    5  A    between atoms: C10_10  and  C11_11 
REMARK    6  A    between atoms: C11_11  and  C12_12 
REMARK    7  A    between atoms: C14_14  and  C15_15 
REMARK    8  A    between atoms: C15_15  and  C16_16 
REMARK    9  A    between atoms: C16_16  and  O1_17 
REMARK   10  A    between atoms: O1_17  and  C17_18 
REMARK   11  A    between atoms: C23_24  and  O2_25 
ROOT
HETATM    1  C16 UNL     1      -0.654   5.421  12.812  1.00  0.00     0.175 C 
ENDROOT
BRANCH   1   2
HETATM    2  C15 UNL     1      -0.208   4.887  11.438  1.00  0.00     0.054 C 
BRANCH   2   3
HETATM    3  C14 UNL     1       1.282   5.023  11.239  1.00  0.00    -0.022 C 
HETATM    4  C12 UNL     1       1.933   5.946  10.501  1.00  0.00    -0.087 C 
HETATM    5  C13 UNL     1       1.264   7.094   9.792  1.00  0.00     0.043 C 
BRANCH   4   6
HETATM    6  C11 UNL     1       3.443   5.882  10.352  1.00  0.00     0.037 C 
BRANCH   6   7
HETATM    7  C10 UNL     1       4.046   7.219   9.900  1.00  0.00     0.031 C 
BRANCH   7   8
HETATM    8  C9  UNL     1       4.865   7.856  10.996  1.00  0.00    -0.024 C 
HETATM    9  C7  UNL     1       6.013   7.396  11.533  1.00  0.00    -0.087 C 
HETATM   10  C8  UNL     1       6.698   6.132  11.072  1.00  0.00     0.043 C 
BRANCH   9  11
HETATM   11  C6  UNL     1       6.768   8.099  12.656  1.00  0.00     0.037 C 
BRANCH  11  12
HETATM   12  C5  UNL     1       7.156   7.265  13.887  1.00  0.00     0.031 C 
BRANCH  12  13
HETATM   13  C4  UNL     1       7.753   8.123  14.972  1.00  0.00    -0.024 C 
HETATM   14  C2  UNL     1       9.038   8.511  15.092  1.00  0.00    -0.091 C 
HETATM   15  C1  UNL     1      10.150   8.077  14.176  1.00  0.00     0.042 C 
HETATM   16  C3  UNL     1       9.463   9.427  16.210  1.00  0.00     0.042 C 
ENDBRANCH  12  13
ENDBRANCH  11  12
ENDBRANCH   9  11
ENDBRANCH   7   8
ENDBRANCH   6   7
ENDBRANCH   4   6
ENDBRANCH   2   3
ENDBRANCH   1   2
BRANCH   1  17
HETATM   17  O1  UNL     1      -1.758   6.320  12.682  1.00  0.00    -0.355 OA
BRANCH  17  18
HETATM   18  C17 UNL     1      -3.015   5.854  13.219  1.00  0.00     0.166 C 
HETATM   19  C18 UNL     1      -2.681   5.447  14.663  1.00  0.00     0.079 C 
HETATM   20  C19 UNL     1      -3.979   7.042  13.141  1.00  0.00     0.073 C 
HETATM   21  C20 UNL     1      -5.338   6.685  13.715  1.00  0.00     0.047 C 
HETATM   22  C21 UNL     1      -5.776   5.337  13.225  1.00  0.00    -0.021 A 
HETATM   23  C22 UNL     1      -7.117   4.956  13.362  1.00  0.00     0.046 A 
HETATM   24  C27 UNL     1      -4.862   4.432  12.666  1.00  0.00     0.085 A 
HETATM   25  C23 UNL     1      -7.534   3.705  12.926  1.00  0.00     0.066 A 
HETATM   26  C24 UNL     1      -6.639   2.815  12.337  1.00  0.00     0.046 A 
HETATM   27  C25 UNL     1      -5.291   3.176  12.198  1.00  0.00    -0.025 A 
HETATM   28  C26 UNL     1      -4.316   2.219  11.568  1.00  0.00     0.051 C 
HETATM   29  O3  UNL     1      -3.527   4.705  12.529  1.00  0.00    -0.314 OA
BRANCH  25  30
HETATM   30  O2  UNL     1      -8.849   3.379  13.104  1.00  0.00    -0.361 OA
HETATM   31  H36 UNL     1      -8.980   2.468  12.788  1.00  0.00     0.217 HD
ENDBRANCH  25  30
ENDBRANCH  17  18
ENDBRANCH   1  17
TORSDOF 11
ENDMDL
