MODEL 1
REMARK minimizedAffinity -6.8895154
REMARK CNNscore 0.351226836
REMARK CNNaffinity 5.84586477
REMARK  5 active torsions:
REMARK  status: ('A' for Active; 'I' for Inactive)
REMARK    1  A    between atoms: C2_2  and  C4_4 
REMARK    2  A    between atoms: C7_7  and  C8_8 
REMARK    3  A    between atoms: C8_8  and  O2_10 
REMARK    4  A    between atoms: C11_13  and  C12_14 
REMARK    5  A    between atoms: C12_14  and  O4_16 
ROOT
HETATM    1  C4  UNL     1     -18.994   0.426  15.356  1.00  0.00     0.019 C 
HETATM    2  C5  UNL     1     -18.735   1.921  15.152  1.00  0.00     0.011 C 
HETATM    3  C6  UNL     1     -17.383   2.117  15.824  1.00  0.00     0.021 C 
HETATM    4  C7  UNL     1     -16.538   0.899  15.379  1.00  0.00     0.050 C 
HETATM    5  C9  UNL     1     -15.749   1.264  14.111  1.00  0.00     0.022 C 
HETATM    6  C10 UNL     1     -15.226   0.058  13.334  1.00  0.00     0.023 C 
HETATM    7  C11 UNL     1     -16.312  -0.968  12.933  1.00  0.00     0.057 C 
HETATM    8  C13 UNL     1     -17.189  -1.356  14.173  1.00  0.00     0.011 C 
HETATM    9  C14 UNL     1     -18.292  -2.352  13.788  1.00  0.00     0.007 C 
HETATM   10  C15 UNL     1     -17.764  -3.614  13.090  1.00  0.00     0.006 C 
HETATM   11  C16 UNL     1     -16.825  -3.307  11.899  1.00  0.00     0.003 C 
HETATM   12  C17 UNL     1     -16.420  -4.567  11.013  1.00  0.00    -0.035 C 
HETATM   13  C18 UNL     1     -15.711  -5.657  11.849  1.00  0.00     0.016 C 
HETATM   14  C19 UNL     1     -17.720  -5.193  10.419  1.00  0.00     0.017 C 
HETATM   15  C20 UNL     1     -17.480  -6.249   9.349  1.00  0.00     0.080 C 
HETATM   16  C21 UNL     1     -16.592  -5.738   8.244  1.00  0.00     0.135 C 
HETATM   17  O5  UNL     1     -16.888  -5.967   7.069  1.00  0.00    -0.297 OA
HETATM   18  C22 UNL     1     -15.278  -5.044   8.642  1.00  0.00     0.017 C 
HETATM   19  C23 UNL     1     -14.238  -6.126   8.971  1.00  0.00     0.023 C 
HETATM   20  C24 UNL     1     -14.760  -4.280   7.396  1.00  0.00     0.023 C 
HETATM   21  C25 UNL     1     -15.568  -4.029   9.802  1.00  0.00     0.009 C 
HETATM   22  C26 UNL     1     -14.320  -3.271  10.294  1.00  0.00     0.007 C 
HETATM   23  C27 UNL     1     -14.689  -2.051  11.143  1.00  0.00     0.011 C 
HETATM   24  C28 UNL     1     -15.646  -2.345  12.336  1.00  0.00    -0.022 C 
HETATM   25  C29 UNL     1     -14.741  -3.036  13.413  1.00  0.00     0.017 C 
HETATM   26  C30 UNL     1     -17.589  -0.255  15.208  1.00  0.00     0.018 C 
ENDROOT
BRANCH   4  27
HETATM   27  C8  UNL     1     -15.520   0.531  16.460  1.00  0.00     0.149 C 
HETATM   28  O1  UNL     1     -15.762   0.005  17.535  1.00  0.00    -0.649 OA
BRANCH  27  29
HETATM   29  O2  UNL     1     -14.243   0.769  16.106  1.00  0.00    -0.776 OA
HETATM   30  H11 UNL     1     -13.720   0.455  16.873  1.00  0.00     0.167 HD
ENDBRANCH  27  29
ENDBRANCH   4  27
BRANCH   1  31
HETATM   31  C2  UNL     1     -20.279  -0.139  14.784  1.00  0.00    -0.088 C 
HETATM   32  C1  UNL     1     -21.041  -0.967  15.525  1.00  0.00     0.014 C 
HETATM   33  C3  UNL     1     -20.780   0.315  13.442  1.00  0.00     0.043 C 
ENDBRANCH   1  31
BRANCH   7  34
HETATM   34  C12 UNL     1     -17.174  -0.282  11.840  1.00  0.00     0.149 C 
HETATM   35  O3  UNL     1     -17.839   0.738  11.926  1.00  0.00    -0.649 OA
BRANCH  34  36
HETATM   36  O4  UNL     1     -17.214  -0.943  10.676  1.00  0.00    -0.776 OA
HETATM   37  H16 UNL     1     -17.819  -0.398  10.129  1.00  0.00     0.167 HD
ENDBRANCH  34  36
ENDBRANCH   7  34
TORSDOF 5
ENDMDL
MODEL 2
REMARK minimizedAffinity -5.74820566
REMARK CNNscore 0.314507186
REMARK CNNaffinity 5.55114555
REMARK  5 active torsions:
REMARK  status: ('A' for Active; 'I' for Inactive)
REMARK    1  A    between atoms: C2_2  and  C4_4 
REMARK    2  A    between atoms: C7_7  and  C8_8 
REMARK    3  A    between atoms: C8_8  and  O2_10 
REMARK    4  A    between atoms: C11_13  and  C12_14 
REMARK    5  A    between atoms: C12_14  and  O4_16 
ROOT
HETATM    1  C4  UNL     1     -18.869  -3.488  15.718  1.00  0.00     0.019 C 
HETATM    2  C5  UNL     1     -18.030  -4.261  16.738  1.00  0.00     0.011 C 
HETATM    3  C6  UNL     1     -16.830  -4.704  15.912  1.00  0.00     0.021 C 
HETATM    4  C7  UNL     1     -16.457  -3.468  15.060  1.00  0.00     0.050 C 
HETATM    5  C9  UNL     1     -15.398  -2.638  15.804  1.00  0.00     0.022 C 
HETATM    6  C10 UNL     1     -15.260  -1.205  15.296  1.00  0.00     0.023 C 
HETATM    7  C11 UNL     1     -16.578  -0.394  15.295  1.00  0.00     0.057 C 
HETATM    8  C13 UNL     1     -17.721  -1.200  14.588  1.00  0.00     0.011 C 
HETATM    9  C14 UNL     1     -19.044  -0.424  14.602  1.00  0.00     0.007 C 
HETATM   10  C15 UNL     1     -18.936   0.987  14.006  1.00  0.00     0.006 C 
HETATM   11  C16 UNL     1     -17.775   1.817  14.604  1.00  0.00     0.003 C 
HETATM   12  C17 UNL     1     -17.749   3.351  14.176  1.00  0.00    -0.035 C 
HETATM   13  C18 UNL     1     -17.652   3.521  12.643  1.00  0.00     0.016 C 
HETATM   14  C19 UNL     1     -19.077   4.020  14.647  1.00  0.00     0.017 C 
HETATM   15  C20 UNL     1     -19.094   5.538  14.536  1.00  0.00     0.080 C 
HETATM   16  C21 UNL     1     -17.914   6.165  15.235  1.00  0.00     0.135 C 
HETATM   17  O5  UNL     1     -18.086   7.156  15.949  1.00  0.00    -0.297 OA
HETATM   18  C22 UNL     1     -16.516   5.603  14.929  1.00  0.00     0.017 C 
HETATM   19  C23 UNL     1     -16.035   6.195  13.596  1.00  0.00     0.023 C 
HETATM   20  C24 UNL     1     -15.555   6.121  16.030  1.00  0.00     0.023 C 
HETATM   21  C25 UNL     1     -16.575   4.036  14.975  1.00  0.00     0.009 C 
HETATM   22  C26 UNL     1     -15.227   3.352  14.677  1.00  0.00     0.007 C 
HETATM   23  C27 UNL     1     -15.230   1.876  15.088  1.00  0.00     0.011 C 
HETATM   24  C28 UNL     1     -16.404   1.034  14.503  1.00  0.00    -0.022 C 
HETATM   25  C29 UNL     1     -16.014   0.793  13.005  1.00  0.00     0.017 C 
HETATM   26  C30 UNL     1     -17.828  -2.744  14.812  1.00  0.00     0.018 C 
ENDROOT
BRANCH   4  27
HETATM   27  C8  UNL     1     -15.842  -3.904  13.728  1.00  0.00     0.149 C 
HETATM   28  O1  UNL     1     -16.358  -3.809  12.626  1.00  0.00    -0.649 OA
BRANCH  27  29
HETATM   29  O2  UNL     1     -14.580  -4.363  13.838  1.00  0.00    -0.776 OA
HETATM   30  H11 UNL     1     -14.319  -4.564  12.915  1.00  0.00     0.167 HD
ENDBRANCH  27  29
ENDBRANCH   4  27
BRANCH   1  31
HETATM   31  C2  UNL     1     -20.165  -2.874  16.209  1.00  0.00    -0.088 C 
HETATM   32  C1  UNL     1     -21.251  -2.864  15.414  1.00  0.00     0.014 C 
HETATM   33  C3  UNL     1     -20.287  -2.386  17.625  1.00  0.00     0.043 C 
ENDBRANCH   1  31
BRANCH   7  34
HETATM   34  C12 UNL     1     -16.927  -0.133  16.784  1.00  0.00     0.149 C 
HETATM   35  O3  UNL     1     -18.027  -0.084  17.310  1.00  0.00    -0.649 OA
BRANCH  34  36
HETATM   36  O4  UNL     1     -15.865   0.115  17.563  1.00  0.00    -0.776 OA
HETATM   37  H16 UNL     1     -16.266   0.289  18.440  1.00  0.00     0.167 HD
ENDBRANCH  34  36
ENDBRANCH   7  34
TORSDOF 5
ENDMDL
MODEL 3
REMARK minimizedAffinity -7.05390167
REMARK CNNscore 0.294973016
REMARK CNNaffinity 5.97821665
REMARK  5 active torsions:
REMARK  status: ('A' for Active; 'I' for Inactive)
REMARK    1  A    between atoms: C2_2  and  C4_4 
REMARK    2  A    between atoms: C7_7  and  C8_8 
REMARK    3  A    between atoms: C8_8  and  O2_10 
REMARK    4  A    between atoms: C11_13  and  C12_14 
REMARK    5  A    between atoms: C12_14  and  O4_16 
ROOT
HETATM    1  C4  UNL     1       1.889   7.062  10.497  1.00  0.00     0.019 C 
HETATM    2  C5  UNL     1       0.719   8.034  10.328  1.00  0.00     0.011 C 
HETATM    3  C6  UNL     1      -0.117   7.767  11.571  1.00  0.00     0.021 C 
HETATM    4  C7  UNL     1       0.911   7.650  12.723  1.00  0.00     0.050 C 
HETATM    5  C9  UNL     1       1.101   9.029  13.376  1.00  0.00     0.022 C 
HETATM    6  C10 UNL     1       2.370   9.151  14.215  1.00  0.00     0.023 C 
HETATM    7  C11 UNL     1       3.676   8.806  13.459  1.00  0.00     0.057 C 
HETATM    8  C13 UNL     1       3.541   7.427  12.727  1.00  0.00     0.011 C 
HETATM    9  C14 UNL     1       4.816   7.081  11.946  1.00  0.00     0.007 C 
HETATM   10  C15 UNL     1       6.088   7.109  12.805  1.00  0.00     0.006 C 
HETATM   11  C16 UNL     1       6.249   8.415  13.619  1.00  0.00     0.003 C 
HETATM   12  C17 UNL     1       7.649   8.584  14.359  1.00  0.00    -0.035 C 
HETATM   13  C18 UNL     1       7.925   7.427  15.346  1.00  0.00     0.016 C 
HETATM   14  C19 UNL     1       8.781   8.574  13.285  1.00  0.00     0.017 C 
HETATM   15  C20 UNL     1      10.152   8.979  13.809  1.00  0.00     0.080 C 
HETATM   16  C21 UNL     1      10.112  10.310  14.518  1.00  0.00     0.135 C 
HETATM   17  O5  UNL     1      10.992  11.144  14.296  1.00  0.00    -0.297 OA
HETATM   18  C22 UNL     1       9.026  10.522  15.586  1.00  0.00     0.017 C 
HETATM   19  C23 UNL     1       9.486   9.847  16.887  1.00  0.00     0.023 C 
HETATM   20  C24 UNL     1       8.943  12.044  15.868  1.00  0.00     0.023 C 
HETATM   21  C25 UNL     1       7.653  10.012  15.025  1.00  0.00     0.009 C 
HETATM   22  C26 UNL     1       6.480  10.168  16.012  1.00  0.00     0.007 C 
HETATM   23  C27 UNL     1       5.123  10.015  15.318  1.00  0.00     0.011 C 
HETATM   24  C28 UNL     1       4.955   8.710  14.482  1.00  0.00    -0.022 C 
HETATM   25  C29 UNL     1       4.732   7.582  15.546  1.00  0.00     0.017 C 
HETATM   26  C30 UNL     1       2.189   7.050  12.036  1.00  0.00     0.018 C 
ENDROOT
BRANCH   4  27
HETATM   27  C8  UNL     1       0.396   6.699  13.804  1.00  0.00     0.149 C 
HETATM   28  O1  UNL     1      -0.736   6.662  14.258  1.00  0.00    -0.649 OA
BRANCH  27  29
HETATM   29  O2  UNL     1       1.307   5.790  14.206  1.00  0.00    -0.776 OA
HETATM   30  H11 UNL     1       0.824   5.244  14.861  1.00  0.00     0.167 HD
ENDBRANCH  27  29
ENDBRANCH   4  27
BRANCH   1  31
HETATM   31  C2  UNL     1       2.955   7.067   9.420  1.00  0.00    -0.088 C 
HETATM   32  C1  UNL     1       3.426   5.903   8.932  1.00  0.00     0.014 C 
HETATM   33  C3  UNL     1       3.406   8.359   8.800  1.00  0.00     0.043 C 
ENDBRANCH   1  31
BRANCH   7  34
HETATM   34  C12 UNL     1       3.900   9.953  12.438  1.00  0.00     0.149 C 
HETATM   35  O3  UNL     1       4.601   9.955  11.439  1.00  0.00    -0.649 OA
BRANCH  34  36
HETATM   36  O4  UNL     1       3.269  11.094  12.745  1.00  0.00    -0.776 OA
HETATM   37  H16 UNL     1       3.546  11.704  12.029  1.00  0.00     0.167 HD
ENDBRANCH  34  36
ENDBRANCH   7  34
TORSDOF 5
ENDMDL
MODEL 4
REMARK minimizedAffinity -6.94416714
REMARK CNNscore 0.285933018
REMARK CNNaffinity 5.89879847
REMARK  5 active torsions:
REMARK  status: ('A' for Active; 'I' for Inactive)
REMARK    1  A    between atoms: C2_2  and  C4_4 
REMARK    2  A    between atoms: C7_7  and  C8_8 
REMARK    3  A    between atoms: C8_8  and  O2_10 
REMARK    4  A    between atoms: C11_13  and  C12_14 
REMARK    5  A    between atoms: C12_14  and  O4_16 
ROOT
HETATM    1  C4  UNL     1     -18.394  -1.488  15.284  1.00  0.00     0.019 C 
HETATM    2  C5  UNL     1     -18.740  -0.009  15.100  1.00  0.00     0.011 C 
HETATM    3  C6  UNL     1     -17.426   0.683  15.437  1.00  0.00     0.021 C 
HETATM    4  C7  UNL     1     -16.339  -0.171  14.741  1.00  0.00     0.050 C 
HETATM    5  C9  UNL     1     -16.063   0.400  13.340  1.00  0.00     0.022 C 
HETATM    6  C10 UNL     1     -15.350  -0.570  12.401  1.00  0.00     0.023 C 
HETATM    7  C11 UNL     1     -16.063  -1.931  12.221  1.00  0.00     0.057 C 
HETATM    8  C13 UNL     1     -16.418  -2.556  13.615  1.00  0.00     0.011 C 
HETATM    9  C14 UNL     1     -17.152  -3.894  13.457  1.00  0.00     0.007 C 
HETATM   10  C15 UNL     1     -16.397  -4.911  12.590  1.00  0.00     0.006 C 
HETATM   11  C16 UNL     1     -15.946  -4.338  11.225  1.00  0.00     0.003 C 
HETATM   12  C17 UNL     1     -15.348  -5.406  10.206  1.00  0.00    -0.035 C 
HETATM   13  C18 UNL     1     -14.118  -6.137  10.792  1.00  0.00     0.016 C 
HETATM   14  C19 UNL     1     -16.443  -6.477   9.911  1.00  0.00     0.017 C 
HETATM   15  C20 UNL     1     -16.110  -7.420   8.763  1.00  0.00     0.080 C 
HETATM   16  C21 UNL     1     -15.757  -6.670   7.504  1.00  0.00     0.135 C 
HETATM   17  O5  UNL     1     -16.228  -7.037   6.425  1.00  0.00    -0.297 OA
HETATM   18  C22 UNL     1     -14.720  -5.539   7.609  1.00  0.00     0.017 C 
HETATM   19  C23 UNL     1     -13.318  -6.165   7.624  1.00  0.00     0.023 C 
HETATM   20  C24 UNL     1     -14.825  -4.691   6.315  1.00  0.00     0.023 C 
HETATM   21  C25 UNL     1     -15.062  -4.648   8.854  1.00  0.00     0.009 C 
HETATM   22  C26 UNL     1     -14.085  -3.476   9.069  1.00  0.00     0.007 C 
HETATM   23  C27 UNL     1     -14.646  -2.434  10.043  1.00  0.00     0.011 C 
HETATM   24  C28 UNL     1     -15.117  -3.003  11.415  1.00  0.00    -0.022 C 
HETATM   25  C29 UNL     1     -13.795  -3.282  12.206  1.00  0.00     0.017 C 
HETATM   26  C30 UNL     1     -16.919  -1.630  14.770  1.00  0.00     0.018 C 
ENDROOT
BRANCH   4  27
HETATM   27  C8  UNL     1     -15.027  -0.108  15.526  1.00  0.00     0.149 C 
HETATM   28  O1  UNL     1     -14.548   0.879  16.060  1.00  0.00    -0.649 OA
BRANCH  27  29
HETATM   29  O2  UNL     1     -14.422  -1.304  15.668  1.00  0.00    -0.776 OA
HETATM   30  H11 UNL     1     -13.631  -1.107  16.212  1.00  0.00     0.167 HD
ENDBRANCH  27  29
ENDBRANCH   4  27
BRANCH   1  31
HETATM   31  C2  UNL     1     -19.492  -2.496  15.011  1.00  0.00    -0.088 C 
HETATM   32  C1  UNL     1     -20.323  -2.322  13.965  1.00  0.00     0.014 C 
HETATM   33  C3  UNL     1     -19.587  -3.758  15.822  1.00  0.00     0.043 C 
ENDBRANCH   1  31
BRANCH   7  34
HETATM   34  C12 UNL     1     -17.350  -1.641  11.404  1.00  0.00     0.149 C 
HETATM   35  O3  UNL     1     -18.368  -2.308  11.327  1.00  0.00    -0.649 OA
BRANCH  34  36
HETATM   36  O4  UNL     1     -17.287  -0.531  10.657  1.00  0.00    -0.776 OA
HETATM   37  H16 UNL     1     -18.150  -0.525  10.191  1.00  0.00     0.167 HD
ENDBRANCH  34  36
ENDBRANCH   7  34
TORSDOF 5
ENDMDL
MODEL 5
REMARK minimizedAffinity -5.92835426
REMARK CNNscore 0.284409076
REMARK CNNaffinity 5.73541832
REMARK  5 active torsions:
REMARK  status: ('A' for Active; 'I' for Inactive)
REMARK    1  A    between atoms: C2_2  and  C4_4 
REMARK    2  A    between atoms: C7_7  and  C8_8 
REMARK    3  A    between atoms: C8_8  and  O2_10 
REMARK    4  A    between atoms: C11_13  and  C12_14 
REMARK    5  A    between atoms: C12_14  and  O4_16 
ROOT
HETATM    1  C4  UNL     1       5.053  14.716  -1.290  1.00  0.00     0.019 C 
HETATM    2  C5  UNL     1       5.149  15.724  -2.438  1.00  0.00     0.011 C 
HETATM    3  C6  UNL     1       4.046  15.261  -3.379  1.00  0.00     0.021 C 
HETATM    4  C7  UNL     1       2.850  14.929  -2.454  1.00  0.00     0.050 C 
HETATM    5  C9  UNL     1       1.953  16.171  -2.318  1.00  0.00     0.022 C 
HETATM    6  C10 UNL     1       1.001  16.124  -1.125  1.00  0.00     0.023 C 
HETATM    7  C11 UNL     1       1.694  15.892   0.240  1.00  0.00     0.057 C 
HETATM    8  C13 UNL     1       2.662  14.662   0.164  1.00  0.00     0.011 C 
HETATM    9  C14 UNL     1       3.381  14.433   1.501  1.00  0.00     0.007 C 
HETATM   10  C15 UNL     1       2.426  14.290   2.695  1.00  0.00     0.006 C 
HETATM   11  C16 UNL     1       1.387  15.433   2.788  1.00  0.00     0.003 C 
HETATM   12  C17 UNL     1       0.514  15.447   4.120  1.00  0.00    -0.035 C 
HETATM   13  C18 UNL     1      -0.277  14.132   4.306  1.00  0.00     0.016 C 
HETATM   14  C19 UNL     1       1.473  15.603   5.341  1.00  0.00     0.017 C 
HETATM   15  C20 UNL     1       0.773  15.887   6.662  1.00  0.00     0.080 C 
HETATM   16  C21 UNL     1      -0.150  17.075   6.565  1.00  0.00     0.135 C 
HETATM   17  O5  UNL     1      -0.150  17.920   7.464  1.00  0.00    -0.297 OA
HETATM   18  C22 UNL     1      -1.143  17.119   5.392  1.00  0.00     0.017 C 
HETATM   19  C23 UNL     1      -2.341  16.222   5.736  1.00  0.00     0.023 C 
HETATM   20  C24 UNL     1      -1.677  18.571   5.289  1.00  0.00     0.023 C 
HETATM   21  C25 UNL     1      -0.388  16.739   4.071  1.00  0.00     0.009 C 
HETATM   22  C26 UNL     1      -1.285  16.742   2.817  1.00  0.00     0.007 C 
HETATM   23  C27 UNL     1      -0.462  16.735   1.525  1.00  0.00     0.011 C 
HETATM   24  C28 UNL     1       0.598  15.597   1.426  1.00  0.00    -0.022 C 
HETATM   25  C29 UNL     1      -0.231  14.307   1.109  1.00  0.00     0.017 C 
HETATM   26  C30 UNL     1       3.520  14.433  -1.123  1.00  0.00     0.018 C 
ENDROOT
BRANCH   4  27
HETATM   27  C8  UNL     1       1.997  13.815  -3.063  1.00  0.00     0.149 C 
HETATM   28  O1  UNL     1       2.262  13.159  -4.058  1.00  0.00    -0.649 OA
BRANCH  27  29
HETATM   29  O2  UNL     1       0.892  13.525  -2.349  1.00  0.00    -0.776 OA
HETATM   30  H11 UNL     1       0.479  12.784  -2.839  1.00  0.00     0.167 HD
ENDBRANCH  27  29
ENDBRANCH   4  27
BRANCH   1  31
HETATM   31  C2  UNL     1       6.019  14.887  -0.135  1.00  0.00    -0.088 C 
HETATM   32  C1  UNL     1       6.379  16.121   0.267  1.00  0.00     0.014 C 
HETATM   33  C3  UNL     1       6.485  13.694   0.651  1.00  0.00     0.043 C 
ENDBRANCH   1  31
BRANCH   7  34
HETATM   34  C12 UNL     1       2.478  17.193   0.555  1.00  0.00     0.149 C 
HETATM   35  O3  UNL     1       3.525  17.320   1.168  1.00  0.00    -0.649 OA
BRANCH  34  36
HETATM   36  O4  UNL     1       1.878  18.313   0.129  1.00  0.00    -0.776 OA
HETATM   37  H16 UNL     1       2.480  19.021   0.439  1.00  0.00     0.167 HD
ENDBRANCH  34  36
ENDBRANCH   7  34
TORSDOF 5
ENDMDL
MODEL 6
REMARK minimizedAffinity -7.87545538
REMARK CNNscore 0.27417016
REMARK CNNaffinity 6.23101854
REMARK  5 active torsions:
REMARK  status: ('A' for Active; 'I' for Inactive)
REMARK    1  A    between atoms: C2_2  and  C4_4 
REMARK    2  A    between atoms: C7_7  and  C8_8 
REMARK    3  A    between atoms: C8_8  and  O2_10 
REMARK    4  A    between atoms: C11_13  and  C12_14 
REMARK    5  A    between atoms: C12_14  and  O4_16 
ROOT
HETATM    1  C4  UNL     1       6.356  11.078  16.843  1.00  0.00     0.019 C 
HETATM    2  C5  UNL     1       7.597  11.934  16.582  1.00  0.00     0.011 C 
HETATM    3  C6  UNL     1       8.706  10.894  16.505  1.00  0.00     0.021 C 
HETATM    4  C7  UNL     1       8.110   9.739  15.666  1.00  0.00     0.050 C 
HETATM    5  C9  UNL     1       8.464   9.951  14.185  1.00  0.00     0.022 C 
HETATM    6  C10 UNL     1       7.599   9.148  13.216  1.00  0.00     0.023 C 
HETATM    7  C11 UNL     1       6.076   9.378  13.373  1.00  0.00     0.057 C 
HETATM    8  C13 UNL     1       5.647   9.221  14.873  1.00  0.00     0.011 C 
HETATM    9  C14 UNL     1       4.144   9.474  15.053  1.00  0.00     0.007 C 
HETATM   10  C15 UNL     1       3.261   8.602  14.149  1.00  0.00     0.006 C 
HETATM   11  C16 UNL     1       3.677   8.648  12.660  1.00  0.00     0.003 C 
HETATM   12  C17 UNL     1       2.671   7.932  11.653  1.00  0.00    -0.035 C 
HETATM   13  C18 UNL     1       2.472   6.439  11.998  1.00  0.00     0.016 C 
HETATM   14  C19 UNL     1       1.281   8.634  11.760  1.00  0.00     0.017 C 
HETATM   15  C20 UNL     1       0.286   8.231  10.680  1.00  0.00     0.080 C 
HETATM   16  C21 UNL     1       0.857   8.405   9.296  1.00  0.00     0.135 C 
HETATM   17  O5  UNL     1       0.169   8.924   8.414  1.00  0.00    -0.297 OA
HETATM   18  C22 UNL     1       2.249   7.814   9.014  1.00  0.00     0.017 C 
HETATM   19  C23 UNL     1       2.094   6.308   8.756  1.00  0.00     0.023 C 
HETATM   20  C24 UNL     1       2.766   8.450   7.698  1.00  0.00     0.023 C 
HETATM   21  C25 UNL     1       3.211   8.189  10.195  1.00  0.00     0.009 C 
HETATM   22  C26 UNL     1       4.643   7.646  10.029  1.00  0.00     0.007 C 
HETATM   23  C27 UNL     1       5.628   8.326  10.985  1.00  0.00     0.011 C 
HETATM   24  C28 UNL     1       5.212   8.300  12.487  1.00  0.00    -0.022 C 
HETATM   25  C29 UNL     1       5.503   6.835  12.956  1.00  0.00     0.017 C 
HETATM   26  C30 UNL     1       6.576   9.772  16.003  1.00  0.00     0.018 C 
ENDROOT
BRANCH   4  27
HETATM   27  C8  UNL     1       8.715   8.400  16.093  1.00  0.00     0.149 C 
HETATM   28  O1  UNL     1       9.361   8.187  17.107  1.00  0.00    -0.649 OA
BRANCH  27  29
HETATM   29  O2  UNL     1       8.413   7.380  15.267  1.00  0.00    -0.776 OA
HETATM   30  H11 UNL     1       8.835   6.601  15.686  1.00  0.00     0.167 HD
ENDBRANCH  27  29
ENDBRANCH   4  27
BRANCH   1  31
HETATM   31  C2  UNL     1       5.029  11.800  16.964  1.00  0.00    -0.088 C 
HETATM   32  C1  UNL     1       3.972  11.398  16.232  1.00  0.00     0.014 C 
HETATM   33  C3  UNL     1       4.843  12.885  17.987  1.00  0.00     0.043 C 
ENDBRANCH   1  31
BRANCH   7  34
HETATM   34  C12 UNL     1       5.802  10.819  12.869  1.00  0.00     0.149 C 
HETATM   35  O3  UNL     1       5.256  11.172  11.837  1.00  0.00    -0.649 OA
BRANCH  34  36
HETATM   36  O4  UNL     1       6.281  11.782  13.668  1.00  0.00    -0.776 OA
HETATM   37  H16 UNL     1       6.055  12.606  13.187  1.00  0.00     0.167 HD
ENDBRANCH  34  36
ENDBRANCH   7  34
TORSDOF 5
ENDMDL
MODEL 7
REMARK minimizedAffinity -6.43730354
REMARK CNNscore 0.239106163
REMARK CNNaffinity 5.99953604
REMARK  5 active torsions:
REMARK  status: ('A' for Active; 'I' for Inactive)
REMARK    1  A    between atoms: C2_2  and  C4_4 
REMARK    2  A    between atoms: C7_7  and  C8_8 
REMARK    3  A    between atoms: C8_8  and  O2_10 
REMARK    4  A    between atoms: C11_13  and  C12_14 
REMARK    5  A    between atoms: C12_14  and  O4_16 
ROOT
HETATM    1  C4  UNL     1       0.438   8.084  13.120  1.00  0.00     0.019 C 
HETATM    2  C5  UNL     1       0.934   6.800  13.790  1.00  0.00     0.011 C 
HETATM    3  C6  UNL     1       2.256   7.236  14.404  1.00  0.00     0.021 C 
HETATM    4  C7  UNL     1       1.967   8.625  15.024  1.00  0.00     0.050 C 
HETATM    5  C9  UNL     1       1.558   8.449  16.496  1.00  0.00     0.022 C 
HETATM    6  C10 UNL     1       0.843   9.660  17.092  1.00  0.00     0.023 C 
HETATM    7  C11 UNL     1      -0.410  10.117  16.307  1.00  0.00     0.057 C 
HETATM    8  C13 UNL     1      -0.078  10.275  14.783  1.00  0.00     0.011 C 
HETATM    9  C14 UNL     1      -1.316  10.701  13.983  1.00  0.00     0.007 C 
HETATM   10  C15 UNL     1      -1.988  11.973  14.519  1.00  0.00     0.006 C 
HETATM   11  C16 UNL     1      -2.276  11.919  16.039  1.00  0.00     0.003 C 
HETATM   12  C17 UNL     1      -3.157  13.118  16.604  1.00  0.00    -0.035 C 
HETATM   13  C18 UNL     1      -2.500  14.493  16.341  1.00  0.00     0.016 C 
HETATM   14  C19 UNL     1      -4.538  13.104  15.878  1.00  0.00     0.017 C 
HETATM   15  C20 UNL     1      -5.582  14.030  16.487  1.00  0.00     0.080 C 
HETATM   16  C21 UNL     1      -5.762  13.780  17.963  1.00  0.00     0.135 C 
HETATM   17  O5  UNL     1      -6.899  13.729  18.437  1.00  0.00    -0.297 OA
HETATM   18  C22 UNL     1      -4.500  13.715  18.840  1.00  0.00     0.017 C 
HETATM   19  C23 UNL     1      -4.045  15.151  19.143  1.00  0.00     0.023 C 
HETATM   20  C24 UNL     1      -4.906  13.072  20.191  1.00  0.00     0.023 C 
HETATM   21  C25 UNL     1      -3.430  12.817  18.127  1.00  0.00     0.009 C 
HETATM   22  C26 UNL     1      -2.110  12.679  18.911  1.00  0.00     0.007 C 
HETATM   23  C27 UNL     1      -1.250  11.526  18.386  1.00  0.00     0.011 C 
HETATM   24  C28 UNL     1      -0.967  11.561  16.854  1.00  0.00    -0.022 C 
HETATM   25  C29 UNL     1       0.117  12.678  16.675  1.00  0.00     0.017 C 
HETATM   26  C30 UNL     1       0.866   9.241  14.088  1.00  0.00     0.018 C 
ENDROOT
BRANCH   4  27
HETATM   27  C8  UNL     1       3.226   9.493  15.001  1.00  0.00     0.149 C 
HETATM   28  O1  UNL     1       3.412  10.482  14.310  1.00  0.00    -0.649 OA
BRANCH  27  29
HETATM   29  O2  UNL     1       4.157   9.123  15.902  1.00  0.00    -0.776 OA
HETATM   30  H11 UNL     1       4.873   9.784  15.790  1.00  0.00     0.167 HD
ENDBRANCH  27  29
ENDBRANCH   4  27
BRANCH   1  31
HETATM   31  C2  UNL     1      -0.897   8.022  12.405  1.00  0.00    -0.088 C 
HETATM   32  C1  UNL     1      -1.925   7.344  12.951  1.00  0.00     0.014 C 
HETATM   33  C3  UNL     1      -1.125   8.814  11.148  1.00  0.00     0.043 C 
ENDBRANCH   1  31
BRANCH   7  34
HETATM   34  C12 UNL     1      -1.484   9.019  16.527  1.00  0.00     0.149 C 
HETATM   35  O3  UNL     1      -2.657   9.153  16.831  1.00  0.00    -0.649 OA
BRANCH  34  36
HETATM   36  O4  UNL     1      -1.021   7.767  16.407  1.00  0.00    -0.776 OA
HETATM   37  H16 UNL     1      -1.808   7.217  16.610  1.00  0.00     0.167 HD
ENDBRANCH  34  36
ENDBRANCH   7  34
TORSDOF 5
ENDMDL
MODEL 8
REMARK minimizedAffinity -7.02384472
REMARK CNNscore 0.228426456
REMARK CNNaffinity 5.3519311
REMARK  5 active torsions:
REMARK  status: ('A' for Active; 'I' for Inactive)
REMARK    1  A    between atoms: C2_2  and  C4_4 
REMARK    2  A    between atoms: C7_7  and  C8_8 
REMARK    3  A    between atoms: C8_8  and  O2_10 
REMARK    4  A    between atoms: C11_13  and  C12_14 
REMARK    5  A    between atoms: C12_14  and  O4_16 
ROOT
HETATM    1  C4  UNL     1       4.468  10.597  22.333  1.00  0.00     0.019 C 
HETATM    2  C5  UNL     1       5.332  11.622  23.072  1.00  0.00     0.011 C 
HETATM    3  C6  UNL     1       6.324  12.052  22.001  1.00  0.00     0.021 C 
HETATM    4  C7  UNL     1       5.476  12.218  20.718  1.00  0.00     0.050 C 
HETATM    5  C9  UNL     1       5.008  13.678  20.603  1.00  0.00     0.022 C 
HETATM    6  C10 UNL     1       3.836  13.884  19.647  1.00  0.00     0.023 C 
HETATM    7  C11 UNL     1       2.593  13.016  19.958  1.00  0.00     0.057 C 
HETATM    8  C13 UNL     1       3.001  11.512  20.132  1.00  0.00     0.011 C 
HETATM    9  C14 UNL     1       1.786  10.639  20.470  1.00  0.00     0.007 C 
HETATM   10  C15 UNL     1       0.637  10.768  19.460  1.00  0.00     0.006 C 
HETATM   11  C16 UNL     1       0.231  12.234  19.179  1.00  0.00     0.003 C 
HETATM   12  C17 UNL     1      -1.089  12.416  18.305  1.00  0.00    -0.035 C 
HETATM   13  C18 UNL     1      -0.966  11.733  16.924  1.00  0.00     0.016 C 
HETATM   14  C19 UNL     1      -2.280  11.751  19.062  1.00  0.00     0.017 C 
HETATM   15  C20 UNL     1      -3.651  12.061  18.478  1.00  0.00     0.080 C 
HETATM   16  C21 UNL     1      -3.881  13.545  18.339  1.00  0.00     0.135 C 
HETATM   17  O5  UNL     1      -4.960  14.028  18.686  1.00  0.00    -0.297 OA
HETATM   18  C22 UNL     1      -2.785  14.379  17.654  1.00  0.00     0.017 C 
HETATM   19  C23 UNL     1      -2.932  14.219  16.134  1.00  0.00     0.023 C 
HETATM   20  C24 UNL     1      -3.063  15.869  17.983  1.00  0.00     0.023 C 
HETATM   21  C25 UNL     1      -1.389  13.962  18.233  1.00  0.00     0.009 C 
HETATM   22  C26 UNL     1      -0.203  14.730  17.617  1.00  0.00     0.007 C 
HETATM   23  C27 UNL     1       1.074  14.572  18.447  1.00  0.00     0.011 C 
HETATM   24  C28 UNL     1       1.484  13.100  18.750  1.00  0.00    -0.022 C 
HETATM   25  C29 UNL     1       2.087  12.569  17.405  1.00  0.00     0.017 C 
HETATM   26  C30 UNL     1       4.330  11.155  20.874  1.00  0.00     0.018 C 
ENDROOT
BRANCH   4  27
HETATM   27  C8  UNL     1       6.316  11.910  19.477  1.00  0.00     0.149 C 
HETATM   28  O1  UNL     1       6.196  10.943  18.742  1.00  0.00    -0.649 OA
BRANCH  27  29
HETATM   29  O2  UNL     1       7.214  12.869  19.178  1.00  0.00    -0.776 OA
HETATM   30  H11 UNL     1       7.640  12.548  18.356  1.00  0.00     0.167 HD
ENDBRANCH  27  29
ENDBRANCH   4  27
BRANCH   1  31
HETATM   31  C2  UNL     1       3.336   9.956  23.111  1.00  0.00    -0.088 C 
HETATM   32  C1  UNL     1       2.742  10.627  24.116  1.00  0.00     0.014 C 
HETATM   33  C3  UNL     1       2.783   8.623  22.691  1.00  0.00     0.043 C 
ENDBRANCH   1  31
BRANCH   7  34
HETATM   34  C12 UNL     1       1.988  13.579  21.271  1.00  0.00     0.149 C 
HETATM   35  O3  UNL     1       2.290  13.313  22.423  1.00  0.00    -0.649 OA
BRANCH  34  36
HETATM   36  O4  UNL     1       0.970  14.431  21.086  1.00  0.00    -0.776 OA
HETATM   37  H16 UNL     1       0.694  14.652  22.000  1.00  0.00     0.167 HD
ENDBRANCH  34  36
ENDBRANCH   7  34
TORSDOF 5
ENDMDL
MODEL 9
REMARK minimizedAffinity -6.9362545
REMARK CNNscore 0.227871269
REMARK CNNaffinity 5.83402061
REMARK  5 active torsions:
REMARK  status: ('A' for Active; 'I' for Inactive)
REMARK    1  A    between atoms: C2_2  and  C4_4 
REMARK    2  A    between atoms: C7_7  and  C8_8 
REMARK    3  A    between atoms: C8_8  and  O2_10 
REMARK    4  A    between atoms: C11_13  and  C12_14 
REMARK    5  A    between atoms: C12_14  and  O4_16 
ROOT
HETATM    1  C4  UNL     1       3.062   7.184  10.753  1.00  0.00     0.019 C 
HETATM    2  C5  UNL     1       4.312   6.335  10.996  1.00  0.00     0.011 C 
HETATM    3  C6  UNL     1       5.432   7.363  10.913  1.00  0.00     0.021 C 
HETATM    4  C7  UNL     1       4.904   8.589  11.696  1.00  0.00     0.050 C 
HETATM    5  C9  UNL     1       5.358   8.490  13.161  1.00  0.00     0.022 C 
HETATM    6  C10 UNL     1       4.569   9.379  14.120  1.00  0.00     0.023 C 
HETATM    7  C11 UNL     1       3.037   9.157  14.087  1.00  0.00     0.057 C 
HETATM    8  C13 UNL     1       2.506   9.200  12.613  1.00  0.00     0.011 C 
HETATM    9  C14 UNL     1       0.992   8.953  12.557  1.00  0.00     0.007 C 
HETATM   10  C15 UNL     1       0.181   9.906  13.447  1.00  0.00     0.006 C 
HETATM   11  C16 UNL     1       0.700   9.973  14.903  1.00  0.00     0.003 C 
HETATM   12  C17 UNL     1      -0.229  10.779  15.916  1.00  0.00    -0.035 C 
HETATM   13  C18 UNL     1      -0.439  12.243  15.467  1.00  0.00     0.016 C 
HETATM   14  C19 UNL     1      -1.628  10.089  15.962  1.00  0.00     0.017 C 
HETATM   15  C20 UNL     1      -2.542  10.589  17.071  1.00  0.00     0.080 C 
HETATM   16  C21 UNL     1      -1.878  10.518  18.422  1.00  0.00     0.135 C 
HETATM   17  O5  UNL     1      -2.507  10.080  19.388  1.00  0.00    -0.297 OA
HETATM   18  C22 UNL     1      -0.465  11.111  18.560  1.00  0.00     0.017 C 
HETATM   19  C23 UNL     1      -0.590  12.635  18.707  1.00  0.00     0.023 C 
HETATM   20  C24 UNL     1       0.137  10.575  19.884  1.00  0.00     0.023 C 
HETATM   21  C25 UNL     1       0.409  10.631  17.349  1.00  0.00     0.009 C 
HETATM   22  C26 UNL     1       1.854  11.167  17.372  1.00  0.00     0.007 C 
HETATM   23  C27 UNL     1       2.765  10.400  16.408  1.00  0.00     0.011 C 
HETATM   24  C28 UNL     1       2.245  10.312  14.942  1.00  0.00    -0.022 C 
HETATM   25  C29 UNL     1       2.514  11.733  14.338  1.00  0.00     0.017 C 
HETATM   26  C30 UNL     1       3.350   8.549  11.469  1.00  0.00     0.018 C 
ENDROOT
BRANCH   4  27
HETATM   27  C8  UNL     1       5.488   9.881  11.123  1.00  0.00     0.149 C 
HETATM   28  O1  UNL     1       6.126   9.992  10.088  1.00  0.00    -0.649 OA
BRANCH  27  29
HETATM   29  O2  UNL     1       5.176  10.981  11.836  1.00  0.00    -0.776 OA
HETATM   30  H11 UNL     1       5.585  11.715  11.332  1.00  0.00     0.167 HD
ENDBRANCH  27  29
ENDBRANCH   4  27
BRANCH   1  31
HETATM   31  C2  UNL     1       1.725   6.472  10.782  1.00  0.00    -0.088 C 
HETATM   32  C1  UNL     1       0.752   6.827   9.920  1.00  0.00     0.014 C 
HETATM   33  C3  UNL     1       1.512   5.286  11.681  1.00  0.00     0.043 C 
ENDBRANCH   1  31
BRANCH   7  34
HETATM   34  C12 UNL     1       2.788   7.764  14.723  1.00  0.00     0.149 C 
HETATM   35  O3  UNL     1       1.864   6.992  14.524  1.00  0.00    -0.649 OA
BRANCH  34  36
HETATM   36  O4  UNL     1       3.696   7.408  15.642  1.00  0.00    -0.776 OA
HETATM   37  H16 UNL     1       3.368   6.540  15.956  1.00  0.00     0.167 HD
ENDBRANCH  34  36
ENDBRANCH   7  34
TORSDOF 5
ENDMDL
