MODEL 1
REMARK minimizedAffinity -8.47934437
REMARK CNNscore 0.232279345
REMARK CNNaffinity 6.35545921
REMARK  13 active torsions:
REMARK  status: ('A' for Active; 'I' for Inactive)
REMARK    1  A    between atoms: C3_3  and  O1_4 
REMARK    2  A    between atoms: N1_14  and  O2_16 
REMARK    3  A    between atoms: O2_16  and  C13_17 
REMARK    4  A    between atoms: C13_17  and  C14_18 
REMARK       I    between atoms: C14_18  and  N2_20 
REMARK    5  A    between atoms: N2_20  and  C15_21 
REMARK    6  A    between atoms: C15_21  and  C16_22 
REMARK    7  A    between atoms: C15_21  and  C21_33 
REMARK       I    between atoms: C16_22  and  N3_24 
REMARK    8  A    between atoms: N3_24  and  C17_25 
REMARK    9  A    between atoms: C17_25  and  C18_26 
REMARK   10  A    between atoms: C17_25  and  C20_30 
REMARK   11  A    between atoms: C18_26  and  C19_27 
REMARK   12  A    between atoms: C19_27  and  O6_29 
REMARK   13  A    between atoms: C20_30  and  O8_32 
ROOT
HETATM    1  C1  UNL     1       0.259  55.595 -26.442  1.00  0.00     0.015 C 
HETATM    2  C2  UNL     1      -0.064  54.450 -26.598  1.00  0.00    -0.078 C 
HETATM    3  C3  UNL     1      -0.452  53.044 -26.807  1.00  0.00     0.128 C 
HETATM    4  C4  UNL     1       0.769  52.118 -26.822  1.00  0.00     0.052 C 
HETATM    5  C5  UNL     1       0.142  50.738 -26.665  1.00  0.00     0.010 C 
HETATM    6  C6  UNL     1      -0.892  50.947 -25.551  1.00  0.00     0.002 C 
HETATM    7  C7  UNL     1      -1.981  49.851 -25.419  1.00  0.00    -0.004 C 
HETATM    8  C8  UNL     1      -2.492  49.225 -26.728  1.00  0.00     0.010 C 
HETATM    9  C9  UNL     1      -3.503  48.108 -26.467  1.00  0.00     0.035 C 
HETATM   10  C10 UNL     1      -4.617  48.496 -25.519  1.00  0.00    -0.069 C 
HETATM   11  C11 UNL     1      -5.884  48.160 -25.810  1.00  0.00     0.030 C 
HETATM   12  C12 UNL     1      -7.001  48.382 -24.854  1.00  0.00     0.032 C 
HETATM   13  N1  UNL     1      -8.200  48.097 -25.271  1.00  0.00    -0.271 N 
ATOM     14  H1  UNL     1      -8.403  47.750 -26.209  1.00  0.00     0.194 HD
HETATM   15  C24 UNL     1      -6.657  48.871 -23.461  1.00  0.00     0.060 C 
HETATM   16  C25 UNL     1      -5.460  49.819 -23.517  1.00  0.00     0.020 C 
HETATM   17  C26 UNL     1      -4.214  49.221 -24.237  1.00  0.00    -0.016 C 
HETATM   18  C27 UNL     1      -3.573  48.188 -23.277  1.00  0.00     0.020 C 
HETATM   19  C28 UNL     1      -3.165  50.359 -24.558  1.00  0.00     0.002 C 
HETATM   20  C29 UNL     1      -3.795  51.634 -25.181  1.00  0.00     0.007 C 
HETATM   21  C30 UNL     1      -2.877  52.470 -26.080  1.00  0.00     0.014 C 
HETATM   22  C31 UNL     1      -1.387  52.427 -25.695  1.00  0.00     0.003 C 
HETATM   23  C32 UNL     1      -1.195  53.142 -24.330  1.00  0.00     0.020 C 
ENDROOT
BRANCH   3  24
HETATM   24  O1  UNL     1      -1.064  52.946 -28.096  1.00  0.00    -0.377 OA
HETATM   25  H2  UNL     1      -0.538  53.489 -28.706  1.00  0.00     0.211 HD
ENDBRANCH   3  24
BRANCH  13  26
HETATM   26  O2  UNL     1      -9.184  48.314 -24.296  1.00  0.00    -0.271 OA
BRANCH  26  27
HETATM   27  C13 UNL     1      -9.925  47.106 -24.162  1.00  0.00     0.303 C 
BRANCH  27  28
HETATM   28  C14 UNL     1     -11.083  46.989 -25.143  1.00  0.00     0.244 C 
HETATM   29  O3  UNL     1     -11.611  47.984 -25.646  1.00  0.00    -0.271 OA
HETATM   30  N2  UNL     1     -11.470  45.712 -25.483  1.00  0.00    -0.346 N 
HETATM   31  H16 UNL     1     -10.825  44.958 -25.262  1.00  0.00     0.163 HD
BRANCH  30  32
HETATM   32  C15 UNL     1     -12.522  45.469 -26.476  1.00  0.00     0.180 C 
BRANCH  32  33
HETATM   33  C16 UNL     1     -13.873  45.800 -25.788  1.00  0.00     0.241 C 
HETATM   34  O4  UNL     1     -14.433  46.892 -25.872  1.00  0.00    -0.271 OA
HETATM   35  N3  UNL     1     -14.389  44.756 -25.039  1.00  0.00    -0.344 N 
HETATM   36  H18 UNL     1     -13.735  44.002 -24.825  1.00  0.00     0.163 HD
BRANCH  35  37
HETATM   37  C17 UNL     1     -15.464  45.005 -24.070  1.00  0.00     0.192 C 
BRANCH  37  38
HETATM   38  C18 UNL     1     -14.907  45.737 -22.854  1.00  0.00     0.146 C 
BRANCH  38  39
HETATM   39  C19 UNL     1     -14.741  47.205 -23.125  1.00  0.00     0.141 C 
HETATM   40  O5  UNL     1     -15.291  47.841 -24.011  1.00  0.00    -0.650 OA
BRANCH  39  41
HETATM   41  O6  UNL     1     -13.872  47.797 -22.294  1.00  0.00    -0.776 OA
HETATM   42  H22 UNL     1     -13.886  48.741 -22.570  1.00  0.00     0.167 HD
ENDBRANCH  39  41
ENDBRANCH  38  39
ENDBRANCH  37  38
BRANCH  37  43
HETATM   43  C20 UNL     1     -16.585  45.851 -24.698  1.00  0.00     0.164 C 
HETATM   44  O7  UNL     1     -17.348  46.590 -24.095  1.00  0.00    -0.648 OA
BRANCH  43  45
HETATM   45  O8  UNL     1     -16.639  45.800 -26.045  1.00  0.00    -0.775 OA
HETATM   46  H23 UNL     1     -17.360  46.425 -26.272  1.00  0.00     0.167 HD
ENDBRANCH  43  45
ENDBRANCH  37  43
ENDBRANCH  35  37
ENDBRANCH  32  33
BRANCH  32  47
HETATM   47  C21 UNL     1     -12.291  46.297 -27.762  1.00  0.00     0.009 C 
HETATM   48  C22 UNL     1     -13.474  46.154 -28.730  1.00  0.00     0.012 C 
HETATM   49  C23 UNL     1     -11.007  45.857 -28.478  1.00  0.00     0.012 C 
ENDBRANCH  32  47
ENDBRANCH  30  32
ENDBRANCH  27  28
ENDBRANCH  26  27
ENDBRANCH  13  26
TORSDOF 13
ENDMDL
MODEL 2
REMARK minimizedAffinity -9.20759773
REMARK CNNscore 0.217721209
REMARK CNNaffinity 6.7691021
REMARK  13 active torsions:
REMARK  status: ('A' for Active; 'I' for Inactive)
REMARK    1  A    between atoms: C3_3  and  O1_4 
REMARK    2  A    between atoms: N1_14  and  O2_16 
REMARK    3  A    between atoms: O2_16  and  C13_17 
REMARK    4  A    between atoms: C13_17  and  C14_18 
REMARK       I    between atoms: C14_18  and  N2_20 
REMARK    5  A    between atoms: N2_20  and  C15_21 
REMARK    6  A    between atoms: C15_21  and  C16_22 
REMARK    7  A    between atoms: C15_21  and  C21_33 
REMARK       I    between atoms: C16_22  and  N3_24 
REMARK    8  A    between atoms: N3_24  and  C17_25 
REMARK    9  A    between atoms: C17_25  and  C18_26 
REMARK   10  A    between atoms: C17_25  and  C20_30 
REMARK   11  A    between atoms: C18_26  and  C19_27 
REMARK   12  A    between atoms: C19_27  and  O6_29 
REMARK   13  A    between atoms: C20_30  and  O8_32 
ROOT
HETATM    1  C1  UNL     1      -0.259  54.004 -27.871  1.00  0.00     0.015 C 
HETATM    2  C2  UNL     1      -0.916  53.222 -27.242  1.00  0.00    -0.078 C 
HETATM    3  C3  UNL     1      -1.738  52.263 -26.483  1.00  0.00     0.128 C 
HETATM    4  C4  UNL     1      -2.002  50.985 -27.287  1.00  0.00     0.052 C 
HETATM    5  C5  UNL     1      -2.511  50.021 -26.223  1.00  0.00     0.010 C 
HETATM    6  C6  UNL     1      -1.537  50.239 -25.058  1.00  0.00     0.002 C 
HETATM    7  C7  UNL     1      -2.000  49.713 -23.675  1.00  0.00    -0.004 C 
HETATM    8  C8  UNL     1      -3.500  49.841 -23.355  1.00  0.00     0.010 C 
HETATM    9  C9  UNL     1      -3.848  49.221 -22.002  1.00  0.00     0.035 C 
HETATM   10  C10 UNL     1      -2.957  49.680 -20.868  1.00  0.00    -0.069 C 
HETATM   11  C11 UNL     1      -3.503  50.013 -19.687  1.00  0.00     0.030 C 
HETATM   12  C12 UNL     1      -2.675  50.331 -18.494  1.00  0.00     0.032 C 
HETATM   13  N1  UNL     1      -3.306  50.723 -17.425  1.00  0.00    -0.271 N 
ATOM     14  H1  UNL     1      -4.319  50.835 -17.379  1.00  0.00     0.194 HD
HETATM   15  C24 UNL     1      -1.176  50.127 -18.595  1.00  0.00     0.060 C 
HETATM   16  C25 UNL     1      -0.694  50.457 -20.006  1.00  0.00     0.020 C 
HETATM   17  C26 UNL     1      -1.452  49.689 -21.130  1.00  0.00    -0.016 C 
HETATM   18  C27 UNL     1      -0.949  48.224 -21.113  1.00  0.00     0.020 C 
HETATM   19  C28 UNL     1      -1.145  50.332 -22.541  1.00  0.00     0.002 C 
HETATM   20  C29 UNL     1      -1.243  51.882 -22.557  1.00  0.00     0.007 C 
HETATM   21  C30 UNL     1      -1.598  52.521 -23.904  1.00  0.00     0.014 C 
HETATM   22  C31 UNL     1      -1.101  51.743 -25.136  1.00  0.00     0.003 C 
HETATM   23  C32 UNL     1       0.450  51.801 -25.181  1.00  0.00     0.020 C 
ENDROOT
BRANCH   3  24
HETATM   24  O1  UNL     1      -3.009  52.872 -26.242  1.00  0.00    -0.377 OA
HETATM   25  H2  UNL     1      -3.271  53.325 -27.059  1.00  0.00     0.211 HD
ENDBRANCH   3  24
BRANCH  13  26
HETATM   26  O2  UNL     1      -2.448  50.975 -16.346  1.00  0.00    -0.271 OA
BRANCH  26  27
HETATM   27  C13 UNL     1      -3.253  51.072 -15.176  1.00  0.00     0.303 C 
BRANCH  27  28
HETATM   28  C14 UNL     1      -2.454  51.027 -13.881  1.00  0.00     0.244 C 
HETATM   29  O3  UNL     1      -1.798  50.034 -13.557  1.00  0.00    -0.271 OA
HETATM   30  N2  UNL     1      -2.457  52.176 -13.121  1.00  0.00    -0.346 N 
HETATM   31  H16 UNL     1      -2.773  53.029 -13.573  1.00  0.00     0.163 HD
BRANCH  30  32
HETATM   32  C15 UNL     1      -1.664  52.282 -11.891  1.00  0.00     0.180 C 
BRANCH  32  33
HETATM   33  C16 UNL     1      -0.324  52.961 -12.279  1.00  0.00     0.241 C 
HETATM   34  O4  UNL     1       0.142  52.954 -13.418  1.00  0.00    -0.271 OA
HETATM   35  N3  UNL     1       0.326  53.563 -11.215  1.00  0.00    -0.344 N 
HETATM   36  H18 UNL     1      -0.005  53.292 -10.287  1.00  0.00     0.163 HD
BRANCH  35  37
HETATM   37  C17 UNL     1       1.737  53.949 -11.336  1.00  0.00     0.192 C 
BRANCH  37  38
HETATM   38  C18 UNL     1       2.154  54.777 -10.126  1.00  0.00     0.146 C 
BRANCH  38  39
HETATM   39  C19 UNL     1       3.228  55.766 -10.480  1.00  0.00     0.141 C 
HETATM   40  O5  UNL     1       3.478  56.802  -9.884  1.00  0.00    -0.650 OA
BRANCH  39  41
HETATM   41  O6  UNL     1       3.913  55.425 -11.581  1.00  0.00    -0.776 OA
HETATM   42  H22 UNL     1       4.584  56.138 -11.672  1.00  0.00     0.167 HD
ENDBRANCH  39  41
ENDBRANCH  38  39
ENDBRANCH  37  38
BRANCH  37  43
HETATM   43  C20 UNL     1       2.640  52.707 -11.432  1.00  0.00     0.164 C 
HETATM   44  O7  UNL     1       2.905  51.941 -10.518  1.00  0.00    -0.648 OA
BRANCH  43  45
HETATM   45  O8  UNL     1       3.092  52.436 -12.675  1.00  0.00    -0.775 OA
HETATM   46  H23 UNL     1       3.595  51.602 -12.562  1.00  0.00     0.167 HD
ENDBRANCH  43  45
ENDBRANCH  37  43
ENDBRANCH  35  37
ENDBRANCH  32  33
BRANCH  32  47
HETATM   47  C21 UNL     1      -2.426  53.057 -10.790  1.00  0.00     0.009 C 
HETATM   48  C22 UNL     1      -2.759  52.143  -9.602  1.00  0.00     0.012 C 
HETATM   49  C23 UNL     1      -3.730  53.654 -11.337  1.00  0.00     0.012 C 
ENDBRANCH  32  47
ENDBRANCH  30  32
ENDBRANCH  27  28
ENDBRANCH  26  27
ENDBRANCH  13  26
TORSDOF 13
ENDMDL
MODEL 3
REMARK minimizedAffinity -9.36696434
REMARK CNNscore 0.216593221
REMARK CNNaffinity 6.60876894
REMARK  13 active torsions:
REMARK  status: ('A' for Active; 'I' for Inactive)
REMARK    1  A    between atoms: C3_3  and  O1_4 
REMARK    2  A    between atoms: N1_14  and  O2_16 
REMARK    3  A    between atoms: O2_16  and  C13_17 
REMARK    4  A    between atoms: C13_17  and  C14_18 
REMARK       I    between atoms: C14_18  and  N2_20 
REMARK    5  A    between atoms: N2_20  and  C15_21 
REMARK    6  A    between atoms: C15_21  and  C16_22 
REMARK    7  A    between atoms: C15_21  and  C21_33 
REMARK       I    between atoms: C16_22  and  N3_24 
REMARK    8  A    between atoms: N3_24  and  C17_25 
REMARK    9  A    between atoms: C17_25  and  C18_26 
REMARK   10  A    between atoms: C17_25  and  C20_30 
REMARK   11  A    between atoms: C18_26  and  C19_27 
REMARK   12  A    between atoms: C19_27  and  O6_29 
REMARK   13  A    between atoms: C20_30  and  O8_32 
ROOT
HETATM    1  C1  UNL     1      -0.391  53.663 -28.042  1.00  0.00     0.015 C 
HETATM    2  C2  UNL     1      -1.095  53.001 -27.332  1.00  0.00    -0.078 C 
HETATM    3  C3  UNL     1      -1.976  52.191 -26.471  1.00  0.00     0.128 C 
HETATM    4  C4  UNL     1      -2.554  50.990 -27.226  1.00  0.00     0.052 C 
HETATM    5  C5  UNL     1      -3.093  50.117 -26.100  1.00  0.00     0.010 C 
HETATM    6  C6  UNL     1      -1.964  50.147 -25.062  1.00  0.00     0.002 C 
HETATM    7  C7  UNL     1      -2.343  49.693 -23.629  1.00  0.00    -0.004 C 
HETATM    8  C8  UNL     1      -3.749  50.078 -23.133  1.00  0.00     0.010 C 
HETATM    9  C9  UNL     1      -4.036  49.511 -21.743  1.00  0.00     0.035 C 
HETATM   10  C10 UNL     1      -2.949  49.793 -20.728  1.00  0.00    -0.069 C 
HETATM   11  C11 UNL     1      -3.283  50.203 -19.493  1.00  0.00     0.030 C 
HETATM   12  C12 UNL     1      -2.275  50.356 -18.411  1.00  0.00     0.032 C 
HETATM   13  N1  UNL     1      -2.696  50.839 -17.278  1.00  0.00    -0.271 N 
ATOM     14  H1  UNL     1      -3.661  51.126 -17.111  1.00  0.00     0.194 HD
HETATM   15  C24 UNL     1      -0.859  49.893 -18.688  1.00  0.00     0.060 C 
HETATM   16  C25 UNL     1      -0.498  50.151 -20.150  1.00  0.00     0.020 C 
HETATM   17  C26 UNL     1      -1.508  49.542 -21.168  1.00  0.00    -0.016 C 
HETATM   18  C27 UNL     1      -1.272  48.011 -21.198  1.00  0.00     0.020 C 
HETATM   19  C28 UNL     1      -1.264  50.139 -22.611  1.00  0.00     0.002 C 
HETATM   20  C29 UNL     1      -1.090  51.681 -22.629  1.00  0.00     0.007 C 
HETATM   21  C30 UNL     1      -1.485  52.389 -23.930  1.00  0.00     0.014 C 
HETATM   22  C31 UNL     1      -1.284  51.552 -25.205  1.00  0.00     0.003 C 
HETATM   23  C32 UNL     1       0.237  51.337 -25.437  1.00  0.00     0.020 C 
ENDROOT
BRANCH   3  24
HETATM   24  O1  UNL     1      -3.082  53.011 -26.085  1.00  0.00    -0.377 OA
HETATM   25  H2  UNL     1      -3.357  53.513 -26.869  1.00  0.00     0.211 HD
ENDBRANCH   3  24
BRANCH  13  26
HETATM   26  O2  UNL     1      -1.684  50.924 -16.311  1.00  0.00    -0.271 OA
BRANCH  26  27
HETATM   27  C13 UNL     1      -2.155  50.261 -15.143  1.00  0.00     0.303 C 
BRANCH  27  28
HETATM   28  C14 UNL     1      -2.939  51.166 -14.202  1.00  0.00     0.244 C 
HETATM   29  O3  UNL     1      -3.537  52.164 -14.611  1.00  0.00    -0.271 OA
HETATM   30  N2  UNL     1      -2.991  50.777 -12.882  1.00  0.00    -0.346 N 
HETATM   31  H16 UNL     1      -2.726  49.819 -12.671  1.00  0.00     0.163 HD
BRANCH  30  32
HETATM   32  C15 UNL     1      -3.778  51.524 -11.895  1.00  0.00     0.180 C 
BRANCH  32  33
HETATM   33  C16 UNL     1      -4.377  50.480 -10.916  1.00  0.00     0.241 C 
HETATM   34  O4  UNL     1      -3.718  49.592 -10.376  1.00  0.00    -0.271 OA
HETATM   35  N3  UNL     1      -5.741  50.616 -10.718  1.00  0.00    -0.344 N 
HETATM   36  H18 UNL     1      -6.227  51.203 -11.399  1.00  0.00     0.163 HD
BRANCH  35  37
HETATM   37  C17 UNL     1      -6.509  49.528 -10.102  1.00  0.00     0.192 C 
BRANCH  37  38
HETATM   38  C18 UNL     1      -7.884  50.037  -9.683  1.00  0.00     0.146 C 
BRANCH  38  39
HETATM   39  C19 UNL     1      -8.534  49.112  -8.693  1.00  0.00     0.141 C 
HETATM   40  O5  UNL     1      -9.547  48.456  -8.878  1.00  0.00    -0.650 OA
BRANCH  39  41
HETATM   41  O6  UNL     1      -7.902  49.080  -7.511  1.00  0.00    -0.776 OA
HETATM   42  H22 UNL     1      -8.417  48.428  -6.986  1.00  0.00     0.167 HD
ENDBRANCH  39  41
ENDBRANCH  38  39
ENDBRANCH  37  38
BRANCH  37  43
HETATM   43  C20 UNL     1      -6.683  48.354 -11.082  1.00  0.00     0.164 C 
HETATM   44  O7  UNL     1      -5.885  47.447 -11.261  1.00  0.00    -0.648 OA
BRANCH  43  45
HETATM   45  O8  UNL     1      -7.872  48.327 -11.719  1.00  0.00    -0.775 OA
HETATM   46  H23 UNL     1      -7.831  47.503 -12.250  1.00  0.00     0.167 HD
ENDBRANCH  43  45
ENDBRANCH  37  43
ENDBRANCH  35  37
ENDBRANCH  32  33
BRANCH  32  47
HETATM   47  C21 UNL     1      -2.920  52.590 -11.174  1.00  0.00     0.009 C 
HETATM   48  C22 UNL     1      -1.946  51.937 -10.182  1.00  0.00     0.012 C 
HETATM   49  C23 UNL     1      -3.804  53.590 -10.415  1.00  0.00     0.012 C 
ENDBRANCH  32  47
ENDBRANCH  30  32
ENDBRANCH  27  28
ENDBRANCH  26  27
ENDBRANCH  13  26
TORSDOF 13
ENDMDL
MODEL 4
REMARK minimizedAffinity -8.14360142
REMARK CNNscore 0.200485945
REMARK CNNaffinity 6.44650984
REMARK  13 active torsions:
REMARK  status: ('A' for Active; 'I' for Inactive)
REMARK    1  A    between atoms: C3_3  and  O1_4 
REMARK    2  A    between atoms: N1_14  and  O2_16 
REMARK    3  A    between atoms: O2_16  and  C13_17 
REMARK    4  A    between atoms: C13_17  and  C14_18 
REMARK       I    between atoms: C14_18  and  N2_20 
REMARK    5  A    between atoms: N2_20  and  C15_21 
REMARK    6  A    between atoms: C15_21  and  C16_22 
REMARK    7  A    between atoms: C15_21  and  C21_33 
REMARK       I    between atoms: C16_22  and  N3_24 
REMARK    8  A    between atoms: N3_24  and  C17_25 
REMARK    9  A    between atoms: C17_25  and  C18_26 
REMARK   10  A    between atoms: C17_25  and  C20_30 
REMARK   11  A    between atoms: C18_26  and  C19_27 
REMARK   12  A    between atoms: C19_27  and  O6_29 
REMARK   13  A    between atoms: C20_30  and  O8_32 
ROOT
HETATM    1  C1  UNL     1       2.588  51.849 -27.180  1.00  0.00     0.015 C 
HETATM    2  C2  UNL     1       1.441  52.056 -26.894  1.00  0.00    -0.078 C 
HETATM    3  C3  UNL     1       0.036  52.330 -26.546  1.00  0.00     0.128 C 
HETATM    4  C4  UNL     1      -0.775  52.763 -27.772  1.00  0.00     0.052 C 
HETATM    5  C5  UNL     1      -2.212  52.622 -27.288  1.00  0.00     0.010 C 
HETATM    6  C6  UNL     1      -2.209  51.268 -26.568  1.00  0.00     0.002 C 
HETATM    7  C7  UNL     1      -3.402  51.000 -25.615  1.00  0.00    -0.004 C 
HETATM    8  C8  UNL     1      -3.933  52.205 -24.819  1.00  0.00     0.010 C 
HETATM    9  C9  UNL     1      -5.154  51.836 -23.977  1.00  0.00     0.035 C 
HETATM   10  C10 UNL     1      -4.963  50.598 -23.126  1.00  0.00    -0.069 C 
HETATM   11  C11 UNL     1      -5.376  50.600 -21.848  1.00  0.00     0.030 C 
HETATM   12  C12 UNL     1      -5.350  49.374 -21.007  1.00  0.00     0.032 C 
HETATM   13  N1  UNL     1      -5.694  49.508 -19.759  1.00  0.00    -0.271 N 
ATOM     14  H1  UNL     1      -5.959  50.401 -19.340  1.00  0.00     0.194 HD
HETATM   15  C24 UNL     1      -4.979  48.064 -21.671  1.00  0.00     0.060 C 
HETATM   16  C25 UNL     1      -3.930  48.303 -22.757  1.00  0.00     0.020 C 
HETATM   17  C26 UNL     1      -4.341  49.380 -23.806  1.00  0.00    -0.016 C 
HETATM   18  C27 UNL     1      -5.408  48.745 -24.732  1.00  0.00     0.020 C 
HETATM   19  C28 UNL     1      -3.089  49.814 -24.668  1.00  0.00     0.002 C 
HETATM   20  C29 UNL     1      -1.817  50.100 -23.826  1.00  0.00     0.007 C 
HETATM   21  C30 UNL     1      -0.817  51.092 -24.430  1.00  0.00     0.014 C 
HETATM   22  C31 UNL     1      -0.770  51.102 -25.968  1.00  0.00     0.003 C 
HETATM   23  C32 UNL     1      -0.185  49.753 -26.467  1.00  0.00     0.020 C 
ENDROOT
BRANCH   3  24
HETATM   24  O1  UNL     1       0.018  53.426 -25.628  1.00  0.00    -0.377 OA
HETATM   25  H2  UNL     1       0.664  54.078 -25.946  1.00  0.00     0.211 HD
ENDBRANCH   3  24
BRANCH  13  26
HETATM   26  O2  UNL     1      -5.664  48.299 -19.051  1.00  0.00    -0.271 OA
BRANCH  26  27
HETATM   27  C13 UNL     1      -6.588  48.412 -17.974  1.00  0.00     0.303 C 
BRANCH  27  28
HETATM   28  C14 UNL     1      -7.645  47.317 -17.960  1.00  0.00     0.244 C 
HETATM   29  O3  UNL     1      -7.442  46.226 -17.421  1.00  0.00    -0.271 OA
HETATM   30  N2  UNL     1      -8.860  47.631 -18.528  1.00  0.00    -0.346 N 
HETATM   31  H16 UNL     1      -9.054  48.615 -18.692  1.00  0.00     0.163 HD
BRANCH  30  32
HETATM   32  C15 UNL     1      -9.982  46.687 -18.508  1.00  0.00     0.180 C 
BRANCH  32  33
HETATM   33  C16 UNL     1     -11.085  47.321 -17.620  1.00  0.00     0.241 C 
HETATM   34  O4  UNL     1     -10.868  47.845 -16.529  1.00  0.00    -0.271 OA
HETATM   35  N3  UNL     1     -12.359  47.222 -18.156  1.00  0.00    -0.344 N 
HETATM   36  H18 UNL     1     -12.464  46.553 -18.921  1.00  0.00     0.163 HD
BRANCH  35  37
HETATM   37  C17 UNL     1     -13.535  47.462 -17.310  1.00  0.00     0.192 C 
BRANCH  37  38
HETATM   38  C18 UNL     1     -14.725  47.856 -18.178  1.00  0.00     0.146 C 
BRANCH  38  39
HETATM   39  C19 UNL     1     -14.449  49.112 -18.953  1.00  0.00     0.141 C 
HETATM   40  O5  UNL     1     -13.723  49.211 -19.930  1.00  0.00    -0.650 OA
BRANCH  39  41
HETATM   41  O6  UNL     1     -15.068  50.188 -18.447  1.00  0.00    -0.776 OA
HETATM   42  H22 UNL     1     -14.818  50.915 -19.060  1.00  0.00     0.167 HD
ENDBRANCH  39  41
ENDBRANCH  38  39
ENDBRANCH  37  38
BRANCH  37  43
HETATM   43  C20 UNL     1     -13.895  46.205 -16.500  1.00  0.00     0.164 C 
HETATM   44  O7  UNL     1     -13.754  45.050 -16.870  1.00  0.00    -0.648 OA
BRANCH  43  45
HETATM   45  O8  UNL     1     -14.327  46.451 -15.245  1.00  0.00    -0.775 OA
HETATM   46  H23 UNL     1     -14.456  45.556 -14.865  1.00  0.00     0.167 HD
ENDBRANCH  43  45
ENDBRANCH  37  43
ENDBRANCH  35  37
ENDBRANCH  32  33
BRANCH  32  47
HETATM   47  C21 UNL     1     -10.480  46.366 -19.936  1.00  0.00     0.009 C 
HETATM   48  C22 UNL     1     -10.074  44.946 -20.357  1.00  0.00     0.012 C 
HETATM   49  C23 UNL     1      -9.915  47.365 -20.956  1.00  0.00     0.012 C 
ENDBRANCH  32  47
ENDBRANCH  30  32
ENDBRANCH  27  28
ENDBRANCH  26  27
ENDBRANCH  13  26
TORSDOF 13
ENDMDL
MODEL 5
REMARK minimizedAffinity -8.2071619
REMARK CNNscore 0.191499874
REMARK CNNaffinity 6.04177475
REMARK  13 active torsions:
REMARK  status: ('A' for Active; 'I' for Inactive)
REMARK    1  A    between atoms: C3_3  and  O1_4 
REMARK    2  A    between atoms: N1_14  and  O2_16 
REMARK    3  A    between atoms: O2_16  and  C13_17 
REMARK    4  A    between atoms: C13_17  and  C14_18 
REMARK       I    between atoms: C14_18  and  N2_20 
REMARK    5  A    between atoms: N2_20  and  C15_21 
REMARK    6  A    between atoms: C15_21  and  C16_22 
REMARK    7  A    between atoms: C15_21  and  C21_33 
REMARK       I    between atoms: C16_22  and  N3_24 
REMARK    8  A    between atoms: N3_24  and  C17_25 
REMARK    9  A    between atoms: C17_25  and  C18_26 
REMARK   10  A    between atoms: C17_25  and  C20_30 
REMARK   11  A    between atoms: C18_26  and  C19_27 
REMARK   12  A    between atoms: C19_27  and  O6_29 
REMARK   13  A    between atoms: C20_30  and  O8_32 
ROOT
HETATM    1  C1  UNL     1       0.332  54.604 -25.337  1.00  0.00     0.015 C 
HETATM    2  C2  UNL     1      -0.383  53.643 -25.409  1.00  0.00    -0.078 C 
HETATM    3  C3  UNL     1      -1.263  52.467 -25.515  1.00  0.00     0.128 C 
HETATM    4  C4  UNL     1      -0.669  51.400 -26.441  1.00  0.00     0.052 C 
HETATM    5  C5  UNL     1      -1.510  50.171 -26.115  1.00  0.00     0.010 C 
HETATM    6  C6  UNL     1      -1.574  50.186 -24.583  1.00  0.00     0.002 C 
HETATM    7  C7  UNL     1      -2.678  49.310 -23.938  1.00  0.00    -0.004 C 
HETATM    8  C8  UNL     1      -4.022  49.234 -24.686  1.00  0.00     0.010 C 
HETATM    9  C9  UNL     1      -5.001  48.283 -23.998  1.00  0.00     0.035 C 
HETATM   10  C10 UNL     1      -5.160  48.532 -22.514  1.00  0.00    -0.069 C 
HETATM   11  C11 UNL     1      -6.387  48.528 -21.967  1.00  0.00     0.030 C 
HETATM   12  C12 UNL     1      -6.599  48.621 -20.498  1.00  0.00     0.032 C 
HETATM   13  N1  UNL     1      -7.830  48.694 -20.083  1.00  0.00    -0.271 N 
ATOM     14  H1  UNL     1      -8.636  48.707 -20.709  1.00  0.00     0.194 HD
HETATM   15  C24 UNL     1      -5.378  48.571 -19.600  1.00  0.00     0.060 C 
HETATM   16  C25 UNL     1      -4.198  49.267 -20.277  1.00  0.00     0.020 C 
HETATM   17  C26 UNL     1      -3.880  48.727 -21.703  1.00  0.00    -0.016 C 
HETATM   18  C27 UNL     1      -3.197  47.347 -21.537  1.00  0.00     0.020 C 
HETATM   19  C28 UNL     1      -2.899  49.711 -22.458  1.00  0.00     0.002 C 
HETATM   20  C29 UNL     1      -3.301  51.206 -22.344  1.00  0.00     0.007 C 
HETATM   21  C30 UNL     1      -2.850  52.115 -23.492  1.00  0.00     0.014 C 
HETATM   22  C31 UNL     1      -1.531  51.697 -24.165  1.00  0.00     0.003 C 
HETATM   23  C32 UNL     1      -0.364  51.892 -23.158  1.00  0.00     0.020 C 
ENDROOT
BRANCH   3  24
HETATM   24  O1  UNL     1      -2.492  52.894 -26.108  1.00  0.00    -0.377 OA
HETATM   25  H2  UNL     1      -2.268  53.504 -26.829  1.00  0.00     0.211 HD
ENDBRANCH   3  24
BRANCH  13  26
HETATM   26  O2  UNL     1      -7.933  48.753 -18.686  1.00  0.00    -0.271 OA
BRANCH  26  27
HETATM   27  C13 UNL     1      -9.315  48.873 -18.366  1.00  0.00     0.303 C 
BRANCH  27  28
HETATM   28  C14 UNL     1     -10.141  47.658 -18.766  1.00  0.00     0.244 C 
HETATM   29  O3  UNL     1     -10.297  46.701 -18.004  1.00  0.00    -0.271 OA
HETATM   30  N2  UNL     1     -10.753  47.714 -19.998  1.00  0.00    -0.346 N 
HETATM   31  H16 UNL     1     -10.818  48.625 -20.442  1.00  0.00     0.163 HD
BRANCH  30  32
HETATM   32  C15 UNL     1     -11.637  46.639 -20.463  1.00  0.00     0.180 C 
BRANCH  32  33
HETATM   33  C16 UNL     1     -13.077  47.215 -20.471  1.00  0.00     0.241 C 
HETATM   34  O4  UNL     1     -13.514  47.952 -21.354  1.00  0.00    -0.271 OA
HETATM   35  N3  UNL     1     -13.833  46.846 -19.371  1.00  0.00    -0.344 N 
HETATM   36  H18 UNL     1     -13.307  46.459 -18.585  1.00  0.00     0.163 HD
BRANCH  35  37
HETATM   37  C17 UNL     1     -15.076  47.561 -19.056  1.00  0.00     0.192 C 
BRANCH  37  38
HETATM   38  C18 UNL     1     -16.231  46.572 -18.952  1.00  0.00     0.146 C 
BRANCH  38  39
HETATM   39  C19 UNL     1     -17.293  46.856 -19.976  1.00  0.00     0.141 C 
HETATM   40  O5  UNL     1     -17.216  46.635 -21.174  1.00  0.00    -0.650 OA
BRANCH  39  41
HETATM   41  O6  UNL     1     -18.384  47.434 -19.453  1.00  0.00    -0.776 OA
HETATM   42  H22 UNL     1     -18.989  47.536 -20.222  1.00  0.00     0.167 HD
ENDBRANCH  39  41
ENDBRANCH  38  39
ENDBRANCH  37  38
BRANCH  37  43
HETATM   43  C20 UNL     1     -14.947  48.329 -17.729  1.00  0.00     0.164 C 
HETATM   44  O7  UNL     1     -15.613  49.296 -17.394  1.00  0.00    -0.648 OA
BRANCH  43  45
HETATM   45  O8  UNL     1     -14.062  47.800 -16.859  1.00  0.00    -0.775 OA
HETATM   46  H23 UNL     1     -14.147  48.371 -16.066  1.00  0.00     0.167 HD
ENDBRANCH  43  45
ENDBRANCH  37  43
ENDBRANCH  35  37
ENDBRANCH  32  33
BRANCH  32  47
HETATM   47  C21 UNL     1     -11.202  46.106 -21.849  1.00  0.00     0.009 C 
HETATM   48  C22 UNL     1      -9.953  46.841 -22.356  1.00  0.00     0.012 C 
HETATM   49  C23 UNL     1     -12.327  46.270 -22.880  1.00  0.00     0.012 C 
ENDBRANCH  32  47
ENDBRANCH  30  32
ENDBRANCH  27  28
ENDBRANCH  26  27
ENDBRANCH  13  26
TORSDOF 13
ENDMDL
MODEL 6
REMARK minimizedAffinity -7.8775053
REMARK CNNscore 0.171429738
REMARK CNNaffinity 6.27886009
REMARK  13 active torsions:
REMARK  status: ('A' for Active; 'I' for Inactive)
REMARK    1  A    between atoms: C3_3  and  O1_4 
REMARK    2  A    between atoms: N1_14  and  O2_16 
REMARK    3  A    between atoms: O2_16  and  C13_17 
REMARK    4  A    between atoms: C13_17  and  C14_18 
REMARK       I    between atoms: C14_18  and  N2_20 
REMARK    5  A    between atoms: N2_20  and  C15_21 
REMARK    6  A    between atoms: C15_21  and  C16_22 
REMARK    7  A    between atoms: C15_21  and  C21_33 
REMARK       I    between atoms: C16_22  and  N3_24 
REMARK    8  A    between atoms: N3_24  and  C17_25 
REMARK    9  A    between atoms: C17_25  and  C18_26 
REMARK   10  A    between atoms: C17_25  and  C20_30 
REMARK   11  A    between atoms: C18_26  and  C19_27 
REMARK   12  A    between atoms: C19_27  and  O6_29 
REMARK   13  A    between atoms: C20_30  and  O8_32 
ROOT
HETATM    1  C1  UNL     1      -0.273  53.384 -28.117  1.00  0.00     0.015 C 
HETATM    2  C2  UNL     1      -1.067  52.797 -27.436  1.00  0.00    -0.078 C 
HETATM    3  C3  UNL     1      -2.057  52.084 -26.609  1.00  0.00     0.128 C 
HETATM    4  C4  UNL     1      -2.905  51.123 -27.448  1.00  0.00     0.052 C 
HETATM    5  C5  UNL     1      -3.563  50.248 -26.387  1.00  0.00     0.010 C 
HETATM    6  C6  UNL     1      -2.407  49.926 -25.432  1.00  0.00     0.002 C 
HETATM    7  C7  UNL     1      -2.808  49.391 -24.033  1.00  0.00    -0.004 C 
HETATM    8  C8  UNL     1      -4.079  49.988 -23.404  1.00  0.00     0.010 C 
HETATM    9  C9  UNL     1      -4.414  49.329 -22.066  1.00  0.00     0.035 C 
HETATM   10  C10 UNL     1      -3.249  49.265 -21.104  1.00  0.00    -0.069 C 
HETATM   11  C11 UNL     1      -3.435  49.583 -19.812  1.00  0.00     0.030 C 
HETATM   12  C12 UNL     1      -2.370  49.401 -18.791  1.00  0.00     0.032 C 
HETATM   13  N1  UNL     1      -2.629  49.820 -17.586  1.00  0.00    -0.271 N 
ATOM     14  H1  UNL     1      -3.505  50.273 -17.324  1.00  0.00     0.194 HD
HETATM   15  C24 UNL     1      -1.094  48.699 -19.212  1.00  0.00     0.060 C 
HETATM   16  C25 UNL     1      -0.753  49.052 -20.659  1.00  0.00     0.020 C 
HETATM   17  C26 UNL     1      -1.912  48.783 -21.665  1.00  0.00    -0.016 C 
HETATM   18  C27 UNL     1      -2.000  47.251 -21.876  1.00  0.00     0.020 C 
HETATM   19  C28 UNL     1      -1.615  49.486 -23.049  1.00  0.00     0.002 C 
HETATM   20  C29 UNL     1      -1.125  50.953 -22.914  1.00  0.00     0.007 C 
HETATM   21  C30 UNL     1      -1.423  51.876 -24.101  1.00  0.00     0.014 C 
HETATM   22  C31 UNL     1      -1.457  51.173 -25.470  1.00  0.00     0.003 C 
HETATM   23  C32 UNL     1      -0.025  50.687 -25.826  1.00  0.00     0.020 C 
ENDROOT
BRANCH   3  24
HETATM   24  O1  UNL     1      -2.951  53.058 -26.062  1.00  0.00    -0.377 OA
HETATM   25  H2  UNL     1      -3.150  53.694 -26.768  1.00  0.00     0.211 HD
ENDBRANCH   3  24
BRANCH  13  26
HETATM   26  O2  UNL     1      -1.580  49.584 -16.688  1.00  0.00    -0.271 OA
BRANCH  26  27
HETATM   27  C13 UNL     1      -0.651  50.654 -16.828  1.00  0.00     0.303 C 
BRANCH  27  28
HETATM   28  C14 UNL     1       0.365  50.731 -15.697  1.00  0.00     0.244 C 
HETATM   29  O3  UNL     1       0.941  49.727 -15.271  1.00  0.00    -0.271 OA
HETATM   30  N2  UNL     1       0.648  51.990 -15.215  1.00  0.00    -0.346 N 
HETATM   31  H16 UNL     1       0.363  52.780 -15.787  1.00  0.00     0.163 HD
BRANCH  30  32
HETATM   32  C15 UNL     1       1.666  52.203 -14.180  1.00  0.00     0.180 C 
BRANCH  32  33
HETATM   33  C16 UNL     1       1.361  51.197 -13.039  1.00  0.00     0.241 C 
HETATM   34  O4  UNL     1       0.228  50.953 -12.626  1.00  0.00    -0.271 OA
HETATM   35  N3  UNL     1       2.491  50.606 -12.497  1.00  0.00    -0.344 N 
HETATM   36  H18 UNL     1       3.377  51.061 -12.725  1.00  0.00     0.163 HD
BRANCH  35  37
HETATM   37  C17 UNL     1       2.411  49.902 -11.212  1.00  0.00     0.192 C 
BRANCH  37  38
HETATM   38  C18 UNL     1       3.512  48.851 -11.127  1.00  0.00     0.146 C 
BRANCH  38  39
HETATM   39  C19 UNL     1       2.946  47.460 -11.124  1.00  0.00     0.141 C 
HETATM   40  O5  UNL     1       2.254  46.966 -10.247  1.00  0.00    -0.650 OA
BRANCH  39  41
HETATM   41  O6  UNL     1       3.301  46.746 -12.202  1.00  0.00    -0.776 OA
HETATM   42  H22 UNL     1       2.845  45.884 -12.075  1.00  0.00     0.167 HD
ENDBRANCH  39  41
ENDBRANCH  38  39
ENDBRANCH  37  38
BRANCH  37  43
HETATM   43  C20 UNL     1       2.559  50.884 -10.037  1.00  0.00     0.164 C 
HETATM   44  O7  UNL     1       3.554  51.024  -9.342  1.00  0.00    -0.648 OA
BRANCH  43  45
HETATM   45  O8  UNL     1       1.499  51.696  -9.847  1.00  0.00    -0.775 OA
HETATM   46  H23 UNL     1       1.781  52.277  -9.109  1.00  0.00     0.167 HD
ENDBRANCH  43  45
ENDBRANCH  37  43
ENDBRANCH  35  37
ENDBRANCH  32  33
BRANCH  32  47
HETATM   47  C21 UNL     1       3.096  52.042 -14.747  1.00  0.00     0.009 C 
HETATM   48  C22 UNL     1       3.158  52.479 -16.218  1.00  0.00     0.012 C 
HETATM   49  C23 UNL     1       3.571  50.586 -14.642  1.00  0.00     0.012 C 
ENDBRANCH  32  47
ENDBRANCH  30  32
ENDBRANCH  27  28
ENDBRANCH  26  27
ENDBRANCH  13  26
TORSDOF 13
ENDMDL
MODEL 7
REMARK minimizedAffinity -8.40723896
REMARK CNNscore 0.16732724
REMARK CNNaffinity 5.91117096
REMARK  13 active torsions:
REMARK  status: ('A' for Active; 'I' for Inactive)
REMARK    1  A    between atoms: C3_3  and  O1_4 
REMARK    2  A    between atoms: N1_14  and  O2_16 
REMARK    3  A    between atoms: O2_16  and  C13_17 
REMARK    4  A    between atoms: C13_17  and  C14_18 
REMARK       I    between atoms: C14_18  and  N2_20 
REMARK    5  A    between atoms: N2_20  and  C15_21 
REMARK    6  A    between atoms: C15_21  and  C16_22 
REMARK    7  A    between atoms: C15_21  and  C21_33 
REMARK       I    between atoms: C16_22  and  N3_24 
REMARK    8  A    between atoms: N3_24  and  C17_25 
REMARK    9  A    between atoms: C17_25  and  C18_26 
REMARK   10  A    between atoms: C17_25  and  C20_30 
REMARK   11  A    between atoms: C18_26  and  C19_27 
REMARK   12  A    between atoms: C19_27  and  O6_29 
REMARK   13  A    between atoms: C20_30  and  O8_32 
ROOT
HETATM    1  C1  UNL     1       1.301  52.452 -16.885  1.00  0.00     0.015 C 
HETATM    2  C2  UNL     1       0.855  52.540 -17.995  1.00  0.00    -0.078 C 
HETATM    3  C3  UNL     1       0.314  52.667 -19.360  1.00  0.00     0.128 C 
HETATM    4  C4  UNL     1       1.431  52.825 -20.397  1.00  0.00     0.052 C 
HETATM    5  C5  UNL     1       0.706  52.558 -21.710  1.00  0.00     0.010 C 
HETATM    6  C6  UNL     1      -0.146  51.322 -21.396  1.00  0.00     0.002 C 
HETATM    7  C7  UNL     1      -1.304  51.024 -22.382  1.00  0.00    -0.004 C 
HETATM    8  C8  UNL     1      -2.042  52.241 -22.968  1.00  0.00     0.010 C 
HETATM    9  C9  UNL     1      -3.107  51.826 -23.982  1.00  0.00     0.035 C 
HETATM   10  C10 UNL     1      -4.044  50.746 -23.483  1.00  0.00    -0.069 C 
HETATM   11  C11 UNL     1      -5.365  50.860 -23.701  1.00  0.00     0.030 C 
HETATM   12  C12 UNL     1      -6.318  49.769 -23.366  1.00  0.00     0.032 C 
HETATM   13  N1  UNL     1      -7.584  50.018 -23.540  1.00  0.00    -0.271 N 
ATOM     14  H1  UNL     1      -7.941  50.914 -23.873  1.00  0.00     0.194 HD
HETATM   15  C24 UNL     1      -5.747  48.444 -22.901  1.00  0.00     0.060 C 
HETATM   16  C25 UNL     1      -4.485  48.678 -22.071  1.00  0.00     0.020 C 
HETATM   17  C26 UNL     1      -3.408  49.544 -22.789  1.00  0.00    -0.016 C 
HETATM   18  C27 UNL     1      -2.743  48.657 -23.871  1.00  0.00     0.020 C 
HETATM   19  C28 UNL     1      -2.310  50.024 -21.758  1.00  0.00     0.002 C 
HETATM   20  C29 UNL     1      -2.897  50.585 -20.434  1.00  0.00     0.007 C 
HETATM   21  C30 UNL     1      -2.034  51.614 -19.696  1.00  0.00     0.014 C 
HETATM   22  C31 UNL     1      -0.517  51.429 -19.876  1.00  0.00     0.003 C 
HETATM   23  C32 UNL     1      -0.078  50.116 -19.172  1.00  0.00     0.020 C 
ENDROOT
BRANCH   3  24
HETATM   24  O1  UNL     1      -0.471  53.861 -19.409  1.00  0.00    -0.377 OA
HETATM   25  H2  UNL     1       0.017  54.547 -18.924  1.00  0.00     0.211 HD
ENDBRANCH   3  24
BRANCH  13  26
HETATM   26  O2  UNL     1      -8.403  48.926 -23.223  1.00  0.00    -0.271 OA
BRANCH  26  27
HETATM   27  C13 UNL     1      -8.341  48.016 -24.316  1.00  0.00     0.303 C 
BRANCH  27  28
HETATM   28  C14 UNL     1      -9.324  48.336 -25.433  1.00  0.00     0.244 C 
HETATM   29  O3  UNL     1      -9.548  49.496 -25.787  1.00  0.00    -0.271 OA
HETATM   30  N2  UNL     1      -9.903  47.259 -26.066  1.00  0.00    -0.346 N 
HETATM   31  H16 UNL     1      -9.470  46.351 -25.924  1.00  0.00     0.163 HD
BRANCH  30  32
HETATM   32  C15 UNL     1     -10.807  47.436 -27.208  1.00  0.00     0.180 C 
BRANCH  32  33
HETATM   33  C16 UNL     1     -10.075  46.867 -28.452  1.00  0.00     0.241 C 
HETATM   34  O4  UNL     1      -9.310  45.904 -28.414  1.00  0.00    -0.271 OA
HETATM   35  N3  UNL     1     -10.339  47.560 -29.621  1.00  0.00    -0.344 N 
HETATM   36  H18 UNL     1     -10.768  48.479 -29.501  1.00  0.00     0.163 HD
BRANCH  35  37
HETATM   37  C17 UNL     1      -9.485  47.369 -30.800  1.00  0.00     0.192 C 
BRANCH  37  38
HETATM   38  C18 UNL     1     -10.342  47.002 -32.007  1.00  0.00     0.146 C 
BRANCH  38  39
HETATM   39  C19 UNL     1      -9.684  45.946 -32.848  1.00  0.00     0.141 C 
HETATM   40  O5  UNL     1      -8.504  45.633 -32.818  1.00  0.00    -0.650 OA
BRANCH  39  41
HETATM   41  O6  UNL     1     -10.529  45.359 -33.708  1.00  0.00    -0.776 OA
HETATM   42  H22 UNL     1      -9.972  44.688 -34.164  1.00  0.00     0.167 HD
ENDBRANCH  39  41
ENDBRANCH  38  39
ENDBRANCH  37  38
BRANCH  37  43
HETATM   43  C20 UNL     1      -8.690  48.647 -31.116  1.00  0.00     0.164 C 
HETATM   44  O7  UNL     1      -8.966  49.774 -30.736  1.00  0.00    -0.648 OA
BRANCH  43  45
HETATM   45  O8  UNL     1      -7.552  48.443 -31.812  1.00  0.00    -0.775 OA
HETATM   46  H23 UNL     1      -7.156  49.337 -31.876  1.00  0.00     0.167 HD
ENDBRANCH  43  45
ENDBRANCH  37  43
ENDBRANCH  35  37
ENDBRANCH  32  33
BRANCH  32  47
HETATM   47  C21 UNL     1     -12.174  46.757 -26.960  1.00  0.00     0.009 C 
HETATM   48  C22 UNL     1     -12.701  47.073 -25.553  1.00  0.00     0.012 C 
HETATM   49  C23 UNL     1     -12.071  45.234 -27.120  1.00  0.00     0.012 C 
ENDBRANCH  32  47
ENDBRANCH  30  32
ENDBRANCH  27  28
ENDBRANCH  26  27
ENDBRANCH  13  26
TORSDOF 13
ENDMDL
MODEL 8
REMARK minimizedAffinity -8.12530899
REMARK CNNscore 0.165280193
REMARK CNNaffinity 6.23032379
REMARK  13 active torsions:
REMARK  status: ('A' for Active; 'I' for Inactive)
REMARK    1  A    between atoms: C3_3  and  O1_4 
REMARK    2  A    between atoms: N1_14  and  O2_16 
REMARK    3  A    between atoms: O2_16  and  C13_17 
REMARK    4  A    between atoms: C13_17  and  C14_18 
REMARK       I    between atoms: C14_18  and  N2_20 
REMARK    5  A    between atoms: N2_20  and  C15_21 
REMARK    6  A    between atoms: C15_21  and  C16_22 
REMARK    7  A    between atoms: C15_21  and  C21_33 
REMARK       I    between atoms: C16_22  and  N3_24 
REMARK    8  A    between atoms: N3_24  and  C17_25 
REMARK    9  A    between atoms: C17_25  and  C18_26 
REMARK   10  A    between atoms: C17_25  and  C20_30 
REMARK   11  A    between atoms: C18_26  and  C19_27 
REMARK   12  A    between atoms: C19_27  and  O6_29 
REMARK   13  A    between atoms: C20_30  and  O8_32 
ROOT
HETATM    1  C1  UNL     1       1.095  52.018 -16.899  1.00  0.00     0.015 C 
HETATM    2  C2  UNL     1       0.690  52.240 -18.006  1.00  0.00    -0.078 C 
HETATM    3  C3  UNL     1       0.198  52.531 -19.364  1.00  0.00     0.128 C 
HETATM    4  C4  UNL     1       1.340  52.923 -20.307  1.00  0.00     0.052 C 
HETATM    5  C5  UNL     1       0.694  52.806 -21.681  1.00  0.00     0.010 C 
HETATM    6  C6  UNL     1      -0.070  51.478 -21.597  1.00  0.00     0.002 C 
HETATM    7  C7  UNL     1      -1.159  51.249 -22.676  1.00  0.00    -0.004 C 
HETATM    8  C8  UNL     1      -1.966  52.483 -23.115  1.00  0.00     0.010 C 
HETATM    9  C9  UNL     1      -2.952  52.150 -24.234  1.00  0.00     0.035 C 
HETATM   10  C10 UNL     1      -3.820  50.943 -23.949  1.00  0.00    -0.069 C 
HETATM   11  C11 UNL     1      -5.135  50.992 -24.217  1.00  0.00     0.030 C 
HETATM   12  C12 UNL     1      -6.012  49.798 -24.096  1.00  0.00     0.032 C 
HETATM   13  N1  UNL     1      -7.285  49.978 -24.299  1.00  0.00    -0.271 N 
ATOM     14  H1  UNL     1      -7.699  50.885 -24.515  1.00  0.00     0.194 HD
HETATM   15  C24 UNL     1      -5.358  48.462 -23.801  1.00  0.00     0.060 C 
HETATM   16  C25 UNL     1      -4.154  48.659 -22.881  1.00  0.00     0.020 C 
HETATM   17  C26 UNL     1      -3.120  49.699 -23.406  1.00  0.00    -0.016 C 
HETATM   18  C27 UNL     1      -2.342  49.035 -24.570  1.00  0.00     0.020 C 
HETATM   19  C28 UNL     1      -2.108  50.097 -22.259  1.00  0.00     0.002 C 
HETATM   20  C29 UNL     1      -2.792  50.408 -20.900  1.00  0.00     0.007 C 
HETATM   21  C30 UNL     1      -2.044  51.374 -19.974  1.00  0.00     0.014 C 
HETATM   22  C31 UNL     1      -0.511  51.328 -20.100  1.00  0.00     0.003 C 
HETATM   23  C32 UNL     1       0.001  49.960 -19.574  1.00  0.00     0.020 C 
ENDROOT
BRANCH   3  24
HETATM   24  O1  UNL     1      -0.677  53.660 -19.279  1.00  0.00    -0.377 OA
HETATM   25  H2  UNL     1      -0.266  54.298 -18.673  1.00  0.00     0.211 HD
ENDBRANCH   3  24
BRANCH  13  26
HETATM   26  O2  UNL     1      -8.029  48.794 -24.189  1.00  0.00    -0.271 OA
BRANCH  26  27
HETATM   27  C13 UNL     1      -9.082  48.864 -25.144  1.00  0.00     0.303 C 
BRANCH  27  28
HETATM   28  C14 UNL     1      -9.698  47.511 -25.472  1.00  0.00     0.244 C 
HETATM   29  O3  UNL     1      -9.833  46.634 -24.615  1.00  0.00    -0.271 OA
HETATM   30  N2  UNL     1     -10.149  47.341 -26.762  1.00  0.00    -0.346 N 
HETATM   31  H16 UNL     1     -10.267  48.178 -27.326  1.00  0.00     0.163 HD
BRANCH  30  32
HETATM   32  C15 UNL     1     -10.830  46.111 -27.180  1.00  0.00     0.180 C 
BRANCH  32  33
HETATM   33  C16 UNL     1     -12.353  46.404 -27.137  1.00  0.00     0.241 C 
HETATM   34  O4  UNL     1     -12.849  47.489 -27.438  1.00  0.00    -0.271 OA
HETATM   35  N3  UNL     1     -13.116  45.334 -26.700  1.00  0.00    -0.344 N 
HETATM   36  H18 UNL     1     -12.599  44.585 -26.236  1.00  0.00     0.163 HD
BRANCH  35  37
HETATM   37  C17 UNL     1     -14.509  45.543 -26.285  1.00  0.00     0.192 C 
BRANCH  37  38
HETATM   38  C18 UNL     1     -14.683  46.959 -25.750  1.00  0.00     0.146 C 
BRANCH  38  39
HETATM   39  C19 UNL     1     -15.286  46.956 -24.373  1.00  0.00     0.141 C 
HETATM   40  O5  UNL     1     -14.678  46.833 -23.322  1.00  0.00    -0.650 OA
BRANCH  39  41
HETATM   41  O6  UNL     1     -16.621  47.074 -24.385  1.00  0.00    -0.776 OA
HETATM   42  H22 UNL     1     -16.866  47.082 -23.432  1.00  0.00     0.167 HD
ENDBRANCH  39  41
ENDBRANCH  38  39
ENDBRANCH  37  38
BRANCH  37  43
HETATM   43  C20 UNL     1     -15.471  45.327 -27.466  1.00  0.00     0.164 C 
HETATM   44  O7  UNL     1     -16.669  45.106 -27.381  1.00  0.00    -0.648 OA
BRANCH  43  45
HETATM   45  O8  UNL     1     -14.911  45.485 -28.683  1.00  0.00    -0.775 OA
HETATM   46  H23 UNL     1     -15.662  45.367 -29.301  1.00  0.00     0.167 HD
ENDBRANCH  43  45
ENDBRANCH  37  43
ENDBRANCH  35  37
ENDBRANCH  32  33
BRANCH  32  47
HETATM   47  C21 UNL     1     -10.354  45.644 -28.576  1.00  0.00     0.009 C 
HETATM   48  C22 UNL     1      -8.884  46.020 -28.812  1.00  0.00     0.012 C 
HETATM   49  C23 UNL     1     -11.210  46.268 -29.688  1.00  0.00     0.012 C 
ENDBRANCH  32  47
ENDBRANCH  30  32
ENDBRANCH  27  28
ENDBRANCH  26  27
ENDBRANCH  13  26
TORSDOF 13
ENDMDL
MODEL 9
REMARK minimizedAffinity -9.04895496
REMARK CNNscore 0.150333643
REMARK CNNaffinity 6.76476812
REMARK  13 active torsions:
REMARK  status: ('A' for Active; 'I' for Inactive)
REMARK    1  A    between atoms: C3_3  and  O1_4 
REMARK    2  A    between atoms: N1_14  and  O2_16 
REMARK    3  A    between atoms: O2_16  and  C13_17 
REMARK    4  A    between atoms: C13_17  and  C14_18 
REMARK       I    between atoms: C14_18  and  N2_20 
REMARK    5  A    between atoms: N2_20  and  C15_21 
REMARK    6  A    between atoms: C15_21  and  C16_22 
REMARK    7  A    between atoms: C15_21  and  C21_33 
REMARK       I    between atoms: C16_22  and  N3_24 
REMARK    8  A    between atoms: N3_24  and  C17_25 
REMARK    9  A    between atoms: C17_25  and  C18_26 
REMARK   10  A    between atoms: C17_25  and  C20_30 
REMARK   11  A    between atoms: C18_26  and  C19_27 
REMARK   12  A    between atoms: C19_27  and  O6_29 
REMARK   13  A    between atoms: C20_30  and  O8_32 
ROOT
HETATM    1  C1  UNL     1       1.223  52.251 -16.941  1.00  0.00     0.015 C 
HETATM    2  C2  UNL     1       0.799  52.384 -18.056  1.00  0.00    -0.078 C 
HETATM    3  C3  UNL     1       0.285  52.565 -19.425  1.00  0.00     0.128 C 
HETATM    4  C4  UNL     1       1.420  52.786 -20.429  1.00  0.00     0.052 C 
HETATM    5  C5  UNL     1       0.726  52.569 -21.768  1.00  0.00     0.010 C 
HETATM    6  C6  UNL     1      -0.113  51.308 -21.529  1.00  0.00     0.002 C 
HETATM    7  C7  UNL     1      -1.247  51.039 -22.552  1.00  0.00    -0.004 C 
HETATM    8  C8  UNL     1      -1.990  52.272 -23.098  1.00  0.00     0.010 C 
HETATM    9  C9  UNL     1      -3.028  51.889 -24.152  1.00  0.00     0.035 C 
HETATM   10  C10 UNL     1      -3.958  50.775 -23.723  1.00  0.00    -0.069 C 
HETATM   11  C11 UNL     1      -5.276  50.880 -23.963  1.00  0.00     0.030 C 
HETATM   12  C12 UNL     1      -6.220  49.762 -23.698  1.00  0.00     0.032 C 
HETATM   13  N1  UNL     1      -7.485  50.001 -23.888  1.00  0.00    -0.271 N 
ATOM     14  H1  UNL     1      -7.849  50.906 -24.187  1.00  0.00     0.194 HD
HETATM   15  C24 UNL     1      -5.639  48.425 -23.282  1.00  0.00     0.060 C 
HETATM   16  C25 UNL     1      -4.398  48.638 -22.415  1.00  0.00     0.020 C 
HETATM   17  C26 UNL     1      -3.319  49.551 -23.071  1.00  0.00    -0.016 C 
HETATM   18  C27 UNL     1      -2.619  48.723 -24.177  1.00  0.00     0.020 C 
HETATM   19  C28 UNL     1      -2.250  49.999 -21.995  1.00  0.00     0.002 C 
HETATM   20  C29 UNL     1      -2.873  50.490 -20.660  1.00  0.00     0.007 C 
HETATM   21  C30 UNL     1      -2.040  51.496 -19.858  1.00  0.00     0.014 C 
HETATM   22  C31 UNL     1      -0.517  51.341 -20.014  1.00  0.00     0.003 C 
HETATM   23  C32 UNL     1      -0.074  50.003 -19.361  1.00  0.00     0.020 C 
ENDROOT
BRANCH   3  24
HETATM   24  O1  UNL     1      -0.517  53.749 -19.436  1.00  0.00    -0.377 OA
HETATM   25  H2  UNL     1      -0.050  54.419 -18.910  1.00  0.00     0.211 HD
ENDBRANCH   3  24
BRANCH  13  26
HETATM   26  O2  UNL     1      -8.295  48.884 -23.638  1.00  0.00    -0.271 OA
BRANCH  26  27
HETATM   27  C13 UNL     1      -7.793  47.810 -24.425  1.00  0.00     0.303 C 
BRANCH  27  28
HETATM   28  C14 UNL     1      -8.630  47.517 -25.663  1.00  0.00     0.244 C 
HETATM   29  O3  UNL     1      -8.472  46.488 -26.324  1.00  0.00    -0.271 OA
HETATM   30  N2  UNL     1      -9.611  48.434 -25.968  1.00  0.00    -0.346 N 
HETATM   31  H16 UNL     1      -9.872  49.093 -25.241  1.00  0.00     0.163 HD
BRANCH  30  32
HETATM   32  C15 UNL     1     -10.532  48.224 -27.091  1.00  0.00     0.180 C 
BRANCH  32  33
HETATM   33  C16 UNL     1      -9.660  47.889 -28.330  1.00  0.00     0.241 C 
HETATM   34  O4  UNL     1      -9.679  46.802 -28.905  1.00  0.00    -0.271 OA
HETATM   35  N3  UNL     1      -8.827  48.923 -28.724  1.00  0.00    -0.344 N 
HETATM   36  H18 UNL     1      -8.699  49.669 -28.038  1.00  0.00     0.163 HD
BRANCH  35  37
HETATM   37  C17 UNL     1      -7.716  48.663 -29.647  1.00  0.00     0.192 C 
BRANCH  37  38
HETATM   38  C18 UNL     1      -6.675  47.779 -28.971  1.00  0.00     0.146 C 
BRANCH  38  39
HETATM   39  C19 UNL     1      -5.302  48.019 -29.532  1.00  0.00     0.141 C 
HETATM   40  O5  UNL     1      -4.799  47.434 -30.478  1.00  0.00    -0.650 OA
BRANCH  39  41
HETATM   41  O6  UNL     1      -4.617  48.956 -28.860  1.00  0.00    -0.776 OA
HETATM   42  H22 UNL     1      -3.765  49.020 -29.347  1.00  0.00     0.167 HD
ENDBRANCH  39  41
ENDBRANCH  38  39
ENDBRANCH  37  38
BRANCH  37  43
HETATM   43  C20 UNL     1      -8.216  47.966 -30.925  1.00  0.00     0.164 C 
HETATM   44  O7  UNL     1      -8.815  48.501 -31.845  1.00  0.00    -0.648 OA
BRANCH  43  45
HETATM   45  O8  UNL     1      -7.867  46.667 -31.028  1.00  0.00    -0.775 OA
HETATM   46  H23 UNL     1      -8.214  46.403 -31.906  1.00  0.00     0.167 HD
ENDBRANCH  43  45
ENDBRANCH  37  43
ENDBRANCH  35  37
ENDBRANCH  32  33
BRANCH  32  47
HETATM   47  C21 UNL     1     -11.568  47.119 -26.776  1.00  0.00     0.009 C 
HETATM   48  C22 UNL     1     -12.907  47.404 -27.471  1.00  0.00     0.012 C 
HETATM   49  C23 UNL     1     -11.808  47.002 -25.264  1.00  0.00     0.012 C 
ENDBRANCH  32  47
ENDBRANCH  30  32
ENDBRANCH  27  28
ENDBRANCH  26  27
ENDBRANCH  13  26
TORSDOF 13
ENDMDL
