MODEL 1
REMARK minimizedAffinity -6.19903708
REMARK CNNscore 0.300659597
REMARK CNNaffinity 5.33522177
REMARK  4 active torsions:
REMARK  status: ('A' for Active; 'I' for Inactive)
REMARK    1  A    between atoms: C2_2  and  C3_3 
REMARK    2  A    between atoms: C7_7  and  C8_8 
REMARK    3  A    between atoms: C8_8  and  C9_9 
REMARK    4  A    between atoms: C26_31  and  O5_32 
ROOT
HETATM    1  C3  UNL     1     -22.605   0.382   9.962  1.00  0.00     0.008 C 
HETATM    2  C4  UNL     1     -21.931  -0.967  10.104  1.00  0.00    -0.026 C 
HETATM    3  C5  UNL     1     -21.961  -1.662  11.255  1.00  0.00    -0.028 C 
HETATM    4  C6  UNL     1     -21.327  -3.008  11.470  1.00  0.00     0.059 C 
HETATM    5  C7  UNL     1     -20.484  -3.186  12.764  1.00  0.00     0.135 C 
HETATM    6  O1  UNL     1     -19.212  -2.506  12.713  1.00  0.00    -0.315 OA
HETATM    7  C12 UNL     1     -18.263  -3.074  11.915  1.00  0.00     0.276 C 
HETATM    8  O2  UNL     1     -18.485  -4.012  11.151  1.00  0.00    -0.264 OA
HETATM    9  C13 UNL     1     -16.821  -2.558  12.226  1.00  0.00     0.095 C 
HETATM   10  C14 UNL     1     -15.989  -2.635  10.924  1.00  0.00     0.036 C 
HETATM   11  C15 UNL     1     -16.297  -3.665  13.129  1.00  0.00     0.003 C 
HETATM   12  C16 UNL     1     -15.432  -3.660  14.144  1.00  0.00     0.072 C 
HETATM   13  C17 UNL     1     -14.664  -2.549  14.705  1.00  0.00     0.245 C 
HETATM   14  O3  UNL     1     -13.741  -2.806  15.477  1.00  0.00    -0.268 OA
HETATM   15  N1  UNL     1     -14.972  -1.266  14.435  1.00  0.00    -0.320 N 
HETATM   16  C18 UNL     1     -15.913  -0.613  13.678  1.00  0.00     0.098 C 
HETATM   17  C19 UNL     1     -16.752  -1.123  12.760  1.00  0.00     0.045 C 
HETATM   18  C20 UNL     1     -17.648  -0.157  12.029  1.00  0.00     0.194 C 
HETATM   19  O4  UNL     1     -18.164  -0.481  10.967  1.00  0.00    -0.287 OA
HETATM   20  C21 UNL     1     -17.818   1.224  12.512  1.00  0.00     0.046 A 
HETATM   21  C22 UNL     1     -16.856   1.749  13.356  1.00  0.00     0.032 A 
HETATM   22  C23 UNL     1     -16.852   3.114  13.691  1.00  0.00     0.026 A 
HETATM   23  C24 UNL     1     -17.833   3.981  13.190  1.00  0.00    -0.027 A 
HETATM   24  C25 UNL     1     -17.784   5.437  13.554  1.00  0.00     0.051 C 
HETATM   25  C26 UNL     1     -18.852   3.435  12.404  1.00  0.00     0.086 A 
HETATM   26  C27 UNL     1     -18.847   2.068  12.073  1.00  0.00     0.059 A 
HETATM   27  C28 UNL     1     -20.085   1.516  11.500  1.00  0.00     0.163 C 
HETATM   28  O6  UNL     1     -20.913   1.116  12.313  1.00  0.00    -0.292 OA
HETATM   29  C29 UNL     1     -20.231   1.509   9.990  1.00  0.00     0.084 C 
HETATM   30  C30 UNL     1     -21.670   1.511   9.468  1.00  0.00     0.016 C 
HETATM   31  C31 UNL     1     -15.841   0.869  13.933  1.00  0.00     0.210 C 
HETATM   32  O7  UNL     1     -14.949   1.330  14.641  1.00  0.00    -0.285 OA
HETATM   33  H26 UNL     1     -14.377  -0.638  14.981  1.00  0.00     0.169 HD
ENDROOT
BRANCH   5  34
HETATM   34  C8  UNL     1     -21.232  -2.721  14.030  1.00  0.00     0.037 C 
BRANCH  34  35
HETATM   35  C9  UNL     1     -20.378  -2.423  15.284  1.00  0.00    -0.020 C 
HETATM   36  C10 UNL     1     -19.384  -3.539  15.602  1.00  0.00     0.009 C 
HETATM   37  C11 UNL     1     -19.666  -1.072  15.229  1.00  0.00     0.009 C 
ENDBRANCH  34  35
ENDBRANCH   5  34
BRANCH   1  38
HETATM   38  C2  UNL     1     -23.889   0.287   9.106  1.00  0.00     0.004 C 
HETATM   39  C1  UNL     1     -23.721   0.570   7.618  1.00  0.00     0.006 C 
ENDBRANCH   1  38
BRANCH  25  40
HETATM   40  O5  UNL     1     -19.877   4.212  11.939  1.00  0.00    -0.359 OA
HETATM   41  H31 UNL     1     -19.977   5.001  12.499  1.00  0.00     0.217 HD
ENDBRANCH  25  40
TORSDOF 4
ENDMDL
MODEL 2
REMARK minimizedAffinity -6.20854187
REMARK CNNscore 0.284505546
REMARK CNNaffinity 5.37535667
REMARK  4 active torsions:
REMARK  status: ('A' for Active; 'I' for Inactive)
REMARK    1  A    between atoms: C2_2  and  C3_3 
REMARK    2  A    between atoms: C7_7  and  C8_8 
REMARK    3  A    between atoms: C8_8  and  C9_9 
REMARK    4  A    between atoms: C26_31  and  O5_32 
ROOT
HETATM    1  C3  UNL     1       1.765  17.046  -7.701  1.00  0.00     0.008 C 
HETATM    2  C4  UNL     1       1.530  17.584  -6.305  1.00  0.00    -0.026 C 
HETATM    3  C5  UNL     1       2.480  18.255  -5.629  1.00  0.00    -0.028 C 
HETATM    4  C6  UNL     1       2.318  18.827  -4.248  1.00  0.00     0.059 C 
HETATM    5  C7  UNL     1       3.466  18.548  -3.236  1.00  0.00     0.135 C 
HETATM    6  O1  UNL     1       3.485  17.188  -2.757  1.00  0.00    -0.315 OA
HETATM    7  C12 UNL     1       2.505  16.855  -1.867  1.00  0.00     0.276 C 
HETATM    8  O2  UNL     1       1.558  17.589  -1.589  1.00  0.00    -0.264 OA
HETATM    9  C13 UNL     1       2.821  15.544  -1.079  1.00  0.00     0.095 C 
HETATM   10  C14 UNL     1       1.480  14.870  -0.702  1.00  0.00     0.036 C 
HETATM   11  C15 UNL     1       3.391  16.104   0.216  1.00  0.00     0.003 C 
HETATM   12  C16 UNL     1       4.311  15.643   1.065  1.00  0.00     0.072 C 
HETATM   13  C17 UNL     1       5.062  14.389   1.030  1.00  0.00     0.245 C 
HETATM   14  O3  UNL     1       5.679  14.047   2.038  1.00  0.00    -0.268 OA
HETATM   15  N1  UNL     1       5.131  13.635  -0.083  1.00  0.00    -0.320 N 
HETATM   16  C18 UNL     1       4.624  13.702  -1.358  1.00  0.00     0.098 C 
HETATM   17  C19 UNL     1       3.676  14.525  -1.841  1.00  0.00     0.045 C 
HETATM   18  C20 UNL     1       3.267  14.340  -3.279  1.00  0.00     0.194 C 
HETATM   19  O4  UNL     1       2.200  14.790  -3.677  1.00  0.00    -0.287 OA
HETATM   20  C21 UNL     1       4.077  13.515  -4.192  1.00  0.00     0.046 A 
HETATM   21  C22 UNL     1       4.948  12.590  -3.644  1.00  0.00     0.032 A 
HETATM   22  C23 UNL     1       5.599  11.641  -4.452  1.00  0.00     0.026 A 
HETATM   23  C24 UNL     1       5.394  11.614  -5.838  1.00  0.00    -0.027 A 
HETATM   24  C25 UNL     1       6.091  10.572  -6.665  1.00  0.00     0.051 C 
HETATM   25  C26 UNL     1       4.579  12.601  -6.401  1.00  0.00     0.086 A 
HETATM   26  C27 UNL     1       3.931  13.545  -5.585  1.00  0.00     0.059 A 
HETATM   27  C28 UNL     1       3.337  14.712  -6.258  1.00  0.00     0.163 C 
HETATM   28  O6  UNL     1       4.090  15.666  -6.429  1.00  0.00    -0.292 OA
HETATM   29  C29 UNL     1       1.885  14.625  -6.686  1.00  0.00     0.084 C 
HETATM   30  C30 UNL     1       1.487  15.532  -7.854  1.00  0.00     0.016 C 
HETATM   31  C31 UNL     1       5.220  12.613  -2.208  1.00  0.00     0.210 C 
HETATM   32  O7  UNL     1       5.950  11.764  -1.701  1.00  0.00    -0.285 OA
HETATM   33  H26 UNL     1       5.765  12.846   0.064  1.00  0.00     0.169 HD
ENDROOT
BRANCH   5  34
HETATM   34  C8  UNL     1       4.859  18.879  -3.810  1.00  0.00     0.037 C 
BRANCH  34  35
HETATM   35  C9  UNL     1       5.978  17.836  -3.590  1.00  0.00    -0.020 C 
HETATM   36  C10 UNL     1       6.681  17.439  -4.888  1.00  0.00     0.009 C 
HETATM   37  C11 UNL     1       7.002  18.254  -2.534  1.00  0.00     0.009 C 
ENDBRANCH  34  35
ENDBRANCH   5  34
BRANCH   1  38
HETATM   38  C2  UNL     1       1.010  17.877  -8.764  1.00  0.00     0.004 C 
HETATM   39  C1  UNL     1      -0.366  18.390  -8.355  1.00  0.00     0.006 C 
ENDBRANCH   1  38
BRANCH  25  40
HETATM   40  O5  UNL     1       4.391  12.673  -7.754  1.00  0.00    -0.359 OA
HETATM   41  H31 UNL     1       5.129  12.241  -8.216  1.00  0.00     0.217 HD
ENDBRANCH  25  40
TORSDOF 4
ENDMDL
MODEL 3
REMARK minimizedAffinity -6.20899296
REMARK CNNscore 0.27441299
REMARK CNNaffinity 5.92523241
REMARK  4 active torsions:
REMARK  status: ('A' for Active; 'I' for Inactive)
REMARK    1  A    between atoms: C2_2  and  C3_3 
REMARK    2  A    between atoms: C7_7  and  C8_8 
REMARK    3  A    between atoms: C8_8  and  C9_9 
REMARK    4  A    between atoms: C26_31  and  O5_32 
ROOT
HETATM    1  C3  UNL     1     -13.884 -10.703  25.728  1.00  0.00     0.008 C 
HETATM    2  C4  UNL     1     -13.131 -10.281  26.972  1.00  0.00    -0.026 C 
HETATM    3  C5  UNL     1     -13.624 -10.480  28.207  1.00  0.00    -0.028 C 
HETATM    4  C6  UNL     1     -12.933 -10.100  29.487  1.00  0.00     0.059 C 
HETATM    5  C7  UNL     1     -13.789  -9.356  30.550  1.00  0.00     0.135 C 
HETATM    6  O1  UNL     1     -14.068  -7.984  30.199  1.00  0.00    -0.315 OA
HETATM    7  C12 UNL     1     -13.021  -7.116  30.310  1.00  0.00     0.276 C 
HETATM    8  O2  UNL     1     -11.864  -7.466  30.538  1.00  0.00    -0.264 OA
HETATM    9  C13 UNL     1     -13.474  -5.621  30.335  1.00  0.00     0.095 C 
HETATM   10  C14 UNL     1     -12.335  -4.760  29.738  1.00  0.00     0.036 C 
HETATM   11  C15 UNL     1     -13.481  -5.336  31.829  1.00  0.00     0.003 C 
HETATM   12  C16 UNL     1     -14.226  -4.527  32.585  1.00  0.00     0.072 C 
HETATM   13  C17 UNL     1     -15.287  -3.601  32.189  1.00  0.00     0.245 C 
HETATM   14  O3  UNL     1     -15.675  -2.770  33.009  1.00  0.00    -0.268 OA
HETATM   15  N1  UNL     1     -15.872  -3.670  30.979  1.00  0.00    -0.320 N 
HETATM   16  C18 UNL     1     -15.737  -4.449  29.856  1.00  0.00     0.098 C 
HETATM   17  C19 UNL     1     -14.762  -5.325  29.557  1.00  0.00     0.045 C 
HETATM   18  C20 UNL     1     -14.833  -6.008  28.215  1.00  0.00     0.194 C 
HETATM   19  O4  UNL     1     -13.834  -6.527  27.736  1.00  0.00    -0.287 OA
HETATM   20  C21 UNL     1     -16.064  -5.954  27.409  1.00  0.00     0.046 A 
HETATM   21  C22 UNL     1     -16.981  -4.951  27.672  1.00  0.00     0.032 A 
HETATM   22  C23 UNL     1     -18.072  -4.725  26.817  1.00  0.00     0.026 A 
HETATM   23  C24 UNL     1     -18.272  -5.516  25.678  1.00  0.00    -0.027 A 
HETATM   24  C25 UNL     1     -19.438  -5.230  24.776  1.00  0.00     0.051 C 
HETATM   25  C26 UNL     1     -17.394  -6.582  25.457  1.00  0.00     0.086 A 
HETATM   26  C27 UNL     1     -16.303  -6.801  26.317  1.00  0.00     0.059 A 
HETATM   27  C28 UNL     1     -15.605  -8.091  26.195  1.00  0.00     0.163 C 
HETATM   28  O6  UNL     1     -16.068  -9.009  26.865  1.00  0.00    -0.292 OA
HETATM   29  C29 UNL     1     -14.415  -8.172  25.258  1.00  0.00     0.084 C 
HETATM   30  C30 UNL     1     -14.108  -9.565  24.703  1.00  0.00     0.016 C 
HETATM   31  C31 UNL     1     -16.831  -4.131  28.873  1.00  0.00     0.210 C 
HETATM   32  O7  UNL     1     -17.606  -3.203  29.091  1.00  0.00    -0.285 OA
HETATM   33  H26 UNL     1     -16.642  -2.998  30.921  1.00  0.00     0.169 HD
ENDROOT
BRANCH   5  34
HETATM   34  C8  UNL     1     -15.129 -10.065  30.838  1.00  0.00     0.037 C 
BRANCH  34  35
HETATM   35  C9  UNL     1     -15.129 -11.153  31.936  1.00  0.00    -0.020 C 
HETATM   36  C10 UNL     1     -15.017 -12.567  31.369  1.00  0.00     0.009 C 
HETATM   37  C11 UNL     1     -14.073 -10.926  33.018  1.00  0.00     0.009 C 
ENDBRANCH  34  35
ENDBRANCH   5  34
BRANCH   1  38
HETATM   38  C2  UNL     1     -13.243 -11.946  25.070  1.00  0.00     0.004 C 
HETATM   39  C1  UNL     1     -11.828 -12.286  25.526  1.00  0.00     0.006 C 
ENDBRANCH   1  38
BRANCH  25  40
HETATM   40  O5  UNL     1     -17.570  -7.435  24.403  1.00  0.00    -0.359 OA
HETATM   41  H31 UNL     1     -18.499  -7.420  24.115  1.00  0.00     0.217 HD
ENDBRANCH  25  40
TORSDOF 4
ENDMDL
MODEL 4
REMARK minimizedAffinity -7.10946846
REMARK CNNscore 0.237573922
REMARK CNNaffinity 5.67927694
REMARK  4 active torsions:
REMARK  status: ('A' for Active; 'I' for Inactive)
REMARK    1  A    between atoms: C2_2  and  C3_3 
REMARK    2  A    between atoms: C7_7  and  C8_8 
REMARK    3  A    between atoms: C8_8  and  C9_9 
REMARK    4  A    between atoms: C26_31  and  O5_32 
ROOT
HETATM    1  C3  UNL     1       0.716  10.520  16.587  1.00  0.00     0.008 C 
HETATM    2  C4  UNL     1       1.814  11.426  16.072  1.00  0.00    -0.026 C 
HETATM    3  C5  UNL     1       3.029  10.957  15.736  1.00  0.00    -0.028 C 
HETATM    4  C6  UNL     1       4.163  11.790  15.208  1.00  0.00     0.059 C 
HETATM    5  C7  UNL     1       5.559  11.560  15.853  1.00  0.00     0.135 C 
HETATM    6  O1  UNL     1       5.670  12.109  17.183  1.00  0.00    -0.315 OA
HETATM    7  C12 UNL     1       5.762  13.468  17.262  1.00  0.00     0.276 C 
HETATM    8  O2  UNL     1       5.607  14.220  16.301  1.00  0.00    -0.264 OA
HETATM    9  C13 UNL     1       6.297  13.960  18.645  1.00  0.00     0.095 C 
HETATM   10  C14 UNL     1       5.706  15.363  18.921  1.00  0.00     0.036 C 
HETATM   11  C15 UNL     1       7.771  14.176  18.334  1.00  0.00     0.003 C 
HETATM   12  C16 UNL     1       8.871  14.064  19.080  1.00  0.00     0.072 C 
HETATM   13  C17 UNL     1       9.003  13.715  20.494  1.00  0.00     0.245 C 
HETATM   14  O3  UNL     1      10.085  13.908  21.047  1.00  0.00    -0.268 OA
HETATM   15  N1  UNL     1       7.993  13.150  21.183  1.00  0.00    -0.320 N 
HETATM   16  C18 UNL     1       6.702  12.769  20.911  1.00  0.00     0.098 C 
HETATM   17  C19 UNL     1       5.955  13.049  19.829  1.00  0.00     0.045 C 
HETATM   18  C20 UNL     1       4.534  12.546  19.820  1.00  0.00     0.194 C 
HETATM   19  O4  UNL     1       3.711  13.044  19.063  1.00  0.00    -0.287 OA
HETATM   20  C21 UNL     1       4.086  11.540  20.798  1.00  0.00     0.046 A 
HETATM   21  C22 UNL     1       4.821  11.379  21.960  1.00  0.00     0.032 A 
HETATM   22  C23 UNL     1       4.341  10.585  23.015  1.00  0.00     0.026 A 
HETATM   23  C24 UNL     1       3.111   9.922  22.917  1.00  0.00    -0.027 A 
HETATM   24  C25 UNL     1       2.622   9.100  24.075  1.00  0.00     0.051 C 
HETATM   25  C26 UNL     1       2.408  10.017  21.711  1.00  0.00     0.086 A 
HETATM   26  C27 UNL     1       2.895  10.815  20.660  1.00  0.00     0.059 A 
HETATM   27  C28 UNL     1       2.266  10.637  19.342  1.00  0.00     0.163 C 
HETATM   28  O6  UNL     1       2.751   9.756  18.637  1.00  0.00    -0.292 OA
HETATM   29  C29 UNL     1       1.089  11.526  18.987  1.00  0.00     0.084 C 
HETATM   30  C30 UNL     1       0.121  10.953  17.949  1.00  0.00     0.016 C 
HETATM   31  C31 UNL     1       6.128  12.021  22.084  1.00  0.00     0.210 C 
HETATM   32  O7  UNL     1       6.767  11.930  23.130  1.00  0.00    -0.285 OA
HETATM   33  H26 UNL     1       8.302  12.907  22.127  1.00  0.00     0.169 HD
ENDROOT
BRANCH   5  34
HETATM   34  C8  UNL     1       5.951  10.069  15.910  1.00  0.00     0.037 C 
BRANCH  34  35
HETATM   35  C9  UNL     1       6.161   9.344  14.560  1.00  0.00    -0.020 C 
HETATM   36  C10 UNL     1       7.508   9.672  13.916  1.00  0.00     0.009 C 
HETATM   37  C11 UNL     1       5.963   7.831  14.644  1.00  0.00     0.009 C 
ENDBRANCH  34  35
ENDBRANCH   5  34
BRANCH   1  38
HETATM   38  C2  UNL     1      -0.386  10.302  15.525  1.00  0.00     0.004 C 
HETATM   39  C1  UNL     1      -1.204   9.023  15.665  1.00  0.00     0.006 C 
ENDBRANCH   1  38
BRANCH  25  40
HETATM   40  O5  UNL     1       1.234   9.341  21.523  1.00  0.00    -0.359 OA
HETATM   41  H31 UNL     1       1.189   8.580  22.127  1.00  0.00     0.217 HD
ENDBRANCH  25  40
TORSDOF 4
ENDMDL
MODEL 5
REMARK minimizedAffinity -8.14884186
REMARK CNNscore 0.182510599
REMARK CNNaffinity 4.98021412
REMARK  4 active torsions:
REMARK  status: ('A' for Active; 'I' for Inactive)
REMARK    1  A    between atoms: C2_2  and  C3_3 
REMARK    2  A    between atoms: C7_7  and  C8_8 
REMARK    3  A    between atoms: C8_8  and  C9_9 
REMARK    4  A    between atoms: C26_31  and  O5_32 
ROOT
HETATM    1  C3  UNL     1       7.894  12.727  20.747  1.00  0.00     0.008 C 
HETATM    2  C4  UNL     1       6.508  12.993  21.296  1.00  0.00    -0.026 C 
HETATM    3  C5  UNL     1       5.755  12.019  21.837  1.00  0.00    -0.028 C 
HETATM    4  C6  UNL     1       4.379  12.206  22.411  1.00  0.00     0.059 C 
HETATM    5  C7  UNL     1       3.295  11.177  21.982  1.00  0.00     0.135 C 
HETATM    6  O1  UNL     1       2.841  11.361  20.625  1.00  0.00    -0.315 OA
HETATM    7  C12 UNL     1       2.028  12.435  20.408  1.00  0.00     0.276 C 
HETATM    8  O2  UNL     1       1.802  13.302  21.251  1.00  0.00    -0.264 OA
HETATM    9  C13 UNL     1       1.244  12.340  19.060  1.00  0.00     0.095 C 
HETATM   10  C14 UNL     1       0.974  13.777  18.555  1.00  0.00     0.036 C 
HETATM   11  C15 UNL     1      -0.097  11.799  19.533  1.00  0.00     0.003 C 
HETATM   12  C16 UNL     1      -1.000  11.006  18.953  1.00  0.00     0.072 C 
HETATM   13  C17 UNL     1      -0.994  10.415  17.615  1.00  0.00     0.245 C 
HETATM   14  O3  UNL     1      -2.036   9.918  17.189  1.00  0.00    -0.268 OA
HETATM   15  N1  UNL     1       0.126  10.360  16.869  1.00  0.00    -0.320 N 
HETATM   16  C18 UNL     1       1.431  10.762  17.012  1.00  0.00     0.098 C 
HETATM   17  C19 UNL     1       1.963  11.565  17.951  1.00  0.00     0.045 C 
HETATM   18  C20 UNL     1       3.430  11.890  17.831  1.00  0.00     0.194 C 
HETATM   19  O4  UNL     1       3.892  12.862  18.414  1.00  0.00    -0.287 OA
HETATM   20  C21 UNL     1       4.299  11.125  16.922  1.00  0.00     0.046 A 
HETATM   21  C22 UNL     1       3.709  10.416  15.890  1.00  0.00     0.032 A 
HETATM   22  C23 UNL     1       4.487   9.831  14.876  1.00  0.00     0.026 A 
HETATM   23  C24 UNL     1       5.884   9.938  14.887  1.00  0.00    -0.027 A 
HETATM   24  C25 UNL     1       6.680   9.318  13.775  1.00  0.00     0.051 C 
HETATM   25  C26 UNL     1       6.484  10.583  15.973  1.00  0.00     0.086 A 
HETATM   26  C27 UNL     1       5.698  11.166  16.983  1.00  0.00     0.059 A 
HETATM   27  C28 UNL     1       6.389  11.562  18.221  1.00  0.00     0.163 C 
HETATM   28  O6  UNL     1       6.489  10.687  19.076  1.00  0.00    -0.292 OA
HETATM   29  C29 UNL     1       6.919  12.980  18.319  1.00  0.00     0.084 C 
HETATM   30  C30 UNL     1       8.094  13.178  19.280  1.00  0.00     0.016 C 
HETATM   31  C31 UNL     1       2.257  10.246  15.865  1.00  0.00     0.210 C 
HETATM   32  O7  UNL     1       1.716   9.665  14.927  1.00  0.00    -0.285 OA
HETATM   33  H26 UNL     1      -0.051   9.840  16.006  1.00  0.00     0.169 HD
ENDROOT
BRANCH   5  34
HETATM   34  C8  UNL     1       3.764   9.717  22.143  1.00  0.00     0.037 C 
BRANCH  34  35
HETATM   35  C9  UNL     1       3.042   8.857  23.206  1.00  0.00    -0.020 C 
HETATM   36  C10 UNL     1       2.682   9.650  24.462  1.00  0.00     0.009 C 
HETATM   37  C11 UNL     1       1.814   8.124  22.666  1.00  0.00     0.009 C 
ENDBRANCH  34  35
ENDBRANCH   5  34
BRANCH   1  38
HETATM   38  C2  UNL     1       8.992  13.296  21.675  1.00  0.00     0.004 C 
HETATM   39  C1  UNL     1       9.175  12.580  23.008  1.00  0.00     0.006 C 
ENDBRANCH   1  38
BRANCH  25  40
HETATM   40  O5  UNL     1       7.845  10.664  16.082  1.00  0.00    -0.359 OA
HETATM   41  H31 UNL     1       8.263   9.953  15.566  1.00  0.00     0.217 HD
ENDBRANCH  25  40
TORSDOF 4
ENDMDL
MODEL 6
REMARK minimizedAffinity -6.06424141
REMARK CNNscore 0.171971604
REMARK CNNaffinity 5.12364388
REMARK  4 active torsions:
REMARK  status: ('A' for Active; 'I' for Inactive)
REMARK    1  A    between atoms: C2_2  and  C3_3 
REMARK    2  A    between atoms: C7_7  and  C8_8 
REMARK    3  A    between atoms: C8_8  and  C9_9 
REMARK    4  A    between atoms: C26_31  and  O5_32 
ROOT
HETATM    1  C3  UNL     1       4.611  14.998   0.785  1.00  0.00     0.008 C 
HETATM    2  C4  UNL     1       3.241  14.808   0.167  1.00  0.00    -0.026 C 
HETATM    3  C5  UNL     1       2.491  15.847  -0.240  1.00  0.00    -0.028 C 
HETATM    4  C6  UNL     1       1.131  15.738  -0.870  1.00  0.00     0.059 C 
HETATM    5  C7  UNL     1       0.026  16.684  -0.319  1.00  0.00     0.135 C 
HETATM    6  O1  UNL     1      -0.458  16.296   0.983  1.00  0.00    -0.315 OA
HETATM    7  C12 UNL     1      -1.265  15.196   1.016  1.00  0.00     0.276 C 
HETATM    8  O2  UNL     1      -1.461  14.463   0.047  1.00  0.00    -0.264 OA
HETATM    9  C13 UNL     1      -2.081  15.082   2.343  1.00  0.00     0.095 C 
HETATM   10  C14 UNL     1      -2.349  13.584   2.620  1.00  0.00     0.036 C 
HETATM   11  C15 UNL     1      -3.417  15.679   1.923  1.00  0.00     0.003 C 
HETATM   12  C16 UNL     1      -4.341  16.369   2.592  1.00  0.00     0.072 C 
HETATM   13  C17 UNL     1      -4.373  16.754   4.003  1.00  0.00     0.245 C 
HETATM   14  O3  UNL     1      -5.431  17.173   4.472  1.00  0.00    -0.268 OA
HETATM   15  N1  UNL     1      -3.273  16.703   4.777  1.00  0.00    -0.320 N 
HETATM   16  C18 UNL     1      -1.961  16.336   4.609  1.00  0.00     0.098 C 
HETATM   17  C19 UNL     1      -1.397  15.687   3.574  1.00  0.00     0.045 C 
HETATM   18  C20 UNL     1       0.069  15.358   3.680  1.00  0.00     0.194 C 
HETATM   19  O4  UNL     1       0.556  14.488   2.970  1.00  0.00    -0.287 OA
HETATM   20  C21 UNL     1       0.908  15.984   4.715  1.00  0.00     0.046 A 
HETATM   21  C22 UNL     1       0.287  16.526   5.827  1.00  0.00     0.032 A 
HETATM   22  C23 UNL     1       1.034  16.957   6.936  1.00  0.00     0.026 A 
HETATM   23  C24 UNL     1       2.432  16.863   6.944  1.00  0.00    -0.027 A 
HETATM   24  C25 UNL     1       3.194  17.315   8.156  1.00  0.00     0.051 C 
HETATM   25  C26 UNL     1       3.064  16.393   5.789  1.00  0.00     0.086 A 
HETATM   26  C27 UNL     1       2.309  15.962   4.684  1.00  0.00     0.059 A 
HETATM   27  C28 UNL     1       3.034  15.761   3.419  1.00  0.00     0.163 C 
HETATM   28  O6  UNL     1       3.145  16.755   2.707  1.00  0.00    -0.292 OA
HETATM   29  C29 UNL     1       3.581  14.378   3.122  1.00  0.00     0.084 C 
HETATM   30  C30 UNL     1       4.780  14.334   2.172  1.00  0.00     0.016 C 
HETATM   31  C31 UNL     1      -1.167  16.680   5.840  1.00  0.00     0.210 C 
HETATM   32  O7  UNL     1      -1.736  17.110   6.841  1.00  0.00    -0.285 OA
HETATM   33  H26 UNL     1      -3.475  17.087   5.704  1.00  0.00     0.169 HD
ENDROOT
BRANCH   5  34
HETATM   34  C8  UNL     1       0.484  18.156  -0.248  1.00  0.00     0.037 C 
BRANCH  34  35
HETATM   35  C9  UNL     1      -0.607  19.221   0.009  1.00  0.00    -0.020 C 
HETATM   36  C10 UNL     1      -1.955  18.848  -0.607  1.00  0.00     0.009 C 
HETATM   37  C11 UNL     1      -0.773  19.579   1.485  1.00  0.00     0.009 C 
ENDBRANCH  34  35
ENDBRANCH   5  34
BRANCH   1  38
HETATM   38  C2  UNL     1       5.736  14.582  -0.190  1.00  0.00     0.004 C 
HETATM   39  C1  UNL     1       5.315  13.694  -1.355  1.00  0.00     0.006 C 
ENDBRANCH   1  38
BRANCH  25  40
HETATM   40  O5  UNL     1       4.429  16.338   5.704  1.00  0.00    -0.359 OA
HETATM   41  H31 UNL     1       4.826  16.966   6.331  1.00  0.00     0.217 HD
ENDBRANCH  25  40
TORSDOF 4
ENDMDL
MODEL 7
REMARK minimizedAffinity -6.21247387
REMARK CNNscore 0.160847917
REMARK CNNaffinity 5.33583498
REMARK  4 active torsions:
REMARK  status: ('A' for Active; 'I' for Inactive)
REMARK    1  A    between atoms: C2_2  and  C3_3 
REMARK    2  A    between atoms: C7_7  and  C8_8 
REMARK    3  A    between atoms: C8_8  and  C9_9 
REMARK    4  A    between atoms: C26_31  and  O5_32 
ROOT
HETATM    1  C3  UNL     1       5.700  17.740  27.813  1.00  0.00     0.008 C 
HETATM    2  C4  UNL     1       4.655  17.088  26.932  1.00  0.00    -0.026 C 
HETATM    3  C5  UNL     1       3.436  17.625  26.751  1.00  0.00    -0.028 C 
HETATM    4  C6  UNL     1       2.353  17.044  25.886  1.00  0.00     0.059 C 
HETATM    5  C7  UNL     1       0.928  16.970  26.504  1.00  0.00     0.135 C 
HETATM    6  O1  UNL     1       0.792  15.939  27.504  1.00  0.00    -0.315 OA
HETATM    7  C12 UNL     1       0.749  14.658  27.037  1.00  0.00     0.276 C 
HETATM    8  O2  UNL     1       0.966  14.349  25.866  1.00  0.00    -0.264 OA
HETATM    9  C13 UNL     1       0.186  13.649  28.089  1.00  0.00     0.095 C 
HETATM   10  C14 UNL     1       0.820  12.264  27.819  1.00  0.00     0.036 C 
HETATM   11  C15 UNL     1      -1.267  13.541  27.650  1.00  0.00     0.003 C 
HETATM   12  C16 UNL     1      -2.396  13.326  28.328  1.00  0.00     0.072 C 
HETATM   13  C17 UNL     1      -2.589  13.086  29.758  1.00  0.00     0.245 C 
HETATM   14  O3  UNL     1      -3.682  12.668  30.138  1.00  0.00    -0.268 OA
HETATM   15  N1  UNL     1      -1.626  13.355  30.658  1.00  0.00    -0.320 N 
HETATM   16  C18 UNL     1      -0.342  13.840  30.620  1.00  0.00     0.098 C 
HETATM   17  C19 UNL     1       0.452  14.026  29.550  1.00  0.00     0.045 C 
HETATM   18  C20 UNL     1       1.852  14.522  29.806  1.00  0.00     0.194 C 
HETATM   19  O4  UNL     1       2.719  14.380  28.954  1.00  0.00    -0.287 OA
HETATM   20  C21 UNL     1       2.227  15.070  31.121  1.00  0.00     0.046 A 
HETATM   21  C22 UNL     1       1.448  14.744  32.216  1.00  0.00     0.032 A 
HETATM   22  C23 UNL     1       1.860  15.067  33.521  1.00  0.00     0.026 A 
HETATM   23  C24 UNL     1       3.067  15.741  33.748  1.00  0.00    -0.027 A 
HETATM   24  C25 UNL     1       3.484  16.051  35.157  1.00  0.00     0.051 C 
HETATM   25  C26 UNL     1       3.814  16.144  32.637  1.00  0.00     0.086 A 
HETATM   26  C27 UNL     1       3.395  15.816  31.335  1.00  0.00     0.059 A 
HETATM   27  C28 UNL     1       4.061  16.513  30.224  1.00  0.00     0.163 C 
HETATM   28  O6  UNL     1       3.567  17.589  29.901  1.00  0.00    -0.292 OA
HETATM   29  C29 UNL     1       5.282  15.862  29.603  1.00  0.00     0.084 C 
HETATM   30  C30 UNL     1       6.263  16.818  28.920  1.00  0.00     0.016 C 
HETATM   31  C31 UNL     1       0.162  14.077  32.018  1.00  0.00     0.210 C 
HETATM   32  O7  UNL     1      -0.515  13.734  32.984  1.00  0.00    -0.285 OA
HETATM   33  H26 UNL     1      -1.977  13.200  31.607  1.00  0.00     0.169 HD
ENDROOT
BRANCH   5  34
HETATM   34  C8  UNL     1       0.478  18.310  27.123  1.00  0.00     0.037 C 
BRANCH  34  35
HETATM   35  C9  UNL     1      -0.974  18.763  26.844  1.00  0.00    -0.020 C 
HETATM   36  C10 UNL     1      -1.323  18.749  25.357  1.00  0.00     0.009 C 
HETATM   37  C11 UNL     1      -2.019  17.988  27.646  1.00  0.00     0.009 C 
ENDBRANCH  34  35
ENDBRANCH   5  34
BRANCH   1  38
HETATM   38  C2  UNL     1       6.829  18.383  26.974  1.00  0.00     0.004 C 
HETATM   39  C1  UNL     1       7.964  17.453  26.561  1.00  0.00     0.006 C 
ENDBRANCH   1  38
BRANCH  25  40
HETATM   40  O5  UNL     1       4.967  16.865  32.784  1.00  0.00    -0.359 OA
HETATM   41  H31 UNL     1       4.963  17.327  33.640  1.00  0.00     0.217 HD
ENDBRANCH  25  40
TORSDOF 4
ENDMDL
MODEL 8
REMARK minimizedAffinity -8.11005783
REMARK CNNscore 0.160111785
REMARK CNNaffinity 6.46291018
REMARK  4 active torsions:
REMARK  status: ('A' for Active; 'I' for Inactive)
REMARK    1  A    between atoms: C2_2  and  C3_3 
REMARK    2  A    between atoms: C7_7  and  C8_8 
REMARK    3  A    between atoms: C8_8  and  C9_9 
REMARK    4  A    between atoms: C26_31  and  O5_32 
ROOT
HETATM    1  C3  UNL     1      -2.254   6.969  13.480  1.00  0.00     0.008 C 
HETATM    2  C4  UNL     1      -1.376   7.394  14.638  1.00  0.00    -0.026 C 
HETATM    3  C5  UNL     1      -1.113   8.687  14.899  1.00  0.00    -0.028 C 
HETATM    4  C6  UNL     1      -0.263   9.186  16.033  1.00  0.00     0.059 C 
HETATM    5  C7  UNL     1       0.801  10.266  15.688  1.00  0.00     0.135 C 
HETATM    6  O1  UNL     1       1.934   9.741  14.965  1.00  0.00    -0.315 OA
HETATM    7  C12 UNL     1       2.809   8.989  15.693  1.00  0.00     0.276 C 
HETATM    8  O2  UNL     1       2.602   8.629  16.851  1.00  0.00    -0.264 OA
HETATM    9  C13 UNL     1       4.192   8.815  14.986  1.00  0.00     0.095 C 
HETATM   10  C14 UNL     1       4.798   7.465  15.436  1.00  0.00     0.036 C 
HETATM   11  C15 UNL     1       5.015   9.896  15.671  1.00  0.00     0.003 C 
HETATM   12  C16 UNL     1       6.027  10.656  15.248  1.00  0.00     0.072 C 
HETATM   13  C17 UNL     1       6.707  10.661  13.953  1.00  0.00     0.245 C 
HETATM   14  O3  UNL     1       7.773  11.267  13.855  1.00  0.00    -0.268 OA
HETATM   15  N1  UNL     1       6.175  10.065  12.870  1.00  0.00    -0.320 N 
HETATM   16  C18 UNL     1       5.036   9.348  12.594  1.00  0.00     0.098 C 
HETATM   17  C19 UNL     1       4.139   8.836  13.455  1.00  0.00     0.045 C 
HETATM   18  C20 UNL     1       3.003   8.034  12.873  1.00  0.00     0.194 C 
HETATM   19  O4  UNL     1       2.370   7.262  13.582  1.00  0.00    -0.287 OA
HETATM   20  C21 UNL     1       2.716   8.073  11.429  1.00  0.00     0.046 A 
HETATM   21  C22 UNL     1       3.719   8.488  10.570  1.00  0.00     0.032 A 
HETATM   22  C23 UNL     1       3.579   8.361   9.178  1.00  0.00     0.026 A 
HETATM   23  C24 UNL     1       2.414   7.821   8.617  1.00  0.00    -0.027 A 
HETATM   24  C25 UNL     1       2.310   7.681   7.126  1.00  0.00     0.051 C 
HETATM   25  C26 UNL     1       1.368   7.479   9.480  1.00  0.00     0.086 A 
HETATM   26  C27 UNL     1       1.517   7.608  10.873  1.00  0.00     0.059 A 
HETATM   27  C28 UNL     1       0.295   7.510  11.686  1.00  0.00     0.163 C 
HETATM   28  O6  UNL     1      -0.319   8.560  11.851  1.00  0.00    -0.292 OA
HETATM   29  C29 UNL     1      -0.098   6.146  12.222  1.00  0.00     0.084 C 
HETATM   30  C30 UNL     1      -1.588   5.958  12.516  1.00  0.00     0.016 C 
HETATM   31  C31 UNL     1       4.933   9.095  11.114  1.00  0.00     0.210 C 
HETATM   32  O7  UNL     1       5.854   9.419  10.367  1.00  0.00    -0.285 OA
HETATM   33  H26 UNL     1       6.754  10.246  12.047  1.00  0.00     0.169 HD
ENDROOT
BRANCH   5  34
HETATM   34  C8  UNL     1       0.214  11.443  14.881  1.00  0.00     0.037 C 
BRANCH  34  35
HETATM   35  C9  UNL     1      -0.876  12.296  15.570  1.00  0.00    -0.020 C 
HETATM   36  C10 UNL     1      -0.331  13.606  16.137  1.00  0.00     0.009 C 
HETATM   37  C11 UNL     1      -2.093  12.562  14.685  1.00  0.00     0.009 C 
ENDBRANCH  34  35
ENDBRANCH   5  34
BRANCH   1  38
HETATM   38  C2  UNL     1      -3.634   6.472  13.966  1.00  0.00     0.004 C 
HETATM   39  C1  UNL     1      -4.201   5.259  13.237  1.00  0.00     0.006 C 
ENDBRANCH   1  38
BRANCH  25  40
HETATM   40  O5  UNL     1       0.178   7.010   8.996  1.00  0.00    -0.359 OA
HETATM   41  H31 UNL     1       0.059   7.296   8.074  1.00  0.00     0.217 HD
ENDBRANCH  25  40
TORSDOF 4
ENDMDL
MODEL 9
REMARK minimizedAffinity -6.17611504
REMARK CNNscore 0.159746423
REMARK CNNaffinity 4.51812935
REMARK  4 active torsions:
REMARK  status: ('A' for Active; 'I' for Inactive)
REMARK    1  A    between atoms: C2_2  and  C3_3 
REMARK    2  A    between atoms: C7_7  and  C8_8 
REMARK    3  A    between atoms: C8_8  and  C9_9 
REMARK    4  A    between atoms: C26_31  and  O5_32 
ROOT
HETATM    1  C3  UNL     1       1.842  12.427  15.875  1.00  0.00     0.008 C 
HETATM    2  C4  UNL     1       1.750  12.863  17.322  1.00  0.00    -0.026 C 
HETATM    3  C5  UNL     1       2.279  14.022  17.754  1.00  0.00    -0.028 C 
HETATM    4  C6  UNL     1       2.219  14.527  19.168  1.00  0.00     0.059 C 
HETATM    5  C7  UNL     1       3.546  15.065  19.775  1.00  0.00     0.135 C 
HETATM    6  O1  UNL     1       4.487  14.023  20.102  1.00  0.00    -0.315 OA
HETATM    7  C12 UNL     1       4.189  13.273  21.203  1.00  0.00     0.276 C 
HETATM    8  O2  UNL     1       3.121  13.345  21.809  1.00  0.00    -0.264 OA
HETATM    9  C13 UNL     1       5.417  12.473  21.743  1.00  0.00     0.095 C 
HETATM   10  C14 UNL     1       4.895  11.188  22.428  1.00  0.00     0.036 C 
HETATM   11  C15 UNL     1       5.898  13.384  22.863  1.00  0.00     0.003 C 
HETATM   12  C16 UNL     1       7.109  13.627  23.365  1.00  0.00     0.072 C 
HETATM   13  C17 UNL     1       8.400  13.044  22.999  1.00  0.00     0.245 C 
HETATM   14  O3  UNL     1       9.358  13.224  23.750  1.00  0.00    -0.268 OA
HETATM   15  N1  UNL     1       8.572  12.365  21.849  1.00  0.00    -0.320 N 
HETATM   16  C18 UNL     1       7.781  12.001  20.787  1.00  0.00     0.098 C 
HETATM   17  C19 UNL     1       6.442  12.070  20.676  1.00  0.00     0.045 C 
HETATM   18  C20 UNL     1       5.826  11.541  19.407  1.00  0.00     0.194 C 
HETATM   19  O4  UNL     1       4.638  11.248  19.377  1.00  0.00    -0.287 OA
HETATM   20  C21 UNL     1       6.660  11.255  18.228  1.00  0.00     0.046 A 
HETATM   21  C22 UNL     1       8.018  11.064  18.413  1.00  0.00     0.032 A 
HETATM   22  C23 UNL     1       8.833  10.595  17.369  1.00  0.00     0.026 A 
HETATM   23  C24 UNL     1       8.296  10.319  16.105  1.00  0.00    -0.027 A 
HETATM   24  C25 UNL     1       9.194   9.798  15.020  1.00  0.00     0.051 C 
HETATM   25  C26 UNL     1       6.940  10.589  15.894  1.00  0.00     0.086 A 
HETATM   26  C27 UNL     1       6.131  11.058  16.945  1.00  0.00     0.059 A 
HETATM   27  C28 UNL     1       4.809  11.591  16.582  1.00  0.00     0.163 C 
HETATM   28  O6  UNL     1       4.780  12.783  16.289  1.00  0.00    -0.292 OA
HETATM   29  C29 UNL     1       3.630  10.637  16.585  1.00  0.00     0.084 C 
HETATM   30  C30 UNL     1       2.465  11.026  15.671  1.00  0.00     0.016 C 
HETATM   31  C31 UNL     1       8.624  11.382  19.706  1.00  0.00     0.210 C 
HETATM   32  O7  UNL     1       9.818  11.167  19.900  1.00  0.00    -0.285 OA
HETATM   33  H26 UNL     1       9.555  12.109  21.734  1.00  0.00     0.169 HD
ENDROOT
BRANCH   5  34
HETATM   34  C8  UNL     1       4.250  16.085  18.856  1.00  0.00     0.037 C 
BRANCH  34  35
HETATM   35  C9  UNL     1       4.748  17.395  19.508  1.00  0.00    -0.020 C 
HETATM   36  C10 UNL     1       3.715  18.519  19.443  1.00  0.00     0.009 C 
HETATM   37  C11 UNL     1       5.248  17.211  20.941  1.00  0.00     0.009 C 
ENDBRANCH  34  35
ENDBRANCH   5  34
BRANCH   1  38
HETATM   38  C2  UNL     1       0.479  12.557  15.156  1.00  0.00     0.004 C 
HETATM   39  C1  UNL     1      -0.442  11.346  15.249  1.00  0.00     0.006 C 
ENDBRANCH   1  38
BRANCH  25  40
HETATM   40  O5  UNL     1       6.366  10.406  14.666  1.00  0.00    -0.359 OA
HETATM   41  H31 UNL     1       7.048  10.439  13.972  1.00  0.00     0.217 HD
ENDBRANCH  25  40
TORSDOF 4
ENDMDL
