MODEL 1
REMARK minimizedAffinity -6.17668486
REMARK CNNscore 0.524149954
REMARK CNNaffinity 6.05096006
REMARK  5 active torsions:
REMARK  status: ('A' for Active; 'I' for Inactive)
REMARK    1  A    between atoms: C2_2  and  C3_3 
REMARK    2  A    between atoms: C6_6  and  C7_7 
REMARK    3  A    between atoms: C7_7  and  O1_9 
REMARK    4  A    between atoms: C23_29  and  O6_30 
REMARK    5  A    between atoms: C28_36  and  O8_37 
ROOT
HETATM    1  C3  UNL     1       0.839  14.216   2.950  1.00  0.00     0.008 C 
HETATM    2  C4  UNL     1      -0.189  13.323   2.275  1.00  0.00    -0.023 C 
HETATM    3  C5  UNL     1      -1.334  13.660   1.659  1.00  0.00     0.004 C 
HETATM    4  C6  UNL     1      -2.024  15.005   1.536  1.00  0.00     0.183 C 
HETATM    5  O2  UNL     1      -2.049  15.301   0.123  1.00  0.00    -0.306 OA
HETATM    6  C9  UNL     1      -2.115  16.606  -0.220  1.00  0.00     0.289 C 
HETATM    7  O3  UNL     1      -2.235  17.548   0.551  1.00  0.00    -0.260 OA
HETATM    8  C10 UNL     1      -2.065  16.779  -1.698  1.00  0.00     0.010 C 
HETATM    9  C11 UNL     1      -3.090  17.740  -2.224  1.00  0.00     0.054 C 
HETATM   10  C12 UNL     1      -1.136  16.211  -2.496  1.00  0.00     0.004 C 
HETATM   11  C13 UNL     1      -0.040  15.245  -2.114  1.00  0.00     0.147 C 
HETATM   12  C14 UNL     1       0.183  14.185  -3.211  1.00  0.00     0.233 C 
HETATM   13  O4  UNL     1      -0.650  13.702  -3.962  1.00  0.00    -0.272 OA
HETATM   14  N1  UNL     1       1.516  13.807  -3.145  1.00  0.00    -0.327 N 
HETATM   15  C15 UNL     1       2.190  14.533  -2.206  1.00  0.00     0.056 C 
HETATM   16  C16 UNL     1       3.265  14.113  -1.547  1.00  0.00     0.084 C 
HETATM   17  C17 UNL     1       3.670  14.846  -0.326  1.00  0.00     0.185 C 
HETATM   18  O5  UNL     1       4.698  14.519   0.249  1.00  0.00    -0.287 OA
HETATM   19  C18 UNL     1       2.774  15.917   0.202  1.00  0.00     0.040 C 
HETATM   20  C19 UNL     1       1.748  16.435  -0.612  1.00  0.00    -0.001 C 
HETATM   21  C20 UNL     1       1.075  17.600  -0.194  1.00  0.00     0.021 C 
HETATM   22  C21 UNL     1       1.334  18.201   1.043  1.00  0.00    -0.027 C 
HETATM   23  C22 UNL     1       0.606  19.448   1.449  1.00  0.00     0.051 C 
HETATM   24  C23 UNL     1       2.291  17.621   1.872  1.00  0.00     0.086 C 
HETATM   25  C24 UNL     1       2.974  16.456   1.482  1.00  0.00     0.058 C 
HETATM   26  C25 UNL     1       3.802  15.821   2.524  1.00  0.00     0.163 C 
HETATM   27  O7  UNL     1       4.660  16.531   3.057  1.00  0.00    -0.292 OA
HETATM   28  C26 UNL     1       3.477  14.430   3.063  1.00  0.00     0.084 C 
HETATM   29  C27 UNL     1       2.243  13.667   2.561  1.00  0.00     0.016 C 
HETATM   30  C28 UNL     1       1.406  15.795  -1.933  1.00  0.00     0.143 C 
HETATM   31  H20 UNL     1       1.831  12.953  -3.588  1.00  0.00     0.168 HD
ENDROOT
BRANCH   4  32
HETATM   32  C7  UNL     1      -3.456  14.893   2.148  1.00  0.00     0.147 C 
HETATM   33  C8  UNL     1      -3.882  16.082   2.999  1.00  0.00     0.042 C 
BRANCH  32  34
HETATM   34  O1  UNL     1      -4.440  14.717   1.118  1.00  0.00    -0.393 OA
HETATM   35  H14 UNL     1      -5.300  14.603   1.556  1.00  0.00     0.210 HD
ENDBRANCH  32  34
ENDBRANCH   4  32
BRANCH   1  36
HETATM   36  C2  UNL     1       0.658  14.262   4.479  1.00  0.00     0.004 C 
HETATM   37  C1  UNL     1      -0.467  15.178   4.947  1.00  0.00     0.006 C 
ENDBRANCH   1  36
BRANCH  30  38
HETATM   38  O8  UNL     1       1.725  16.752  -2.951  1.00  0.00    -0.377 OA
HETATM   39  H31 UNL     1       1.890  16.271  -3.783  1.00  0.00     0.211 HD
ENDBRANCH  30  38
BRANCH  24  40
HETATM   40  O6  UNL     1       2.543  18.228   3.079  1.00  0.00    -0.359 OA
HETATM   41  H26 UNL     1       3.449  17.969   3.368  1.00  0.00     0.217 HD
ENDBRANCH  24  40
TORSDOF 5
ENDMDL
MODEL 2
REMARK minimizedAffinity -6.01493788
REMARK CNNscore 0.500997305
REMARK CNNaffinity 6.18841887
REMARK  5 active torsions:
REMARK  status: ('A' for Active; 'I' for Inactive)
REMARK    1  A    between atoms: C2_2  and  C3_3 
REMARK    2  A    between atoms: C6_6  and  C7_7 
REMARK    3  A    between atoms: C7_7  and  O1_9 
REMARK    4  A    between atoms: C23_29  and  O6_30 
REMARK    5  A    between atoms: C28_36  and  O8_37 
ROOT
HETATM    1  C3  UNL     1       0.592  18.228   0.808  1.00  0.00     0.008 C 
HETATM    2  C4  UNL     1       0.866  19.242   1.904  1.00  0.00    -0.023 C 
HETATM    3  C5  UNL     1       0.139  19.532   2.997  1.00  0.00     0.004 C 
HETATM    4  C6  UNL     1      -1.227  19.032   3.427  1.00  0.00     0.183 C 
HETATM    5  O2  UNL     1      -1.011  18.333   4.671  1.00  0.00    -0.306 OA
HETATM    6  C9  UNL     1      -1.910  17.376   4.991  1.00  0.00     0.289 C 
HETATM    7  O3  UNL     1      -2.926  17.105   4.367  1.00  0.00    -0.260 OA
HETATM    8  C10 UNL     1      -1.537  16.686   6.257  1.00  0.00     0.010 C 
HETATM    9  C11 UNL     1      -2.686  16.514   7.206  1.00  0.00     0.054 C 
HETATM   10  C12 UNL     1      -0.314  16.174   6.509  1.00  0.00     0.004 C 
HETATM   11  C13 UNL     1       0.927  16.252   5.652  1.00  0.00     0.147 C 
HETATM   12  C14 UNL     1       2.195  16.416   6.512  1.00  0.00     0.233 C 
HETATM   13  O4  UNL     1       2.304  17.003   7.577  1.00  0.00    -0.272 OA
HETATM   14  N1  UNL     1       3.240  15.832   5.810  1.00  0.00    -0.327 N 
HETATM   15  C15 UNL     1       2.798  15.254   4.656  1.00  0.00     0.056 C 
HETATM   16  C16 UNL     1       3.532  15.082   3.562  1.00  0.00     0.084 C 
HETATM   17  C17 UNL     1       2.836  14.776   2.290  1.00  0.00     0.185 C 
HETATM   18  O5  UNL     1       3.501  14.541   1.292  1.00  0.00    -0.287 OA
HETATM   19  C18 UNL     1       1.345  14.832   2.254  1.00  0.00     0.040 C 
HETATM   20  C19 UNL     1       0.616  14.850   3.459  1.00  0.00    -0.001 C 
HETATM   21  C20 UNL     1      -0.779  14.658   3.410  1.00  0.00     0.021 C 
HETATM   22  C21 UNL     1      -1.468  14.542   2.198  1.00  0.00    -0.027 C 
HETATM   23  C22 UNL     1      -2.952  14.325   2.185  1.00  0.00     0.051 C 
HETATM   24  C23 UNL     1      -0.738  14.614   1.014  1.00  0.00     0.086 C 
HETATM   25  C24 UNL     1       0.653  14.810   1.034  1.00  0.00     0.058 C 
HETATM   26  C25 UNL     1       1.280  15.082  -0.274  1.00  0.00     0.163 C 
HETATM   27  O7  UNL     1       1.087  14.246  -1.162  1.00  0.00    -0.292 OA
HETATM   28  C26 UNL     1       1.950  16.420  -0.574  1.00  0.00     0.084 C 
HETATM   29  C27 UNL     1       1.950  17.545   0.471  1.00  0.00     0.016 C 
HETATM   30  C28 UNL     1       1.312  15.016   4.786  1.00  0.00     0.143 C 
HETATM   31  H20 UNL     1       4.202  16.038   6.052  1.00  0.00     0.168 HD
ENDROOT
BRANCH   4  32
HETATM   32  C7  UNL     1      -2.183  20.257   3.588  1.00  0.00     0.147 C 
HETATM   33  C8  UNL     1      -2.716  20.828   2.281  1.00  0.00     0.042 C 
BRANCH  32  34
HETATM   34  O1  UNL     1      -3.309  19.921   4.411  1.00  0.00    -0.393 OA
HETATM   35  H14 UNL     1      -3.839  20.728   4.519  1.00  0.00     0.210 HD
ENDBRANCH  32  34
ENDBRANCH   4  32
BRANCH   1  36
HETATM   36  C2  UNL     1      -0.036  18.873  -0.441  1.00  0.00     0.004 C 
HETATM   37  C1  UNL     1      -1.330  18.212  -0.901  1.00  0.00     0.006 C 
ENDBRANCH   1  36
BRANCH  30  38
HETATM   38  O8  UNL     1       1.113  13.796   5.513  1.00  0.00    -0.377 OA
HETATM   39  H31 UNL     1       1.833  13.707   6.164  1.00  0.00     0.211 HD
ENDBRANCH  30  38
BRANCH  24  40
HETATM   40  O6  UNL     1      -1.426  14.487  -0.169  1.00  0.00    -0.359 OA
HETATM   41  H26 UNL     1      -0.793  14.181  -0.859  1.00  0.00     0.217 HD
ENDBRANCH  24  40
TORSDOF 5
ENDMDL
MODEL 3
REMARK minimizedAffinity -6.9075613
REMARK CNNscore 0.442019105
REMARK CNNaffinity 5.74905443
REMARK  5 active torsions:
REMARK  status: ('A' for Active; 'I' for Inactive)
REMARK    1  A    between atoms: C2_2  and  C3_3 
REMARK    2  A    between atoms: C6_6  and  C7_7 
REMARK    3  A    between atoms: C7_7  and  O1_9 
REMARK    4  A    between atoms: C23_29  and  O6_30 
REMARK    5  A    between atoms: C28_36  and  O8_37 
ROOT
HETATM    1  C3  UNL     1      16.538  -5.629   3.528  1.00  0.00     0.008 C 
HETATM    2  C4  UNL     1      16.107  -4.198   3.804  1.00  0.00    -0.023 C 
HETATM    3  C5  UNL     1      14.983  -3.745   4.384  1.00  0.00     0.004 C 
HETATM    4  C6  UNL     1      13.746  -4.492   4.843  1.00  0.00     0.183 C 
HETATM    5  O2  UNL     1      13.677  -4.288   6.271  1.00  0.00    -0.306 OA
HETATM    6  C9  UNL     1      13.019  -5.229   6.985  1.00  0.00     0.289 C 
HETATM    7  O3  UNL     1      12.415  -6.189   6.527  1.00  0.00    -0.260 OA
HETATM    8  C10 UNL     1      13.079  -4.939   8.444  1.00  0.00     0.010 C 
HETATM    9  C11 UNL     1      11.757  -5.085   9.139  1.00  0.00     0.054 C 
HETATM   10  C12 UNL     1      14.217  -4.662   9.115  1.00  0.00     0.004 C 
HETATM   11  C13 UNL     1      15.613  -4.499   8.563  1.00  0.00     0.147 C 
HETATM   12  C14 UNL     1      16.386  -3.391   9.304  1.00  0.00     0.233 C 
HETATM   13  O4  UNL     1      15.936  -2.367   9.794  1.00  0.00    -0.272 OA
HETATM   14  N1  UNL     1      17.730  -3.728   9.250  1.00  0.00    -0.327 N 
HETATM   15  C15 UNL     1      17.913  -4.936   8.641  1.00  0.00     0.056 C 
HETATM   16  C16 UNL     1      19.012  -5.300   7.988  1.00  0.00     0.084 C 
HETATM   17  C17 UNL     1      18.937  -6.474   7.088  1.00  0.00     0.185 C 
HETATM   18  O5  UNL     1      19.956  -6.866   6.540  1.00  0.00    -0.287 OA
HETATM   19  C18 UNL     1      17.606  -7.098   6.828  1.00  0.00     0.040 C 
HETATM   20  C19 UNL     1      16.515  -6.790   7.662  1.00  0.00    -0.001 C 
HETATM   21  C20 UNL     1      15.341  -7.563   7.555  1.00  0.00     0.021 C 
HETATM   22  C21 UNL     1      15.200  -8.563   6.587  1.00  0.00    -0.027 C 
HETATM   23  C22 UNL     1      13.941  -9.376   6.512  1.00  0.00     0.051 C 
HETATM   24  C23 UNL     1      16.260  -8.793   5.714  1.00  0.00     0.086 C 
HETATM   25  C24 UNL     1      17.440  -8.033   5.796  1.00  0.00     0.058 C 
HETATM   26  C25 UNL     1      18.400  -8.221   4.691  1.00  0.00     0.163 C 
HETATM   27  O7  UNL     1      18.778  -9.377   4.480  1.00  0.00    -0.292 OA
HETATM   28  C26 UNL     1      18.741  -7.086   3.729  1.00  0.00     0.084 C 
HETATM   29  C27 UNL     1      18.056  -5.718   3.861  1.00  0.00     0.016 C 
HETATM   30  C28 UNL     1      16.607  -5.692   8.691  1.00  0.00     0.143 C 
HETATM   31  H20 UNL     1      18.443  -3.034   9.442  1.00  0.00     0.168 HD
ENDROOT
BRANCH   4  32
HETATM   32  C7  UNL     1      12.503  -3.913   4.096  1.00  0.00     0.147 C 
HETATM   33  C8  UNL     1      12.445  -2.392   4.035  1.00  0.00     0.042 C 
BRANCH  32  34
HETATM   34  O1  UNL     1      12.438  -4.409   2.751  1.00  0.00    -0.393 OA
HETATM   35  H14 UNL     1      11.623  -4.059   2.353  1.00  0.00     0.210 HD
ENDBRANCH  32  34
ENDBRANCH   4  32
BRANCH   1  36
HETATM   36  C2  UNL     1      16.256  -6.054   2.075  1.00  0.00     0.004 C 
HETATM   37  C1  UNL     1      16.288  -4.906   1.072  1.00  0.00     0.006 C 
ENDBRANCH   1  36
BRANCH  30  38
HETATM   38  O8  UNL     1      16.497  -6.318   9.976  1.00  0.00    -0.377 OA
HETATM   39  H31 UNL     1      16.926  -5.742  10.635  1.00  0.00     0.211 HD
ENDBRANCH  30  38
BRANCH  24  40
HETATM   40  O6  UNL     1      16.112  -9.786   4.776  1.00  0.00    -0.359 OA
HETATM   41  H26 UNL     1      17.010 -10.089   4.507  1.00  0.00     0.217 HD
ENDBRANCH  24  40
TORSDOF 5
ENDMDL
MODEL 4
REMARK minimizedAffinity -5.7651906
REMARK CNNscore 0.360315502
REMARK CNNaffinity 5.63145828
REMARK  5 active torsions:
REMARK  status: ('A' for Active; 'I' for Inactive)
REMARK    1  A    between atoms: C2_2  and  C3_3 
REMARK    2  A    between atoms: C6_6  and  C7_7 
REMARK    3  A    between atoms: C7_7  and  O1_9 
REMARK    4  A    between atoms: C23_29  and  O6_30 
REMARK    5  A    between atoms: C28_36  and  O8_37 
ROOT
HETATM    1  C3  UNL     1     -13.084  -6.904  30.746  1.00  0.00     0.008 C 
HETATM    2  C4  UNL     1     -12.628  -7.720  29.548  1.00  0.00    -0.023 C 
HETATM    3  C5  UNL     1     -13.120  -8.874  29.068  1.00  0.00     0.004 C 
HETATM    4  C6  UNL     1     -14.199  -9.786  29.620  1.00  0.00     0.183 C 
HETATM    5  O2  UNL     1     -15.248  -9.792  28.627  1.00  0.00    -0.306 OA
HETATM    6  C9  UNL     1     -16.494 -10.073  29.067  1.00  0.00     0.289 C 
HETATM    7  O3  UNL     1     -16.800 -10.398  30.206  1.00  0.00    -0.260 OA
HETATM    8  C10 UNL     1     -17.490  -9.979  27.964  1.00  0.00     0.010 C 
HETATM    9  C11 UNL     1     -18.449 -11.132  27.923  1.00  0.00     0.054 C 
HETATM   10  C12 UNL     1     -17.598  -8.924  27.129  1.00  0.00     0.004 C 
HETATM   11  C13 UNL     1     -16.725  -7.694  27.058  1.00  0.00     0.147 C 
HETATM   12  C14 UNL     1     -16.524  -7.230  25.603  1.00  0.00     0.233 C 
HETATM   13  O4  UNL     1     -16.467  -7.923  24.599  1.00  0.00    -0.272 OA
HETATM   14  N1  UNL     1     -16.337  -5.855  25.638  1.00  0.00    -0.327 N 
HETATM   15  C15 UNL     1     -16.464  -5.371  26.907  1.00  0.00     0.056 C 
HETATM   16  C16 UNL     1     -15.872  -4.273  27.365  1.00  0.00     0.084 C 
HETATM   17  C17 UNL     1     -15.811  -4.069  28.831  1.00  0.00     0.185 C 
HETATM   18  O5  UNL     1     -15.337  -3.029  29.265  1.00  0.00    -0.287 OA
HETATM   19  C18 UNL     1     -16.269  -5.167  29.731  1.00  0.00     0.040 C 
HETATM   20  C19 UNL     1     -17.035  -6.226  29.208  1.00  0.00    -0.001 C 
HETATM   21  C20 UNL     1     -17.660  -7.117  30.103  1.00  0.00     0.021 C 
HETATM   22  C21 UNL     1     -17.466  -7.034  31.486  1.00  0.00    -0.027 C 
HETATM   23  C22 UNL     1     -18.157  -7.992  32.411  1.00  0.00     0.051 C 
HETATM   24  C23 UNL     1     -16.632  -6.031  31.977  1.00  0.00     0.086 C 
HETATM   25  C24 UNL     1     -15.994  -5.133  31.106  1.00  0.00     0.058 C 
HETATM   26  C25 UNL     1     -14.977  -4.258  31.722  1.00  0.00     0.163 C 
HETATM   27  O7  UNL     1     -15.348  -3.569  32.677  1.00  0.00    -0.292 OA
HETATM   28  C26 UNL     1     -13.503  -4.356  31.338  1.00  0.00     0.084 C 
HETATM   29  C27 UNL     1     -13.029  -5.407  30.324  1.00  0.00     0.016 C 
HETATM   30  C28 UNL     1     -17.237  -6.381  27.722  1.00  0.00     0.143 C 
HETATM   31  H20 UNL     1     -15.937  -5.370  24.843  1.00  0.00     0.168 HD
ENDROOT
BRANCH   4  32
HETATM   32  C7  UNL     1     -13.588 -11.205  29.851  1.00  0.00     0.147 C 
HETATM   33  C8  UNL     1     -12.765 -11.743  28.689  1.00  0.00     0.042 C 
BRANCH  32  34
HETATM   34  O1  UNL     1     -12.756 -11.218  31.020  1.00  0.00    -0.393 OA
HETATM   35  H14 UNL     1     -12.446 -12.131  31.144  1.00  0.00     0.210 HD
ENDBRANCH  32  34
ENDBRANCH   4  32
BRANCH   1  36
HETATM   36  C2  UNL     1     -12.221  -7.168  31.994  1.00  0.00     0.004 C 
HETATM   37  C1  UNL     1     -12.891  -8.052  33.040  1.00  0.00     0.006 C 
ENDBRANCH   1  36
BRANCH  30  38
HETATM   38  O8  UNL     1     -18.635  -6.187  27.471  1.00  0.00    -0.377 OA
HETATM   39  H31 UNL     1     -18.743  -5.897  26.547  1.00  0.00     0.211 HD
ENDBRANCH  30  38
BRANCH  24  40
HETATM   40  O6  UNL     1     -16.460  -5.954  33.339  1.00  0.00    -0.359 OA
HETATM   41  H26 UNL     1     -16.191  -5.032  33.560  1.00  0.00     0.217 HD
ENDBRANCH  24  40
TORSDOF 5
ENDMDL
MODEL 5
REMARK minimizedAffinity -5.81566
REMARK CNNscore 0.334883124
REMARK CNNaffinity 5.65292883
REMARK  5 active torsions:
REMARK  status: ('A' for Active; 'I' for Inactive)
REMARK    1  A    between atoms: C2_2  and  C3_3 
REMARK    2  A    between atoms: C6_6  and  C7_7 
REMARK    3  A    between atoms: C7_7  and  O1_9 
REMARK    4  A    between atoms: C23_29  and  O6_30 
REMARK    5  A    between atoms: C28_36  and  O8_37 
ROOT
HETATM    1  C3  UNL     1       8.011  13.806  13.032  1.00  0.00     0.008 C 
HETATM    2  C4  UNL     1       8.478  14.540  14.277  1.00  0.00    -0.023 C 
HETATM    3  C5  UNL     1       7.815  14.782  15.421  1.00  0.00     0.004 C 
HETATM    4  C6  UNL     1       6.371  14.508  15.795  1.00  0.00     0.183 C 
HETATM    5  O2  UNL     1       6.425  13.577  16.897  1.00  0.00    -0.306 OA
HETATM    6  C9  UNL     1       5.344  12.786  17.073  1.00  0.00     0.289 C 
HETATM    7  O3  UNL     1       4.300  12.841  16.438  1.00  0.00    -0.260 OA
HETATM    8  C10 UNL     1       5.553  11.828  18.194  1.00  0.00     0.010 C 
HETATM    9  C11 UNL     1       4.383  11.736  19.129  1.00  0.00     0.054 C 
HETATM   10  C12 UNL     1       6.641  11.039  18.324  1.00  0.00     0.004 C 
HETATM   11  C13 UNL     1       7.880  11.005  17.461  1.00  0.00     0.147 C 
HETATM   12  C14 UNL     1       9.145  10.755  18.304  1.00  0.00     0.233 C 
HETATM   13  O4  UNL     1       9.362  11.115  19.450  1.00  0.00    -0.272 OA
HETATM   14  N1  UNL     1      10.053  10.097  17.486  1.00  0.00    -0.327 N 
HETATM   15  C15 UNL     1       9.512   9.829  16.263  1.00  0.00     0.056 C 
HETATM   16  C16 UNL     1      10.206   9.699  15.137  1.00  0.00     0.084 C 
HETATM   17  C17 UNL     1       9.475   9.765  13.850  1.00  0.00     0.185 C 
HETATM   18  O5  UNL     1      10.087   9.572  12.810  1.00  0.00    -0.287 OA
HETATM   19  C18 UNL     1       8.028  10.132  13.863  1.00  0.00     0.040 C 
HETATM   20  C19 UNL     1       7.307  10.094  15.071  1.00  0.00    -0.001 C 
HETATM   21  C20 UNL     1       5.903  10.204  15.026  1.00  0.00     0.021 C 
HETATM   22  C21 UNL     1       5.217  10.442  13.830  1.00  0.00    -0.027 C 
HETATM   23  C22 UNL     1       3.720  10.541  13.818  1.00  0.00     0.051 C 
HETATM   24  C23 UNL     1       5.958  10.564  12.657  1.00  0.00     0.086 C 
HETATM   25  C24 UNL     1       7.360  10.462  12.674  1.00  0.00     0.058 C 
HETATM   26  C25 UNL     1       8.043  10.819  11.416  1.00  0.00     0.163 C 
HETATM   27  O7  UNL     1       7.690  10.205  10.404  1.00  0.00    -0.292 OA
HETATM   28  C26 UNL     1       8.978  12.022  11.329  1.00  0.00     0.084 C 
HETATM   29  C27 UNL     1       9.201  12.926  12.549  1.00  0.00     0.016 C 
HETATM   30  C28 UNL     1       8.008   9.883  16.389  1.00  0.00     0.143 C 
HETATM   31  H20 UNL     1      11.034  10.056  17.736  1.00  0.00     0.168 HD
ENDROOT
BRANCH   4  32
HETATM   32  C7  UNL     1       5.689  15.858  16.186  1.00  0.00     0.147 C 
HETATM   33  C8  UNL     1       4.378  16.144  15.465  1.00  0.00     0.042 C 
BRANCH  32  34
HETATM   34  O1  UNL     1       5.433  15.910  17.597  1.00  0.00    -0.393 OA
HETATM   35  H14 UNL     1       5.058  16.786  17.790  1.00  0.00     0.210 HD
ENDBRANCH  32  34
ENDBRANCH   4  32
BRANCH   1  36
HETATM   36  C2  UNL     1       7.543  14.772  11.927  1.00  0.00     0.004 C 
HETATM   37  C1  UNL     1       6.049  14.705  11.632  1.00  0.00     0.006 C 
ENDBRANCH   1  36
BRANCH  30  38
HETATM   38  O8  UNL     1       7.553   8.624  16.903  1.00  0.00    -0.377 OA
HETATM   39  H31 UNL     1       8.233   8.279  17.511  1.00  0.00     0.211 HD
ENDBRANCH  30  38
BRANCH  24  40
HETATM   40  O6  UNL     1       5.271  10.785  11.487  1.00  0.00    -0.359 OA
HETATM   41  H26 UNL     1       5.834  10.478  10.739  1.00  0.00     0.217 HD
ENDBRANCH  24  40
TORSDOF 5
ENDMDL
MODEL 6
REMARK minimizedAffinity -6.53255606
REMARK CNNscore 0.325971305
REMARK CNNaffinity 5.39399385
REMARK  5 active torsions:
REMARK  status: ('A' for Active; 'I' for Inactive)
REMARK    1  A    between atoms: C2_2  and  C3_3 
REMARK    2  A    between atoms: C6_6  and  C7_7 
REMARK    3  A    between atoms: C7_7  and  O1_9 
REMARK    4  A    between atoms: C23_29  and  O6_30 
REMARK    5  A    between atoms: C28_36  and  O8_37 
ROOT
HETATM    1  C3  UNL     1      17.095  -3.342   3.288  1.00  0.00     0.008 C 
HETATM    2  C4  UNL     1      16.643  -2.539   4.495  1.00  0.00    -0.023 C 
HETATM    3  C5  UNL     1      15.404  -2.361   4.984  1.00  0.00     0.004 C 
HETATM    4  C6  UNL     1      14.061  -2.801   4.435  1.00  0.00     0.183 C 
HETATM    5  O2  UNL     1      13.514  -3.702   5.422  1.00  0.00    -0.306 OA
HETATM    6  C9  UNL     1      12.622  -4.615   4.979  1.00  0.00     0.289 C 
HETATM    7  O3  UNL     1      12.179  -4.695   3.841  1.00  0.00    -0.260 OA
HETATM    8  C10 UNL     1      12.189  -5.524   6.076  1.00  0.00     0.010 C 
HETATM    9  C11 UNL     1      10.705  -5.741   6.122  1.00  0.00     0.054 C 
HETATM   10  C12 UNL     1      13.037  -6.174   6.900  1.00  0.00     0.004 C 
HETATM   11  C13 UNL     1      14.542  -6.072   6.963  1.00  0.00     0.147 C 
HETATM   12  C14 UNL     1      15.051  -6.155   8.416  1.00  0.00     0.233 C 
HETATM   13  O4  UNL     1      14.495  -5.754   9.426  1.00  0.00    -0.272 OA
HETATM   14  N1  UNL     1      16.321  -6.712   8.369  1.00  0.00    -0.327 N 
HETATM   15  C15 UNL     1      16.661  -7.061   7.095  1.00  0.00     0.056 C 
HETATM   16  C16 UNL     1      17.904  -7.124   6.629  1.00  0.00     0.084 C 
HETATM   17  C17 UNL     1      18.102  -7.165   5.162  1.00  0.00     0.185 C 
HETATM   18  O5  UNL     1      19.235  -7.299   4.720  1.00  0.00    -0.287 OA
HETATM   19  C18 UNL     1      16.921  -6.975   4.270  1.00  0.00     0.040 C 
HETATM   20  C19 UNL     1      15.621  -7.081   4.799  1.00  0.00    -0.001 C 
HETATM   21  C20 UNL     1      14.530  -7.141   3.908  1.00  0.00     0.021 C 
HETATM   22  C21 UNL     1      14.695  -7.006   2.526  1.00  0.00    -0.027 C 
HETATM   23  C22 UNL     1      13.512  -7.087   1.607  1.00  0.00     0.051 C 
HETATM   24  C23 UNL     1      15.982  -6.813   2.030  1.00  0.00     0.086 C 
HETATM   25  C24 UNL     1      17.087  -6.745   2.896  1.00  0.00     0.058 C 
HETATM   26  C25 UNL     1      18.360  -6.328   2.277  1.00  0.00     0.163 C 
HETATM   27  O7  UNL     1      18.750  -6.994   1.313  1.00  0.00    -0.292 OA
HETATM   28  C26 UNL     1      19.047  -5.023   2.669  1.00  0.00     0.084 C 
HETATM   29  C27 UNL     1      18.404  -4.080   3.696  1.00  0.00     0.016 C 
HETATM   30  C28 UNL     1      15.392  -7.186   6.285  1.00  0.00     0.143 C 
HETATM   31  H20 UNL     1      16.948  -6.631   9.161  1.00  0.00     0.168 HD
ENDROOT
BRANCH   4  32
HETATM   32  C7  UNL     1      13.168  -1.538   4.221  1.00  0.00     0.147 C 
HETATM   33  C8  UNL     1      13.665  -0.578   3.147  1.00  0.00     0.042 C 
BRANCH  32  34
HETATM   34  O1  UNL     1      11.824  -1.914   3.884  1.00  0.00    -0.393 OA
HETATM   35  H14 UNL     1      11.304  -1.095   3.813  1.00  0.00     0.210 HD
ENDBRANCH  32  34
ENDBRANCH   4  32
BRANCH   1  36
HETATM   36  C2  UNL     1      17.313  -2.457   2.046  1.00  0.00     0.004 C 
HETATM   37  C1  UNL     1      16.154  -2.473   1.057  1.00  0.00     0.006 C 
ENDBRANCH   1  36
BRANCH  30  38
HETATM   38  O8  UNL     1      14.829  -8.483   6.526  1.00  0.00    -0.377 OA
HETATM   39  H31 UNL     1      15.026  -8.735   7.447  1.00  0.00     0.211 HD
ENDBRANCH  30  38
BRANCH  24  40
HETATM   40  O6  UNL     1      16.132  -6.694   0.668  1.00  0.00    -0.359 OA
HETATM   41  H26 UNL     1      17.057  -6.942   0.440  1.00  0.00     0.217 HD
ENDBRANCH  24  40
TORSDOF 5
ENDMDL
MODEL 7
REMARK minimizedAffinity -5.70498466
REMARK CNNscore 0.319189161
REMARK CNNaffinity 5.69472933
REMARK  5 active torsions:
REMARK  status: ('A' for Active; 'I' for Inactive)
REMARK    1  A    between atoms: C2_2  and  C3_3 
REMARK    2  A    between atoms: C6_6  and  C7_7 
REMARK    3  A    between atoms: C7_7  and  O1_9 
REMARK    4  A    between atoms: C23_29  and  O6_30 
REMARK    5  A    between atoms: C28_36  and  O8_37 
ROOT
HETATM    1  C3  UNL     1       1.863  18.888   1.704  1.00  0.00     0.008 C 
HETATM    2  C4  UNL     1       0.346  18.930   1.624  1.00  0.00    -0.023 C 
HETATM    3  C5  UNL     1      -0.517  17.948   1.315  1.00  0.00     0.004 C 
HETATM    4  C6  UNL     1      -0.262  16.531   0.841  1.00  0.00     0.183 C 
HETATM    5  O2  UNL     1      -0.812  15.674   1.866  1.00  0.00    -0.306 OA
HETATM    6  C9  UNL     1      -0.281  14.436   1.967  1.00  0.00     0.289 C 
HETATM    7  O3  UNL     1       0.561  13.950   1.224  1.00  0.00    -0.260 OA
HETATM    8  C10 UNL     1      -0.884  13.681   3.100  1.00  0.00     0.010 C 
HETATM    9  C11 UNL     1      -1.269  12.274   2.746  1.00  0.00     0.054 C 
HETATM   10  C12 UNL     1      -0.997  14.163   4.356  1.00  0.00     0.004 C 
HETATM   11  C13 UNL     1      -0.641  15.539   4.866  1.00  0.00     0.147 C 
HETATM   12  C14 UNL     1      -1.645  16.021   5.931  1.00  0.00     0.233 C 
HETATM   13  O4  UNL     1      -2.839  15.772   5.999  1.00  0.00    -0.272 OA
HETATM   14  N1  UNL     1      -0.956  16.874   6.781  1.00  0.00    -0.327 N 
HETATM   15  C15 UNL     1       0.365  16.944   6.447  1.00  0.00     0.056 C 
HETATM   16  C16 UNL     1       1.156  17.985   6.685  1.00  0.00     0.084 C 
HETATM   17  C17 UNL     1       2.446  18.065   5.962  1.00  0.00     0.185 C 
HETATM   18  O5  UNL     1       3.217  18.977   6.226  1.00  0.00    -0.287 OA
HETATM   19  C18 UNL     1       2.733  17.070   4.887  1.00  0.00     0.040 C 
HETATM   20  C19 UNL     1       1.953  15.902   4.790  1.00  0.00    -0.001 C 
HETATM   21  C20 UNL     1       2.385  14.869   3.934  1.00  0.00     0.021 C 
HETATM   22  C21 UNL     1       3.511  15.008   3.116  1.00  0.00    -0.027 C 
HETATM   23  C22 UNL     1       3.949  13.882   2.227  1.00  0.00     0.051 C 
HETATM   24  C23 UNL     1       4.219  16.207   3.163  1.00  0.00     0.086 C 
HETATM   25  C24 UNL     1       3.807  17.255   4.004  1.00  0.00     0.058 C 
HETATM   26  C25 UNL     1       4.504  18.541   3.811  1.00  0.00     0.163 C 
HETATM   27  O7  UNL     1       5.735  18.521   3.905  1.00  0.00    -0.292 OA
HETATM   28  C26 UNL     1       3.766  19.782   3.315  1.00  0.00     0.084 C 
HETATM   29  C27 UNL     1       2.275  19.712   2.959  1.00  0.00     0.016 C 
HETATM   30  C28 UNL     1       0.708  15.727   5.620  1.00  0.00     0.143 C 
HETATM   31  H20 UNL     1      -1.458  17.504   7.396  1.00  0.00     0.168 HD
ENDROOT
BRANCH   4  32
HETATM   32  C7  UNL     1      -0.959  16.330  -0.542  1.00  0.00     0.147 C 
HETATM   33  C8  UNL     1      -0.345  17.124  -1.688  1.00  0.00     0.042 C 
BRANCH  32  34
HETATM   34  O1  UNL     1      -0.957  14.945  -0.918  1.00  0.00    -0.393 OA
HETATM   35  H14 UNL     1      -1.444  14.872  -1.756  1.00  0.00     0.210 HD
ENDBRANCH  32  34
ENDBRANCH   4  32
BRANCH   1  36
HETATM   36  C2  UNL     1       2.530  19.435   0.429  1.00  0.00     0.004 C 
HETATM   37  C1  UNL     1       3.556  18.493  -0.191  1.00  0.00     0.006 C 
ENDBRANCH   1  36
BRANCH  30  38
HETATM   38  O8  UNL     1       0.956  14.632   6.512  1.00  0.00    -0.377 OA
HETATM   39  H31 UNL     1       0.377  14.733   7.289  1.00  0.00     0.211 HD
ENDBRANCH  30  38
BRANCH  24  40
HETATM   40  O6  UNL     1       5.330  16.325   2.363  1.00  0.00    -0.359 OA
HETATM   41  H26 UNL     1       5.918  17.011   2.756  1.00  0.00     0.217 HD
ENDBRANCH  24  40
TORSDOF 5
ENDMDL
MODEL 8
REMARK minimizedAffinity -5.87563562
REMARK CNNscore 0.29497084
REMARK CNNaffinity 5.52240229
REMARK  5 active torsions:
REMARK  status: ('A' for Active; 'I' for Inactive)
REMARK    1  A    between atoms: C2_2  and  C3_3 
REMARK    2  A    between atoms: C6_6  and  C7_7 
REMARK    3  A    between atoms: C7_7  and  O1_9 
REMARK    4  A    between atoms: C23_29  and  O6_30 
REMARK    5  A    between atoms: C28_36  and  O8_37 
ROOT
HETATM    1  C3  UNL     1      -0.867  18.002   1.367  1.00  0.00     0.008 C 
HETATM    2  C4  UNL     1       0.457  18.685   1.661  1.00  0.00    -0.023 C 
HETATM    3  C5  UNL     1       0.816  19.425   2.724  1.00  0.00     0.004 C 
HETATM    4  C6  UNL     1      -0.004  19.909   3.904  1.00  0.00     0.183 C 
HETATM    5  O2  UNL     1       0.592  19.297   5.068  1.00  0.00    -0.306 OA
HETATM    6  C9  UNL     1      -0.212  19.128   6.141  1.00  0.00     0.289 C 
HETATM    7  O3  UNL     1      -1.368  19.514   6.242  1.00  0.00    -0.260 OA
HETATM    8  C10 UNL     1       0.502  18.428   7.245  1.00  0.00     0.010 C 
HETATM    9  C11 UNL     1       0.293  19.062   8.589  1.00  0.00     0.054 C 
HETATM   10  C12 UNL     1       1.196  17.281   7.091  1.00  0.00     0.004 C 
HETATM   11  C13 UNL     1       1.477  16.522   5.816  1.00  0.00     0.147 C 
HETATM   12  C14 UNL     1       2.891  15.909   5.826  1.00  0.00     0.233 C 
HETATM   13  O4  UNL     1       3.896  16.359   6.354  1.00  0.00    -0.272 OA
HETATM   14  N1  UNL     1       2.842  14.763   5.045  1.00  0.00    -0.327 N 
HETATM   15  C15 UNL     1       1.575  14.523   4.599  1.00  0.00     0.056 C 
HETATM   16  C16 UNL     1       1.273  13.870   3.482  1.00  0.00     0.084 C 
HETATM   17  C17 UNL     1      -0.103  13.994   2.947  1.00  0.00     0.185 C 
HETATM   18  O5  UNL     1      -0.417  13.340   1.962  1.00  0.00    -0.287 OA
HETATM   19  C18 UNL     1      -1.040  14.963   3.587  1.00  0.00     0.040 C 
HETATM   20  C19 UNL     1      -0.735  15.498   4.853  1.00  0.00    -0.001 C 
HETATM   21  C20 UNL     1      -1.734  16.213   5.544  1.00  0.00     0.021 C 
HETATM   22  C21 UNL     1      -2.981  16.483   4.971  1.00  0.00    -0.027 C 
HETATM   23  C22 UNL     1      -4.025  17.238   5.741  1.00  0.00     0.051 C 
HETATM   24  C23 UNL     1      -3.230  16.020   3.681  1.00  0.00     0.086 C 
HETATM   25  C24 UNL     1      -2.251  15.308   2.968  1.00  0.00     0.058 C 
HETATM   26  C25 UNL     1      -2.551  15.057   1.546  1.00  0.00     0.163 C 
HETATM   27  O7  UNL     1      -3.612  14.475   1.300  1.00  0.00    -0.292 OA
HETATM   28  C26 UNL     1      -1.705  15.669   0.432  1.00  0.00     0.084 C 
HETATM   29  C27 UNL     1      -0.535  16.605   0.766  1.00  0.00     0.016 C 
HETATM   30  C28 UNL     1       0.611  15.269   5.491  1.00  0.00     0.143 C 
HETATM   31  H20 UNL     1       3.695  14.339   4.700  1.00  0.00     0.168 HD
ENDROOT
BRANCH   4  32
HETATM   32  C7  UNL     1       0.055  21.468   3.952  1.00  0.00     0.147 C 
HETATM   33  C8  UNL     1      -1.295  22.154   4.119  1.00  0.00     0.042 C 
BRANCH  32  34
HETATM   34  O1  UNL     1       0.908  21.915   5.016  1.00  0.00    -0.393 OA
HETATM   35  H14 UNL     1       0.948  22.885   4.967  1.00  0.00     0.210 HD
ENDBRANCH  32  34
ENDBRANCH   4  32
BRANCH   1  36
HETATM   36  C2  UNL     1      -1.751  18.827   0.413  1.00  0.00     0.004 C 
HETATM   37  C1  UNL     1      -2.652  17.988  -0.486  1.00  0.00     0.006 C 
ENDBRANCH   1  36
BRANCH  30  38
HETATM   38  O8  UNL     1       0.383  14.481   6.667  1.00  0.00    -0.377 OA
HETATM   39  H31 UNL     1       1.204  14.000   6.877  1.00  0.00     0.211 HD
ENDBRANCH  30  38
BRANCH  24  40
HETATM   40  O6  UNL     1      -4.464  16.282   3.135  1.00  0.00    -0.359 OA
HETATM   41  H26 UNL     1      -4.638  15.611   2.436  1.00  0.00     0.217 HD
ENDBRANCH  24  40
TORSDOF 5
ENDMDL
MODEL 9
REMARK minimizedAffinity -7.02253628
REMARK CNNscore 0.272957057
REMARK CNNaffinity 5.16811514
REMARK  5 active torsions:
REMARK  status: ('A' for Active; 'I' for Inactive)
REMARK    1  A    between atoms: C2_2  and  C3_3 
REMARK    2  A    between atoms: C6_6  and  C7_7 
REMARK    3  A    between atoms: C7_7  and  O1_9 
REMARK    4  A    between atoms: C23_29  and  O6_30 
REMARK    5  A    between atoms: C28_36  and  O8_37 
ROOT
HETATM    1  C3  UNL     1      13.097  -5.717   5.888  1.00  0.00     0.008 C 
HETATM    2  C4  UNL     1      12.114  -5.042   4.947  1.00  0.00    -0.023 C 
HETATM    3  C5  UNL     1      12.317  -4.030   4.087  1.00  0.00     0.004 C 
HETATM    4  C6  UNL     1      13.544  -3.168   3.858  1.00  0.00     0.183 C 
HETATM    5  O2  UNL     1      13.947  -3.421   2.495  1.00  0.00    -0.306 OA
HETATM    6  C9  UNL     1      15.250  -3.214   2.202  1.00  0.00     0.289 C 
HETATM    7  O3  UNL     1      16.096  -2.760   2.960  1.00  0.00    -0.260 OA
HETATM    8  C10 UNL     1      15.549  -3.575   0.788  1.00  0.00     0.010 C 
HETATM    9  C11 UNL     1      16.378  -2.551   0.071  1.00  0.00     0.054 C 
HETATM   10  C12 UNL     1      15.201  -4.747   0.216  1.00  0.00     0.004 C 
HETATM   11  C13 UNL     1      14.389  -5.873   0.810  1.00  0.00     0.147 C 
HETATM   12  C14 UNL     1      13.470  -6.521  -0.244  1.00  0.00     0.233 C 
HETATM   13  O4  UNL     1      12.927  -5.981  -1.194  1.00  0.00    -0.272 OA
HETATM   14  N1  UNL     1      13.301  -7.848   0.127  1.00  0.00    -0.327 N 
HETATM   15  C15 UNL     1      14.043  -8.151   1.230  1.00  0.00     0.056 C 
HETATM   16  C16 UNL     1      13.743  -9.100   2.111  1.00  0.00     0.084 C 
HETATM   17  C17 UNL     1      14.428  -9.079   3.425  1.00  0.00     0.185 C 
HETATM   18  O5  UNL     1      14.219  -9.987   4.216  1.00  0.00    -0.287 OA
HETATM   19  C18 UNL     1      15.299  -7.916   3.765  1.00  0.00     0.040 C 
HETATM   20  C19 UNL     1      15.715  -7.034   2.750  1.00  0.00    -0.001 C 
HETATM   21  C20 UNL     1      16.723  -6.094   3.041  1.00  0.00     0.021 C 
HETATM   22  C21 UNL     1      17.254  -5.952   4.328  1.00  0.00    -0.027 C 
HETATM   23  C22 UNL     1      18.335  -4.948   4.599  1.00  0.00     0.051 C 
HETATM   24  C23 UNL     1      16.764  -6.776   5.339  1.00  0.00     0.086 C 
HETATM   25  C24 UNL     1      15.756  -7.719   5.076  1.00  0.00     0.058 C 
HETATM   26  C25 UNL     1      15.174  -8.379   6.260  1.00  0.00     0.163 C 
HETATM   27  O7  UNL     1      15.963  -8.956   7.014  1.00  0.00    -0.292 OA
HETATM   28  C26 UNL     1      13.710  -8.181   6.645  1.00  0.00     0.084 C 
HETATM   29  C27 UNL     1      12.808  -7.245   5.828  1.00  0.00     0.016 C 
HETATM   30  C28 UNL     1      15.141  -7.122   1.359  1.00  0.00     0.143 C 
HETATM   31  H20 UNL     1      12.545  -8.398  -0.263  1.00  0.00     0.168 HD
ENDROOT
BRANCH   4  32
HETATM   32  C7  UNL     1      13.161  -1.674   4.100  1.00  0.00     0.147 C 
HETATM   33  C8  UNL     1      13.775  -0.689   3.114  1.00  0.00     0.042 C 
BRANCH  32  34
HETATM   34  O1  UNL     1      11.737  -1.499   4.063  1.00  0.00    -0.393 OA
HETATM   35  H14 UNL     1      11.554  -0.567   4.269  1.00  0.00     0.210 HD
ENDBRANCH  32  34
ENDBRANCH   4  32
BRANCH   1  36
HETATM   36  C2  UNL     1      12.989  -5.182   7.328  1.00  0.00     0.004 C 
HETATM   37  C1  UNL     1      11.668  -5.505   8.016  1.00  0.00     0.006 C 
ENDBRANCH   1  36
BRANCH  30  38
HETATM   38  O8  UNL     1      16.217  -7.499   0.490  1.00  0.00    -0.377 OA
HETATM   39  H31 UNL     1      15.837  -7.932  -0.297  1.00  0.00     0.211 HD
ENDBRANCH  30  38
BRANCH  24  40
HETATM   40  O6  UNL     1      17.302  -6.634   6.596  1.00  0.00    -0.359 OA
HETATM   41  H26 UNL     1      17.165  -7.478   7.084  1.00  0.00     0.217 HD
ENDBRANCH  24  40
TORSDOF 5
ENDMDL
