MODEL 1
REMARK minimizedAffinity -7.15342236
REMARK CNNscore 0.600966454
REMARK CNNaffinity 6.22130394
REMARK  6 active torsions:
REMARK  status: ('A' for Active; 'I' for Inactive)
REMARK    1  A    between atoms: C2_2  and  C30_32 
REMARK    2  A    between atoms: C3_3  and  C4_4 
REMARK    3  A    between atoms: C4_4  and  C5_5 
REMARK    4  A    between atoms: C5_5  and  C6_6 
REMARK    5  A    between atoms: C6_6  and  C8_8 
REMARK    6  A    between atoms: C30_32  and  O4_34 
ROOT
HETATM    1  C8  UNL     1     -17.567   3.156  14.144  1.00  0.00    -0.002 C 
HETATM    2  C9  UNL     1     -17.624   3.046  15.694  1.00  0.00     0.007 C 
HETATM    3  C10 UNL     1     -16.906   1.742  16.092  1.00  0.00     0.015 C 
HETATM    4  C11 UNL     1     -16.184   1.269  14.815  1.00  0.00    -0.005 C 
HETATM    5  C12 UNL     1     -14.826   2.033  14.746  1.00  0.00     0.021 C 
HETATM    6  C13 UNL     1     -15.814  -0.199  14.644  1.00  0.00    -0.000 C 
HETATM    7  C14 UNL     1     -15.758  -0.774  13.415  1.00  0.00    -0.060 C 
HETATM    8  C15 UNL     1     -16.107   0.041  12.160  1.00  0.00     0.036 C 
HETATM    9  C16 UNL     1     -16.601   1.489  12.352  1.00  0.00     0.015 C 
HETATM   10  C17 UNL     1     -17.248   1.688  13.725  1.00  0.00    -0.028 C 
HETATM   11  C18 UNL     1     -18.559   0.839  13.781  1.00  0.00     0.016 C 
HETATM   12  C19 UNL     1     -15.386  -2.266  13.186  1.00  0.00    -0.014 C 
HETATM   13  C20 UNL     1     -16.704  -3.033  12.938  1.00  0.00     0.020 C 
HETATM   14  C21 UNL     1     -14.447  -2.407  11.962  1.00  0.00     0.021 C 
HETATM   15  C22 UNL     1     -13.858  -3.790  11.729  1.00  0.00     0.080 C 
HETATM   16  C23 UNL     1     -14.053  -4.796  12.837  1.00  0.00     0.135 C 
HETATM   17  O1  UNL     1     -14.049  -5.996  12.552  1.00  0.00    -0.297 OA
HETATM   18  C24 UNL     1     -14.138  -4.317  14.292  1.00  0.00     0.018 C 
HETATM   19  C25 UNL     1     -15.077  -5.281  15.054  1.00  0.00     0.023 C 
HETATM   20  C26 UNL     1     -12.722  -4.481  14.881  1.00  0.00     0.023 C 
HETATM   21  C27 UNL     1     -14.578  -2.816  14.402  1.00  0.00     0.020 C 
HETATM   22  C28 UNL     1     -15.280  -2.481  15.719  1.00  0.00     0.090 C 
HETATM   23  C29 UNL     1     -15.468  -0.992  15.863  1.00  0.00     0.157 C 
HETATM   24  O2  UNL     1     -15.367  -0.460  16.967  1.00  0.00    -0.293 OA
ENDROOT
BRANCH   1  25
HETATM   25  C6  UNL     1     -18.814   3.873  13.556  1.00  0.00    -0.014 C 
HETATM   26  C7  UNL     1     -19.145   3.424  12.128  1.00  0.00     0.010 C 
BRANCH  25  27
HETATM   27  C5  UNL     1     -18.735   5.423  13.640  1.00  0.00     0.008 C 
BRANCH  27  28
HETATM   28  C4  UNL     1     -17.914   6.180  12.585  1.00  0.00     0.028 C 
BRANCH  28  29
HETATM   29  C3  UNL     1     -16.426   6.163  12.785  1.00  0.00    -0.013 C 
HETATM   30  C2  UNL     1     -15.539   7.164  12.608  1.00  0.00     0.008 C 
HETATM   31  C1  UNL     1     -14.089   7.001  12.977  1.00  0.00     0.055 C 
BRANCH  30  32
HETATM   32  C30 UNL     1     -15.866   8.511  12.088  1.00  0.00     0.171 C 
HETATM   33  O3  UNL     1     -15.892   9.535  12.747  1.00  0.00    -0.646 OA
BRANCH  32  34
HETATM   34  O4  UNL     1     -16.059   8.545  10.759  1.00  0.00    -0.773 OA
HETATM   35  H44 UNL     1     -16.215   9.491  10.571  1.00  0.00     0.167 HD
ENDBRANCH  32  34
ENDBRANCH  30  32
ENDBRANCH  28  29
ENDBRANCH  27  28
ENDBRANCH  25  27
ENDBRANCH   1  25
TORSDOF 6
ENDMDL
MODEL 2
REMARK minimizedAffinity -9.21650791
REMARK CNNscore 0.572121501
REMARK CNNaffinity 7.31861305
REMARK  6 active torsions:
REMARK  status: ('A' for Active; 'I' for Inactive)
REMARK    1  A    between atoms: C2_2  and  C30_32 
REMARK    2  A    between atoms: C3_3  and  C4_4 
REMARK    3  A    between atoms: C4_4  and  C5_5 
REMARK    4  A    between atoms: C5_5  and  C6_6 
REMARK    5  A    between atoms: C6_6  and  C8_8 
REMARK    6  A    between atoms: C30_32  and  O4_34 
ROOT
HETATM    1  C8  UNL     1       0.838   8.065  13.567  1.00  0.00    -0.002 C 
HETATM    2  C9  UNL     1       0.887   9.262  14.557  1.00  0.00     0.007 C 
HETATM    3  C10 UNL     1      -0.496   9.367  15.227  1.00  0.00     0.015 C 
HETATM    4  C11 UNL     1      -1.229   8.064  14.852  1.00  0.00    -0.005 C 
HETATM    5  C12 UNL     1      -0.781   6.975  15.875  1.00  0.00     0.021 C 
HETATM    6  C13 UNL     1      -2.752   8.010  14.868  1.00  0.00    -0.000 C 
HETATM    7  C14 UNL     1      -3.438   7.194  14.027  1.00  0.00    -0.060 C 
HETATM    8  C15 UNL     1      -2.689   6.325  13.005  1.00  0.00     0.036 C 
HETATM    9  C16 UNL     1      -1.157   6.479  12.910  1.00  0.00     0.015 C 
HETATM   10  C17 UNL     1      -0.698   7.862  13.379  1.00  0.00    -0.028 C 
HETATM   11  C18 UNL     1      -1.240   8.929  12.373  1.00  0.00     0.016 C 
HETATM   12  C19 UNL     1      -4.990   7.101  14.004  1.00  0.00    -0.014 C 
HETATM   13  C20 UNL     1      -5.479   7.933  12.796  1.00  0.00     0.020 C 
HETATM   14  C21 UNL     1      -5.441   5.627  13.855  1.00  0.00     0.021 C 
HETATM   15  C22 UNL     1      -6.933   5.369  13.998  1.00  0.00     0.080 C 
HETATM   16  C23 UNL     1      -7.766   6.521  14.504  1.00  0.00     0.135 C 
HETATM   17  O1  UNL     1      -8.961   6.563  14.201  1.00  0.00    -0.297 OA
HETATM   18  C24 UNL     1      -7.147   7.542  15.467  1.00  0.00     0.018 C 
HETATM   19  C25 UNL     1      -7.813   8.911  15.198  1.00  0.00     0.023 C 
HETATM   20  C26 UNL     1      -7.552   7.095  16.887  1.00  0.00     0.023 C 
HETATM   21  C27 UNL     1      -5.582   7.589  15.362  1.00  0.00     0.020 C 
HETATM   22  C28 UNL     1      -4.984   8.938  15.765  1.00  0.00     0.090 C 
HETATM   23  C29 UNL     1      -3.483   8.850  15.867  1.00  0.00     0.157 C 
HETATM   24  O2  UNL     1      -2.883   9.482  16.734  1.00  0.00    -0.293 OA
ENDROOT
BRANCH   1  25
HETATM   25  C6  UNL     1       1.745   8.286  12.325  1.00  0.00    -0.014 C 
HETATM   26  C7  UNL     1       2.749   9.429  12.512  1.00  0.00     0.010 C 
BRANCH  25  27
HETATM   27  C5  UNL     1       0.950   8.465  11.001  1.00  0.00     0.008 C 
BRANCH  27  28
HETATM   28  C4  UNL     1       0.768   7.251  10.078  1.00  0.00     0.028 C 
BRANCH  28  29
HETATM   29  C3  UNL     1       1.023   7.499   8.619  1.00  0.00    -0.013 C 
HETATM   30  C2  UNL     1       1.945   6.931   7.815  1.00  0.00     0.008 C 
HETATM   31  C1  UNL     1       1.976   7.213   6.337  1.00  0.00     0.055 C 
BRANCH  30  32
HETATM   32  C30 UNL     1       2.980   5.966   8.251  1.00  0.00     0.171 C 
HETATM   33  O3  UNL     1       3.231   4.907   7.705  1.00  0.00    -0.646 OA
BRANCH  32  34
HETATM   34  O4  UNL     1       3.715   6.396   9.290  1.00  0.00    -0.773 OA
HETATM   35  H44 UNL     1       4.369   5.681   9.422  1.00  0.00     0.167 HD
ENDBRANCH  32  34
ENDBRANCH  30  32
ENDBRANCH  28  29
ENDBRANCH  27  28
ENDBRANCH  25  27
ENDBRANCH   1  25
TORSDOF 6
ENDMDL
MODEL 3
REMARK minimizedAffinity -6.98851776
REMARK CNNscore 0.546516478
REMARK CNNaffinity 6.54237795
REMARK  6 active torsions:
REMARK  status: ('A' for Active; 'I' for Inactive)
REMARK    1  A    between atoms: C2_2  and  C30_32 
REMARK    2  A    between atoms: C3_3  and  C4_4 
REMARK    3  A    between atoms: C4_4  and  C5_5 
REMARK    4  A    between atoms: C5_5  and  C6_6 
REMARK    5  A    between atoms: C6_6  and  C8_8 
REMARK    6  A    between atoms: C30_32  and  O4_34 
ROOT
HETATM    1  C8  UNL     1       0.117   8.765  14.495  1.00  0.00    -0.002 C 
HETATM    2  C9  UNL     1       1.233   9.782  14.125  1.00  0.00     0.007 C 
HETATM    3  C10 UNL     1       0.994  11.056  14.958  1.00  0.00     0.015 C 
HETATM    4  C11 UNL     1      -0.060  10.661  16.011  1.00  0.00    -0.005 C 
HETATM    5  C12 UNL     1       0.702   9.990  17.195  1.00  0.00     0.021 C 
HETATM    6  C13 UNL     1      -0.930  11.729  16.662  1.00  0.00    -0.000 C 
HETATM    7  C14 UNL     1      -2.191  11.453  17.083  1.00  0.00    -0.060 C 
HETATM    8  C15 UNL     1      -2.790  10.053  16.876  1.00  0.00     0.036 C 
HETATM    9  C16 UNL     1      -1.951   9.014  16.104  1.00  0.00     0.015 C 
HETATM   10  C17 UNL     1      -0.958   9.686  15.151  1.00  0.00    -0.028 C 
HETATM   11  C18 UNL     1      -1.766  10.416  14.030  1.00  0.00     0.016 C 
HETATM   12  C19 UNL     1      -3.118  12.506  17.754  1.00  0.00    -0.014 C 
HETATM   13  C20 UNL     1      -4.115  12.989  16.676  1.00  0.00     0.020 C 
HETATM   14  C21 UNL     1      -3.881  11.874  18.944  1.00  0.00     0.021 C 
HETATM   15  C22 UNL     1      -4.688  12.835  19.804  1.00  0.00     0.080 C 
HETATM   16  C23 UNL     1      -4.463  14.306  19.555  1.00  0.00     0.135 C 
HETATM   17  O1  UNL     1      -5.369  15.097  19.833  1.00  0.00    -0.297 OA
HETATM   18  C24 UNL     1      -3.091  14.795  19.075  1.00  0.00     0.018 C 
HETATM   19  C25 UNL     1      -3.316  16.035  18.179  1.00  0.00     0.023 C 
HETATM   20  C26 UNL     1      -2.335  15.261  20.337  1.00  0.00     0.023 C 
HETATM   21  C27 UNL     1      -2.269  13.664  18.364  1.00  0.00     0.020 C 
HETATM   22  C28 UNL     1      -1.257  14.193  17.346  1.00  0.00     0.090 C 
HETATM   23  C29 UNL     1      -0.347  13.090  16.872  1.00  0.00     0.157 C 
HETATM   24  O2  UNL     1       0.837  13.323  16.636  1.00  0.00    -0.293 OA
ENDROOT
BRANCH   1  25
HETATM   25  C6  UNL     1      -0.274   7.855  13.298  1.00  0.00    -0.014 C 
HETATM   26  C7  UNL     1      -0.054   6.364  13.581  1.00  0.00     0.010 C 
BRANCH  25  27
HETATM   27  C5  UNL     1       0.402   8.265  11.960  1.00  0.00     0.008 C 
BRANCH  27  28
HETATM   28  C4  UNL     1       0.989   7.167  11.061  1.00  0.00     0.028 C 
BRANCH  28  29
HETATM   29  C3  UNL     1       1.123   7.520   9.608  1.00  0.00    -0.013 C 
HETATM   30  C2  UNL     1       1.983   7.023   8.694  1.00  0.00     0.008 C 
HETATM   31  C1  UNL     1       1.894   7.407   7.242  1.00  0.00     0.055 C 
BRANCH  30  32
HETATM   32  C30 UNL     1       3.058   6.045   8.979  1.00  0.00     0.171 C 
HETATM   33  O3  UNL     1       3.051   4.873   8.648  1.00  0.00    -0.646 OA
BRANCH  32  34
HETATM   34  O4  UNL     1       4.132   6.582   9.581  1.00  0.00    -0.773 OA
HETATM   35  H44 UNL     1       4.756   5.833   9.655  1.00  0.00     0.167 HD
ENDBRANCH  32  34
ENDBRANCH  30  32
ENDBRANCH  28  29
ENDBRANCH  27  28
ENDBRANCH  25  27
ENDBRANCH   1  25
TORSDOF 6
ENDMDL
MODEL 4
REMARK minimizedAffinity -7.45163393
REMARK CNNscore 0.527058303
REMARK CNNaffinity 6.96821737
REMARK  6 active torsions:
REMARK  status: ('A' for Active; 'I' for Inactive)
REMARK    1  A    between atoms: C2_2  and  C30_32 
REMARK    2  A    between atoms: C3_3  and  C4_4 
REMARK    3  A    between atoms: C4_4  and  C5_5 
REMARK    4  A    between atoms: C5_5  and  C6_6 
REMARK    5  A    between atoms: C6_6  and  C8_8 
REMARK    6  A    between atoms: C30_32  and  O4_34 
ROOT
HETATM    1  C8  UNL     1      -1.522   9.870  15.066  1.00  0.00    -0.002 C 
HETATM    2  C9  UNL     1      -0.324   8.921  14.780  1.00  0.00     0.007 C 
HETATM    3  C10 UNL     1      -0.885   7.660  14.096  1.00  0.00     0.015 C 
HETATM    4  C11 UNL     1      -2.337   8.013  13.720  1.00  0.00    -0.005 C 
HETATM    5  C12 UNL     1      -2.288   8.770  12.357  1.00  0.00     0.021 C 
HETATM    6  C13 UNL     1      -3.365   6.907  13.515  1.00  0.00    -0.000 C 
HETATM    7  C14 UNL     1      -4.681   7.108  13.783  1.00  0.00    -0.060 C 
HETATM    8  C15 UNL     1      -5.163   8.457  14.341  1.00  0.00     0.036 C 
HETATM    9  C16 UNL     1      -4.100   9.527  14.664  1.00  0.00     0.015 C 
HETATM   10  C17 UNL     1      -2.738   8.897  14.966  1.00  0.00    -0.028 C 
HETATM   11  C18 UNL     1      -2.855   8.080  16.293  1.00  0.00     0.016 C 
HETATM   12  C19 UNL     1      -5.769   6.015  13.590  1.00  0.00    -0.014 C 
HETATM   13  C20 UNL     1      -6.084   5.432  14.987  1.00  0.00     0.020 C 
HETATM   14  C21 UNL     1      -7.047   6.628  12.966  1.00  0.00     0.021 C 
HETATM   15  C22 UNL     1      -8.129   5.640  12.556  1.00  0.00     0.080 C 
HETATM   16  C23 UNL     1      -7.744   4.181  12.574  1.00  0.00     0.135 C 
HETATM   17  O1  UNL     1      -8.632   3.339  12.728  1.00  0.00    -0.297 OA
HETATM   18  C24 UNL     1      -6.293   3.774  12.290  1.00  0.00     0.018 C 
HETATM   19  C25 UNL     1      -5.991   2.495  13.105  1.00  0.00     0.023 C 
HETATM   20  C26 UNL     1      -6.236   3.399  10.794  1.00  0.00     0.023 C 
HETATM   21  C27 UNL     1      -5.280   4.937  12.574  1.00  0.00     0.020 C 
HETATM   22  C28 UNL     1      -3.875   4.448  12.932  1.00  0.00     0.090 C 
HETATM   23  C29 UNL     1      -2.900   5.597  12.965  1.00  0.00     0.157 C 
HETATM   24  O2  UNL     1      -1.744   5.439  12.576  1.00  0.00    -0.293 OA
ENDROOT
BRANCH   1  25
HETATM   25  C6  UNL     1      -1.314  10.715  16.353  1.00  0.00    -0.014 C 
HETATM   26  C7  UNL     1      -1.370  12.225  16.095  1.00  0.00     0.010 C 
BRANCH  25  27
HETATM   27  C5  UNL     1      -0.026  10.339  17.140  1.00  0.00     0.008 C 
BRANCH  27  28
HETATM   28  C4  UNL     1       1.068  11.402  17.316  1.00  0.00     0.028 C 
BRANCH  28  29
HETATM   29  C3  UNL     1       1.070  12.120  18.635  1.00  0.00    -0.013 C 
HETATM   30  C2  UNL     1       1.773  11.834  19.751  1.00  0.00     0.008 C 
HETATM   31  C1  UNL     1       1.743  12.742  20.950  1.00  0.00     0.055 C 
BRANCH  30  32
HETATM   32  C30 UNL     1       2.660  10.661  19.923  1.00  0.00     0.171 C 
HETATM   33  O3  UNL     1       2.685   9.683  19.197  1.00  0.00    -0.646 OA
BRANCH  32  34
HETATM   34  O4  UNL     1       3.537  10.791  20.932  1.00  0.00    -0.773 OA
HETATM   35  H44 UNL     1       4.068   9.971  20.884  1.00  0.00     0.167 HD
ENDBRANCH  32  34
ENDBRANCH  30  32
ENDBRANCH  28  29
ENDBRANCH  27  28
ENDBRANCH  25  27
ENDBRANCH   1  25
TORSDOF 6
ENDMDL
MODEL 5
REMARK minimizedAffinity -6.82958508
REMARK CNNscore 0.502447665
REMARK CNNaffinity 6.235888
REMARK  6 active torsions:
REMARK  status: ('A' for Active; 'I' for Inactive)
REMARK    1  A    between atoms: C2_2  and  C30_32 
REMARK    2  A    between atoms: C3_3  and  C4_4 
REMARK    3  A    between atoms: C4_4  and  C5_5 
REMARK    4  A    between atoms: C5_5  and  C6_6 
REMARK    5  A    between atoms: C6_6  and  C8_8 
REMARK    6  A    between atoms: C30_32  and  O4_34 
ROOT
HETATM    1  C8  UNL     1      12.970  -7.959   5.312  1.00  0.00    -0.002 C 
HETATM    2  C9  UNL     1      13.591  -7.990   6.737  1.00  0.00     0.007 C 
HETATM    3  C10 UNL     1      14.393  -6.687   6.921  1.00  0.00     0.015 C 
HETATM    4  C11 UNL     1      13.986  -5.789   5.738  1.00  0.00    -0.005 C 
HETATM    5  C12 UNL     1      12.662  -5.069   6.141  1.00  0.00     0.021 C 
HETATM    6  C13 UNL     1      14.911  -4.671   5.271  1.00  0.00    -0.000 C 
HETATM    7  C14 UNL     1      14.941  -4.274   3.973  1.00  0.00    -0.060 C 
HETATM    8  C15 UNL     1      14.061  -4.977   2.927  1.00  0.00     0.036 C 
HETATM    9  C16 UNL     1      13.222  -6.188   3.382  1.00  0.00     0.015 C 
HETATM   10  C17 UNL     1      13.841  -6.877   4.601  1.00  0.00    -0.028 C 
HETATM   11  C18 UNL     1      15.204  -7.510   4.173  1.00  0.00     0.016 C 
HETATM   12  C19 UNL     1      15.864  -3.140   3.447  1.00  0.00    -0.014 C 
HETATM   13  C20 UNL     1      17.067  -3.816   2.751  1.00  0.00     0.020 C 
HETATM   14  C21 UNL     1      15.099  -2.243   2.442  1.00  0.00     0.021 C 
HETATM   15  C22 UNL     1      15.825  -0.987   1.984  1.00  0.00     0.080 C 
HETATM   16  C23 UNL     1      17.085  -0.631   2.733  1.00  0.00     0.135 C 
HETATM   17  O1  UNL     1      17.946   0.038   2.155  1.00  0.00    -0.297 OA
HETATM   18  C24 UNL     1      17.220  -1.005   4.215  1.00  0.00     0.018 C 
HETATM   19  C25 UNL     1      18.714  -1.284   4.499  1.00  0.00     0.023 C 
HETATM   20  C26 UNL     1      16.819   0.253   5.014  1.00  0.00     0.023 C 
HETATM   21  C27 UNL     1      16.284  -2.197   4.617  1.00  0.00     0.020 C 
HETATM   22  C28 UNL     1      16.804  -3.006   5.808  1.00  0.00     0.090 C 
HETATM   23  C29 UNL     1      15.762  -3.981   6.289  1.00  0.00     0.157 C 
HETATM   24  O2  UNL     1      15.645  -4.219   7.490  1.00  0.00    -0.293 OA
ENDROOT
BRANCH   1  25
HETATM   25  C6  UNL     1      12.845  -9.378   4.690  1.00  0.00    -0.014 C 
HETATM   26  C7  UNL     1      11.546  -9.573   3.899  1.00  0.00     0.010 C 
BRANCH  25  27
HETATM   27  C5  UNL     1      13.037 -10.525   5.721  1.00  0.00     0.008 C 
BRANCH  27  28
HETATM   28  C4  UNL     1      12.356 -11.876   5.459  1.00  0.00     0.028 C 
BRANCH  28  29
HETATM   29  C3  UNL     1      13.248 -12.962   4.932  1.00  0.00    -0.013 C 
HETATM   30  C2  UNL     1      12.960 -14.264   4.721  1.00  0.00     0.008 C 
HETATM   31  C1  UNL     1      13.949 -15.190   4.066  1.00  0.00     0.055 C 
BRANCH  30  32
HETATM   32  C30 UNL     1      11.674 -14.918   5.055  1.00  0.00     0.171 C 
HETATM   33  O3  UNL     1      10.937 -15.473   4.259  1.00  0.00    -0.646 OA
BRANCH  32  34
HETATM   34  O4  UNL     1      11.401 -14.933   6.370  1.00  0.00    -0.773 OA
HETATM   35  H44 UNL     1      10.561 -15.430   6.427  1.00  0.00     0.167 HD
ENDBRANCH  32  34
ENDBRANCH  30  32
ENDBRANCH  28  29
ENDBRANCH  27  28
ENDBRANCH  25  27
ENDBRANCH   1  25
TORSDOF 6
ENDMDL
MODEL 6
REMARK minimizedAffinity -6.85851526
REMARK CNNscore 0.492330909
REMARK CNNaffinity 6.12359667
REMARK  6 active torsions:
REMARK  status: ('A' for Active; 'I' for Inactive)
REMARK    1  A    between atoms: C2_2  and  C30_32 
REMARK    2  A    between atoms: C3_3  and  C4_4 
REMARK    3  A    between atoms: C4_4  and  C5_5 
REMARK    4  A    between atoms: C5_5  and  C6_6 
REMARK    5  A    between atoms: C6_6  and  C8_8 
REMARK    6  A    between atoms: C30_32  and  O4_34 
ROOT
HETATM    1  C8  UNL     1      13.629  -8.941   6.046  1.00  0.00    -0.002 C 
HETATM    2  C9  UNL     1      15.094  -9.194   6.502  1.00  0.00     0.007 C 
HETATM    3  C10 UNL     1      15.845  -7.852   6.414  1.00  0.00     0.015 C 
HETATM    4  C11 UNL     1      14.752  -6.787   6.204  1.00  0.00    -0.005 C 
HETATM    5  C12 UNL     1      14.193  -6.418   7.613  1.00  0.00     0.021 C 
HETATM    6  C13 UNL     1      15.098  -5.450   5.560  1.00  0.00    -0.000 C 
HETATM    7  C14 UNL     1      14.188  -4.764   4.822  1.00  0.00    -0.060 C 
HETATM    8  C15 UNL     1      12.785  -5.345   4.586  1.00  0.00     0.036 C 
HETATM    9  C16 UNL     1      12.483  -6.755   5.134  1.00  0.00     0.015 C 
HETATM   10  C17 UNL     1      13.757  -7.590   5.275  1.00  0.00    -0.028 C 
HETATM   11  C18 UNL     1      14.329  -7.864   3.847  1.00  0.00     0.016 C 
HETATM   12  C19 UNL     1      14.490  -3.398   4.146  1.00  0.00    -0.014 C 
HETATM   13  C20 UNL     1      14.755  -3.678   2.649  1.00  0.00     0.020 C 
HETATM   14  C21 UNL     1      13.286  -2.437   4.306  1.00  0.00     0.021 C 
HETATM   15  C22 UNL     1      13.512  -1.004   3.849  1.00  0.00     0.080 C 
HETATM   16  C23 UNL     1      14.935  -0.621   3.525  1.00  0.00     0.135 C 
HETATM   17  O1  UNL     1      15.131   0.302   2.729  1.00  0.00    -0.297 OA
HETATM   18  C24 UNL     1      16.092  -1.299   4.268  1.00  0.00     0.018 C 
HETATM   19  C25 UNL     1      17.296  -1.376   3.300  1.00  0.00     0.023 C 
HETATM   20  C26 UNL     1      16.479  -0.348   5.420  1.00  0.00     0.023 C 
HETATM   21  C27 UNL     1      15.687  -2.694   4.858  1.00  0.00     0.020 C 
HETATM   22  C28 UNL     1      16.868  -3.655   5.017  1.00  0.00     0.090 C 
HETATM   23  C29 UNL     1      16.460  -4.880   5.795  1.00  0.00     0.157 C 
HETATM   24  O2  UNL     1      17.250  -5.406   6.578  1.00  0.00    -0.293 OA
ENDROOT
BRANCH   1  25
HETATM   25  C6  UNL     1      13.007 -10.176   5.339  1.00  0.00    -0.014 C 
HETATM   26  C7  UNL     1      14.060 -11.161   4.817  1.00  0.00     0.010 C 
BRANCH  25  27
HETATM   27  C5  UNL     1      11.998  -9.805   4.216  1.00  0.00     0.008 C 
BRANCH  27  28
HETATM   28  C4  UNL     1      10.827 -10.757   3.930  1.00  0.00     0.028 C 
BRANCH  28  29
HETATM   29  C3  UNL     1       9.496 -10.100   3.704  1.00  0.00    -0.013 C 
HETATM   30  C2  UNL     1       8.510 -10.461   2.857  1.00  0.00     0.008 C 
HETATM   31  C1  UNL     1       7.182  -9.751   2.852  1.00  0.00     0.055 C 
BRANCH  30  32
HETATM   32  C30 UNL     1       8.583 -11.579   1.889  1.00  0.00     0.171 C 
HETATM   33  O3  UNL     1       8.368 -12.750   2.147  1.00  0.00    -0.646 OA
BRANCH  32  34
HETATM   34  O4  UNL     1       8.831 -11.187   0.629  1.00  0.00    -0.773 OA
HETATM   35  H44 UNL     1       8.802 -12.019   0.117  1.00  0.00     0.167 HD
ENDBRANCH  32  34
ENDBRANCH  30  32
ENDBRANCH  28  29
ENDBRANCH  27  28
ENDBRANCH  25  27
ENDBRANCH   1  25
TORSDOF 6
ENDMDL
MODEL 7
REMARK minimizedAffinity -9.04305077
REMARK CNNscore 0.454916596
REMARK CNNaffinity 6.92999029
REMARK  6 active torsions:
REMARK  status: ('A' for Active; 'I' for Inactive)
REMARK    1  A    between atoms: C2_2  and  C30_32 
REMARK    2  A    between atoms: C3_3  and  C4_4 
REMARK    3  A    between atoms: C4_4  and  C5_5 
REMARK    4  A    between atoms: C5_5  and  C6_6 
REMARK    5  A    between atoms: C6_6  and  C8_8 
REMARK    6  A    between atoms: C30_32  and  O4_34 
ROOT
HETATM    1  C8  UNL     1      -3.984   7.105  14.833  1.00  0.00    -0.002 C 
HETATM    2  C9  UNL     1      -4.396   5.747  14.197  1.00  0.00     0.007 C 
HETATM    3  C10 UNL     1      -3.236   5.287  13.295  1.00  0.00     0.015 C 
HETATM    4  C11 UNL     1      -2.055   6.212  13.648  1.00  0.00    -0.005 C 
HETATM    5  C12 UNL     1      -1.359   5.608  14.907  1.00  0.00     0.021 C 
HETATM    6  C13 UNL     1      -0.927   6.430  12.646  1.00  0.00    -0.000 C 
HETATM    7  C14 UNL     1      -0.237   7.599  12.604  1.00  0.00    -0.060 C 
HETATM    8  C15 UNL     1      -0.606   8.753  13.550  1.00  0.00     0.036 C 
HETATM    9  C16 UNL     1      -1.828   8.570  14.472  1.00  0.00     0.015 C 
HETATM   10  C17 UNL     1      -2.829   7.567  13.892  1.00  0.00    -0.028 C 
HETATM   11  C18 UNL     1      -3.437   8.176  12.588  1.00  0.00     0.016 C 
HETATM   12  C19 UNL     1       0.921   7.871  11.604  1.00  0.00    -0.014 C 
HETATM   13  C20 UNL     1       0.346   8.745  10.466  1.00  0.00     0.020 C 
HETATM   14  C21 UNL     1       2.083   8.612  12.311  1.00  0.00     0.021 C 
HETATM   15  C22 UNL     1       3.357   8.784  11.498  1.00  0.00     0.080 C 
HETATM   16  C23 UNL     1       3.434   8.012  10.204  1.00  0.00     0.135 C 
HETATM   17  O1  UNL     1       4.158   8.443   9.302  1.00  0.00    -0.297 OA
HETATM   18  C24 UNL     1       2.711   6.666  10.077  1.00  0.00     0.018 C 
HETATM   19  C25 UNL     1       2.266   6.503   8.605  1.00  0.00     0.023 C 
HETATM   20  C26 UNL     1       3.768   5.580  10.369  1.00  0.00     0.023 C 
HETATM   21  C27 UNL     1       1.526   6.526  11.096  1.00  0.00     0.020 C 
HETATM   22  C28 UNL     1       0.423   5.576  10.623  1.00  0.00     0.090 C 
HETATM   23  C29 UNL     1      -0.562   5.306  11.731  1.00  0.00     0.157 C 
HETATM   24  O2  UNL     1      -1.069   4.192  11.849  1.00  0.00    -0.293 OA
ENDROOT
BRANCH   1  25
HETATM   25  C6  UNL     1      -5.202   8.039  15.076  1.00  0.00    -0.014 C 
HETATM   26  C7  UNL     1      -4.823   9.348  15.777  1.00  0.00     0.010 C 
BRANCH  25  27
HETATM   27  C5  UNL     1      -6.380   7.342  15.813  1.00  0.00     0.008 C 
BRANCH  27  28
HETATM   28  C4  UNL     1      -7.025   6.104  15.172  1.00  0.00     0.028 C 
BRANCH  28  29
HETATM   29  C3  UNL     1      -7.773   6.350  13.893  1.00  0.00    -0.013 C 
HETATM   30  C2  UNL     1      -8.108   5.467  12.929  1.00  0.00     0.008 C 
HETATM   31  C1  UNL     1      -8.973   5.869  11.765  1.00  0.00     0.055 C 
BRANCH  30  32
HETATM   32  C30 UNL     1      -7.720   4.039  12.907  1.00  0.00     0.171 C 
HETATM   33  O3  UNL     1      -6.577   3.619  12.891  1.00  0.00    -0.646 OA
BRANCH  32  34
HETATM   34  O4  UNL     1      -8.761   3.195  12.996  1.00  0.00    -0.773 OA
HETATM   35  H44 UNL     1      -8.342   2.311  13.016  1.00  0.00     0.167 HD
ENDBRANCH  32  34
ENDBRANCH  30  32
ENDBRANCH  28  29
ENDBRANCH  27  28
ENDBRANCH  25  27
ENDBRANCH   1  25
TORSDOF 6
ENDMDL
MODEL 8
REMARK minimizedAffinity -8.47780418
REMARK CNNscore 0.362980634
REMARK CNNaffinity 6.65103483
REMARK  6 active torsions:
REMARK  status: ('A' for Active; 'I' for Inactive)
REMARK    1  A    between atoms: C2_2  and  C30_32 
REMARK    2  A    between atoms: C3_3  and  C4_4 
REMARK    3  A    between atoms: C4_4  and  C5_5 
REMARK    4  A    between atoms: C5_5  and  C6_6 
REMARK    5  A    between atoms: C6_6  and  C8_8 
REMARK    6  A    between atoms: C30_32  and  O4_34 
ROOT
HETATM    1  C8  UNL     1      -5.072   6.618  14.843  1.00  0.00    -0.002 C 
HETATM    2  C9  UNL     1      -5.493   5.427  13.937  1.00  0.00     0.007 C 
HETATM    3  C10 UNL     1      -4.289   5.078  13.042  1.00  0.00     0.015 C 
HETATM    4  C11 UNL     1      -3.100   5.855  13.639  1.00  0.00    -0.005 C 
HETATM    5  C12 UNL     1      -2.525   4.991  14.803  1.00  0.00     0.021 C 
HETATM    6  C13 UNL     1      -1.893   6.192  12.772  1.00  0.00    -0.000 C 
HETATM    7  C14 UNL     1      -1.153   7.309  12.996  1.00  0.00    -0.060 C 
HETATM    8  C15 UNL     1      -1.542   8.286  14.116  1.00  0.00     0.036 C 
HETATM    9  C16 UNL     1      -2.836   8.003  14.906  1.00  0.00     0.015 C 
HETATM   10  C17 UNL     1      -3.832   7.182  14.084  1.00  0.00    -0.028 C 
HETATM   11  C18 UNL     1      -4.317   8.054  12.881  1.00  0.00     0.016 C 
HETATM   12  C19 UNL     1       0.086   7.698  12.142  1.00  0.00    -0.014 C 
HETATM   13  C20 UNL     1      -0.366   8.797  11.154  1.00  0.00     0.020 C 
HETATM   14  C21 UNL     1       1.223   8.229  13.050  1.00  0.00     0.021 C 
HETATM   15  C22 UNL     1       2.560   8.478  12.368  1.00  0.00     0.080 C 
HETATM   16  C23 UNL     1       2.700   7.957  10.959  1.00  0.00     0.135 C 
HETATM   17  O1  UNL     1       3.506   8.506  10.204  1.00  0.00    -0.297 OA
HETATM   18  C24 UNL     1       1.931   6.699  10.534  1.00  0.00     0.018 C 
HETATM   19  C25 UNL     1       1.590   6.837   9.032  1.00  0.00     0.023 C 
HETATM   20  C26 UNL     1       2.917   5.522  10.684  1.00  0.00     0.023 C 
HETATM   21  C27 UNL     1       0.670   6.439  11.430  1.00  0.00     0.020 C 
HETATM   22  C28 UNL     1      -0.434   5.655  10.716  1.00  0.00     0.090 C 
HETATM   23  C29 UNL     1      -1.509   5.239  11.686  1.00  0.00     0.157 C 
HETATM   24  O2  UNL     1      -2.070   4.152  11.558  1.00  0.00    -0.293 OA
ENDROOT
BRANCH   1  25
HETATM   25  C6  UNL     1      -6.264   7.556  15.179  1.00  0.00    -0.014 C 
HETATM   26  C7  UNL     1      -5.824   8.980  15.537  1.00  0.00     0.010 C 
BRANCH  25  27
HETATM   27  C5  UNL     1      -7.215   6.985  16.268  1.00  0.00     0.008 C 
BRANCH  27  28
HETATM   28  C4  UNL     1      -8.693   6.762  15.916  1.00  0.00     0.028 C 
BRANCH  28  29
HETATM   29  C3  UNL     1      -9.476   7.999  15.583  1.00  0.00    -0.013 C 
HETATM   30  C2  UNL     1     -10.539   8.129  14.761  1.00  0.00     0.008 C 
HETATM   31  C1  UNL     1     -11.281   9.432  14.641  1.00  0.00     0.055 C 
BRANCH  30  32
HETATM   32  C30 UNL     1     -11.115   7.045  13.934  1.00  0.00     0.171 C 
HETATM   33  O3  UNL     1     -12.135   6.430  14.189  1.00  0.00    -0.646 OA
BRANCH  32  34
HETATM   34  O4  UNL     1     -10.453   6.833  12.784  1.00  0.00    -0.773 OA
HETATM   35  H44 UNL     1     -10.976   6.135  12.342  1.00  0.00     0.167 HD
ENDBRANCH  32  34
ENDBRANCH  30  32
ENDBRANCH  28  29
ENDBRANCH  27  28
ENDBRANCH  25  27
ENDBRANCH   1  25
TORSDOF 6
ENDMDL
MODEL 9
REMARK minimizedAffinity -7.23294353
REMARK CNNscore 0.353294164
REMARK CNNaffinity 6.53200531
REMARK  6 active torsions:
REMARK  status: ('A' for Active; 'I' for Inactive)
REMARK    1  A    between atoms: C2_2  and  C30_32 
REMARK    2  A    between atoms: C3_3  and  C4_4 
REMARK    3  A    between atoms: C4_4  and  C5_5 
REMARK    4  A    between atoms: C5_5  and  C6_6 
REMARK    5  A    between atoms: C6_6  and  C8_8 
REMARK    6  A    between atoms: C30_32  and  O4_34 
ROOT
HETATM    1  C8  UNL     1      -1.348   6.467  12.600  1.00  0.00    -0.002 C 
HETATM    2  C9  UNL     1      -2.614   5.730  13.120  1.00  0.00     0.007 C 
HETATM    3  C10 UNL     1      -3.376   6.709  14.034  1.00  0.00     0.015 C 
HETATM    4  C11 UNL     1      -2.719   8.082  13.797  1.00  0.00    -0.005 C 
HETATM    5  C12 UNL     1      -3.386   8.697  12.528  1.00  0.00     0.021 C 
HETATM    6  C13 UNL     1      -2.819   9.173  14.857  1.00  0.00    -0.000 C 
HETATM    7  C14 UNL     1      -1.839  10.100  15.010  1.00  0.00    -0.060 C 
HETATM    8  C15 UNL     1      -0.577  10.047  14.135  1.00  0.00     0.036 C 
HETATM    9  C16 UNL     1      -0.426   8.868  13.152  1.00  0.00     0.015 C 
HETATM   10  C17 UNL     1      -1.213   7.641  13.618  1.00  0.00    -0.028 C 
HETATM   11  C18 UNL     1      -0.564   7.109  14.936  1.00  0.00     0.016 C 
HETATM   12  C19 UNL     1      -1.893  11.232  16.074  1.00  0.00    -0.014 C 
HETATM   13  C20 UNL     1      -0.983  10.800  17.247  1.00  0.00     0.020 C 
HETATM   14  C21 UNL     1      -1.389  12.566  15.470  1.00  0.00     0.021 C 
HETATM   15  C22 UNL     1      -1.556  13.799  16.345  1.00  0.00     0.080 C 
HETATM   16  C23 UNL     1      -2.402  13.632  17.583  1.00  0.00     0.135 C 
HETATM   17  O1  UNL     1      -2.199  14.381  18.542  1.00  0.00    -0.297 OA
HETATM   18  C24 UNL     1      -3.558  12.623  17.584  1.00  0.00     0.018 C 
HETATM   19  C25 UNL     1      -3.705  12.072  19.021  1.00  0.00     0.023 C 
HETATM   20  C26 UNL     1      -4.832  13.430  17.259  1.00  0.00     0.023 C 
HETATM   21  C27 UNL     1      -3.367  11.496  16.510  1.00  0.00     0.020 C 
HETATM   22  C28 UNL     1      -4.073  10.187  16.868  1.00  0.00     0.090 C 
HETATM   23  C29 UNL     1      -4.050   9.230  15.704  1.00  0.00     0.157 C 
HETATM   24  O2  UNL     1      -5.013   8.497  15.486  1.00  0.00    -0.293 OA
ENDROOT
BRANCH   1  25
HETATM   25  C6  UNL     1      -0.152   5.500  12.374  1.00  0.00    -0.014 C 
HETATM   26  C7  UNL     1      -0.173   4.291  13.316  1.00  0.00     0.010 C 
BRANCH  25  27
HETATM   27  C5  UNL     1       1.232   6.206  12.417  1.00  0.00     0.008 C 
BRANCH  27  28
HETATM   28  C4  UNL     1       1.808   6.785  11.116  1.00  0.00     0.028 C 
BRANCH  28  29
HETATM   29  C3  UNL     1       0.814   7.438  10.200  1.00  0.00    -0.013 C 
HETATM   30  C2  UNL     1       0.985   7.854   8.928  1.00  0.00     0.008 C 
HETATM   31  C1  UNL     1      -0.166   8.380   8.114  1.00  0.00     0.055 C 
BRANCH  30  32
HETATM   32  C30 UNL     1       2.263   7.813   8.181  1.00  0.00     0.171 C 
HETATM   33  O3  UNL     1       2.897   8.787   7.815  1.00  0.00    -0.646 OA
BRANCH  32  34
HETATM   34  O4  UNL     1       2.742   6.572   7.999  1.00  0.00    -0.773 OA
HETATM   35  H44 UNL     1       3.595   6.718   7.542  1.00  0.00     0.167 HD
ENDBRANCH  32  34
ENDBRANCH  30  32
ENDBRANCH  28  29
ENDBRANCH  27  28
ENDBRANCH  25  27
ENDBRANCH   1  25
TORSDOF 6
ENDMDL
