MODEL 1
REMARK minimizedAffinity -9.32526207
REMARK CNNscore 0.716231883
REMARK CNNaffinity 7.23069239
REMARK  13 active torsions:
REMARK  status: ('A' for Active; 'I' for Inactive)
REMARK    1  A    between atoms: C19_21  and  O3_22 
REMARK    2  A    between atoms: C19_21  and  C20_23 
REMARK    3  A    between atoms: C20_23  and  C21_25 
REMARK    4  A    between atoms: C21_25  and  O5_26 
REMARK    5  A    between atoms: O5_26  and  C22_27 
REMARK    6  A    between atoms: C22_27  and  C23_29 
REMARK    7  A    between atoms: C23_29  and  C24_30 
REMARK    8  A    between atoms: C24_30  and  C25_31 
REMARK       I    between atoms: C25_31  and  N1_33 
REMARK    9  A    between atoms: N1_33  and  C26_34 
REMARK   10  A    between atoms: C26_34  and  C27_35 
REMARK   11  A    between atoms: C27_35  and  C28_36 
REMARK   12  A    between atoms: C27_35  and  C29_39 
REMARK   13  A    between atoms: C28_36  and  O9_38 
ROOT
HETATM    1  C20 UNL     1      -1.819  49.488 -21.061  1.00  0.00     0.185 C 
HETATM    2  O4  UNL     1      -0.609  49.255 -21.029  1.00  0.00    -0.292 OA
ENDROOT
BRANCH   1   3
HETATM    3  C19 UNL     1      -2.879  48.412 -21.415  1.00  0.00     0.128 C 
HETATM    4  C14 UNL     1      -4.298  48.594 -20.779  1.00  0.00     0.005 C 
HETATM    5  C13 UNL     1      -5.142  49.719 -21.416  1.00  0.00     0.091 C 
HETATM    6  C15 UNL     1      -4.257  48.845 -19.244  1.00  0.00     0.019 C 
HETATM    7  C16 UNL     1      -4.915  47.171 -21.001  1.00  0.00     0.002 C 
HETATM    8  C12 UNL     1      -6.396  49.139 -22.038  1.00  0.00     0.133 C 
HETATM    9  C11 UNL     1      -6.124  48.113 -23.127  1.00  0.00     0.072 C 
HETATM   10  O2  UNL     1      -7.511  49.436 -21.621  1.00  0.00    -0.297 OA
HETATM   11  C2  UNL     1      -7.201  47.866 -24.250  1.00  0.00    -0.009 C 
HETATM   12  C10 UNL     1      -5.563  46.859 -22.398  1.00  0.00     0.003 C 
HETATM   13  C1  UNL     1      -8.234  49.011 -24.341  1.00  0.00     0.021 C 
HETATM   14  C3  UNL     1      -6.448  47.773 -25.613  1.00  0.00     0.022 C 
HETATM   15  C7  UNL     1      -7.941  46.552 -24.053  1.00  0.00    -0.067 C 
HETATM   16  C4  UNL     1      -7.339  47.381 -26.790  1.00  0.00     0.084 C 
HETATM   17  C5  UNL     1      -8.203  46.183 -26.479  1.00  0.00     0.149 C 
HETATM   18  O1  UNL     1      -8.741  45.524 -27.366  1.00  0.00    -0.293 OA
HETATM   19  C6  UNL     1      -8.410  45.799 -25.063  1.00  0.00     0.053 C 
HETATM   20  C8  UNL     1      -8.010  46.065 -22.637  1.00  0.00     0.035 C 
HETATM   21  C9  UNL     1      -6.590  45.706 -22.219  1.00  0.00     0.010 C 
HETATM   22  C17 UNL     1      -3.745  46.215 -20.706  1.00  0.00     0.009 C 
HETATM   23  C18 UNL     1      -2.452  47.013 -20.934  1.00  0.00     0.047 C 
BRANCH   3  24
HETATM   24  O3  UNL     1      -3.022  48.372 -22.842  1.00  0.00    -0.381 OA
HETATM   25  H25 UNL     1      -2.242  47.923 -23.216  1.00  0.00     0.211 HD
ENDBRANCH   3  24
ENDBRANCH   1   3
BRANCH   1  26
HETATM   26  C21 UNL     1      -2.329  50.882 -20.702  1.00  0.00     0.260 C 
BRANCH  26  27
HETATM   27  O5  UNL     1      -1.246  51.806 -20.619  1.00  0.00    -0.314 OA
BRANCH  27  28
HETATM   28  C22 UNL     1      -0.969  52.225 -19.353  1.00  0.00     0.259 C 
HETATM   29  O6  UNL     1      -1.499  51.791 -18.341  1.00  0.00    -0.265 OA
BRANCH  28  30
HETATM   30  C23 UNL     1       0.026  53.359 -19.397  1.00  0.00     0.120 C 
BRANCH  30  31
HETATM   31  C24 UNL     1       1.280  52.963 -20.166  1.00  0.00     0.112 C 
BRANCH  31  32
HETATM   32  C25 UNL     1       1.422  53.760 -21.447  1.00  0.00     0.218 C 
HETATM   33  O7  UNL     1       2.047  54.813 -21.520  1.00  0.00    -0.274 OA
HETATM   34  N1  UNL     1       0.791  53.169 -22.520  1.00  0.00    -0.360 N 
HETATM   35  H32 UNL     1       0.064  52.490 -22.321  1.00  0.00     0.162 HD
BRANCH  34  36
HETATM   36  C26 UNL     1       0.691  53.854 -23.803  1.00  0.00     0.142 C 
BRANCH  36  37
HETATM   37  C27 UNL     1      -0.279  53.170 -24.786  1.00  0.00     0.134 C 
BRANCH  37  38
HETATM   38  C28 UNL     1      -1.110  52.098 -24.088  1.00  0.00     0.150 C 
HETATM   39  O8  UNL     1      -0.917  50.893 -24.068  1.00  0.00    -0.649 OA
BRANCH  38  40
HETATM   40  O9  UNL     1      -2.216  52.582 -23.476  1.00  0.00    -0.776 OA
HETATM   41  H36 UNL     1      -2.661  51.764 -23.162  1.00  0.00     0.167 HD
ENDBRANCH  38  40
ENDBRANCH  37  38
BRANCH  37  42
HETATM   42  C29 UNL     1       0.502  52.630 -25.980  1.00  0.00    -0.042 A 
HETATM   43  C30 UNL     1       1.763  52.048 -25.777  1.00  0.00     0.008 A 
HETATM   44  C31 UNL     1       2.486  51.525 -26.852  1.00  0.00     0.001 A 
HETATM   45  C32 UNL     1       1.956  51.571 -28.140  1.00  0.00     0.000 A 
HETATM   46  C33 UNL     1       0.701  52.137 -28.353  1.00  0.00     0.001 A 
HETATM   47  C34 UNL     1      -0.025  52.660 -27.281  1.00  0.00     0.008 A 
ENDBRANCH  37  42
ENDBRANCH  36  37
ENDBRANCH  34  36
ENDBRANCH  31  32
ENDBRANCH  30  31
ENDBRANCH  28  30
ENDBRANCH  27  28
ENDBRANCH  26  27
ENDBRANCH   1  26
TORSDOF 13
ENDMDL
MODEL 2
REMARK minimizedAffinity -8.7911644
REMARK CNNscore 0.523627937
REMARK CNNaffinity 7.17668772
REMARK  13 active torsions:
REMARK  status: ('A' for Active; 'I' for Inactive)
REMARK    1  A    between atoms: C19_21  and  O3_22 
REMARK    2  A    between atoms: C19_21  and  C20_23 
REMARK    3  A    between atoms: C20_23  and  C21_25 
REMARK    4  A    between atoms: C21_25  and  O5_26 
REMARK    5  A    between atoms: O5_26  and  C22_27 
REMARK    6  A    between atoms: C22_27  and  C23_29 
REMARK    7  A    between atoms: C23_29  and  C24_30 
REMARK    8  A    between atoms: C24_30  and  C25_31 
REMARK       I    between atoms: C25_31  and  N1_33 
REMARK    9  A    between atoms: N1_33  and  C26_34 
REMARK   10  A    between atoms: C26_34  and  C27_35 
REMARK   11  A    between atoms: C27_35  and  C28_36 
REMARK   12  A    between atoms: C27_35  and  C29_39 
REMARK   13  A    between atoms: C28_36  and  O9_38 
ROOT
HETATM    1  C20 UNL     1      -2.103  50.273 -20.634  1.00  0.00     0.185 C 
HETATM    2  O4  UNL     1      -1.281  49.363 -20.760  1.00  0.00    -0.292 OA
ENDROOT
BRANCH   1   3
HETATM    3  C19 UNL     1      -3.611  50.101 -20.957  1.00  0.00     0.128 C 
HETATM    4  C14 UNL     1      -4.011  48.820 -21.762  1.00  0.00     0.005 C 
HETATM    5  C13 UNL     1      -3.978  47.514 -20.940  1.00  0.00     0.091 C 
HETATM    6  C15 UNL     1      -3.145  48.599 -23.037  1.00  0.00     0.019 C 
HETATM    7  C16 UNL     1      -5.454  49.200 -22.241  1.00  0.00     0.002 C 
HETATM    8  C12 UNL     1      -5.364  46.906 -20.873  1.00  0.00     0.133 C 
HETATM    9  C11 UNL     1      -6.402  47.813 -20.229  1.00  0.00     0.072 C 
HETATM   10  O2  UNL     1      -5.606  45.813 -21.372  1.00  0.00    -0.297 OA
HETATM   11  C2  UNL     1      -7.673  47.180 -19.547  1.00  0.00    -0.009 C 
HETATM   12  C10 UNL     1      -6.646  48.966 -21.245  1.00  0.00     0.003 C 
HETATM   13  C1  UNL     1      -7.495  45.675 -19.247  1.00  0.00     0.021 C 
HETATM   14  C3  UNL     1      -7.903  47.927 -18.196  1.00  0.00     0.022 C 
HETATM   15  C7  UNL     1      -8.926  47.369 -20.386  1.00  0.00    -0.067 C 
HETATM   16  C4  UNL     1      -9.194  47.533 -17.481  1.00  0.00     0.084 C 
HETATM   17  C5  UNL     1     -10.387  47.545 -18.405  1.00  0.00     0.149 C 
HETATM   18  O1  UNL     1     -11.538  47.573 -17.976  1.00  0.00    -0.293 OA
HETATM   19  C6  UNL     1     -10.158  47.517 -19.868  1.00  0.00     0.053 C 
HETATM   20  C8  UNL     1      -8.692  47.513 -21.860  1.00  0.00     0.035 C 
HETATM   21  C9  UNL     1      -7.957  48.831 -22.069  1.00  0.00     0.010 C 
HETATM   22  C17 UNL     1      -5.333  50.687 -22.622  1.00  0.00     0.009 C 
HETATM   23  C18 UNL     1      -4.140  51.250 -21.834  1.00  0.00     0.047 C 
BRANCH   3  24
HETATM   24  O3  UNL     1      -4.340  50.107 -19.720  1.00  0.00    -0.381 OA
HETATM   25  H25 UNL     1      -4.375  51.023 -19.389  1.00  0.00     0.211 HD
ENDBRANCH   3  24
ENDBRANCH   1   3
BRANCH   1  26
HETATM   26  C21 UNL     1      -1.651  51.630 -20.100  1.00  0.00     0.260 C 
BRANCH  26  27
HETATM   27  O5  UNL     1      -1.102  51.496 -18.791  1.00  0.00    -0.314 OA
BRANCH  27  28
HETATM   28  C22 UNL     1       0.005  52.259 -18.572  1.00  0.00     0.259 C 
HETATM   29  O6  UNL     1       0.732  52.174 -17.594  1.00  0.00    -0.265 OA
BRANCH  28  30
HETATM   30  C23 UNL     1       0.149  53.278 -19.677  1.00  0.00     0.120 C 
BRANCH  30  31
HETATM   31  C24 UNL     1       1.493  53.142 -20.381  1.00  0.00     0.112 C 
BRANCH  31  32
HETATM   32  C25 UNL     1       1.528  53.937 -21.671  1.00  0.00     0.218 C 
HETATM   33  O7  UNL     1       2.122  55.005 -21.788  1.00  0.00    -0.274 OA
HETATM   34  N1  UNL     1       0.840  53.327 -22.697  1.00  0.00    -0.360 N 
HETATM   35  H32 UNL     1       0.145  52.632 -22.447  1.00  0.00     0.162 HD
BRANCH  34  36
HETATM   36  C26 UNL     1       0.637  54.004 -23.972  1.00  0.00     0.142 C 
BRANCH  36  37
HETATM   37  C27 UNL     1      -0.298  53.237 -24.927  1.00  0.00     0.134 C 
BRANCH  37  38
HETATM   38  C28 UNL     1      -1.157  52.229 -24.171  1.00  0.00     0.150 C 
HETATM   39  O8  UNL     1      -0.863  51.091 -23.840  1.00  0.00    -0.649 OA
BRANCH  38  40
HETATM   40  O9  UNL     1      -2.408  52.673 -23.906  1.00  0.00    -0.776 OA
HETATM   41  H36 UNL     1      -2.833  51.884 -23.502  1.00  0.00     0.167 HD
ENDBRANCH  38  40
ENDBRANCH  37  38
BRANCH  37  42
HETATM   42  C29 UNL     1       0.524  52.598 -26.041  1.00  0.00    -0.042 A 
HETATM   43  C30 UNL     1       0.069  52.668 -27.368  1.00  0.00     0.008 A 
HETATM   44  C31 UNL     1       0.817  52.113 -28.407  1.00  0.00     0.001 A 
HETATM   45  C32 UNL     1       2.032  51.485 -28.137  1.00  0.00     0.000 A 
HETATM   46  C33 UNL     1       2.501  51.417 -26.826  1.00  0.00     0.001 A 
HETATM   47  C34 UNL     1       1.755  51.972 -25.785  1.00  0.00     0.008 A 
ENDBRANCH  37  42
ENDBRANCH  36  37
ENDBRANCH  34  36
ENDBRANCH  31  32
ENDBRANCH  30  31
ENDBRANCH  28  30
ENDBRANCH  27  28
ENDBRANCH  26  27
ENDBRANCH   1  26
TORSDOF 13
ENDMDL
MODEL 3
REMARK minimizedAffinity -8.37972832
REMARK CNNscore 0.480818838
REMARK CNNaffinity 6.18459749
REMARK  13 active torsions:
REMARK  status: ('A' for Active; 'I' for Inactive)
REMARK    1  A    between atoms: C19_21  and  O3_22 
REMARK    2  A    between atoms: C19_21  and  C20_23 
REMARK    3  A    between atoms: C20_23  and  C21_25 
REMARK    4  A    between atoms: C21_25  and  O5_26 
REMARK    5  A    between atoms: O5_26  and  C22_27 
REMARK    6  A    between atoms: C22_27  and  C23_29 
REMARK    7  A    between atoms: C23_29  and  C24_30 
REMARK    8  A    between atoms: C24_30  and  C25_31 
REMARK       I    between atoms: C25_31  and  N1_33 
REMARK    9  A    between atoms: N1_33  and  C26_34 
REMARK   10  A    between atoms: C26_34  and  C27_35 
REMARK   11  A    between atoms: C27_35  and  C28_36 
REMARK   12  A    between atoms: C27_35  and  C29_39 
REMARK   13  A    between atoms: C28_36  and  O9_38 
ROOT
HETATM    1  C20 UNL     1      -9.868  47.968 -26.804  1.00  0.00     0.185 C 
HETATM    2  O4  UNL     1      -9.072  48.529 -27.560  1.00  0.00    -0.292 OA
ENDROOT
BRANCH   1   3
HETATM    3  C19 UNL     1     -11.274  47.493 -27.258  1.00  0.00     0.128 C 
HETATM    4  C14 UNL     1     -11.549  45.954 -27.184  1.00  0.00     0.005 C 
HETATM    5  C13 UNL     1     -11.763  45.413 -25.753  1.00  0.00     0.091 C 
HETATM    6  C15 UNL     1     -10.434  45.096 -27.851  1.00  0.00     0.019 C 
HETATM    7  C16 UNL     1     -12.829  45.830 -28.078  1.00  0.00     0.002 C 
HETATM    8  C12 UNL     1     -13.159  44.838 -25.618  1.00  0.00     0.133 C 
HETATM    9  C11 UNL     1     -14.267  45.845 -25.887  1.00  0.00     0.072 C 
HETATM   10  O2  UNL     1     -13.338  43.647 -25.390  1.00  0.00    -0.297 OA
HETATM   11  C2  UNL     1     -15.687  45.630 -25.241  1.00  0.00    -0.009 C 
HETATM   12  C10 UNL     1     -14.222  46.127 -27.416  1.00  0.00     0.003 C 
HETATM   13  C1  UNL     1     -15.656  44.632 -24.062  1.00  0.00     0.021 C 
HETATM   14  C3  UNL     1     -16.174  47.012 -24.702  1.00  0.00     0.022 C 
HETATM   15  C7  UNL     1     -16.712  45.156 -26.258  1.00  0.00    -0.067 C 
HETATM   16  C4  UNL     1     -17.608  47.004 -24.179  1.00  0.00     0.084 C 
HETATM   17  C5  UNL     1     -18.565  46.345 -25.142  1.00  0.00     0.149 C 
HETATM   18  O1  UNL     1     -19.780  46.514 -25.066  1.00  0.00    -0.293 OA
HETATM   19  C6  UNL     1     -18.020  45.466 -26.203  1.00  0.00     0.053 C 
HETATM   20  C8  UNL     1     -16.151  44.408 -27.429  1.00  0.00     0.035 C 
HETATM   21  C9  UNL     1     -15.324  45.400 -28.237  1.00  0.00     0.010 C 
HETATM   22  C17 UNL     1     -12.553  46.793 -29.247  1.00  0.00     0.009 C 
HETATM   23  C18 UNL     1     -11.538  47.828 -28.737  1.00  0.00     0.047 C 
BRANCH   3  24
HETATM   24  O3  UNL     1     -12.258  48.169 -26.462  1.00  0.00    -0.381 OA
HETATM   25  H25 UNL     1     -12.319  49.092 -26.769  1.00  0.00     0.211 HD
ENDBRANCH   3  24
ENDBRANCH   1   3
BRANCH   1  26
HETATM   26  C21 UNL     1      -9.463  47.678 -25.361  1.00  0.00     0.260 C 
BRANCH  26  27
HETATM   27  O5  UNL     1      -8.632  48.720 -24.855  1.00  0.00    -0.314 OA
BRANCH  27  28
HETATM   28  C22 UNL     1      -7.350  48.333 -24.600  1.00  0.00     0.259 C 
HETATM   29  O6  UNL     1      -6.563  47.922 -25.440  1.00  0.00    -0.265 OA
BRANCH  28  30
HETATM   30  C23 UNL     1      -7.079  48.412 -23.117  1.00  0.00     0.120 C 
BRANCH  30  31
HETATM   31  C24 UNL     1      -7.520  49.754 -22.546  1.00  0.00     0.112 C 
BRANCH  31  32
HETATM   32  C25 UNL     1      -6.551  50.255 -21.494  1.00  0.00     0.218 C 
HETATM   33  O7  UNL     1      -6.683  50.028 -20.295  1.00  0.00    -0.274 OA
HETATM   34  N1  UNL     1      -5.503  50.975 -22.026  1.00  0.00    -0.360 N 
HETATM   35  H32 UNL     1      -5.628  51.367 -22.953  1.00  0.00     0.162 HD
BRANCH  34  36
HETATM   36  C26 UNL     1      -4.550  51.661 -21.164  1.00  0.00     0.142 C 
BRANCH  36  37
HETATM   37  C27 UNL     1      -3.271  50.843 -20.895  1.00  0.00     0.134 C 
BRANCH  37  38
HETATM   38  C28 UNL     1      -2.977  50.751 -19.402  1.00  0.00     0.150 C 
HETATM   39  O8  UNL     1      -2.972  51.655 -18.580  1.00  0.00    -0.649 OA
BRANCH  38  40
HETATM   40  O9  UNL     1      -2.629  49.509 -18.993  1.00  0.00    -0.776 OA
HETATM   41  H36 UNL     1      -2.399  49.652 -18.048  1.00  0.00     0.167 HD
ENDBRANCH  38  40
ENDBRANCH  37  38
BRANCH  37  42
HETATM   42  C29 UNL     1      -2.112  51.432 -21.693  1.00  0.00    -0.042 A 
HETATM   43  C30 UNL     1      -0.841  51.524 -21.104  1.00  0.00     0.008 A 
HETATM   44  C31 UNL     1       0.241  52.036 -21.823  1.00  0.00     0.001 A 
HETATM   45  C32 UNL     1       0.069  52.457 -23.141  1.00  0.00     0.000 A 
HETATM   46  C33 UNL     1      -1.185  52.361 -23.741  1.00  0.00     0.001 A 
HETATM   47  C34 UNL     1      -2.269  51.849 -23.025  1.00  0.00     0.008 A 
ENDBRANCH  37  42
ENDBRANCH  36  37
ENDBRANCH  34  36
ENDBRANCH  31  32
ENDBRANCH  30  31
ENDBRANCH  28  30
ENDBRANCH  27  28
ENDBRANCH  26  27
ENDBRANCH   1  26
TORSDOF 13
ENDMDL
MODEL 4
REMARK minimizedAffinity -9.48635006
REMARK CNNscore 0.473534077
REMARK CNNaffinity 7.1850276
REMARK  13 active torsions:
REMARK  status: ('A' for Active; 'I' for Inactive)
REMARK    1  A    between atoms: C19_21  and  O3_22 
REMARK    2  A    between atoms: C19_21  and  C20_23 
REMARK    3  A    between atoms: C20_23  and  C21_25 
REMARK    4  A    between atoms: C21_25  and  O5_26 
REMARK    5  A    between atoms: O5_26  and  C22_27 
REMARK    6  A    between atoms: C22_27  and  C23_29 
REMARK    7  A    between atoms: C23_29  and  C24_30 
REMARK    8  A    between atoms: C24_30  and  C25_31 
REMARK       I    between atoms: C25_31  and  N1_33 
REMARK    9  A    between atoms: N1_33  and  C26_34 
REMARK   10  A    between atoms: C26_34  and  C27_35 
REMARK   11  A    between atoms: C27_35  and  C28_36 
REMARK   12  A    between atoms: C27_35  and  C29_39 
REMARK   13  A    between atoms: C28_36  and  O9_38 
ROOT
HETATM    1  C20 UNL     1      -0.472  51.803 -18.940  1.00  0.00     0.185 C 
HETATM    2  O4  UNL     1      -0.094  51.677 -17.773  1.00  0.00    -0.292 OA
ENDROOT
BRANCH   1   3
HETATM    3  C19 UNL     1      -1.180  50.669 -19.727  1.00  0.00     0.128 C 
HETATM    4  C14 UNL     1      -1.871  49.553 -18.874  1.00  0.00     0.005 C 
HETATM    5  C13 UNL     1      -3.190  49.990 -18.201  1.00  0.00     0.091 C 
HETATM    6  C15 UNL     1      -0.948  48.964 -17.767  1.00  0.00     0.019 C 
HETATM    7  C16 UNL     1      -2.079  48.433 -19.949  1.00  0.00     0.002 C 
HETATM    8  C12 UNL     1      -4.342  49.156 -18.724  1.00  0.00     0.133 C 
HETATM    9  C11 UNL     1      -4.548  49.268 -20.227  1.00  0.00     0.072 C 
HETATM   10  O2  UNL     1      -4.977  48.411 -17.986  1.00  0.00    -0.297 OA
HETATM   11  C2  UNL     1      -5.972  48.991 -20.840  1.00  0.00    -0.009 C 
HETATM   12  C10 UNL     1      -3.343  48.529 -20.877  1.00  0.00     0.003 C 
HETATM   13  C1  UNL     1      -7.094  49.048 -19.779  1.00  0.00     0.021 C 
HETATM   14  C3  UNL     1      -6.248  50.095 -21.908  1.00  0.00     0.022 C 
HETATM   15  C7  UNL     1      -6.037  47.650 -21.551  1.00  0.00    -0.067 C 
HETATM   16  C4  UNL     1      -7.531  49.879 -22.707  1.00  0.00     0.084 C 
HETATM   17  C5  UNL     1      -7.648  48.469 -23.232  1.00  0.00     0.149 C 
HETATM   18  O1  UNL     1      -8.420  48.178 -24.144  1.00  0.00    -0.293 OA
HETATM   19  C6  UNL     1      -6.810  47.409 -22.625  1.00  0.00     0.053 C 
HETATM   20  C8  UNL     1      -5.071  46.616 -21.055  1.00  0.00     0.035 C 
HETATM   21  C9  UNL     1      -3.673  47.106 -21.409  1.00  0.00     0.010 C 
HETATM   22  C17 UNL     1      -0.780  48.473 -20.775  1.00  0.00     0.009 C 
HETATM   23  C18 UNL     1      -0.190  49.882 -20.605  1.00  0.00     0.047 C 
BRANCH   3  24
HETATM   24  O3  UNL     1      -2.167  51.262 -20.583  1.00  0.00    -0.381 OA
HETATM   25  H25 UNL     1      -1.709  51.683 -21.334  1.00  0.00     0.211 HD
ENDBRANCH   3  24
ENDBRANCH   1   3
BRANCH   1  26
HETATM   26  C21 UNL     1      -0.284  53.139 -19.654  1.00  0.00     0.260 C 
BRANCH  26  27
HETATM   27  O5  UNL     1      -0.155  52.942 -21.061  1.00  0.00    -0.314 OA
BRANCH  27  28
HETATM   28  C22 UNL     1       0.950  53.524 -21.604  1.00  0.00     0.259 C 
HETATM   29  O6  UNL     1       1.678  54.318 -21.028  1.00  0.00    -0.265 OA
BRANCH  28  30
HETATM   30  C23 UNL     1       1.090  53.103 -23.047  1.00  0.00     0.120 C 
BRANCH  30  31
HETATM   31  C24 UNL     1       1.026  54.305 -23.981  1.00  0.00     0.112 C 
BRANCH  31  32
HETATM   32  C25 UNL     1      -0.015  54.111 -25.066  1.00  0.00     0.218 C 
HETATM   33  O7  UNL     1      -0.202  54.918 -25.971  1.00  0.00    -0.274 OA
HETATM   34  N1  UNL     1      -0.713  52.930 -24.937  1.00  0.00    -0.360 N 
HETATM   35  H32 UNL     1      -0.716  52.485 -24.025  1.00  0.00     0.162 HD
BRANCH  34  36
HETATM   36  C26 UNL     1      -1.852  52.633 -25.796  1.00  0.00     0.142 C 
BRANCH  36  37
HETATM   37  C27 UNL     1      -1.458  51.926 -27.108  1.00  0.00     0.134 C 
BRANCH  37  38
HETATM   38  C28 UNL     1      -2.262  50.645 -27.309  1.00  0.00     0.150 C 
HETATM   39  O8  UNL     1      -2.305  49.664 -26.584  1.00  0.00    -0.649 OA
BRANCH  38  40
HETATM   40  O9  UNL     1      -2.950  50.614 -28.473  1.00  0.00    -0.776 OA
HETATM   41  H36 UNL     1      -3.330  49.708 -28.473  1.00  0.00     0.167 HD
ENDBRANCH  38  40
ENDBRANCH  37  38
BRANCH  37  42
HETATM   42  C29 UNL     1       0.049  51.689 -27.127  1.00  0.00    -0.042 A 
HETATM   43  C30 UNL     1       0.826  52.254 -28.151  1.00  0.00     0.008 A 
HETATM   44  C31 UNL     1       2.211  52.073 -28.175  1.00  0.00     0.001 A 
HETATM   45  C32 UNL     1       2.837  51.331 -27.175  1.00  0.00     0.000 A 
HETATM   46  C33 UNL     1       2.078  50.773 -26.147  1.00  0.00     0.001 A 
HETATM   47  C34 UNL     1       0.694  50.954 -26.119  1.00  0.00     0.008 A 
ENDBRANCH  37  42
ENDBRANCH  36  37
ENDBRANCH  34  36
ENDBRANCH  31  32
ENDBRANCH  30  31
ENDBRANCH  28  30
ENDBRANCH  27  28
ENDBRANCH  26  27
ENDBRANCH   1  26
TORSDOF 13
ENDMDL
MODEL 5
REMARK minimizedAffinity -8.84770966
REMARK CNNscore 0.43089819
REMARK CNNaffinity 6.80924797
REMARK  13 active torsions:
REMARK  status: ('A' for Active; 'I' for Inactive)
REMARK    1  A    between atoms: C19_21  and  O3_22 
REMARK    2  A    between atoms: C19_21  and  C20_23 
REMARK    3  A    between atoms: C20_23  and  C21_25 
REMARK    4  A    between atoms: C21_25  and  O5_26 
REMARK    5  A    between atoms: O5_26  and  C22_27 
REMARK    6  A    between atoms: C22_27  and  C23_29 
REMARK    7  A    between atoms: C23_29  and  C24_30 
REMARK    8  A    between atoms: C24_30  and  C25_31 
REMARK       I    between atoms: C25_31  and  N1_33 
REMARK    9  A    between atoms: N1_33  and  C26_34 
REMARK   10  A    between atoms: C26_34  and  C27_35 
REMARK   11  A    between atoms: C27_35  and  C28_36 
REMARK   12  A    between atoms: C27_35  and  C29_39 
REMARK   13  A    between atoms: C28_36  and  O9_38 
ROOT
HETATM    1  C20 UNL     1      -5.678  48.475 -24.624  1.00  0.00     0.185 C 
HETATM    2  O4  UNL     1      -6.773  47.910 -24.662  1.00  0.00    -0.292 OA
ENDROOT
BRANCH   1   3
HETATM    3  C19 UNL     1      -5.209  49.328 -23.416  1.00  0.00     0.128 C 
HETATM    4  C14 UNL     1      -4.613  48.547 -22.198  1.00  0.00     0.005 C 
HETATM    5  C13 UNL     1      -3.193  47.989 -22.431  1.00  0.00     0.091 C 
HETATM    6  C15 UNL     1      -5.512  47.368 -21.724  1.00  0.00     0.019 C 
HETATM    7  C16 UNL     1      -4.659  49.643 -21.080  1.00  0.00     0.002 C 
HETATM    8  C12 UNL     1      -2.220  48.617 -21.454  1.00  0.00     0.133 C 
HETATM    9  C11 UNL     1      -2.130  50.131 -21.564  1.00  0.00     0.072 C 
HETATM   10  O2  UNL     1      -1.637  47.942 -20.612  1.00  0.00    -0.297 OA
HETATM   11  C2  UNL     1      -0.817  50.868 -21.101  1.00  0.00    -0.009 C 
HETATM   12  C10 UNL     1      -3.478  50.678 -21.015  1.00  0.00     0.003 C 
HETATM   13  C1  UNL     1       0.388  49.909 -20.979  1.00  0.00     0.021 C 
HETATM   14  C3  UNL     1      -0.479  51.949 -22.175  1.00  0.00     0.022 C 
HETATM   15  C7  UNL     1      -1.005  51.592 -19.777  1.00  0.00    -0.067 C 
HETATM   16  C4  UNL     1       0.686  52.859 -21.795  1.00  0.00     0.084 C 
HETATM   17  C5  UNL     1       0.556  53.402 -20.393  1.00  0.00     0.149 C 
HETATM   18  O1  UNL     1       1.197  54.379 -20.014  1.00  0.00    -0.293 OA
HETATM   19  C6  UNL     1      -0.369  52.730 -19.450  1.00  0.00     0.053 C 
HETATM   20  C8  UNL     1      -2.062  51.020 -18.881  1.00  0.00     0.035 C 
HETATM   21  C9  UNL     1      -3.401  51.247 -19.570  1.00  0.00     0.010 C 
HETATM   22  C17 UNL     1      -6.005  50.353 -21.319  1.00  0.00     0.009 C 
HETATM   23  C18 UNL     1      -6.372  50.122 -22.794  1.00  0.00     0.047 C 
BRANCH   3  24
HETATM   24  O3  UNL     1      -4.224  50.264 -23.881  1.00  0.00    -0.381 OA
HETATM   25  H25 UNL     1      -4.681  50.968 -24.376  1.00  0.00     0.211 HD
ENDBRANCH   3  24
ENDBRANCH   1   3
BRANCH   1  26
HETATM   26  C21 UNL     1      -4.703  48.311 -25.787  1.00  0.00     0.260 C 
BRANCH  26  27
HETATM   27  O5  UNL     1      -5.410  48.134 -27.013  1.00  0.00    -0.314 OA
BRANCH  27  28
HETATM   28  C22 UNL     1      -4.652  48.341 -28.126  1.00  0.00     0.259 C 
HETATM   29  O6  UNL     1      -3.692  49.094 -28.188  1.00  0.00    -0.265 OA
BRANCH  28  30
HETATM   30  C23 UNL     1      -5.226  47.564 -29.286  1.00  0.00     0.120 C 
BRANCH  30  31
HETATM   31  C24 UNL     1      -5.315  48.427 -30.538  1.00  0.00     0.112 C 
BRANCH  31  32
HETATM   32  C25 UNL     1      -6.715  48.425 -31.116  1.00  0.00     0.218 C 
HETATM   33  O7  UNL     1      -6.968  48.081 -32.267  1.00  0.00    -0.274 OA
HETATM   34  N1  UNL     1      -7.672  48.832 -30.212  1.00  0.00    -0.360 N 
HETATM   35  H32 UNL     1      -7.361  49.375 -29.413  1.00  0.00     0.162 HD
BRANCH  34  36
HETATM   36  C26 UNL     1      -9.056  49.035 -30.622  1.00  0.00     0.142 C 
BRANCH  36  37
HETATM   37  C27 UNL     1     -10.068  48.252 -29.764  1.00  0.00     0.134 C 
BRANCH  37  38
HETATM   38  C28 UNL     1      -9.506  47.956 -28.377  1.00  0.00     0.150 C 
HETATM   39  O8  UNL     1      -9.493  46.889 -27.784  1.00  0.00    -0.649 OA
BRANCH  38  40
HETATM   40  O9  UNL     1      -9.026  49.050 -27.742  1.00  0.00    -0.776 OA
HETATM   41  H36 UNL     1      -8.790  48.697 -26.856  1.00  0.00     0.167 HD
ENDBRANCH  38  40
ENDBRANCH  37  38
BRANCH  37  42
HETATM   42  C29 UNL     1     -10.501  46.993 -30.509  1.00  0.00    -0.042 A 
HETATM   43  C30 UNL     1     -10.153  46.833 -31.859  1.00  0.00     0.008 A 
HETATM   44  C31 UNL     1     -10.517  45.678 -32.555  1.00  0.00     0.001 A 
HETATM   45  C32 UNL     1     -11.227  44.667 -31.910  1.00  0.00     0.000 A 
HETATM   46  C33 UNL     1     -11.571  44.809 -30.567  1.00  0.00     0.001 A 
HETATM   47  C34 UNL     1     -11.208  45.962 -29.868  1.00  0.00     0.008 A 
ENDBRANCH  37  42
ENDBRANCH  36  37
ENDBRANCH  34  36
ENDBRANCH  31  32
ENDBRANCH  30  31
ENDBRANCH  28  30
ENDBRANCH  27  28
ENDBRANCH  26  27
ENDBRANCH   1  26
TORSDOF 13
ENDMDL
MODEL 6
REMARK minimizedAffinity -9.37846279
REMARK CNNscore 0.408814728
REMARK CNNaffinity 7.09323359
REMARK  13 active torsions:
REMARK  status: ('A' for Active; 'I' for Inactive)
REMARK    1  A    between atoms: C19_21  and  O3_22 
REMARK    2  A    between atoms: C19_21  and  C20_23 
REMARK    3  A    between atoms: C20_23  and  C21_25 
REMARK    4  A    between atoms: C21_25  and  O5_26 
REMARK    5  A    between atoms: O5_26  and  C22_27 
REMARK    6  A    between atoms: C22_27  and  C23_29 
REMARK    7  A    between atoms: C23_29  and  C24_30 
REMARK    8  A    between atoms: C24_30  and  C25_31 
REMARK       I    between atoms: C25_31  and  N1_33 
REMARK    9  A    between atoms: N1_33  and  C26_34 
REMARK   10  A    between atoms: C26_34  and  C27_35 
REMARK   11  A    between atoms: C27_35  and  C28_36 
REMARK   12  A    between atoms: C27_35  and  C29_39 
REMARK   13  A    between atoms: C28_36  and  O9_38 
ROOT
HETATM    1  C20 UNL     1      -2.879  48.502 -18.006  1.00  0.00     0.185 C 
HETATM    2  O4  UNL     1      -2.663  47.809 -17.011  1.00  0.00    -0.292 OA
ENDROOT
BRANCH   1   3
HETATM    3  C19 UNL     1      -3.551  47.951 -19.291  1.00  0.00     0.128 C 
HETATM    4  C14 UNL     1      -4.928  48.582 -19.686  1.00  0.00     0.005 C 
HETATM    5  C13 UNL     1      -4.831  50.005 -20.277  1.00  0.00     0.091 C 
HETATM    6  C15 UNL     1      -5.944  48.627 -18.508  1.00  0.00     0.019 C 
HETATM    7  C16 UNL     1      -5.460  47.530 -20.718  1.00  0.00     0.002 C 
HETATM    8  C12 UNL     1      -5.348  50.013 -21.701  1.00  0.00     0.133 C 
HETATM    9  C11 UNL     1      -4.585  49.088 -22.636  1.00  0.00     0.072 C 
HETATM   10  O2  UNL     1      -6.342  50.660 -22.015  1.00  0.00    -0.297 OA
HETATM   11  C2  UNL     1      -4.563  49.390 -24.182  1.00  0.00    -0.009 C 
HETATM   12  C10 UNL     1      -4.964  47.642 -22.205  1.00  0.00     0.003 C 
HETATM   13  C1  UNL     1      -4.978  50.843 -24.507  1.00  0.00     0.021 C 
HETATM   14  C3  UNL     1      -3.102  49.172 -24.684  1.00  0.00     0.022 C 
HETATM   15  C7  UNL     1      -5.455  48.439 -24.964  1.00  0.00    -0.067 C 
HETATM   16  C4  UNL     1      -2.943  49.277 -26.199  1.00  0.00     0.084 C 
HETATM   17  C5  UNL     1      -3.978  48.467 -26.941  1.00  0.00     0.149 C 
HETATM   18  O1  UNL     1      -3.837  48.162 -28.123  1.00  0.00    -0.293 OA
HETATM   19  C6  UNL     1      -5.198  48.035 -26.220  1.00  0.00     0.053 C 
HETATM   20  C8  UNL     1      -6.602  47.859 -24.192  1.00  0.00     0.035 C 
HETATM   21  C9  UNL     1      -6.007  46.948 -23.126  1.00  0.00     0.010 C 
HETATM   22  C17 UNL     1      -5.061  46.177 -20.101  1.00  0.00     0.009 C 
HETATM   23  C18 UNL     1      -3.872  46.450 -19.167  1.00  0.00     0.047 C 
BRANCH   3  24
HETATM   24  O3  UNL     1      -2.640  48.126 -20.387  1.00  0.00    -0.381 OA
HETATM   25  H25 UNL     1      -1.932  47.461 -20.307  1.00  0.00     0.211 HD
ENDBRANCH   3  24
ENDBRANCH   1   3
BRANCH   1  26
HETATM   26  C21 UNL     1      -2.517  49.985 -17.986  1.00  0.00     0.260 C 
BRANCH  26  27
HETATM   27  O5  UNL     1      -1.721  50.322 -19.121  1.00  0.00    -0.314 OA
BRANCH  27  28
HETATM   28  C22 UNL     1      -0.712  51.197 -18.851  1.00  0.00     0.259 C 
HETATM   29  O6  UNL     1      -0.166  51.322 -17.765  1.00  0.00    -0.265 OA
BRANCH  28  30
HETATM   30  C23 UNL     1      -0.429  52.041 -20.070  1.00  0.00     0.120 C 
BRANCH  30  31
HETATM   31  C24 UNL     1       0.775  52.948 -19.846  1.00  0.00     0.112 C 
BRANCH  31  32
HETATM   32  C25 UNL     1       1.214  53.617 -21.132  1.00  0.00     0.218 C 
HETATM   33  O7  UNL     1       1.903  54.632 -21.162  1.00  0.00    -0.274 OA
HETATM   34  N1  UNL     1       0.773  52.958 -22.259  1.00  0.00    -0.360 N 
HETATM   35  H32 UNL     1      -0.018  52.332 -22.156  1.00  0.00     0.162 HD
BRANCH  34  36
HETATM   36  C26 UNL     1       0.970  53.527 -23.587  1.00  0.00     0.142 C 
BRANCH  36  37
HETATM   37  C27 UNL     1      -0.179  53.206 -24.563  1.00  0.00     0.134 C 
BRANCH  37  38
HETATM   38  C28 UNL     1      -1.198  52.264 -23.930  1.00  0.00     0.150 C 
HETATM   39  O8  UNL     1      -2.325  52.527 -23.543  1.00  0.00    -0.649 OA
BRANCH  38  40
HETATM   40  O9  UNL     1      -0.731  51.008 -23.743  1.00  0.00    -0.776 OA
HETATM   41  H36 UNL     1      -1.470  50.575 -23.261  1.00  0.00     0.167 HD
ENDBRANCH  38  40
ENDBRANCH  37  38
BRANCH  37  42
HETATM   42  C29 UNL     1       0.397  52.667 -25.868  1.00  0.00    -0.042 A 
HETATM   43  C30 UNL     1       1.700  52.144 -25.887  1.00  0.00     0.008 A 
HETATM   44  C31 UNL     1       2.240  51.621 -27.064  1.00  0.00     0.001 A 
HETATM   45  C32 UNL     1       1.484  51.608 -28.235  1.00  0.00     0.000 A 
HETATM   46  C33 UNL     1       0.185  52.115 -28.228  1.00  0.00     0.001 A 
HETATM   47  C34 UNL     1      -0.358  52.637 -27.053  1.00  0.00     0.008 A 
ENDBRANCH  37  42
ENDBRANCH  36  37
ENDBRANCH  34  36
ENDBRANCH  31  32
ENDBRANCH  30  31
ENDBRANCH  28  30
ENDBRANCH  27  28
ENDBRANCH  26  27
ENDBRANCH   1  26
TORSDOF 13
ENDMDL
MODEL 7
REMARK minimizedAffinity -9.25624466
REMARK CNNscore 0.388143331
REMARK CNNaffinity 6.76468086
REMARK  13 active torsions:
REMARK  status: ('A' for Active; 'I' for Inactive)
REMARK    1  A    between atoms: C19_21  and  O3_22 
REMARK    2  A    between atoms: C19_21  and  C20_23 
REMARK    3  A    between atoms: C20_23  and  C21_25 
REMARK    4  A    between atoms: C21_25  and  O5_26 
REMARK    5  A    between atoms: O5_26  and  C22_27 
REMARK    6  A    between atoms: C22_27  and  C23_29 
REMARK    7  A    between atoms: C23_29  and  C24_30 
REMARK    8  A    between atoms: C24_30  and  C25_31 
REMARK       I    between atoms: C25_31  and  N1_33 
REMARK    9  A    between atoms: N1_33  and  C26_34 
REMARK   10  A    between atoms: C26_34  and  C27_35 
REMARK   11  A    between atoms: C27_35  and  C28_36 
REMARK   12  A    between atoms: C27_35  and  C29_39 
REMARK   13  A    between atoms: C28_36  and  O9_38 
ROOT
HETATM    1  C20 UNL     1      -5.665  48.289 -29.688  1.00  0.00     0.185 C 
HETATM    2  O4  UNL     1      -4.928  48.507 -30.651  1.00  0.00    -0.292 OA
ENDROOT
BRANCH   1   3
HETATM    3  C19 UNL     1      -7.194  48.061 -29.828  1.00  0.00     0.128 C 
HETATM    4  C14 UNL     1      -7.658  46.595 -30.117  1.00  0.00     0.005 C 
HETATM    5  C13 UNL     1      -7.568  45.646 -28.902  1.00  0.00     0.091 C 
HETATM    6  C15 UNL     1      -6.890  45.927 -31.295  1.00  0.00     0.019 C 
HETATM    7  C16 UNL     1      -9.130  46.830 -30.597  1.00  0.00     0.002 C 
HETATM    8  C12 UNL     1      -8.948  45.138 -28.536  1.00  0.00     0.133 C 
HETATM    9  C11 UNL     1      -9.931  46.240 -28.172  1.00  0.00     0.072 C 
HETATM   10  O2  UNL     1      -9.231  43.948 -28.614  1.00  0.00    -0.297 OA
HETATM   11  C2  UNL     1     -11.150  45.915 -27.228  1.00  0.00    -0.009 C 
HETATM   12  C10 UNL     1     -10.246  46.984 -29.501  1.00  0.00     0.003 C 
HETATM   13  C1  UNL     1     -10.956  44.597 -26.445  1.00  0.00     0.021 C 
HETATM   14  C3  UNL     1     -11.276  47.083 -26.202  1.00  0.00     0.022 C 
HETATM   15  C7  UNL     1     -12.462  45.843 -27.993  1.00  0.00    -0.067 C 
HETATM   16  C4  UNL     1     -12.511  46.993 -25.308  1.00  0.00     0.084 C 
HETATM   17  C5  UNL     1     -13.770  46.725 -26.095  1.00  0.00     0.149 C 
HETATM   18  O1  UNL     1     -14.886  46.931 -25.624  1.00  0.00    -0.293 OA
HETATM   19  C6  UNL     1     -13.651  46.194 -27.473  1.00  0.00     0.053 C 
HETATM   20  C8  UNL     1     -12.337  45.469 -29.439  1.00  0.00     0.035 C 
HETATM   21  C9  UNL     1     -11.616  46.615 -30.136  1.00  0.00     0.010 C 
HETATM   22  C17 UNL     1      -9.033  48.095 -31.470  1.00  0.00     0.009 C 
HETATM   23  C18 UNL     1      -7.782  48.858 -31.006  1.00  0.00     0.047 C 
BRANCH   3  24
HETATM   24  O3  UNL     1      -7.829  48.509 -28.621  1.00  0.00    -0.381 OA
HETATM   25  H25 UNL     1      -7.835  49.483 -28.621  1.00  0.00     0.211 HD
ENDBRANCH   3  24
ENDBRANCH   1   3
BRANCH   1  26
HETATM   26  C21 UNL     1      -5.068  48.193 -28.286  1.00  0.00     0.260 C 
BRANCH  26  27
HETATM   27  O5  UNL     1      -3.681  48.522 -28.309  1.00  0.00    -0.314 OA
BRANCH  27  28
HETATM   28  C22 UNL     1      -3.299  49.384 -27.326  1.00  0.00     0.259 C 
HETATM   29  O6  UNL     1      -3.214  50.597 -27.453  1.00  0.00    -0.265 OA
BRANCH  28  30
HETATM   30  C23 UNL     1      -2.920  48.610 -26.087  1.00  0.00     0.120 C 
BRANCH  30  31
HETATM   31  C24 UNL     1      -4.080  48.544 -25.101  1.00  0.00     0.112 C 
BRANCH  31  32
HETATM   32  C25 UNL     1      -3.708  49.151 -23.764  1.00  0.00     0.218 C 
HETATM   33  O7  UNL     1      -4.234  48.821 -22.705  1.00  0.00    -0.274 OA
HETATM   34  N1  UNL     1      -2.709  50.095 -23.860  1.00  0.00    -0.360 N 
HETATM   35  H32 UNL     1      -2.552  50.519 -24.768  1.00  0.00     0.162 HD
BRANCH  34  36
HETATM   36  C26 UNL     1      -2.317  50.894 -22.706  1.00  0.00     0.142 C 
BRANCH  36  37
HETATM   37  C27 UNL     1      -0.986  50.440 -22.074  1.00  0.00     0.134 C 
BRANCH  37  38
HETATM   38  C28 UNL     1      -1.204  49.310 -21.075  1.00  0.00     0.150 C 
HETATM   39  O8  UNL     1      -0.414  48.442 -20.738  1.00  0.00    -0.649 OA
BRANCH  38  40
HETATM   40  O9  UNL     1      -2.458  49.269 -20.568  1.00  0.00    -0.776 OA
HETATM   41  H36 UNL     1      -2.442  48.450 -20.024  1.00  0.00     0.167 HD
ENDBRANCH  38  40
ENDBRANCH  37  38
BRANCH  37  42
HETATM   42  C29 UNL     1      -0.276  51.644 -21.463  1.00  0.00    -0.042 A 
HETATM   43  C30 UNL     1      -0.345  51.859 -20.077  1.00  0.00     0.008 A 
HETATM   44  C31 UNL     1       0.318  52.939 -19.491  1.00  0.00     0.001 A 
HETATM   45  C32 UNL     1       1.062  53.815 -20.280  1.00  0.00     0.000 A 
HETATM   46  C33 UNL     1       1.147  53.608 -21.655  1.00  0.00     0.001 A 
HETATM   47  C34 UNL     1       0.486  52.528 -22.244  1.00  0.00     0.008 A 
ENDBRANCH  37  42
ENDBRANCH  36  37
ENDBRANCH  34  36
ENDBRANCH  31  32
ENDBRANCH  30  31
ENDBRANCH  28  30
ENDBRANCH  27  28
ENDBRANCH  26  27
ENDBRANCH   1  26
TORSDOF 13
ENDMDL
MODEL 8
REMARK minimizedAffinity -8.57460022
REMARK CNNscore 0.348909408
REMARK CNNaffinity 6.19658232
REMARK  13 active torsions:
REMARK  status: ('A' for Active; 'I' for Inactive)
REMARK    1  A    between atoms: C19_21  and  O3_22 
REMARK    2  A    between atoms: C19_21  and  C20_23 
REMARK    3  A    between atoms: C20_23  and  C21_25 
REMARK    4  A    between atoms: C21_25  and  O5_26 
REMARK    5  A    between atoms: O5_26  and  C22_27 
REMARK    6  A    between atoms: C22_27  and  C23_29 
REMARK    7  A    between atoms: C23_29  and  C24_30 
REMARK    8  A    between atoms: C24_30  and  C25_31 
REMARK       I    between atoms: C25_31  and  N1_33 
REMARK    9  A    between atoms: N1_33  and  C26_34 
REMARK   10  A    between atoms: C26_34  and  C27_35 
REMARK   11  A    between atoms: C27_35  and  C28_36 
REMARK   12  A    between atoms: C27_35  and  C29_39 
REMARK   13  A    between atoms: C28_36  and  O9_38 
ROOT
HETATM    1  C20 UNL     1      -4.433  50.077 -20.530  1.00  0.00     0.185 C 
HETATM    2  O4  UNL     1      -4.197  51.104 -19.891  1.00  0.00    -0.292 OA
ENDROOT
BRANCH   1   3
HETATM    3  C19 UNL     1      -3.793  49.773 -21.910  1.00  0.00     0.128 C 
HETATM    4  C14 UNL     1      -4.386  50.539 -23.139  1.00  0.00     0.005 C 
HETATM    5  C13 UNL     1      -3.986  52.028 -23.215  1.00  0.00     0.091 C 
HETATM    6  C15 UNL     1      -5.938  50.461 -23.222  1.00  0.00     0.019 C 
HETATM    7  C16 UNL     1      -3.815  49.695 -24.329  1.00  0.00     0.002 C 
HETATM    8  C12 UNL     1      -3.190  52.289 -24.478  1.00  0.00     0.133 C 
HETATM    9  C11 UNL     1      -1.908  51.476 -24.574  1.00  0.00     0.072 C 
HETATM   10  O2  UNL     1      -3.611  53.035 -25.355  1.00  0.00    -0.297 OA
HETATM   11  C2  UNL     1      -0.709  52.013 -25.444  1.00  0.00    -0.009 C 
HETATM   12  C10 UNL     1      -2.354  50.006 -24.819  1.00  0.00     0.003 C 
HETATM   13  C1  UNL     1      -0.835  53.521 -25.758  1.00  0.00     0.021 C 
HETATM   14  C3  UNL     1       0.602  51.789 -24.629  1.00  0.00     0.022 C 
HETATM   15  C7  UNL     1      -0.564  51.251 -26.751  1.00  0.00    -0.067 C 
HETATM   16  C4  UNL     1       1.878  52.119 -25.402  1.00  0.00     0.084 C 
HETATM   17  C5  UNL     1       1.891  51.498 -26.777  1.00  0.00     0.149 C 
HETATM   18  O1  UNL     1       2.930  51.372 -27.421  1.00  0.00    -0.293 OA
HETATM   19  C6  UNL     1       0.613  51.032 -27.363  1.00  0.00     0.053 C 
HETATM   20  C8  UNL     1      -1.825  50.628 -27.270  1.00  0.00     0.035 C 
HETATM   21  C9  UNL     1      -2.216  49.528 -26.291  1.00  0.00     0.010 C 
HETATM   22  C17 UNL     1      -3.936  48.241 -23.837  1.00  0.00     0.009 C 
HETATM   23  C18 UNL     1      -3.959  48.293 -22.301  1.00  0.00     0.047 C 
BRANCH   3  24
HETATM   24  O3  UNL     1      -2.389  50.062 -21.829  1.00  0.00    -0.381 OA
HETATM   25  H25 UNL     1      -1.959  49.351 -21.320  1.00  0.00     0.211 HD
ENDBRANCH   3  24
ENDBRANCH   1   3
BRANCH   1  26
HETATM   26  C21 UNL     1      -5.363  49.019 -19.941  1.00  0.00     0.260 C 
BRANCH  26  27
HETATM   27  O5  UNL     1      -6.657  49.103 -20.534  1.00  0.00    -0.314 OA
BRANCH  27  28
HETATM   28  C22 UNL     1      -7.324  47.916 -20.584  1.00  0.00     0.259 C 
HETATM   29  O6  UNL     1      -6.797  46.815 -20.528  1.00  0.00    -0.265 OA
BRANCH  28  30
HETATM   30  C23 UNL     1      -8.797  48.167 -20.801  1.00  0.00     0.120 C 
BRANCH  30  31
HETATM   31  C24 UNL     1      -9.587  47.955 -19.515  1.00  0.00     0.112 C 
BRANCH  31  32
HETATM   32  C25 UNL     1     -10.887  47.222 -19.777  1.00  0.00     0.218 C 
HETATM   33  O7  UNL     1     -10.951  46.012 -19.973  1.00  0.00    -0.274 OA
HETATM   34  N1  UNL     1     -11.987  48.052 -19.753  1.00  0.00    -0.360 N 
HETATM   35  H32 UNL     1     -11.828  49.045 -19.889  1.00  0.00     0.162 HD
BRANCH  34  36
HETATM   36  C26 UNL     1     -13.307  47.560 -20.126  1.00  0.00     0.142 C 
BRANCH  36  37
HETATM   37  C27 UNL     1     -14.355  47.716 -19.006  1.00  0.00     0.134 C 
BRANCH  37  38
HETATM   38  C28 UNL     1     -13.966  46.913 -17.769  1.00  0.00     0.150 C 
HETATM   39  O8  UNL     1     -13.482  45.793 -17.722  1.00  0.00    -0.649 OA
BRANCH  38  40
HETATM   40  O9  UNL     1     -14.263  47.533 -16.604  1.00  0.00    -0.776 OA
HETATM   41  H36 UNL     1     -14.029  46.853 -15.934  1.00  0.00     0.167 HD
ENDBRANCH  38  40
ENDBRANCH  37  38
BRANCH  37  42
HETATM   42  C29 UNL     1     -15.734  47.347 -19.543  1.00  0.00    -0.042 A 
HETATM   43  C30 UNL     1     -16.881  47.728 -18.828  1.00  0.00     0.008 A 
HETATM   44  C31 UNL     1     -18.155  47.424 -19.312  1.00  0.00     0.001 A 
HETATM   45  C32 UNL     1     -18.300  46.741 -20.519  1.00  0.00     0.000 A 
HETATM   46  C33 UNL     1     -17.170  46.366 -21.243  1.00  0.00     0.001 A 
HETATM   47  C34 UNL     1     -15.895  46.669 -20.762  1.00  0.00     0.008 A 
ENDBRANCH  37  42
ENDBRANCH  36  37
ENDBRANCH  34  36
ENDBRANCH  31  32
ENDBRANCH  30  31
ENDBRANCH  28  30
ENDBRANCH  27  28
ENDBRANCH  26  27
ENDBRANCH   1  26
TORSDOF 13
ENDMDL
MODEL 9
REMARK minimizedAffinity -9.11629677
REMARK CNNscore 0.315628618
REMARK CNNaffinity 6.42032194
REMARK  13 active torsions:
REMARK  status: ('A' for Active; 'I' for Inactive)
REMARK    1  A    between atoms: C19_21  and  O3_22 
REMARK    2  A    between atoms: C19_21  and  C20_23 
REMARK    3  A    between atoms: C20_23  and  C21_25 
REMARK    4  A    between atoms: C21_25  and  O5_26 
REMARK    5  A    between atoms: O5_26  and  C22_27 
REMARK    6  A    between atoms: C22_27  and  C23_29 
REMARK    7  A    between atoms: C23_29  and  C24_30 
REMARK    8  A    between atoms: C24_30  and  C25_31 
REMARK       I    between atoms: C25_31  and  N1_33 
REMARK    9  A    between atoms: N1_33  and  C26_34 
REMARK   10  A    between atoms: C26_34  and  C27_35 
REMARK   11  A    between atoms: C27_35  and  C28_36 
REMARK   12  A    between atoms: C27_35  and  C29_39 
REMARK   13  A    between atoms: C28_36  and  O9_38 
ROOT
HETATM    1  C20 UNL     1      -2.617  50.226 -17.902  1.00  0.00     0.185 C 
HETATM    2  O4  UNL     1      -2.722  51.427 -17.649  1.00  0.00    -0.292 OA
ENDROOT
BRANCH   1   3
HETATM    3  C19 UNL     1      -2.473  49.676 -19.346  1.00  0.00     0.128 C 
HETATM    4  C14 UNL     1      -3.716  49.839 -20.283  1.00  0.00     0.005 C 
HETATM    5  C13 UNL     1      -3.947  51.278 -20.791  1.00  0.00     0.091 C 
HETATM    6  C15 UNL     1      -5.044  49.348 -19.634  1.00  0.00     0.019 C 
HETATM    7  C16 UNL     1      -3.364  48.837 -21.434  1.00  0.00     0.002 C 
HETATM    8  C12 UNL     1      -3.833  51.321 -22.301  1.00  0.00     0.133 C 
HETATM    9  C11 UNL     1      -2.478  50.872 -22.827  1.00  0.00     0.072 C 
HETATM   10  O2  UNL     1      -4.791  51.620 -23.005  1.00  0.00    -0.297 OA
HETATM   11  C2  UNL     1      -1.975  51.394 -24.226  1.00  0.00    -0.009 C 
HETATM   12  C10 UNL     1      -2.414  49.338 -22.581  1.00  0.00     0.003 C 
HETATM   13  C1  UNL     1      -2.750  52.642 -24.706  1.00  0.00     0.021 C 
HETATM   14  C3  UNL     1      -0.471  51.778 -24.073  1.00  0.00     0.022 C 
HETATM   15  C7  UNL     1      -2.059  50.321 -25.300  1.00  0.00    -0.067 C 
HETATM   16  C4  UNL     1       0.210  52.159 -25.386  1.00  0.00     0.084 C 
HETATM   17  C5  UNL     1      -0.064  51.161 -26.484  1.00  0.00     0.149 C 
HETATM   18  O1  UNL     1       0.629  51.107 -27.498  1.00  0.00    -0.293 OA
HETATM   19  C6  UNL     1      -1.203  50.227 -26.333  1.00  0.00     0.053 C 
HETATM   20  C8  UNL     1      -3.102  49.268 -25.070  1.00  0.00     0.035 C 
HETATM   21  C9  UNL     1      -2.669  48.471 -23.846  1.00  0.00     0.010 C 
HETATM   22  C17 UNL     1      -2.754  47.631 -20.695  1.00  0.00     0.009 C 
HETATM   23  C18 UNL     1      -2.220  48.157 -19.354  1.00  0.00     0.047 C 
BRANCH   3  24
HETATM   24  O3  UNL     1      -1.350  50.321 -19.965  1.00  0.00    -0.381 OA
HETATM   25  H25 UNL     1      -0.534  49.941 -19.592  1.00  0.00     0.211 HD
ENDBRANCH   3  24
ENDBRANCH   1   3
BRANCH   1  26
HETATM   26  C21 UNL     1      -2.583  49.213 -16.760  1.00  0.00     0.260 C 
BRANCH  26  27
HETATM   27  O5  UNL     1      -2.955  49.832 -15.530  1.00  0.00    -0.314 OA
BRANCH  27  28
HETATM   28  C22 UNL     1      -2.435  49.228 -14.426  1.00  0.00     0.259 C 
HETATM   29  O6  UNL     1      -2.885  48.220 -13.902  1.00  0.00    -0.265 OA
BRANCH  28  30
HETATM   30  C23 UNL     1      -1.273  50.037 -13.901  1.00  0.00     0.120 C 
BRANCH  30  31
HETATM   31  C24 UNL     1      -1.743  51.363 -13.317  1.00  0.00     0.112 C 
BRANCH  31  32
HETATM   32  C25 UNL     1      -0.592  52.334 -13.145  1.00  0.00     0.218 C 
HETATM   33  O7  UNL     1       0.261  52.527 -14.007  1.00  0.00    -0.274 OA
HETATM   34  N1  UNL     1      -0.615  52.987 -11.932  1.00  0.00    -0.360 N 
HETATM   35  H32 UNL     1      -1.150  52.562 -11.182  1.00  0.00     0.162 HD
BRANCH  34  36
HETATM   36  C26 UNL     1       0.486  53.849 -11.522  1.00  0.00     0.142 C 
BRANCH  36  37
HETATM   37  C27 UNL     1       0.295  54.457 -10.119  1.00  0.00     0.134 C 
BRANCH  37  38
HETATM   38  C28 UNL     1      -1.005  55.250 -10.031  1.00  0.00     0.150 C 
HETATM   39  O8  UNL     1      -1.290  56.141  -9.247  1.00  0.00    -0.649 OA
BRANCH  38  40
HETATM   40  O9  UNL     1      -1.948  54.843 -10.912  1.00  0.00    -0.776 OA
HETATM   41  H36 UNL     1      -2.725  55.392 -10.662  1.00  0.00     0.167 HD
ENDBRANCH  38  40
ENDBRANCH  37  38
BRANCH  37  42
HETATM   42  C29 UNL     1       1.521  55.287  -9.752  1.00  0.00    -0.042 A 
HETATM   43  C30 UNL     1       1.727  55.665  -8.415  1.00  0.00     0.008 A 
HETATM   44  C31 UNL     1       2.856  56.403  -8.051  1.00  0.00     0.001 A 
HETATM   45  C32 UNL     1       3.794  56.767  -9.014  1.00  0.00     0.000 A 
HETATM   46  C33 UNL     1       3.607  56.390 -10.343  1.00  0.00     0.001 A 
HETATM   47  C34 UNL     1       2.481  55.651 -10.710  1.00  0.00     0.008 A 
ENDBRANCH  37  42
ENDBRANCH  36  37
ENDBRANCH  34  36
ENDBRANCH  31  32
ENDBRANCH  30  31
ENDBRANCH  28  30
ENDBRANCH  27  28
ENDBRANCH  26  27
ENDBRANCH   1  26
TORSDOF 13
ENDMDL
