MODEL 1
REMARK minimizedAffinity -8.81467152
REMARK  4 active torsions:
REMARK  status: ('A' for Active; 'I' for Inactive)
REMARK    1  A    between atoms: C10_11  and  O2_12 
REMARK    2  A    between atoms: C14_16  and  C15_17 
REMARK    3  A    between atoms: C15_17  and  O3_18 
REMARK    4  A    between atoms: C16_20  and  O5_21 
ROOT
HETATM    1  C1  UNL     1      -0.881  48.504 -21.031  1.00  0.00     0.023 C 
HETATM    2  C2  UNL     1      -2.196  48.608 -20.245  1.00  0.00     0.018 C 
HETATM    3  C3  UNL     1      -1.931  48.124 -18.801  1.00  0.00     0.023 C 
HETATM    4  C4  UNL     1      -3.188  47.612 -20.870  1.00  0.00     0.135 C 
HETATM    5  O1  UNL     1      -3.066  46.393 -20.740  1.00  0.00    -0.297 OA
HETATM    6  C5  UNL     1      -4.347  48.182 -21.649  1.00  0.00     0.080 C 
HETATM    7  C6  UNL     1      -3.855  49.348 -22.490  1.00  0.00     0.022 C 
HETATM    8  C7  UNL     1      -3.337  50.557 -21.645  1.00  0.00    -0.007 C 
HETATM    9  C8  UNL     1      -4.529  51.530 -21.420  1.00  0.00     0.021 C 
HETATM   10  C9  UNL     1      -2.250  51.354 -22.395  1.00  0.00     0.003 A 
HETATM   11  C10 UNL     1      -2.372  51.665 -23.765  1.00  0.00     0.107 A 
HETATM   12  C11 UNL     1      -1.366  52.352 -24.425  1.00  0.00     0.112 A 
HETATM   13  C12 UNL     1      -0.230  52.782 -23.781  1.00  0.00     0.015 A 
HETATM   14  C13 UNL     1       0.621  53.543 -24.724  1.00  0.00     0.079 C 
HETATM   15  C14 UNL     1      -0.051  53.136 -26.044  1.00  0.00     0.157 C 
HETATM   16  O4  UNL     1      -1.415  52.690 -25.754  1.00  0.00    -0.340 OA
HETATM   17  C16 UNL     1      -0.077  52.542 -22.433  1.00  0.00     0.089 A 
HETATM   18  C17 UNL     1      -1.087  51.839 -21.733  1.00  0.00     0.053 A 
HETATM   19  C18 UNL     1      -0.920  51.653 -20.271  1.00  0.00     0.163 C 
HETATM   20  O6  UNL     1       0.126  51.999 -19.725  1.00  0.00    -0.292 OA
HETATM   21  C19 UNL     1      -2.075  51.116 -19.485  1.00  0.00     0.091 C 
HETATM   22  C20 UNL     1      -2.857  50.038 -20.237  1.00  0.00     0.021 C 
ENDROOT
BRANCH  15  23
HETATM   23  C15 UNL     1      -0.121  54.272 -27.066  1.00  0.00     0.196 C 
BRANCH  23  24
HETATM   24  O3  UNL     1       0.246  55.522 -26.485  1.00  0.00    -0.398 OA
HETATM   25  H20 UNL     1      -0.244  55.596 -25.646  1.00  0.00     0.209 HD
ENDBRANCH  23  24
ENDBRANCH  15  23
BRANCH  17  26
HETATM   26  O5  UNL     1       1.060  53.026 -21.848  1.00  0.00    -0.359 OA
HETATM   27  H21 UNL     1       1.048  52.774 -20.896  1.00  0.00     0.217 HD
ENDBRANCH  17  26
BRANCH  11  28
HETATM   28  O2  UNL     1      -3.481  51.315 -24.480  1.00  0.00    -0.357 OA
HETATM   29  H14 UNL     1      -3.331  51.630 -25.393  1.00  0.00     0.217 HD
ENDBRANCH  11  28
TORSDOF 4
ENDMDL
MODEL 2
REMARK minimizedAffinity -8.68116188
REMARK  4 active torsions:
REMARK  status: ('A' for Active; 'I' for Inactive)
REMARK    1  A    between atoms: C10_11  and  O2_12 
REMARK    2  A    between atoms: C14_16  and  C15_17 
REMARK    3  A    between atoms: C15_17  and  O3_18 
REMARK    4  A    between atoms: C16_20  and  O5_21 
ROOT
HETATM    1  C1  UNL     1      -2.532  48.390 -21.570  1.00  0.00     0.023 C 
HETATM    2  C2  UNL     1      -4.001  48.835 -21.533  1.00  0.00     0.018 C 
HETATM    3  C3  UNL     1      -4.472  48.814 -20.062  1.00  0.00     0.023 C 
HETATM    4  C4  UNL     1      -4.826  47.769 -22.277  1.00  0.00     0.135 C 
HETATM    5  O1  UNL     1      -5.028  46.649 -21.807  1.00  0.00    -0.297 OA
HETATM    6  C5  UNL     1      -5.405  48.149 -23.616  1.00  0.00     0.080 C 
HETATM    7  C6  UNL     1      -4.375  48.948 -24.395  1.00  0.00     0.022 C 
HETATM    8  C7  UNL     1      -4.016  50.319 -23.737  1.00  0.00    -0.007 C 
HETATM    9  C8  UNL     1      -4.960  51.400 -24.338  1.00  0.00     0.021 C 
HETATM   10  C9  UNL     1      -2.575  50.755 -24.072  1.00  0.00     0.003 A 
HETATM   11  C10 UNL     1      -2.045  50.625 -25.372  1.00  0.00     0.107 A 
HETATM   12  C11 UNL     1      -0.736  50.991 -25.641  1.00  0.00     0.112 A 
HETATM   13  C12 UNL     1       0.089  51.517 -24.675  1.00  0.00     0.015 A 
HETATM   14  C13 UNL     1       1.395  51.874 -25.274  1.00  0.00     0.079 C 
HETATM   15  C14 UNL     1       1.267  51.122 -26.607  1.00  0.00     0.157 C 
HETATM   16  O4  UNL     1      -0.153  50.894 -26.879  1.00  0.00    -0.340 OA
HETATM   17  C16 UNL     1      -0.390  51.705 -23.397  1.00  0.00     0.089 A 
HETATM   18  C17 UNL     1      -1.722  51.337 -23.092  1.00  0.00     0.053 A 
HETATM   19  C18 UNL     1      -2.225  51.611 -21.724  1.00  0.00     0.163 C 
HETATM   20  O6  UNL     1      -1.457  52.033 -20.862  1.00  0.00    -0.292 OA
HETATM   21  C19 UNL     1      -3.687  51.439 -21.454  1.00  0.00     0.091 C 
HETATM   22  C20 UNL     1      -4.290  50.239 -22.187  1.00  0.00     0.021 C 
ENDROOT
BRANCH  15  23
HETATM   23  C15 UNL     1       1.871  51.878 -27.792  1.00  0.00     0.196 C 
BRANCH  23  24
HETATM   24  O3  UNL     1       3.267  52.104 -27.612  1.00  0.00    -0.398 OA
HETATM   25  H20 UNL     1       3.381  52.452 -26.709  1.00  0.00     0.209 HD
ENDBRANCH  23  24
ENDBRANCH  15  23
BRANCH  17  26
HETATM   26  O5  UNL     1       0.472  52.263 -22.494  1.00  0.00    -0.359 OA
HETATM   27  H21 UNL     1       0.011  52.327 -21.627  1.00  0.00     0.217 HD
ENDBRANCH  17  26
BRANCH  11  28
HETATM   28  O2  UNL     1      -2.800  50.151 -26.406  1.00  0.00    -0.357 OA
HETATM   29  H14 UNL     1      -2.220  50.149 -27.193  1.00  0.00     0.217 HD
ENDBRANCH  11  28
TORSDOF 4
ENDMDL
MODEL 3
REMARK minimizedAffinity -8.48663521
REMARK  4 active torsions:
REMARK  status: ('A' for Active; 'I' for Inactive)
REMARK    1  A    between atoms: C10_11  and  O2_12 
REMARK    2  A    between atoms: C14_16  and  C15_17 
REMARK    3  A    between atoms: C15_17  and  O3_18 
REMARK    4  A    between atoms: C16_20  and  O5_21 
ROOT
HETATM    1  C1  UNL     1      -4.031  52.095 -22.478  1.00  0.00     0.023 C 
HETATM    2  C2  UNL     1      -4.189  50.723 -23.150  1.00  0.00     0.018 C 
HETATM    3  C3  UNL     1      -4.646  50.954 -24.608  1.00  0.00     0.023 C 
HETATM    4  C4  UNL     1      -5.338  49.988 -22.437  1.00  0.00     0.135 C 
HETATM    5  O1  UNL     1      -6.515  50.323 -22.570  1.00  0.00    -0.297 OA
HETATM    6  C5  UNL     1      -4.975  48.811 -21.566  1.00  0.00     0.080 C 
HETATM    7  C6  UNL     1      -3.720  49.145 -20.777  1.00  0.00     0.022 C 
HETATM    8  C7  UNL     1      -2.455  49.359 -21.669  1.00  0.00    -0.007 C 
HETATM    9  C8  UNL     1      -1.723  47.992 -21.797  1.00  0.00     0.021 C 
HETATM   10  C9  UNL     1      -1.455  50.337 -21.019  1.00  0.00     0.003 A 
HETATM   11  C10 UNL     1      -1.143  50.272 -19.645  1.00  0.00     0.107 A 
HETATM   12  C11 UNL     1      -0.267  51.183 -19.077  1.00  0.00     0.112 A 
HETATM   13  C12 UNL     1       0.351  52.162 -19.817  1.00  0.00     0.015 A 
HETATM   14  C13 UNL     1       1.276  52.932 -18.954  1.00  0.00     0.079 C 
HETATM   15  C14 UNL     1       0.781  52.458 -17.579  1.00  0.00     0.157 C 
HETATM   16  O4  UNL     1       0.084  51.182 -17.751  1.00  0.00    -0.340 OA
HETATM   17  C16 UNL     1       0.115  52.246 -21.172  1.00  0.00     0.089 A 
HETATM   18  C17 UNL     1      -0.778  51.330 -21.780  1.00  0.00     0.053 A 
HETATM   19  C18 UNL     1      -0.961  51.408 -23.250  1.00  0.00     0.163 C 
HETATM   20  O6  UNL     1      -0.440  52.323 -23.884  1.00  0.00    -0.292 OA
HETATM   21  C19 UNL     1      -1.718  50.312 -23.932  1.00  0.00     0.091 C 
HETATM   22  C20 UNL     1      -2.906  49.809 -23.110  1.00  0.00     0.021 C 
ENDROOT
BRANCH  15  23
HETATM   23  C15 UNL     1       1.905  52.263 -16.562  1.00  0.00     0.196 C 
BRANCH  23  24
HETATM   24  O3  UNL     1       2.830  53.347 -16.589  1.00  0.00    -0.398 OA
HETATM   25  H20 UNL     1       3.048  53.507 -17.526  1.00  0.00     0.209 HD
ENDBRANCH  23  24
ENDBRANCH  15  23
BRANCH  17  26
HETATM   26  O5  UNL     1       0.787  53.221 -21.854  1.00  0.00    -0.359 OA
HETATM   27  H21 UNL     1       0.518  53.178 -22.800  1.00  0.00     0.217 HD
ENDBRANCH  17  26
BRANCH  11  28
HETATM   28  O2  UNL     1      -1.676  49.310 -18.836  1.00  0.00    -0.357 OA
HETATM   29  H14 UNL     1      -1.319  49.473 -17.941  1.00  0.00     0.217 HD
ENDBRANCH  11  28
TORSDOF 4
ENDMDL
MODEL 4
REMARK minimizedAffinity -8.4044838
REMARK  4 active torsions:
REMARK  status: ('A' for Active; 'I' for Inactive)
REMARK    1  A    between atoms: C10_11  and  O2_12 
REMARK    2  A    between atoms: C14_16  and  C15_17 
REMARK    3  A    between atoms: C15_17  and  O3_18 
REMARK    4  A    between atoms: C16_20  and  O5_21 
ROOT
HETATM    1  C1  UNL     1       7.460  64.557 -36.158  1.00  0.00     0.023 C 
HETATM    2  C2  UNL     1       7.551  64.059 -34.708  1.00  0.00     0.018 C 
HETATM    3  C3  UNL     1       9.033  64.115 -34.275  1.00  0.00     0.023 C 
HETATM    4  C4  UNL     1       7.143  62.575 -34.702  1.00  0.00     0.135 C 
HETATM    5  O1  UNL     1       7.861  61.695 -35.176  1.00  0.00    -0.297 OA
HETATM    6  C5  UNL     1       5.820  62.221 -34.070  1.00  0.00     0.080 C 
HETATM    7  C6  UNL     1       4.786  63.261 -34.467  1.00  0.00     0.022 C 
HETATM    8  C7  UNL     1       5.093  64.693 -33.921  1.00  0.00    -0.007 C 
HETATM    9  C8  UNL     1       4.374  64.847 -32.550  1.00  0.00     0.021 C 
HETATM   10  C9  UNL     1       4.526  65.791 -34.845  1.00  0.00     0.003 A 
HETATM   11  C10 UNL     1       3.237  65.692 -35.407  1.00  0.00     0.107 A 
HETATM   12  C11 UNL     1       2.762  66.675 -36.261  1.00  0.00     0.112 A 
HETATM   13  C12 UNL     1       3.503  67.789 -36.575  1.00  0.00     0.015 A 
HETATM   14  C13 UNL     1       2.710  68.687 -37.447  1.00  0.00     0.079 C 
HETATM   15  C14 UNL     1       1.589  67.714 -37.845  1.00  0.00     0.157 C 
HETATM   16  O4  UNL     1       1.521  66.648 -36.844  1.00  0.00    -0.340 OA
HETATM   17  C16 UNL     1       4.753  67.958 -36.021  1.00  0.00     0.089 A 
HETATM   18  C17 UNL     1       5.265  66.968 -35.148  1.00  0.00     0.053 A 
HETATM   19  C18 UNL     1       6.587  67.211 -34.519  1.00  0.00     0.163 C 
HETATM   20  O6  UNL     1       7.254  68.188 -34.854  1.00  0.00    -0.292 OA
HETATM   21  C19 UNL     1       7.036  66.291 -33.428  1.00  0.00     0.091 C 
HETATM   22  C20 UNL     1       6.644  64.834 -33.679  1.00  0.00     0.021 C 
ENDROOT
BRANCH  15  23
HETATM   23  C15 UNL     1       0.215  68.376 -37.941  1.00  0.00     0.196 C 
BRANCH  23  24
HETATM   24  O3  UNL     1      -0.660  67.919 -36.911  1.00  0.00    -0.398 OA
HETATM   25  H20 UNL     1      -0.592  66.947 -36.895  1.00  0.00     0.209 HD
ENDBRANCH  23  24
ENDBRANCH  15  23
BRANCH  17  26
HETATM   26  O5  UNL     1       5.421  69.105 -36.350  1.00  0.00    -0.359 OA
HETATM   27  H21 UNL     1       6.297  69.090 -35.901  1.00  0.00     0.217 HD
ENDBRANCH  17  26
BRANCH  11  28
HETATM   28  O2  UNL     1       2.412  64.642 -35.122  1.00  0.00    -0.357 OA
HETATM   29  H14 UNL     1       1.589  64.793 -35.627  1.00  0.00     0.217 HD
ENDBRANCH  11  28
TORSDOF 4
ENDMDL
MODEL 5
REMARK minimizedAffinity -8.30542564
REMARK  4 active torsions:
REMARK  status: ('A' for Active; 'I' for Inactive)
REMARK    1  A    between atoms: C10_11  and  O2_12 
REMARK    2  A    between atoms: C14_16  and  C15_17 
REMARK    3  A    between atoms: C15_17  and  O3_18 
REMARK    4  A    between atoms: C16_20  and  O5_21 
ROOT
HETATM    1  C1  UNL     1      -3.372  48.306 -23.736  1.00  0.00     0.023 C 
HETATM    2  C2  UNL     1      -3.739  49.243 -24.895  1.00  0.00     0.018 C 
HETATM    3  C3  UNL     1      -5.052  48.731 -25.529  1.00  0.00     0.023 C 
HETATM    4  C4  UNL     1      -2.645  49.102 -25.968  1.00  0.00     0.135 C 
HETATM    5  O1  UNL     1      -2.532  48.090 -26.662  1.00  0.00    -0.297 OA
HETATM    6  C5  UNL     1      -1.706  50.266 -26.162  1.00  0.00     0.080 C 
HETATM    7  C6  UNL     1      -1.327  50.830 -24.802  1.00  0.00     0.022 C 
HETATM    8  C7  UNL     1      -2.532  51.443 -24.019  1.00  0.00    -0.007 C 
HETATM    9  C8  UNL     1      -2.606  52.959 -24.362  1.00  0.00     0.021 C 
HETATM   10  C9  UNL     1      -2.331  51.344 -22.493  1.00  0.00     0.003 A 
HETATM   11  C10 UNL     1      -1.090  51.634 -21.889  1.00  0.00     0.107 A 
HETATM   12  C11 UNL     1      -0.925  51.505 -20.519  1.00  0.00     0.112 A 
HETATM   13  C12 UNL     1      -1.953  51.121 -19.692  1.00  0.00     0.015 A 
HETATM   14  C13 UNL     1      -1.495  51.141 -18.283  1.00  0.00     0.079 C 
HETATM   15  C14 UNL     1       0.020  51.233 -18.520  1.00  0.00     0.157 C 
HETATM   16  O4  UNL     1       0.250  51.769 -19.862  1.00  0.00    -0.340 OA
HETATM   17  C16 UNL     1      -3.198  50.865 -20.223  1.00  0.00     0.089 A 
HETATM   18  C17 UNL     1      -3.396  50.985 -21.620  1.00  0.00     0.053 A 
HETATM   19  C18 UNL     1      -4.764  50.765 -22.151  1.00  0.00     0.163 C 
HETATM   20  O6  UNL     1      -5.656  50.372 -21.401  1.00  0.00    -0.292 OA
HETATM   21  C19 UNL     1      -5.036  51.108 -23.582  1.00  0.00     0.091 C 
HETATM   22  C20 UNL     1      -3.868  50.765 -24.508  1.00  0.00     0.021 C 
ENDROOT
BRANCH  15  23
HETATM   23  C15 UNL     1       0.739  52.130 -17.511  1.00  0.00     0.196 C 
BRANCH  23  24
HETATM   24  O3  UNL     1       1.477  53.162 -18.161  1.00  0.00    -0.398 OA
HETATM   25  H20 UNL     1       1.984  52.738 -18.877  1.00  0.00     0.209 HD
ENDBRANCH  23  24
ENDBRANCH  15  23
BRANCH  17  26
HETATM   26  O5  UNL     1      -4.184  50.520 -19.340  1.00  0.00    -0.359 OA
HETATM   27  H21 UNL     1      -5.009  50.354 -19.850  1.00  0.00     0.217 HD
ENDBRANCH  17  26
BRANCH  11  28
HETATM   28  O2  UNL     1      -0.022  52.061 -22.623  1.00  0.00    -0.357 OA
HETATM   29  H14 UNL     1       0.713  52.190 -21.992  1.00  0.00     0.217 HD
ENDBRANCH  11  28
TORSDOF 4
ENDMDL
MODEL 6
REMARK minimizedAffinity -8.0003767
REMARK  4 active torsions:
REMARK  status: ('A' for Active; 'I' for Inactive)
REMARK    1  A    between atoms: C10_11  and  O2_12 
REMARK    2  A    between atoms: C14_16  and  C15_17 
REMARK    3  A    between atoms: C15_17  and  O3_18 
REMARK    4  A    between atoms: C16_20  and  O5_21 
ROOT
HETATM    1  C1  UNL     1      -1.841  47.240 -21.720  1.00  0.00     0.023 C 
HETATM    2  C2  UNL     1      -2.558  47.972 -20.577  1.00  0.00     0.018 C 
HETATM    3  C3  UNL     1      -1.500  48.371 -19.524  1.00  0.00     0.023 C 
HETATM    4  C4  UNL     1      -3.499  46.961 -19.897  1.00  0.00     0.135 C 
HETATM    5  O1  UNL     1      -3.078  46.037 -19.202  1.00  0.00    -0.297 OA
HETATM    6  C5  UNL     1      -4.982  47.149 -20.098  1.00  0.00     0.080 C 
HETATM    7  C6  UNL     1      -5.243  47.531 -21.545  1.00  0.00     0.022 C 
HETATM    8  C7  UNL     1      -4.631  48.910 -21.950  1.00  0.00    -0.007 C 
HETATM    9  C8  UNL     1      -5.713  50.003 -21.715  1.00  0.00     0.021 C 
HETATM   10  C9  UNL     1      -4.273  48.958 -23.450  1.00  0.00     0.003 A 
HETATM   11  C10 UNL     1      -5.139  48.441 -24.435  1.00  0.00     0.107 A 
HETATM   12  C11 UNL     1      -4.780  48.464 -25.773  1.00  0.00     0.112 A 
HETATM   13  C12 UNL     1      -3.593  49.008 -26.202  1.00  0.00     0.015 A 
HETATM   14  C13 UNL     1      -3.522  48.952 -27.681  1.00  0.00     0.079 C 
HETATM   15  C14 UNL     1      -4.673  47.969 -27.943  1.00  0.00     0.157 C 
HETATM   16  O4  UNL     1      -5.570  47.981 -26.786  1.00  0.00    -0.340 OA
HETATM   17  C16 UNL     1      -2.727  49.566 -25.287  1.00  0.00     0.089 A 
HETATM   18  C17 UNL     1      -3.066  49.553 -23.912  1.00  0.00     0.053 A 
HETATM   19  C18 UNL     1      -2.141  50.217 -22.961  1.00  0.00     0.163 C 
HETATM   20  O6  UNL     1      -1.061  50.651 -23.359  1.00  0.00    -0.292 OA
HETATM   21  C19 UNL     1      -2.591  50.410 -21.547  1.00  0.00     0.091 C 
HETATM   22  C20 UNL     1      -3.403  49.228 -21.015  1.00  0.00     0.021 C 
ENDROOT
BRANCH  15  23
HETATM   23  C15 UNL     1      -5.489  48.307 -29.191  1.00  0.00     0.196 C 
BRANCH  23  24
HETATM   24  O3  UNL     1      -4.828  49.275 -30.003  1.00  0.00    -0.398 OA
HETATM   25  H20 UNL     1      -4.536  49.989 -29.408  1.00  0.00     0.209 HD
ENDBRANCH  23  24
ENDBRANCH  15  23
BRANCH  17  26
HETATM   26  O5  UNL     1      -1.580  50.119 -25.784  1.00  0.00    -0.359 OA
HETATM   27  H21 UNL     1      -1.052  50.464 -25.029  1.00  0.00     0.217 HD
ENDBRANCH  17  26
BRANCH  11  28
HETATM   28  O2  UNL     1      -6.357  47.916 -24.111  1.00  0.00    -0.357 OA
HETATM   29  H14 UNL     1      -6.764  47.624 -24.949  1.00  0.00     0.217 HD
ENDBRANCH  11  28
TORSDOF 4
ENDMDL
MODEL 7
REMARK minimizedAffinity -7.8750329
REMARK  4 active torsions:
REMARK  status: ('A' for Active; 'I' for Inactive)
REMARK    1  A    between atoms: C10_11  and  O2_12 
REMARK    2  A    between atoms: C14_16  and  C15_17 
REMARK    3  A    between atoms: C15_17  and  O3_18 
REMARK    4  A    between atoms: C16_20  and  O5_21 
ROOT
HETATM    1  C1  UNL     1      -2.898  51.117 -15.101  1.00  0.00     0.023 C 
HETATM    2  C2  UNL     1      -2.051  50.491 -13.984  1.00  0.00     0.018 C 
HETATM    3  C3  UNL     1      -2.914  49.430 -13.265  1.00  0.00     0.023 C 
HETATM    4  C4  UNL     1      -1.756  51.595 -12.953  1.00  0.00     0.135 C 
HETATM    5  O1  UNL     1      -2.625  52.045 -12.206  1.00  0.00    -0.297 OA
HETATM    6  C5  UNL     1      -0.340  52.108 -12.870  1.00  0.00     0.080 C 
HETATM    7  C6  UNL     1       0.219  52.253 -14.275  1.00  0.00     0.022 C 
HETATM    8  C7  UNL     1       0.353  50.898 -15.041  1.00  0.00    -0.007 C 
HETATM    9  C8  UNL     1       1.784  50.343 -14.785  1.00  0.00     0.021 C 
HETATM   10  C9  UNL     1       0.218  51.087 -16.566  1.00  0.00     0.003 A 
HETATM   11  C10 UNL     1       0.849  52.153 -17.239  1.00  0.00     0.107 A 
HETATM   12  C11 UNL     1       0.685  52.322 -18.604  1.00  0.00     0.112 A 
HETATM   13  C12 UNL     1      -0.068  51.457 -19.362  1.00  0.00     0.015 A 
HETATM   14  C13 UNL     1       0.000  51.852 -20.788  1.00  0.00     0.079 C 
HETATM   15  C14 UNL     1       0.593  53.260 -20.623  1.00  0.00     0.157 C 
HETATM   16  O4  UNL     1       1.268  53.332 -19.326  1.00  0.00    -0.340 OA
HETATM   17  C16 UNL     1      -0.674  50.374 -18.764  1.00  0.00     0.089 A 
HETATM   18  C17 UNL     1      -0.526  50.178 -17.369  1.00  0.00     0.053 A 
HETATM   19  C18 UNL     1      -1.138  48.968 -16.767  1.00  0.00     0.163 C 
HETATM   20  O6  UNL     1      -1.850  48.236 -17.453  1.00  0.00    -0.292 OA
HETATM   21  C19 UNL     1      -0.802  48.630 -15.349  1.00  0.00     0.091 C 
HETATM   22  C20 UNL     1      -0.683  49.866 -14.455  1.00  0.00     0.021 C 
ENDROOT
BRANCH  15  23
HETATM   23  C15 UNL     1       1.601  53.627 -21.713  1.00  0.00     0.196 C 
BRANCH  23  24
HETATM   24  O3  UNL     1       1.812  55.036 -21.778  1.00  0.00    -0.398 OA
HETATM   25  H20 UNL     1       0.931  55.453 -21.774  1.00  0.00     0.209 HD
ENDBRANCH  23  24
ENDBRANCH  15  23
BRANCH  17  26
HETATM   26  O5  UNL     1      -1.380  49.535 -19.580  1.00  0.00    -0.359 OA
HETATM   27  H21 UNL     1      -1.767  48.820 -19.026  1.00  0.00     0.217 HD
ENDBRANCH  17  26
BRANCH  11  28
HETATM   28  O2  UNL     1       1.650  53.040 -16.578  1.00  0.00    -0.357 OA
HETATM   29  H14 UNL     1       1.964  53.680 -17.247  1.00  0.00     0.217 HD
ENDBRANCH  11  28
TORSDOF 4
ENDMDL
MODEL 8
REMARK minimizedAffinity -7.81944084
REMARK  4 active torsions:
REMARK  status: ('A' for Active; 'I' for Inactive)
REMARK    1  A    between atoms: C10_11  and  O2_12 
REMARK    2  A    between atoms: C14_16  and  C15_17 
REMARK    3  A    between atoms: C15_17  and  O3_18 
REMARK    4  A    between atoms: C16_20  and  O5_21 
ROOT
HETATM    1  C1  UNL     1      -6.004  50.732 -23.263  1.00  0.00     0.023 C 
HETATM    2  C2  UNL     1      -5.999  49.534 -22.303  1.00  0.00     0.018 C 
HETATM    3  C3  UNL     1      -7.407  48.897 -22.323  1.00  0.00     0.023 C 
HETATM    4  C4  UNL     1      -5.780  50.080 -20.881  1.00  0.00     0.135 C 
HETATM    5  O1  UNL     1      -6.649  50.712 -20.279  1.00  0.00    -0.297 OA
HETATM    6  C5  UNL     1      -4.451  49.800 -20.226  1.00  0.00     0.080 C 
HETATM    7  C6  UNL     1      -3.344  49.974 -21.253  1.00  0.00     0.022 C 
HETATM    8  C7  UNL     1      -3.411  48.944 -22.426  1.00  0.00    -0.007 C 
HETATM    9  C8  UNL     1      -2.534  47.719 -22.039  1.00  0.00     0.021 C 
HETATM   10  C9  UNL     1      -2.815  49.521 -23.727  1.00  0.00     0.003 A 
HETATM   11  C10 UNL     1      -1.616  50.264 -23.727  1.00  0.00     0.107 A 
HETATM   12  C11 UNL     1      -1.118  50.801 -24.903  1.00  0.00     0.112 A 
HETATM   13  C12 UNL     1      -1.744  50.616 -26.113  1.00  0.00     0.015 A 
HETATM   14  C13 UNL     1      -0.945  51.244 -27.190  1.00  0.00     0.079 C 
HETATM   15  C14 UNL     1      -0.004  52.100 -26.329  1.00  0.00     0.157 C 
HETATM   16  O4  UNL     1       0.039  51.532 -24.981  1.00  0.00    -0.340 OA
HETATM   17  C16 UNL     1      -2.896  49.863 -26.179  1.00  0.00     0.089 A 
HETATM   18  C17 UNL     1      -3.430  49.305 -24.992  1.00  0.00     0.053 A 
HETATM   19  C18 UNL     1      -4.635  48.447 -25.107  1.00  0.00     0.163 C 
HETATM   20  O6  UNL     1      -5.208  48.338 -26.189  1.00  0.00    -0.292 OA
HETATM   21  C19 UNL     1      -5.074  47.672 -23.904  1.00  0.00     0.091 C 
HETATM   22  C20 UNL     1      -4.896  48.448 -22.598  1.00  0.00     0.021 C 
ENDROOT
BRANCH  15  23
HETATM   23  C15 UNL     1       1.424  52.168 -26.872  1.00  0.00     0.196 C 
BRANCH  23  24
HETATM   24  O3  UNL     1       2.295  51.288 -26.164  1.00  0.00    -0.398 OA
HETATM   25  H20 UNL     1       2.132  51.435 -25.215  1.00  0.00     0.209 HD
ENDBRANCH  23  24
ENDBRANCH  15  23
BRANCH  17  26
HETATM   26  O5  UNL     1      -3.448  49.691 -27.418  1.00  0.00    -0.359 OA
HETATM   27  H21 UNL     1      -4.265  49.151 -27.318  1.00  0.00     0.217 HD
ENDBRANCH  17  26
BRANCH  11  28
HETATM   28  O2  UNL     1      -0.902  50.467 -22.581  1.00  0.00    -0.357 OA
HETATM   29  H14 UNL     1      -0.126  51.006 -22.831  1.00  0.00     0.217 HD
ENDBRANCH  11  28
TORSDOF 4
ENDMDL
MODEL 9
REMARK minimizedAffinity -7.80795622
REMARK  4 active torsions:
REMARK  status: ('A' for Active; 'I' for Inactive)
REMARK    1  A    between atoms: C10_11  and  O2_12 
REMARK    2  A    between atoms: C14_16  and  C15_17 
REMARK    3  A    between atoms: C15_17  and  O3_18 
REMARK    4  A    between atoms: C16_20  and  O5_21 
ROOT
HETATM    1  C1  UNL     1      -7.378  44.286 -29.578  1.00  0.00     0.023 C 
HETATM    2  C2  UNL     1      -8.338  44.884 -30.616  1.00  0.00     0.018 C 
HETATM    3  C3  UNL     1      -9.651  44.071 -30.579  1.00  0.00     0.023 C 
HETATM    4  C4  UNL     1      -7.716  44.658 -32.005  1.00  0.00     0.135 C 
HETATM    5  O1  UNL     1      -7.657  43.543 -32.525  1.00  0.00    -0.297 OA
HETATM    6  C5  UNL     1      -7.185  45.867 -32.734  1.00  0.00     0.080 C 
HETATM    7  C6  UNL     1      -6.458  46.764 -31.746  1.00  0.00     0.022 C 
HETATM    8  C7  UNL     1      -7.388  47.366 -30.644  1.00  0.00    -0.007 C 
HETATM    9  C8  UNL     1      -7.902  48.744 -31.151  1.00  0.00     0.021 C 
HETATM   10  C9  UNL     1      -6.619  47.636 -29.333  1.00  0.00     0.003 A 
HETATM   11  C10 UNL     1      -5.335  48.217 -29.334  1.00  0.00     0.107 A 
HETATM   12  C11 UNL     1      -4.650  48.418 -28.147  1.00  0.00     0.112 A 
HETATM   13  C12 UNL     1      -5.192  48.091 -26.927  1.00  0.00     0.015 A 
HETATM   14  C13 UNL     1      -4.260  48.485 -25.844  1.00  0.00     0.079 C 
HETATM   15  C14 UNL     1      -2.997  48.727 -26.685  1.00  0.00     0.157 C 
HETATM   16  O4  UNL     1      -3.400  48.978 -28.069  1.00  0.00    -0.340 OA
HETATM   17  C16 UNL     1      -6.461  47.558 -26.863  1.00  0.00     0.089 A 
HETATM   18  C17 UNL     1      -7.183  47.338 -28.061  1.00  0.00     0.053 A 
HETATM   19  C18 UNL     1      -8.570  46.823 -27.953  1.00  0.00     0.163 C 
HETATM   20  O6  UNL     1      -9.015  46.488 -26.858  1.00  0.00    -0.292 OA
HETATM   21  C19 UNL     1      -9.419  46.800 -29.186  1.00  0.00     0.091 C 
HETATM   22  C20 UNL     1      -8.633  46.422 -30.443  1.00  0.00     0.021 C 
ENDROOT
BRANCH  15  23
HETATM   23  C15 UNL     1      -2.163  49.913 -26.200  1.00  0.00     0.196 C 
BRANCH  23  24
HETATM   24  O3  UNL     1      -1.654  50.676 -27.292  1.00  0.00    -0.398 OA
HETATM   25  H20 UNL     1      -1.270  50.041 -27.924  1.00  0.00     0.209 HD
ENDBRANCH  23  24
ENDBRANCH  15  23
BRANCH  17  26
HETATM   26  O5  UNL     1      -6.952  47.287 -25.616  1.00  0.00    -0.359 OA
HETATM   27  H21 UNL     1      -7.852  46.901 -25.717  1.00  0.00     0.217 HD
ENDBRANCH  17  26
BRANCH  11  28
HETATM   28  O2  UNL     1      -4.731  48.612 -30.493  1.00  0.00    -0.357 OA
HETATM   29  H14 UNL     1      -3.860  48.975 -30.241  1.00  0.00     0.217 HD
ENDBRANCH  11  28
TORSDOF 4
ENDMDL
