MODEL 1
REMARK minimizedAffinity -7.58615208
REMARK CNNscore 0.724316835
REMARK CNNaffinity 7.12890625
REMARK  5 active torsions:
REMARK  status: ('A' for Active; 'I' for Inactive)
REMARK    1  A    between atoms: C2_2  and  C3_3 
REMARK    2  A    between atoms: C2_2  and  C25_27 
REMARK    3  A    between atoms: C3_3  and  C4_4 
REMARK    4  A    between atoms: C4_4  and  C5_5 
REMARK    5  A    between atoms: C15_15  and  O1_16 
ROOT
HETATM    1  C5  UNL     1       5.271  53.351  -9.503  1.00  0.00    -0.023 C 
HETATM    2  C6  UNL     1       4.175  53.879 -10.074  1.00  0.00    -0.075 C 
HETATM    3  C7  UNL     1       3.992  55.340 -10.446  1.00  0.00     0.035 C 
HETATM    4  C8  UNL     1       2.522  55.459 -10.873  1.00  0.00     0.013 C 
HETATM    5  C9  UNL     1       1.875  54.266 -10.178  1.00  0.00     0.033 C 
HETATM    6  C10 UNL     1       0.426  53.907 -10.506  1.00  0.00     0.070 C 
HETATM    7  C11 UNL     1      -0.523  55.082 -10.152  1.00  0.00     0.039 C 
HETATM    8  C12 UNL     1      -1.985  54.790 -10.500  1.00  0.00     0.009 C 
HETATM    9  C13 UNL     1      -2.367  53.361 -10.100  1.00  0.00    -0.001 C 
HETATM   10  C14 UNL     1      -3.764  52.974 -10.585  1.00  0.00     0.037 C 
HETATM   11  C15 UNL     1      -4.217  51.658  -9.939  1.00  0.00     0.118 C 
HETATM   12  C16 UNL     1      -3.055  50.749  -9.522  1.00  0.00     0.032 C 
HETATM   13  C17 UNL     1      -1.867  50.871 -10.476  1.00  0.00     0.015 C 
HETATM   14  C18 UNL     1      -1.299  52.308 -10.562  1.00  0.00    -0.009 C 
HETATM   15  C19 UNL     1      -0.789  52.594 -11.994  1.00  0.00     0.179 C 
HETATM   16  O2  UNL     1       0.220  53.619 -11.898  1.00  0.00    -0.379 OA
HETATM   17  C20 UNL     1      -0.011  52.617  -9.767  1.00  0.00     0.032 C 
HETATM   18  C21 UNL     1       1.051  51.490  -9.776  1.00  0.00     0.009 C 
HETATM   19  C22 UNL     1       2.479  51.969  -9.473  1.00  0.00     0.014 C 
HETATM   20  C23 UNL     1       2.890  53.125 -10.401  1.00  0.00    -0.014 C 
HETATM   21  C24 UNL     1       3.044  52.613 -11.852  1.00  0.00     0.020 C 
ENDROOT
BRANCH   1  22
HETATM   22  C4  UNL     1       6.534  54.096  -9.158  1.00  0.00     0.031 C 
BRANCH  22  23
HETATM   23  C3  UNL     1       6.237  55.555  -8.798  1.00  0.00     0.037 C 
BRANCH  23  24
HETATM   24  C2  UNL     1       6.472  55.897  -7.336  1.00  0.00    -0.086 C 
HETATM   25  C1  UNL     1       7.522  55.362  -6.686  1.00  0.00     0.014 C 
BRANCH  24  26
HETATM   26  C25 UNL     1       5.493  56.796  -6.585  1.00  0.00     0.005 C 
HETATM   27  C26 UNL     1       6.208  57.886  -5.784  1.00  0.00     0.014 C 
HETATM   28  C27 UNL     1       4.404  57.400  -7.473  1.00  0.00     0.014 C 
ENDBRANCH  24  26
ENDBRANCH  23  24
ENDBRANCH  22  23
ENDBRANCH   1  22
BRANCH  11  29
HETATM   29  O1  UNL     1      -5.078  50.969 -10.841  1.00  0.00    -0.396 OA
HETATM   30  H21 UNL     1      -4.563  50.721 -11.626  1.00  0.00     0.210 HD
ENDBRANCH  11  29
TORSDOF 5
ENDMDL
MODEL 2
REMARK minimizedAffinity -8.74099731
REMARK CNNscore 0.681774318
REMARK CNNaffinity 7.22099924
REMARK  5 active torsions:
REMARK  status: ('A' for Active; 'I' for Inactive)
REMARK    1  A    between atoms: C2_2  and  C3_3 
REMARK    2  A    between atoms: C2_2  and  C25_27 
REMARK    3  A    between atoms: C3_3  and  C4_4 
REMARK    4  A    between atoms: C4_4  and  C5_5 
REMARK    5  A    between atoms: C15_15  and  O1_16 
ROOT
HETATM    1  C5  UNL     1      -1.365  50.383 -22.931  1.00  0.00    -0.023 C 
HETATM    2  C6  UNL     1      -1.166  51.054 -21.785  1.00  0.00    -0.075 C 
HETATM    3  C7  UNL     1      -0.626  52.470 -21.675  1.00  0.00     0.035 C 
HETATM    4  C8  UNL     1      -0.406  52.694 -20.172  1.00  0.00     0.013 C 
HETATM    5  C9  UNL     1      -0.274  51.271 -19.638  1.00  0.00     0.033 C 
HETATM    6  C10 UNL     1      -0.234  51.043 -18.127  1.00  0.00     0.070 C 
HETATM    7  C11 UNL     1       0.979  51.774 -17.494  1.00  0.00     0.039 C 
HETATM    8  C12 UNL     1       1.042  51.610 -15.973  1.00  0.00     0.009 C 
HETATM    9  C13 UNL     1       0.729  50.167 -15.565  1.00  0.00    -0.001 C 
HETATM   10  C14 UNL     1       0.615  50.002 -14.049  1.00  0.00     0.037 C 
HETATM   11  C15 UNL     1       0.578  48.517 -13.667  1.00  0.00     0.118 C 
HETATM   12  C16 UNL     1       0.036  47.611 -14.779  1.00  0.00     0.032 C 
HETATM   13  C17 UNL     1      -1.042  48.310 -15.606  1.00  0.00     0.015 C 
HETATM   14  C18 UNL     1      -0.543  49.605 -16.291  1.00  0.00    -0.009 C 
HETATM   15  C19 UNL     1      -1.682  50.650 -16.348  1.00  0.00     0.179 C 
HETATM   16  O2  UNL     1      -1.405  51.533 -17.454  1.00  0.00    -0.379 OA
HETATM   17  C20 UNL     1      -0.190  49.531 -17.793  1.00  0.00     0.032 C 
HETATM   18  C21 UNL     1      -1.146  48.663 -18.648  1.00  0.00     0.009 C 
HETATM   19  C22 UNL     1      -1.134  49.005 -20.146  1.00  0.00     0.014 C 
HETATM   20  C23 UNL     1      -1.389  50.504 -20.379  1.00  0.00    -0.014 C 
HETATM   21  C24 UNL     1      -2.844  50.862 -19.998  1.00  0.00     0.020 C 
ENDROOT
BRANCH   1  22
HETATM   22  C4  UNL     1      -1.126  50.914 -24.320  1.00  0.00     0.031 C 
BRANCH  22  23
HETATM   23  C3  UNL     1       0.073  51.868 -24.350  1.00  0.00     0.037 C 
BRANCH  23  24
HETATM   24  C2  UNL     1       0.424  52.384 -25.736  1.00  0.00    -0.086 C 
HETATM   25  C1  UNL     1       0.118  53.651 -26.074  1.00  0.00     0.014 C 
BRANCH  24  26
HETATM   26  C25 UNL     1       1.068  51.460 -26.765  1.00  0.00     0.005 C 
HETATM   27  C26 UNL     1       0.578  51.748 -28.187  1.00  0.00     0.014 C 
HETATM   28  C27 UNL     1       2.597  51.444 -26.710  1.00  0.00     0.014 C 
ENDBRANCH  24  26
ENDBRANCH  23  24
ENDBRANCH  22  23
ENDBRANCH   1  22
BRANCH  11  29
HETATM   29  O1  UNL     1      -0.201  48.360 -12.485  1.00  0.00    -0.396 OA
HETATM   30  H21 UNL     1      -1.118  48.609 -12.688  1.00  0.00     0.210 HD
ENDBRANCH  11  29
TORSDOF 5
ENDMDL
MODEL 3
REMARK minimizedAffinity -8.51366901
REMARK CNNscore 0.640043378
REMARK CNNaffinity 7.01681566
REMARK  5 active torsions:
REMARK  status: ('A' for Active; 'I' for Inactive)
REMARK    1  A    between atoms: C2_2  and  C3_3 
REMARK    2  A    between atoms: C2_2  and  C25_27 
REMARK    3  A    between atoms: C3_3  and  C4_4 
REMARK    4  A    between atoms: C4_4  and  C5_5 
REMARK    5  A    between atoms: C15_15  and  O1_16 
ROOT
HETATM    1  C5  UNL     1      -1.402  52.344 -24.575  1.00  0.00    -0.023 C 
HETATM    2  C6  UNL     1      -1.518  51.882 -23.319  1.00  0.00    -0.075 C 
HETATM    3  C7  UNL     1      -0.573  52.201 -22.173  1.00  0.00     0.035 C 
HETATM    4  C8  UNL     1      -1.022  51.287 -21.024  1.00  0.00     0.013 C 
HETATM    5  C9  UNL     1      -1.750  50.164 -21.756  1.00  0.00     0.033 C 
HETATM    6  C10 UNL     1      -2.529  49.127 -20.945  1.00  0.00     0.070 C 
HETATM    7  C11 UNL     1      -1.585  48.367 -19.977  1.00  0.00     0.039 C 
HETATM    8  C12 UNL     1      -2.323  47.343 -19.111  1.00  0.00     0.009 C 
HETATM    9  C13 UNL     1      -3.347  46.562 -19.940  1.00  0.00    -0.001 C 
HETATM   10  C14 UNL     1      -4.222  45.652 -19.078  1.00  0.00     0.037 C 
HETATM   11  C15 UNL     1      -5.035  44.692 -19.956  1.00  0.00     0.118 C 
HETATM   12  C16 UNL     1      -5.300  45.229 -21.369  1.00  0.00     0.032 C 
HETATM   13  C17 UNL     1      -5.466  46.748 -21.377  1.00  0.00     0.015 C 
HETATM   14  C18 UNL     1      -4.225  47.501 -20.840  1.00  0.00    -0.009 C 
HETATM   15  C19 UNL     1      -4.663  48.778 -20.086  1.00  0.00     0.179 C 
HETATM   16  O2  UNL     1      -3.564  49.709 -20.136  1.00  0.00    -0.379 OA
HETATM   17  C20 UNL     1      -3.267  48.132 -21.875  1.00  0.00     0.032 C 
HETATM   18  C21 UNL     1      -3.960  48.794 -23.091  1.00  0.00     0.009 C 
HETATM   19  C22 UNL     1      -3.102  49.849 -23.806  1.00  0.00     0.014 C 
HETATM   20  C23 UNL     1      -2.582  50.909 -22.822  1.00  0.00    -0.014 C 
HETATM   21  C24 UNL     1      -3.753  51.774 -22.302  1.00  0.00     0.020 C 
ENDROOT
BRANCH   1  22
HETATM   22  C4  UNL     1      -0.341  53.288 -25.077  1.00  0.00     0.031 C 
BRANCH  22  23
HETATM   23  C3  UNL     1       1.016  52.586 -25.192  1.00  0.00     0.037 C 
BRANCH  23  24
HETATM   24  C2  UNL     1       1.348  52.097 -26.593  1.00  0.00    -0.086 C 
HETATM   25  C1  UNL     1       2.532  51.501 -26.829  1.00  0.00     0.014 C 
BRANCH  24  26
HETATM   26  C25 UNL     1       0.374  52.330 -27.744  1.00  0.00     0.005 C 
HETATM   27  C26 UNL     1      -0.787  51.332 -27.729  1.00  0.00     0.014 C 
HETATM   28  C27 UNL     1      -0.145  53.766 -27.833  1.00  0.00     0.014 C 
ENDBRANCH  24  26
ENDBRANCH  23  24
ENDBRANCH  22  23
ENDBRANCH   1  22
BRANCH  11  29
HETATM   29  O1  UNL     1      -6.269  44.398 -19.307  1.00  0.00    -0.396 OA
HETATM   30  H21 UNL     1      -6.787  45.218 -19.250  1.00  0.00     0.210 HD
ENDBRANCH  11  29
TORSDOF 5
ENDMDL
MODEL 4
REMARK minimizedAffinity -6.9638567
REMARK CNNscore 0.425248086
REMARK CNNaffinity 5.64726877
REMARK  5 active torsions:
REMARK  status: ('A' for Active; 'I' for Inactive)
REMARK    1  A    between atoms: C2_2  and  C3_3 
REMARK    2  A    between atoms: C2_2  and  C25_27 
REMARK    3  A    between atoms: C3_3  and  C4_4 
REMARK    4  A    between atoms: C4_4  and  C5_5 
REMARK    5  A    between atoms: C15_15  and  O1_16 
ROOT
HETATM    1  C5  UNL     1       4.871  67.243 -35.018  1.00  0.00    -0.023 C 
HETATM    2  C6  UNL     1       4.751  67.116 -36.350  1.00  0.00    -0.075 C 
HETATM    3  C7  UNL     1       5.888  66.822 -37.313  1.00  0.00     0.035 C 
HETATM    4  C8  UNL     1       5.270  66.971 -38.711  1.00  0.00     0.013 C 
HETATM    5  C9  UNL     1       4.067  67.870 -38.450  1.00  0.00     0.033 C 
HETATM    6  C10 UNL     1       3.057  68.108 -39.573  1.00  0.00     0.070 C 
HETATM    7  C11 UNL     1       3.742  68.776 -40.794  1.00  0.00     0.039 C 
HETATM    8  C12 UNL     1       2.781  69.000 -41.965  1.00  0.00     0.009 C 
HETATM    9  C13 UNL     1       1.431  69.529 -41.471  1.00  0.00    -0.001 C 
HETATM   10  C14 UNL     1       0.390  69.603 -42.588  1.00  0.00     0.037 C 
HETATM   11  C15 UNL     1      -0.846  70.385 -42.126  1.00  0.00     0.118 C 
HETATM   12  C16 UNL     1      -1.062  70.350 -40.608  1.00  0.00     0.032 C 
HETATM   13  C17 UNL     1      -0.612  69.022 -40.001  1.00  0.00     0.015 C 
HETATM   14  C18 UNL     1       0.885  68.715 -40.245  1.00  0.00    -0.009 C 
HETATM   15  C19 UNL     1       1.094  67.193 -40.425  1.00  0.00     0.179 C 
HETATM   16  O2  UNL     1       2.455  66.895 -40.054  1.00  0.00    -0.379 OA
HETATM   17  C20 UNL     1       1.868  68.971 -39.081  1.00  0.00     0.032 C 
HETATM   18  C21 UNL     1       1.338  68.580 -37.679  1.00  0.00     0.009 C 
HETATM   19  C22 UNL     1       2.440  68.325 -36.640  1.00  0.00     0.014 C 
HETATM   20  C23 UNL     1       3.464  67.298 -37.150  1.00  0.00    -0.014 C 
HETATM   21  C24 UNL     1       2.812  65.900 -37.248  1.00  0.00     0.020 C 
ENDROOT
BRANCH   1  22
HETATM   22  C4  UNL     1       6.143  67.086 -34.226  1.00  0.00     0.031 C 
BRANCH  22  23
HETATM   23  C3  UNL     1       6.437  65.610 -33.937  1.00  0.00     0.037 C 
BRANCH  23  24
HETATM   24  C2  UNL     1       5.241  64.825 -33.423  1.00  0.00    -0.086 C 
HETATM   25  C1  UNL     1       4.765  65.068 -32.187  1.00  0.00     0.014 C 
BRANCH  24  26
HETATM   26  C25 UNL     1       4.615  63.724 -34.274  1.00  0.00     0.005 C 
HETATM   27  C26 UNL     1       5.536  63.279 -35.413  1.00  0.00     0.014 C 
HETATM   28  C27 UNL     1       4.130  62.519 -33.465  1.00  0.00     0.014 C 
ENDBRANCH  24  26
ENDBRANCH  23  24
ENDBRANCH  22  23
ENDBRANCH   1  22
BRANCH  11  29
HETATM   29  O1  UNL     1      -1.996  69.877 -42.795  1.00  0.00    -0.396 OA
HETATM   30  H21 UNL     1      -2.135  68.958 -42.508  1.00  0.00     0.210 HD
ENDBRANCH  11  29
TORSDOF 5
ENDMDL
MODEL 5
REMARK minimizedAffinity -7.83885622
REMARK CNNscore 0.397933275
REMARK CNNaffinity 5.87064409
REMARK  5 active torsions:
REMARK  status: ('A' for Active; 'I' for Inactive)
REMARK    1  A    between atoms: C2_2  and  C3_3 
REMARK    2  A    between atoms: C2_2  and  C25_27 
REMARK    3  A    between atoms: C3_3  and  C4_4 
REMARK    4  A    between atoms: C4_4  and  C5_5 
REMARK    5  A    between atoms: C15_15  and  O1_16 
ROOT
HETATM    1  C5  UNL     1      -5.125  48.032 -27.457  1.00  0.00    -0.023 C 
HETATM    2  C6  UNL     1      -6.102  47.722 -28.325  1.00  0.00    -0.075 C 
HETATM    3  C7  UNL     1      -6.137  48.119 -29.791  1.00  0.00     0.035 C 
HETATM    4  C8  UNL     1      -7.529  47.699 -30.282  1.00  0.00     0.013 C 
HETATM    5  C9  UNL     1      -8.339  47.652 -28.990  1.00  0.00     0.033 C 
HETATM    6  C10 UNL     1      -9.756  47.080 -29.019  1.00  0.00     0.070 C 
HETATM    7  C11 UNL     1     -10.660  47.902 -29.975  1.00  0.00     0.039 C 
HETATM    8  C12 UNL     1     -12.083  47.345 -30.072  1.00  0.00     0.009 C 
HETATM    9  C13 UNL     1     -12.609  46.945 -28.690  1.00  0.00    -0.001 C 
HETATM   10  C14 UNL     1     -13.956  46.228 -28.764  1.00  0.00     0.037 C 
HETATM   11  C15 UNL     1     -14.576  46.092 -27.367  1.00  0.00     0.118 C 
HETATM   12  C16 UNL     1     -13.541  46.083 -26.236  1.00  0.00     0.032 C 
HETATM   13  C17 UNL     1     -12.236  45.412 -26.665  1.00  0.00     0.015 C 
HETATM   14  C18 UNL     1     -11.565  46.101 -27.877  1.00  0.00    -0.009 C 
HETATM   15  C19 UNL     1     -10.860  45.047 -28.764  1.00  0.00     0.179 C 
HETATM   16  O2  UNL     1      -9.804  45.719 -29.479  1.00  0.00    -0.379 OA
HETATM   17  C20 UNL     1     -10.369  47.038 -27.597  1.00  0.00     0.032 C 
HETATM   18  C21 UNL     1      -9.394  46.546 -26.499  1.00  0.00     0.009 C 
HETATM   19  C22 UNL     1      -7.987  47.155 -26.590  1.00  0.00     0.014 C 
HETATM   20  C23 UNL     1      -7.384  46.965 -27.992  1.00  0.00    -0.014 C 
HETATM   21  C24 UNL     1      -7.083  45.469 -28.243  1.00  0.00     0.020 C 
ENDROOT
BRANCH   1  22
HETATM   22  C4  UNL     1      -3.868  48.798 -27.776  1.00  0.00     0.031 C 
BRANCH  22  23
HETATM   23  C3  UNL     1      -2.917  48.828 -26.575  1.00  0.00     0.037 C 
BRANCH  23  24
HETATM   24  C2  UNL     1      -2.425  50.218 -26.204  1.00  0.00    -0.086 C 
HETATM   25  C1  UNL     1      -3.313  51.172 -25.866  1.00  0.00     0.014 C 
BRANCH  24  26
HETATM   26  C25 UNL     1      -0.939  50.554 -26.268  1.00  0.00     0.005 C 
HETATM   27  C26 UNL     1      -0.584  51.372 -27.513  1.00  0.00     0.014 C 
HETATM   28  C27 UNL     1      -0.403  51.230 -25.004  1.00  0.00     0.014 C 
ENDBRANCH  24  26
ENDBRANCH  23  24
ENDBRANCH  22  23
ENDBRANCH   1  22
BRANCH  11  29
HETATM   29  O1  UNL     1     -15.361  44.904 -27.320  1.00  0.00    -0.396 OA
HETATM   30  H21 UNL     1     -14.769  44.142 -27.428  1.00  0.00     0.210 HD
ENDBRANCH  11  29
TORSDOF 5
ENDMDL
MODEL 6
REMARK minimizedAffinity -7.13171673
REMARK CNNscore 0.383081913
REMARK CNNaffinity 5.77377558
REMARK  5 active torsions:
REMARK  status: ('A' for Active; 'I' for Inactive)
REMARK    1  A    between atoms: C2_2  and  C3_3 
REMARK    2  A    between atoms: C2_2  and  C25_27 
REMARK    3  A    between atoms: C3_3  and  C4_4 
REMARK    4  A    between atoms: C4_4  and  C5_5 
REMARK    5  A    between atoms: C15_15  and  O1_16 
ROOT
HETATM    1  C5  UNL     1      -4.325  48.715 -28.518  1.00  0.00    -0.023 C 
HETATM    2  C6  UNL     1      -5.494  48.054 -28.477  1.00  0.00    -0.075 C 
HETATM    3  C7  UNL     1      -6.342  47.841 -27.235  1.00  0.00     0.035 C 
HETATM    4  C8  UNL     1      -7.452  46.876 -27.674  1.00  0.00     0.013 C 
HETATM    5  C9  UNL     1      -6.836  46.188 -28.888  1.00  0.00     0.033 C 
HETATM    6  C10 UNL     1      -7.706  45.273 -29.749  1.00  0.00     0.070 C 
HETATM    7  C11 UNL     1      -8.255  44.090 -28.910  1.00  0.00     0.039 C 
HETATM    8  C12 UNL     1      -9.168  43.163 -29.717  1.00  0.00     0.009 C 
HETATM    9  C13 UNL     1      -8.587  42.899 -31.110  1.00  0.00    -0.001 C 
HETATM   10  C14 UNL     1      -9.550  42.120 -32.005  1.00  0.00     0.037 C 
HETATM   11  C15 UNL     1      -8.840  41.639 -33.276  1.00  0.00     0.118 C 
HETATM   12  C16 UNL     1      -7.644  42.511 -33.677  1.00  0.00     0.032 C 
HETATM   13  C17 UNL     1      -7.869  43.981 -33.324  1.00  0.00     0.015 C 
HETATM   14  C18 UNL     1      -8.105  44.217 -31.813  1.00  0.00    -0.009 C 
HETATM   15  C19 UNL     1      -9.105  45.379 -31.606  1.00  0.00     0.179 C 
HETATM   16  O2  UNL     1      -8.849  45.945 -30.305  1.00  0.00    -0.379 OA
HETATM   17  C20 UNL     1      -6.920  44.749 -30.976  1.00  0.00     0.032 C 
HETATM   18  C21 UNL     1      -6.051  45.820 -31.679  1.00  0.00     0.009 C 
HETATM   19  C22 UNL     1      -5.250  46.709 -30.717  1.00  0.00     0.014 C 
HETATM   20  C23 UNL     1      -6.160  47.346 -29.653  1.00  0.00    -0.014 C 
HETATM   21  C24 UNL     1      -7.101  48.382 -30.308  1.00  0.00     0.020 C 
ENDROOT
BRANCH   1  22
HETATM   22  C4  UNL     1      -3.653  49.398 -27.356  1.00  0.00     0.031 C 
BRANCH  22  23
HETATM   23  C3  UNL     1      -3.383  48.411 -26.215  1.00  0.00     0.037 C 
BRANCH  23  24
HETATM   24  C2  UNL     1      -3.065  49.071 -24.883  1.00  0.00    -0.086 C 
HETATM   25  C1  UNL     1      -3.136  48.351 -23.747  1.00  0.00     0.014 C 
BRANCH  24  26
HETATM   26  C25 UNL     1      -2.723  50.557 -24.818  1.00  0.00     0.005 C 
HETATM   27  C26 UNL     1      -3.738  51.348 -23.989  1.00  0.00     0.014 C 
HETATM   28  C27 UNL     1      -1.296  50.842 -24.346  1.00  0.00     0.014 C 
ENDBRANCH  24  26
ENDBRANCH  23  24
ENDBRANCH  22  23
ENDBRANCH   1  22
BRANCH  11  29
HETATM   29  O1  UNL     1      -9.782  41.583 -34.343  1.00  0.00    -0.396 OA
HETATM   30  H21 UNL     1     -10.087  42.486 -34.530  1.00  0.00     0.210 HD
ENDBRANCH  11  29
TORSDOF 5
ENDMDL
MODEL 7
REMARK minimizedAffinity -7.01451159
REMARK CNNscore 0.375000268
REMARK CNNaffinity 5.37060404
REMARK  5 active torsions:
REMARK  status: ('A' for Active; 'I' for Inactive)
REMARK    1  A    between atoms: C2_2  and  C3_3 
REMARK    2  A    between atoms: C2_2  and  C25_27 
REMARK    3  A    between atoms: C3_3  and  C4_4 
REMARK    4  A    between atoms: C4_4  and  C5_5 
REMARK    5  A    between atoms: C15_15  and  O1_16 
ROOT
HETATM    1  C5  UNL     1     -12.972  46.872 -28.033  1.00  0.00    -0.023 C 
HETATM    2  C6  UNL     1     -14.021  46.148 -27.609  1.00  0.00    -0.075 C 
HETATM    3  C7  UNL     1     -15.042  45.469 -28.506  1.00  0.00     0.035 C 
HETATM    4  C8  UNL     1     -16.126  44.951 -27.550  1.00  0.00     0.013 C 
HETATM    5  C9  UNL     1     -15.949  45.846 -26.329  1.00  0.00     0.033 C 
HETATM    6  C10 UNL     1     -16.725  45.526 -25.050  1.00  0.00     0.070 C 
HETATM    7  C11 UNL     1     -18.253  45.575 -25.310  1.00  0.00     0.039 C 
HETATM    8  C12 UNL     1     -19.078  45.221 -24.069  1.00  0.00     0.009 C 
HETATM    9  C13 UNL     1     -18.499  45.891 -22.819  1.00  0.00    -0.001 C 
HETATM   10  C14 UNL     1     -19.190  45.427 -21.537  1.00  0.00     0.037 C 
HETATM   11  C15 UNL     1     -18.782  46.310 -20.351  1.00  0.00     0.118 C 
HETATM   12  C16 UNL     1     -17.407  46.968 -20.521  1.00  0.00     0.032 C 
HETATM   13  C17 UNL     1     -16.441  46.073 -21.296  1.00  0.00     0.015 C 
HETATM   14  C18 UNL     1     -16.943  45.717 -22.716  1.00  0.00    -0.009 C 
HETATM   15  C19 UNL     1     -16.497  44.285 -23.095  1.00  0.00     0.179 C 
HETATM   16  O2  UNL     1     -16.439  44.216 -24.534  1.00  0.00    -0.379 OA
HETATM   17  C20 UNL     1     -16.338  46.495 -23.906  1.00  0.00     0.032 C 
HETATM   18  C21 UNL     1     -14.819  46.778 -23.799  1.00  0.00     0.009 C 
HETATM   19  C22 UNL     1     -14.134  47.047 -25.147  1.00  0.00     0.014 C 
HETATM   20  C23 UNL     1     -14.418  45.920 -26.154  1.00  0.00    -0.014 C 
HETATM   21  C24 UNL     1     -13.711  44.619 -25.710  1.00  0.00     0.020 C 
ENDROOT
BRANCH   1  22
HETATM   22  C4  UNL     1     -12.588  47.119 -29.469  1.00  0.00     0.031 C 
BRANCH  22  23
HETATM   23  C3  UNL     1     -11.279  46.407 -29.823  1.00  0.00     0.037 C 
BRANCH  23  24
HETATM   24  C2  UNL     1     -10.306  47.254 -30.628  1.00  0.00    -0.086 C 
HETATM   25  C1  UNL     1     -10.001  46.900 -31.891  1.00  0.00     0.014 C 
BRANCH  24  26
HETATM   26  C25 UNL     1      -9.631  48.467 -29.995  1.00  0.00     0.005 C 
HETATM   27  C26 UNL     1      -8.937  48.120 -28.676  1.00  0.00     0.014 C 
HETATM   28  C27 UNL     1      -8.675  49.202 -30.937  1.00  0.00     0.014 C 
ENDBRANCH  24  26
ENDBRANCH  23  24
ENDBRANCH  22  23
ENDBRANCH   1  22
BRANCH  11  29
HETATM   29  O1  UNL     1     -18.806  45.530 -19.159  1.00  0.00    -0.396 OA
HETATM   30  H21 UNL     1     -18.123  44.842 -19.231  1.00  0.00     0.210 HD
ENDBRANCH  11  29
TORSDOF 5
ENDMDL
MODEL 8
REMARK minimizedAffinity -7.65869093
REMARK CNNscore 0.368525863
REMARK CNNaffinity 6.53441858
REMARK  5 active torsions:
REMARK  status: ('A' for Active; 'I' for Inactive)
REMARK    1  A    between atoms: C2_2  and  C3_3 
REMARK    2  A    between atoms: C2_2  and  C25_27 
REMARK    3  A    between atoms: C3_3  and  C4_4 
REMARK    4  A    between atoms: C4_4  and  C5_5 
REMARK    5  A    between atoms: C15_15  and  O1_16 
ROOT
HETATM    1  C5  UNL     1      -2.965  50.305 -26.288  1.00  0.00    -0.023 C 
HETATM    2  C6  UNL     1      -2.694  50.225 -24.974  1.00  0.00    -0.075 C 
HETATM    3  C7  UNL     1      -1.382  50.621 -24.319  1.00  0.00     0.035 C 
HETATM    4  C8  UNL     1      -1.513  50.159 -22.861  1.00  0.00     0.013 C 
HETATM    5  C9  UNL     1      -2.576  49.069 -22.950  1.00  0.00     0.033 C 
HETATM    6  C10 UNL     1      -3.144  48.474 -21.661  1.00  0.00     0.070 C 
HETATM    7  C11 UNL     1      -2.021  47.809 -20.822  1.00  0.00     0.039 C 
HETATM    8  C12 UNL     1      -2.531  47.232 -19.499  1.00  0.00     0.009 C 
HETATM    9  C13 UNL     1      -3.863  46.501 -19.698  1.00  0.00    -0.001 C 
HETATM   10  C14 UNL     1      -4.488  46.060 -18.375  1.00  0.00     0.037 C 
HETATM   11  C15 UNL     1      -5.661  45.103 -18.623  1.00  0.00     0.118 C 
HETATM   12  C16 UNL     1      -6.330  45.294 -19.989  1.00  0.00     0.032 C 
HETATM   13  C17 UNL     1      -6.309  46.757 -20.432  1.00  0.00     0.015 C 
HETATM   14  C18 UNL     1      -4.879  47.337 -20.551  1.00  0.00    -0.009 C 
HETATM   15  C19 UNL     1      -4.877  48.831 -20.149  1.00  0.00     0.179 C 
HETATM   16  O2  UNL     1      -3.760  49.457 -20.813  1.00  0.00    -0.379 OA
HETATM   17  C20 UNL     1      -4.269  47.454 -21.966  1.00  0.00     0.032 C 
HETATM   18  C21 UNL     1      -5.255  47.907 -23.070  1.00  0.00     0.009 C 
HETATM   19  C22 UNL     1      -4.578  48.527 -24.302  1.00  0.00     0.014 C 
HETATM   20  C23 UNL     1      -3.629  49.669 -23.904  1.00  0.00    -0.014 C 
HETATM   21  C24 UNL     1      -4.439  50.872 -23.368  1.00  0.00     0.020 C 
ENDROOT
BRANCH   1  22
HETATM   22  C4  UNL     1      -2.038  50.832 -27.351  1.00  0.00     0.031 C 
BRANCH  22  23
HETATM   23  C3  UNL     1      -1.831  52.344 -27.207  1.00  0.00     0.037 C 
BRANCH  23  24
HETATM   24  C2  UNL     1      -0.379  52.763 -27.050  1.00  0.00    -0.086 C 
HETATM   25  C1  UNL     1      -0.069  54.068 -26.933  1.00  0.00     0.014 C 
BRANCH  24  26
HETATM   26  C25 UNL     1       0.734  51.720 -27.083  1.00  0.00     0.005 C 
HETATM   27  C26 UNL     1       1.482  51.714 -28.418  1.00  0.00     0.014 C 
HETATM   28  C27 UNL     1       1.714  51.825 -25.912  1.00  0.00     0.014 C 
ENDBRANCH  24  26
ENDBRANCH  23  24
ENDBRANCH  22  23
ENDBRANCH   1  22
BRANCH  11  29
HETATM   29  O1  UNL     1      -6.621  45.263 -17.582  1.00  0.00    -0.396 OA
HETATM   30  H21 UNL     1      -6.988  46.160 -17.640  1.00  0.00     0.210 HD
ENDBRANCH  11  29
TORSDOF 5
ENDMDL
MODEL 9
REMARK minimizedAffinity -7.45736313
REMARK CNNscore 0.368507385
REMARK CNNaffinity 5.79933357
REMARK  5 active torsions:
REMARK  status: ('A' for Active; 'I' for Inactive)
REMARK    1  A    between atoms: C2_2  and  C3_3 
REMARK    2  A    between atoms: C2_2  and  C25_27 
REMARK    3  A    between atoms: C3_3  and  C4_4 
REMARK    4  A    between atoms: C4_4  and  C5_5 
REMARK    5  A    between atoms: C15_15  and  O1_16 
ROOT
HETATM    1  C5  UNL     1      -5.303  48.085 -28.530  1.00  0.00    -0.023 C 
HETATM    2  C6  UNL     1      -6.530  47.544 -28.616  1.00  0.00    -0.075 C 
HETATM    3  C7  UNL     1      -7.273  46.860 -27.481  1.00  0.00     0.035 C 
HETATM    4  C8  UNL     1      -8.522  46.253 -28.135  1.00  0.00     0.013 C 
HETATM    5  C9  UNL     1      -8.107  46.131 -29.597  1.00  0.00     0.033 C 
HETATM    6  C10 UNL     1      -9.155  45.739 -30.640  1.00  0.00     0.070 C 
HETATM    7  C11 UNL     1      -9.750  44.342 -30.320  1.00  0.00     0.039 C 
HETATM    8  C12 UNL     1     -10.836  43.919 -31.313  1.00  0.00     0.009 C 
HETATM    9  C13 UNL     1     -10.426  44.258 -32.750  1.00  0.00    -0.001 C 
HETATM   10  C14 UNL     1     -11.553  44.007 -33.752  1.00  0.00     0.037 C 
HETATM   11  C15 UNL     1     -11.027  44.091 -35.191  1.00  0.00     0.118 C 
HETATM   12  C16 UNL     1      -9.784  44.977 -35.339  1.00  0.00     0.032 C 
HETATM   13  C17 UNL     1      -9.807  46.154 -34.365  1.00  0.00     0.015 C 
HETATM   14  C18 UNL     1      -9.868  45.718 -32.882  1.00  0.00    -0.009 C 
HETATM   15  C19 UNL     1     -10.705  46.730 -32.064  1.00  0.00     0.179 C 
HETATM   16  O2  UNL     1     -10.262  46.653 -30.694  1.00  0.00    -0.379 OA
HETATM   17  C20 UNL     1      -8.555  45.758 -32.068  1.00  0.00     0.032 C 
HETATM   18  C21 UNL     1      -7.643  46.975 -32.357  1.00  0.00     0.009 C 
HETATM   19  C22 UNL     1      -6.656  47.304 -31.226  1.00  0.00     0.014 C 
HETATM   20  C23 UNL     1      -7.382  47.463 -29.879  1.00  0.00    -0.014 C 
HETATM   21  C24 UNL     1      -8.259  48.736 -29.894  1.00  0.00     0.020 C 
ENDROOT
BRANCH   1  22
HETATM   22  C4  UNL     1      -4.449  48.149 -27.291  1.00  0.00     0.031 C 
BRANCH  22  23
HETATM   23  C3  UNL     1      -3.499  49.350 -27.333  1.00  0.00     0.037 C 
BRANCH  23  24
HETATM   24  C2  UNL     1      -2.780  49.622 -26.022  1.00  0.00    -0.086 C 
HETATM   25  C1  UNL     1      -2.938  48.777 -24.986  1.00  0.00     0.014 C 
BRANCH  24  26
HETATM   26  C25 UNL     1      -1.928  50.876 -25.854  1.00  0.00     0.005 C 
HETATM   27  C26 UNL     1      -0.565  50.746 -26.539  1.00  0.00     0.014 C 
HETATM   28  C27 UNL     1      -2.632  52.164 -26.285  1.00  0.00     0.014 C 
ENDBRANCH  24  26
ENDBRANCH  23  24
ENDBRANCH  22  23
ENDBRANCH   1  22
BRANCH  11  29
HETATM   29  O1  UNL     1     -12.068  44.563 -36.041  1.00  0.00    -0.396 OA
HETATM   30  H21 UNL     1     -12.286  45.474 -35.780  1.00  0.00     0.210 HD
ENDBRANCH  11  29
TORSDOF 5
ENDMDL
