MODEL 1
REMARK minimizedAffinity -9.51368999
REMARK  5 active torsions:
REMARK  status: ('A' for Active; 'I' for Inactive)
REMARK    1  A    between atoms: C2_2  and  C3_3 
REMARK    2  A    between atoms: C2_2  and  C9_10 
REMARK    3  A    between atoms: C3_3  and  C4_4 
REMARK    4  A    between atoms: C5_5  and  C6_6 
REMARK    5  A    between atoms: C6_6  and  O1_9 
ROOT
HETATM    1  C9  UNL     1      -1.797  48.506 -18.459  1.00  0.00    -0.002 C 
HETATM    2  C10 UNL     1      -2.588  47.218 -18.838  1.00  0.00     0.006 C 
HETATM    3  C11 UNL     1      -3.104  47.413 -20.278  1.00  0.00     0.011 C 
HETATM    4  C12 UNL     1      -2.274  48.589 -20.837  1.00  0.00    -0.032 C 
HETATM    5  C13 UNL     1      -0.904  47.976 -21.285  1.00  0.00     0.016 C 
HETATM    6  C14 UNL     1      -2.924  49.359 -22.031  1.00  0.00     0.003 C 
HETATM    7  C15 UNL     1      -3.026  48.489 -23.310  1.00  0.00     0.007 C 
HETATM    8  C16 UNL     1      -3.635  49.272 -24.470  1.00  0.00     0.011 C 
HETATM    9  C17 UNL     1      -2.782  50.512 -24.905  1.00  0.00    -0.030 C 
HETATM   10  C18 UNL     1      -3.782  51.659 -25.201  1.00  0.00     0.016 C 
HETATM   11  C19 UNL     1      -1.733  50.854 -23.785  1.00  0.00     0.003 C 
HETATM   12  C20 UNL     1      -0.876  52.095 -24.119  1.00  0.00     0.013 C 
HETATM   13  C21 UNL     1      -0.626  52.327 -25.603  1.00  0.00     0.079 C 
HETATM   14  C22 UNL     1      -0.789  51.096 -26.460  1.00  0.00     0.131 C 
HETATM   15  O2  UNL     1      -0.008  50.898 -27.400  1.00  0.00    -0.298 OA
HETATM   16  C23 UNL     1      -1.959  50.149 -26.200  1.00  0.00     0.060 C 
HETATM   17  C24 UNL     1      -2.774  50.036 -27.492  1.00  0.00     0.018 C 
HETATM   18  C25 UNL     1      -2.263  50.789 -22.292  1.00  0.00    -0.035 C 
HETATM   19  C26 UNL     1      -3.311  51.912 -22.040  1.00  0.00     0.016 C 
HETATM   20  C27 UNL     1      -1.079  51.096 -21.308  1.00  0.00     0.011 C 
HETATM   21  C28 UNL     1      -1.248  50.696 -19.827  1.00  0.00     0.011 C 
HETATM   22  C29 UNL     1      -2.219  49.526 -19.566  1.00  0.00    -0.032 C 
HETATM   23  C30 UNL     1      -3.606  50.125 -19.179  1.00  0.00     0.016 C 
ENDROOT
BRANCH   1  24
HETATM   24  C2  UNL     1      -1.814  48.824 -16.932  1.00  0.00    -0.010 C 
HETATM   25  C1  UNL     1      -2.775  49.919 -16.447  1.00  0.00     0.010 C 
BRANCH  24  26
HETATM   26  C3  UNL     1      -0.381  49.065 -16.397  1.00  0.00     0.031 C 
BRANCH  26  27
HETATM   27  C4  UNL     1       0.196  50.395 -16.802  1.00  0.00    -0.027 C 
HETATM   28  C5  UNL     1       1.240  50.978 -16.192  1.00  0.00     0.006 C 
BRANCH  28  29
HETATM   29  C6  UNL     1       1.845  52.319 -16.547  1.00  0.00     0.068 C 
HETATM   30  C7  UNL     1       1.518  52.704 -17.994  1.00  0.00     0.050 C 
HETATM   31  C8  UNL     1       3.362  52.294 -16.335  1.00  0.00     0.050 C 
BRANCH  29  32
HETATM   32  O1  UNL     1       1.308  53.328 -15.689  1.00  0.00    -0.387 OA
HETATM   33  H15 UNL     1       0.367  53.431 -15.932  1.00  0.00     0.211 HD
ENDBRANCH  29  32
ENDBRANCH  28  29
ENDBRANCH  26  27
ENDBRANCH  24  26
ENDBRANCH   1  24
TORSDOF 5
ENDMDL
MODEL 2
REMARK minimizedAffinity -9.34898949
REMARK  5 active torsions:
REMARK  status: ('A' for Active; 'I' for Inactive)
REMARK    1  A    between atoms: C2_2  and  C3_3 
REMARK    2  A    between atoms: C2_2  and  C9_10 
REMARK    3  A    between atoms: C3_3  and  C4_4 
REMARK    4  A    between atoms: C5_5  and  C6_6 
REMARK    5  A    between atoms: C6_6  and  O1_9 
ROOT
HETATM    1  C9  UNL     1      -0.800  52.475 -21.158  1.00  0.00    -0.002 C 
HETATM    2  C10 UNL     1      -0.002  52.187 -22.465  1.00  0.00     0.006 C 
HETATM    3  C11 UNL     1      -0.782  51.106 -23.240  1.00  0.00     0.011 C 
HETATM    4  C12 UNL     1      -2.185  51.094 -22.595  1.00  0.00    -0.032 C 
HETATM    5  C13 UNL     1      -2.967  52.289 -23.240  1.00  0.00     0.016 C 
HETATM    6  C14 UNL     1      -2.995  49.771 -22.778  1.00  0.00     0.003 C 
HETATM    7  C15 UNL     1      -3.394  49.522 -24.256  1.00  0.00     0.007 C 
HETATM    8  C16 UNL     1      -4.210  48.241 -24.405  1.00  0.00     0.011 C 
HETATM    9  C17 UNL     1      -5.572  48.274 -23.631  1.00  0.00    -0.030 C 
HETATM   10  C18 UNL     1      -5.756  46.872 -22.995  1.00  0.00     0.016 C 
HETATM   11  C19 UNL     1      -5.563  49.451 -22.589  1.00  0.00     0.003 C 
HETATM   12  C20 UNL     1      -6.860  49.526 -21.752  1.00  0.00     0.013 C 
HETATM   13  C21 UNL     1      -8.117  49.043 -22.463  1.00  0.00     0.079 C 
HETATM   14  C22 UNL     1      -8.022  49.057 -23.969  1.00  0.00     0.131 C 
HETATM   15  O2  UNL     1      -9.004  49.402 -24.639  1.00  0.00    -0.298 OA
HETATM   16  C23 UNL     1      -6.740  48.577 -24.645  1.00  0.00     0.060 C 
HETATM   17  C24 UNL     1      -7.106  47.431 -25.596  1.00  0.00     0.018 C 
HETATM   18  C25 UNL     1      -4.223  49.639 -21.764  1.00  0.00    -0.035 C 
HETATM   19  C26 UNL     1      -3.997  48.428 -20.813  1.00  0.00     0.016 C 
HETATM   20  C27 UNL     1      -4.364  50.887 -20.822  1.00  0.00     0.011 C 
HETATM   21  C28 UNL     1      -3.075  51.503 -20.237  1.00  0.00     0.011 C 
HETATM   22  C29 UNL     1      -1.798  51.276 -21.073  1.00  0.00    -0.032 C 
HETATM   23  C30 UNL     1      -1.042  50.048 -20.477  1.00  0.00     0.016 C 
ENDROOT
BRANCH   1  24
HETATM   24  C2  UNL     1       0.094  52.947 -19.970  1.00  0.00    -0.010 C 
HETATM   25  C1  UNL     1       1.403  53.673 -20.312  1.00  0.00     0.010 C 
BRANCH  24  26
HETATM   26  C3  UNL     1       0.344  51.793 -18.968  1.00  0.00     0.031 C 
BRANCH  26  27
HETATM   27  C4  UNL     1       0.974  52.243 -17.677  1.00  0.00    -0.027 C 
HETATM   28  C5  UNL     1       1.231  51.428 -16.643  1.00  0.00     0.006 C 
BRANCH  28  29
HETATM   29  C6  UNL     1       1.844  51.834 -15.319  1.00  0.00     0.068 C 
HETATM   30  C7  UNL     1       3.282  52.327 -15.508  1.00  0.00     0.050 C 
HETATM   31  C8  UNL     1       1.812  50.661 -14.334  1.00  0.00     0.050 C 
BRANCH  29  32
HETATM   32  O1  UNL     1       1.082  52.898 -14.745  1.00  0.00    -0.387 OA
HETATM   33  H15 UNL     1       1.225  53.681 -15.312  1.00  0.00     0.211 HD
ENDBRANCH  29  32
ENDBRANCH  28  29
ENDBRANCH  26  27
ENDBRANCH  24  26
ENDBRANCH   1  24
TORSDOF 5
ENDMDL
MODEL 3
REMARK minimizedAffinity -9.16407681
REMARK  5 active torsions:
REMARK  status: ('A' for Active; 'I' for Inactive)
REMARK    1  A    between atoms: C2_2  and  C3_3 
REMARK    2  A    between atoms: C2_2  and  C9_10 
REMARK    3  A    between atoms: C3_3  and  C4_4 
REMARK    4  A    between atoms: C5_5  and  C6_6 
REMARK    5  A    between atoms: C6_6  and  O1_9 
ROOT
HETATM    1  C9  UNL     1      -0.824  50.532 -21.424  1.00  0.00    -0.002 C 
HETATM    2  C10 UNL     1      -0.336  49.190 -20.799  1.00  0.00     0.006 C 
HETATM    3  C11 UNL     1      -1.571  48.278 -20.668  1.00  0.00     0.011 C 
HETATM    4  C12 UNL     1      -2.638  48.927 -21.576  1.00  0.00    -0.032 C 
HETATM    5  C13 UNL     1      -2.304  48.463 -23.035  1.00  0.00     0.016 C 
HETATM    6  C14 UNL     1      -4.119  48.566 -21.233  1.00  0.00     0.003 C 
HETATM    7  C15 UNL     1      -4.439  47.072 -21.494  1.00  0.00     0.007 C 
HETATM    8  C16 UNL     1      -5.898  46.751 -21.181  1.00  0.00     0.011 C 
HETATM    9  C17 UNL     1      -6.917  47.534 -22.078  1.00  0.00    -0.030 C 
HETATM   10  C18 UNL     1      -8.083  47.968 -21.153  1.00  0.00     0.016 C 
HETATM   11  C19 UNL     1      -6.188  48.730 -22.790  1.00  0.00     0.003 C 
HETATM   12  C20 UNL     1      -7.136  49.581 -23.665  1.00  0.00     0.013 C 
HETATM   13  C21 UNL     1      -8.301  48.820 -24.283  1.00  0.00     0.079 C 
HETATM   14  C22 UNL     1      -8.085  47.330 -24.386  1.00  0.00     0.131 C 
HETATM   15  O2  UNL     1      -8.482  46.723 -25.389  1.00  0.00    -0.298 OA
HETATM   16  C23 UNL     1      -7.444  46.582 -23.219  1.00  0.00     0.060 C 
HETATM   17  C24 UNL     1      -8.413  45.483 -22.770  1.00  0.00     0.018 C 
HETATM   18  C25 UNL     1      -5.179  49.562 -21.894  1.00  0.00    -0.035 C 
HETATM   19  C26 UNL     1      -5.949  50.331 -20.782  1.00  0.00     0.016 C 
HETATM   20  C27 UNL     1      -4.498  50.671 -22.772  1.00  0.00     0.011 C 
HETATM   21  C28 UNL     1      -3.206  51.325 -22.239  1.00  0.00     0.011 C 
HETATM   22  C29 UNL     1      -2.377  50.455 -21.271  1.00  0.00    -0.032 C 
HETATM   23  C30 UNL     1      -2.748  50.866 -19.812  1.00  0.00     0.016 C 
ENDROOT
BRANCH   1  24
HETATM   24  C2  UNL     1       0.031  51.766 -21.002  1.00  0.00    -0.010 C 
HETATM   25  C1  UNL     1      -0.350  52.480 -19.698  1.00  0.00     0.010 C 
BRANCH  24  26
HETATM   26  C3  UNL     1       0.167  52.775 -22.169  1.00  0.00     0.031 C 
BRANCH  26  27
HETATM   27  C4  UNL     1       0.232  52.122 -23.524  1.00  0.00    -0.027 C 
HETATM   28  C5  UNL     1       0.807  52.681 -24.600  1.00  0.00     0.006 C 
BRANCH  28  29
HETATM   29  C6  UNL     1       0.882  52.077 -25.986  1.00  0.00     0.068 C 
HETATM   30  C7  UNL     1      -0.237  51.054 -26.201  1.00  0.00     0.050 C 
HETATM   31  C8  UNL     1       2.249  51.422 -26.210  1.00  0.00     0.050 C 
BRANCH  29  32
HETATM   32  O1  UNL     1       0.735  53.107 -26.965  1.00  0.00    -0.387 OA
HETATM   33  H15 UNL     1      -0.189  53.422 -26.903  1.00  0.00     0.211 HD
ENDBRANCH  29  32
ENDBRANCH  28  29
ENDBRANCH  26  27
ENDBRANCH  24  26
ENDBRANCH   1  24
TORSDOF 5
ENDMDL
MODEL 4
REMARK minimizedAffinity -9.10386753
REMARK  5 active torsions:
REMARK  status: ('A' for Active; 'I' for Inactive)
REMARK    1  A    between atoms: C2_2  and  C3_3 
REMARK    2  A    between atoms: C2_2  and  C9_10 
REMARK    3  A    between atoms: C3_3  and  C4_4 
REMARK    4  A    between atoms: C5_5  and  C6_6 
REMARK    5  A    between atoms: C6_6  and  O1_9 
ROOT
HETATM    1  C9  UNL     1      -6.221  49.358 -23.923  1.00  0.00    -0.002 C 
HETATM    2  C10 UNL     1      -7.144  49.734 -22.726  1.00  0.00     0.006 C 
HETATM    3  C11 UNL     1      -6.225  50.126 -21.552  1.00  0.00     0.011 C 
HETATM    4  C12 UNL     1      -4.844  50.369 -22.199  1.00  0.00    -0.032 C 
HETATM    5  C13 UNL     1      -4.895  51.816 -22.796  1.00  0.00     0.016 C 
HETATM    6  C14 UNL     1      -3.621  50.238 -21.236  1.00  0.00     0.003 C 
HETATM    7  C15 UNL     1      -3.596  51.352 -20.157  1.00  0.00     0.007 C 
HETATM    8  C16 UNL     1      -2.376  51.221 -19.249  1.00  0.00     0.011 C 
HETATM    9  C17 UNL     1      -1.013  51.375 -20.005  1.00  0.00    -0.030 C 
HETATM   10  C18 UNL     1      -0.051  50.314 -19.410  1.00  0.00     0.016 C 
HETATM   11  C19 UNL     1      -1.244  51.230 -21.553  1.00  0.00     0.003 C 
HETATM   12  C20 UNL     1       0.063  51.329 -22.371  1.00  0.00     0.013 C 
HETATM   13  C21 UNL     1       1.140  52.216 -21.762  1.00  0.00     0.079 C 
HETATM   14  C22 UNL     1       0.622  53.235 -20.778  1.00  0.00     0.131 C 
HETATM   15  O2  UNL     1       1.110  54.373 -20.763  1.00  0.00    -0.298 OA
HETATM   16  C23 UNL     1      -0.447  52.827 -19.767  1.00  0.00     0.060 C 
HETATM   17  C24 UNL     1       0.100  53.103 -18.362  1.00  0.00     0.018 C 
HETATM   18  C25 UNL     1      -2.229  50.072 -22.003  1.00  0.00    -0.035 C 
HETATM   19  C26 UNL     1      -1.610  48.680 -21.686  1.00  0.00     0.016 C 
HETATM   20  C27 UNL     1      -2.393  50.109 -23.564  1.00  0.00     0.011 C 
HETATM   21  C28 UNL     1      -3.593  49.361 -24.183  1.00  0.00     0.011 C 
HETATM   22  C29 UNL     1      -4.816  49.196 -23.257  1.00  0.00    -0.032 C 
HETATM   23  C30 UNL     1      -4.743  47.779 -22.607  1.00  0.00     0.016 C 
ENDROOT
BRANCH   1  24
HETATM   24  C2  UNL     1      -6.848  48.312 -24.894  1.00  0.00    -0.010 C 
HETATM   25  C1  UNL     1      -7.545  47.094 -24.271  1.00  0.00     0.010 C 
BRANCH  24  26
HETATM   26  C3  UNL     1      -5.831  47.876 -25.977  1.00  0.00     0.031 C 
BRANCH  26  27
HETATM   27  C4  UNL     1      -6.448  47.678 -27.336  1.00  0.00    -0.027 C 
HETATM   28  C5  UNL     1      -5.766  47.761 -28.489  1.00  0.00     0.006 C 
BRANCH  28  29
HETATM   29  C6  UNL     1      -6.341  47.589 -29.879  1.00  0.00     0.068 C 
HETATM   30  C7  UNL     1      -7.404  46.486 -29.902  1.00  0.00     0.050 C 
HETATM   31  C8  UNL     1      -5.228  47.272 -30.883  1.00  0.00     0.050 C 
BRANCH  29  32
HETATM   32  O1  UNL     1      -6.960  48.809 -30.295  1.00  0.00    -0.387 OA
HETATM   33  H15 UNL     1      -7.752  48.926 -29.733  1.00  0.00     0.211 HD
ENDBRANCH  29  32
ENDBRANCH  28  29
ENDBRANCH  26  27
ENDBRANCH  24  26
ENDBRANCH   1  24
TORSDOF 5
ENDMDL
MODEL 5
REMARK minimizedAffinity -9.06904316
REMARK  5 active torsions:
REMARK  status: ('A' for Active; 'I' for Inactive)
REMARK    1  A    between atoms: C2_2  and  C3_3 
REMARK    2  A    between atoms: C2_2  and  C9_10 
REMARK    3  A    between atoms: C3_3  and  C4_4 
REMARK    4  A    between atoms: C5_5  and  C6_6 
REMARK    5  A    between atoms: C6_6  and  O1_9 
ROOT
HETATM    1  C9  UNL     1      -5.121  48.568 -21.557  1.00  0.00    -0.002 C 
HETATM    2  C10 UNL     1      -5.592  47.607 -22.689  1.00  0.00     0.006 C 
HETATM    3  C11 UNL     1      -4.955  48.106 -24.000  1.00  0.00     0.011 C 
HETATM    4  C12 UNL     1      -3.828  49.061 -23.551  1.00  0.00    -0.032 C 
HETATM    5  C13 UNL     1      -2.614  48.148 -23.171  1.00  0.00     0.016 C 
HETATM    6  C14 UNL     1      -3.383  50.118 -24.612  1.00  0.00     0.003 C 
HETATM    7  C15 UNL     1      -2.691  49.469 -25.839  1.00  0.00     0.007 C 
HETATM    8  C16 UNL     1      -2.238  50.522 -26.846  1.00  0.00     0.011 C 
HETATM    9  C17 UNL     1      -1.171  51.517 -26.274  1.00  0.00    -0.030 C 
HETATM   10  C18 UNL     1      -1.543  52.924 -26.807  1.00  0.00     0.016 C 
HETATM   11  C19 UNL     1      -1.138  51.417 -24.706  1.00  0.00     0.003 C 
HETATM   12  C20 UNL     1      -0.137  52.400 -24.058  1.00  0.00     0.013 C 
HETATM   13  C21 UNL     1       1.086  52.726 -24.905  1.00  0.00     0.079 C 
HETATM   14  C22 UNL     1       1.399  51.701 -25.966  1.00  0.00     0.131 C 
HETATM   15  O2  UNL     1       2.578  51.405 -26.201  1.00  0.00    -0.298 OA
HETATM   16  C23 UNL     1       0.260  51.094 -26.783  1.00  0.00     0.060 C 
HETATM   17  C24 UNL     1       0.543  51.367 -28.265  1.00  0.00     0.018 C 
HETATM   18  C25 UNL     1      -2.548  51.327 -23.985  1.00  0.00    -0.035 C 
HETATM   19  C26 UNL     1      -3.332  52.660 -24.160  1.00  0.00     0.016 C 
HETATM   20  C27 UNL     1      -2.331  51.172 -22.438  1.00  0.00     0.011 C 
HETATM   21  C28 UNL     1      -3.515  50.663 -21.589  1.00  0.00     0.011 C 
HETATM   22  C29 UNL     1      -4.539  49.788 -22.341  1.00  0.00    -0.032 C 
HETATM   23  C30 UNL     1      -5.726  50.701 -22.780  1.00  0.00     0.016 C 
ENDROOT
BRANCH   1  24
HETATM   24  C2  UNL     1      -6.136  48.696 -20.380  1.00  0.00    -0.010 C 
HETATM   25  C1  UNL     1      -6.908  50.016 -20.250  1.00  0.00     0.010 C 
BRANCH  24  26
HETATM   26  C3  UNL     1      -5.481  48.299 -19.034  1.00  0.00     0.031 C 
BRANCH  26  27
HETATM   27  C4  UNL     1      -3.981  48.193 -19.102  1.00  0.00    -0.027 C 
HETATM   28  C5  UNL     1      -3.140  49.017 -18.458  1.00  0.00     0.006 C 
BRANCH  28  29
HETATM   29  C6  UNL     1      -1.628  48.965 -18.509  1.00  0.00     0.068 C 
HETATM   30  C7  UNL     1      -1.026  50.368 -18.389  1.00  0.00     0.050 C 
HETATM   31  C8  UNL     1      -1.160  48.296 -19.805  1.00  0.00     0.050 C 
BRANCH  29  32
HETATM   32  O1  UNL     1      -1.139  48.180 -17.419  1.00  0.00    -0.387 OA
HETATM   33  H15 UNL     1      -1.323  48.687 -16.604  1.00  0.00     0.211 HD
ENDBRANCH  29  32
ENDBRANCH  28  29
ENDBRANCH  26  27
ENDBRANCH  24  26
ENDBRANCH   1  24
TORSDOF 5
ENDMDL
MODEL 6
REMARK minimizedAffinity -9.01160526
REMARK  5 active torsions:
REMARK  status: ('A' for Active; 'I' for Inactive)
REMARK    1  A    between atoms: C2_2  and  C3_3 
REMARK    2  A    between atoms: C2_2  and  C9_10 
REMARK    3  A    between atoms: C3_3  and  C4_4 
REMARK    4  A    between atoms: C5_5  and  C6_6 
REMARK    5  A    between atoms: C6_6  and  O1_9 
ROOT
HETATM    1  C9  UNL     1      -5.192  48.918 -21.736  1.00  0.00    -0.002 C 
HETATM    2  C10 UNL     1      -5.333  47.687 -22.680  1.00  0.00     0.006 C 
HETATM    3  C11 UNL     1      -4.604  48.039 -23.992  1.00  0.00     0.011 C 
HETATM    4  C12 UNL     1      -3.724  49.258 -23.639  1.00  0.00    -0.032 C 
HETATM    5  C13 UNL     1      -2.445  48.680 -22.944  1.00  0.00     0.016 C 
HETATM    6  C14 UNL     1      -3.309  50.157 -24.847  1.00  0.00     0.003 C 
HETATM    7  C15 UNL     1      -2.352  49.428 -25.825  1.00  0.00     0.007 C 
HETATM    8  C16 UNL     1      -1.937  50.337 -26.979  1.00  0.00     0.011 C 
HETATM    9  C17 UNL     1      -1.140  51.606 -26.522  1.00  0.00    -0.030 C 
HETATM   10  C18 UNL     1      -1.656  52.789 -27.380  1.00  0.00     0.016 C 
HETATM   11  C19 UNL     1      -1.317  51.814 -24.974  1.00  0.00     0.003 C 
HETATM   12  C20 UNL     1      -0.593  53.074 -24.448  1.00  0.00     0.013 C 
HETATM   13  C21 UNL     1       0.669  53.459 -25.208  1.00  0.00     0.079 C 
HETATM   14  C22 UNL     1       1.294  52.327 -25.986  1.00  0.00     0.131 C 
HETATM   15  O2  UNL     1       2.527  52.220 -26.024  1.00  0.00    -0.298 OA
HETATM   16  C23 UNL     1       0.399  51.372 -26.773  1.00  0.00     0.060 C 
HETATM   17  C24 UNL     1       0.843  51.405 -28.239  1.00  0.00     0.018 C 
HETATM   18  C25 UNL     1      -2.782  51.599 -24.406  1.00  0.00    -0.035 C 
HETATM   19  C26 UNL     1      -3.739  52.702 -24.945  1.00  0.00     0.016 C 
HETATM   20  C27 UNL     1      -2.767  51.786 -22.848  1.00  0.00     0.011 C 
HETATM   21  C28 UNL     1      -3.962  51.234 -22.041  1.00  0.00     0.011 C 
HETATM   22  C29 UNL     1      -4.710  50.054 -22.695  1.00  0.00    -0.032 C 
HETATM   23  C30 UNL     1      -5.955  50.626 -23.443  1.00  0.00     0.016 C 
ENDROOT
BRANCH   1  24
HETATM   24  C2  UNL     1      -6.372  49.074 -20.729  1.00  0.00    -0.010 C 
HETATM   25  C1  UNL     1      -6.112  48.690 -19.266  1.00  0.00     0.010 C 
BRANCH  24  26
HETATM   26  C3  UNL     1      -7.654  48.389 -21.263  1.00  0.00     0.031 C 
BRANCH  26  27
HETATM   27  C4  UNL     1      -7.977  48.745 -22.690  1.00  0.00    -0.027 C 
HETATM   28  C5  UNL     1      -8.662  47.949 -23.526  1.00  0.00     0.006 C 
BRANCH  28  29
HETATM   29  C6  UNL     1      -8.995  48.251 -24.971  1.00  0.00     0.068 C 
HETATM   30  C7  UNL     1     -10.304  47.573 -25.387  1.00  0.00     0.050 C 
HETATM   31  C8  UNL     1      -7.852  47.803 -25.888  1.00  0.00     0.050 C 
BRANCH  29  32
HETATM   32  O1  UNL     1      -9.154  49.661 -25.141  1.00  0.00    -0.387 OA
HETATM   33  H15 UNL     1      -9.969  49.911 -24.663  1.00  0.00     0.211 HD
ENDBRANCH  29  32
ENDBRANCH  28  29
ENDBRANCH  26  27
ENDBRANCH  24  26
ENDBRANCH   1  24
TORSDOF 5
ENDMDL
MODEL 7
REMARK minimizedAffinity -8.9007597
REMARK  5 active torsions:
REMARK  status: ('A' for Active; 'I' for Inactive)
REMARK    1  A    between atoms: C2_2  and  C3_3 
REMARK    2  A    between atoms: C2_2  and  C9_10 
REMARK    3  A    between atoms: C3_3  and  C4_4 
REMARK    4  A    between atoms: C5_5  and  C6_6 
REMARK    5  A    between atoms: C6_6  and  O1_9 
ROOT
HETATM    1  C9  UNL     1      -4.717  48.630 -20.497  1.00  0.00    -0.002 C 
HETATM    2  C10 UNL     1      -5.228  47.555 -21.502  1.00  0.00     0.006 C 
HETATM    3  C11 UNL     1      -4.746  47.982 -22.903  1.00  0.00     0.011 C 
HETATM    4  C12 UNL     1      -3.646  49.032 -22.637  1.00  0.00    -0.032 C 
HETATM    5  C13 UNL     1      -2.346  48.222 -22.308  1.00  0.00     0.016 C 
HETATM    6  C14 UNL     1      -3.368  50.023 -23.813  1.00  0.00     0.003 C 
HETATM    7  C15 UNL     1      -2.751  49.316 -25.048  1.00  0.00     0.007 C 
HETATM    8  C16 UNL     1      -2.460  50.308 -26.171  1.00  0.00     0.011 C 
HETATM    9  C17 UNL     1      -1.411  51.404 -25.781  1.00  0.00    -0.030 C 
HETATM   10  C18 UNL     1      -1.919  52.740 -26.380  1.00  0.00     0.016 C 
HETATM   11  C19 UNL     1      -1.229  51.434 -24.220  1.00  0.00     0.003 C 
HETATM   12  C20 UNL     1      -0.238  52.521 -23.748  1.00  0.00     0.013 C 
HETATM   13  C21 UNL     1       0.880  52.846 -24.730  1.00  0.00     0.079 C 
HETATM   14  C22 UNL     1       1.159  51.757 -25.736  1.00  0.00     0.131 C 
HETATM   15  O2  UNL     1       2.328  51.510 -26.060  1.00  0.00    -0.298 OA
HETATM   16  C23 UNL     1      -0.008  51.023 -26.392  1.00  0.00     0.060 C 
HETATM   17  C24 UNL     1       0.119  51.190 -27.910  1.00  0.00     0.018 C 
HETATM   18  C25 UNL     1      -2.558  51.324 -23.362  1.00  0.00    -0.035 C 
HETATM   19  C26 UNL     1      -3.438  52.592 -23.561  1.00  0.00     0.016 C 
HETATM   20  C27 UNL     1      -2.191  51.307 -21.836  1.00  0.00     0.011 C 
HETATM   21  C28 UNL     1      -3.257  50.803 -20.841  1.00  0.00     0.011 C 
HETATM   22  C29 UNL     1      -4.288  49.813 -21.423  1.00  0.00    -0.032 C 
HETATM   23  C30 UNL     1      -5.566  50.620 -21.813  1.00  0.00     0.016 C 
ENDROOT
BRANCH   1  24
HETATM   24  C2  UNL     1      -5.626  48.795 -19.241  1.00  0.00    -0.010 C 
HETATM   25  C1  UNL     1      -5.354  47.876 -18.042  1.00  0.00     0.010 C 
BRANCH  24  26
HETATM   26  C3  UNL     1      -7.125  48.771 -19.630  1.00  0.00     0.031 C 
BRANCH  26  27
HETATM   27  C4  UNL     1      -7.970  47.926 -18.716  1.00  0.00    -0.027 C 
HETATM   28  C5  UNL     1      -8.960  48.408 -17.949  1.00  0.00     0.006 C 
BRANCH  28  29
HETATM   29  C6  UNL     1      -9.825  47.606 -17.001  1.00  0.00     0.068 C 
HETATM   30  C7  UNL     1      -9.079  46.370 -16.488  1.00  0.00     0.050 C 
HETATM   31  C8  UNL     1     -11.129  47.190 -17.689  1.00  0.00     0.050 C 
BRANCH  29  32
HETATM   32  O1  UNL     1     -10.173  48.412 -15.873  1.00  0.00    -0.387 OA
HETATM   33  H15 UNL     1      -9.350  48.554 -15.366  1.00  0.00     0.211 HD
ENDBRANCH  29  32
ENDBRANCH  28  29
ENDBRANCH  26  27
ENDBRANCH  24  26
ENDBRANCH   1  24
TORSDOF 5
ENDMDL
MODEL 8
REMARK minimizedAffinity -8.87118244
REMARK  5 active torsions:
REMARK  status: ('A' for Active; 'I' for Inactive)
REMARK    1  A    between atoms: C2_2  and  C3_3 
REMARK    2  A    between atoms: C2_2  and  C9_10 
REMARK    3  A    between atoms: C3_3  and  C4_4 
REMARK    4  A    between atoms: C5_5  and  C6_6 
REMARK    5  A    between atoms: C6_6  and  O1_9 
ROOT
HETATM    1  C9  UNL     1      -1.650  48.447 -18.389  1.00  0.00    -0.002 C 
HETATM    2  C10 UNL     1      -2.562  47.249 -18.791  1.00  0.00     0.006 C 
HETATM    3  C11 UNL     1      -3.060  47.522 -20.224  1.00  0.00     0.011 C 
HETATM    4  C12 UNL     1      -2.123  48.624 -20.763  1.00  0.00    -0.032 C 
HETATM    5  C13 UNL     1      -0.819  47.892 -21.229  1.00  0.00     0.016 C 
HETATM    6  C14 UNL     1      -2.699  49.477 -21.938  1.00  0.00     0.003 C 
HETATM    7  C15 UNL     1      -2.887  48.647 -23.234  1.00  0.00     0.007 C 
HETATM    8  C16 UNL     1      -3.422  49.509 -24.375  1.00  0.00     0.011 C 
HETATM    9  C17 UNL     1      -2.454  50.670 -24.789  1.00  0.00    -0.030 C 
HETATM   10  C18 UNL     1      -3.340  51.913 -25.058  1.00  0.00     0.016 C 
HETATM   11  C19 UNL     1      -1.374  50.886 -23.668  1.00  0.00     0.003 C 
HETATM   12  C20 UNL     1      -0.403  52.046 -23.981  1.00  0.00     0.013 C 
HETATM   13  C21 UNL     1      -0.136  52.283 -25.461  1.00  0.00     0.079 C 
HETATM   14  C22 UNL     1      -0.419  51.091 -26.341  1.00  0.00     0.131 C 
HETATM   15  O2  UNL     1       0.337  50.838 -27.289  1.00  0.00    -0.298 OA
HETATM   16  C23 UNL     1      -1.673  50.256 -26.095  1.00  0.00     0.060 C 
HETATM   17  C24 UNL     1      -2.499  50.248 -27.385  1.00  0.00     0.018 C 
HETATM   18  C25 UNL     1      -1.904  50.842 -22.174  1.00  0.00    -0.035 C 
HETATM   19  C26 UNL     1      -2.838  52.055 -21.895  1.00  0.00     0.016 C 
HETATM   20  C27 UNL     1      -0.694  51.013 -21.189  1.00  0.00     0.011 C 
HETATM   21  C28 UNL     1      -0.896  50.602 -19.715  1.00  0.00     0.011 C 
HETATM   22  C29 UNL     1      -1.974  49.525 -19.473  1.00  0.00    -0.032 C 
HETATM   23  C30 UNL     1      -3.297  50.246 -19.068  1.00  0.00     0.016 C 
ENDROOT
BRANCH   1  24
HETATM   24  C2  UNL     1      -1.632  48.734 -16.857  1.00  0.00    -0.010 C 
HETATM   25  C1  UNL     1      -2.493  49.896 -16.343  1.00  0.00     0.010 C 
BRANCH  24  26
HETATM   26  C3  UNL     1      -0.181  48.840 -16.326  1.00  0.00     0.031 C 
BRANCH  26  27
HETATM   27  C4  UNL     1       0.201  50.230 -15.893  1.00  0.00    -0.027 C 
HETATM   28  C5  UNL     1       0.847  50.510 -14.750  1.00  0.00     0.006 C 
BRANCH  28  29
HETATM   29  C6  UNL     1       1.235  51.888 -14.260  1.00  0.00     0.068 C 
HETATM   30  C7  UNL     1       2.647  51.882 -13.665  1.00  0.00     0.050 C 
HETATM   31  C8  UNL     1       0.226  52.391 -13.224  1.00  0.00     0.050 C 
BRANCH  29  32
HETATM   32  O1  UNL     1       1.221  52.807 -15.355  1.00  0.00    -0.387 OA
HETATM   33  H15 UNL     1       1.962  52.556 -15.941  1.00  0.00     0.211 HD
ENDBRANCH  29  32
ENDBRANCH  28  29
ENDBRANCH  26  27
ENDBRANCH  24  26
ENDBRANCH   1  24
TORSDOF 5
ENDMDL
MODEL 9
REMARK minimizedAffinity -8.86741543
REMARK  5 active torsions:
REMARK  status: ('A' for Active; 'I' for Inactive)
REMARK    1  A    between atoms: C2_2  and  C3_3 
REMARK    2  A    between atoms: C2_2  and  C9_10 
REMARK    3  A    between atoms: C3_3  and  C4_4 
REMARK    4  A    between atoms: C5_5  and  C6_6 
REMARK    5  A    between atoms: C6_6  and  O1_9 
ROOT
HETATM    1  C9  UNL     1      -0.911  50.063 -21.587  1.00  0.00    -0.002 C 
HETATM    2  C10 UNL     1      -0.629  49.351 -20.230  1.00  0.00     0.006 C 
HETATM    3  C11 UNL     1      -1.917  48.601 -19.838  1.00  0.00     0.011 C 
HETATM    4  C12 UNL     1      -2.752  48.547 -21.136  1.00  0.00    -0.032 C 
HETATM    5  C13 UNL     1      -2.172  47.356 -21.973  1.00  0.00     0.016 C 
HETATM    6  C14 UNL     1      -4.289  48.354 -20.937  1.00  0.00     0.003 C 
HETATM    7  C15 UNL     1      -4.639  46.961 -20.352  1.00  0.00     0.007 C 
HETATM    8  C16 UNL     1      -6.147  46.785 -20.196  1.00  0.00     0.011 C 
HETATM    9  C17 UNL     1      -6.929  46.849 -21.552  1.00  0.00    -0.030 C 
HETATM   10  C18 UNL     1      -8.223  47.659 -21.282  1.00  0.00     0.016 C 
HETATM   11  C19 UNL     1      -6.009  47.469 -22.666  1.00  0.00     0.003 C 
HETATM   12  C20 UNL     1      -6.722  47.607 -24.030  1.00  0.00     0.013 C 
HETATM   13  C21 UNL     1      -7.789  46.557 -24.310  1.00  0.00     0.079 C 
HETATM   14  C22 UNL     1      -7.643  45.292 -23.501  1.00  0.00     0.131 C 
HETATM   15  O2  UNL     1      -7.875  44.198 -24.031  1.00  0.00    -0.298 OA
HETATM   16  C23 UNL     1      -7.281  45.385 -22.020  1.00  0.00     0.060 C 
HETATM   17  C24 UNL     1      -8.380  44.681 -21.218  1.00  0.00     0.018 C 
HETATM   18  C25 UNL     1      -5.144  48.725 -22.234  1.00  0.00    -0.035 C 
HETATM   19  C26 UNL     1      -6.067  49.941 -21.931  1.00  0.00     0.016 C 
HETATM   20  C27 UNL     1      -4.245  49.175 -23.440  1.00  0.00     0.011 C 
HETATM   21  C28 UNL     1      -3.044  50.097 -23.143  1.00  0.00     0.011 C 
HETATM   22  C29 UNL     1      -2.466  49.989 -21.716  1.00  0.00    -0.032 C 
HETATM   23  C30 UNL     1      -3.085  51.134 -20.856  1.00  0.00     0.016 C 
ENDROOT
BRANCH   1  24
HETATM   24  C2  UNL     1      -0.083  51.368 -21.793  1.00  0.00    -0.010 C 
HETATM   25  C1  UNL     1       0.366  52.129 -20.538  1.00  0.00     0.010 C 
BRANCH  24  26
HETATM   26  C3  UNL     1      -0.780  52.317 -22.799  1.00  0.00     0.031 C 
BRANCH  26  27
HETATM   27  C4  UNL     1       0.025  52.567 -24.047  1.00  0.00    -0.027 C 
HETATM   28  C5  UNL     1       0.025  51.756 -25.116  1.00  0.00     0.006 C 
BRANCH  28  29
HETATM   29  C6  UNL     1       0.828  51.951 -26.384  1.00  0.00     0.068 C 
HETATM   30  C7  UNL     1       0.090  51.376 -27.596  1.00  0.00     0.050 C 
HETATM   31  C8  UNL     1       2.209  51.302 -26.247  1.00  0.00     0.050 C 
BRANCH  29  32
HETATM   32  O1  UNL     1       1.031  53.348 -26.611  1.00  0.00    -0.387 OA
HETATM   33  H15 UNL     1       0.157  53.725 -26.834  1.00  0.00     0.211 HD
ENDBRANCH  29  32
ENDBRANCH  28  29
ENDBRANCH  26  27
ENDBRANCH  24  26
ENDBRANCH   1  24
TORSDOF 5
ENDMDL
