MODEL 1
REMARK minimizedAffinity -5.67452526
REMARK CNNscore 0.322935641
REMARK CNNaffinity 6.76263857
REMARK  12 active torsions:
REMARK  status: ('A' for Active; 'I' for Inactive)
REMARK    1  A    between atoms: C2_2  and  O2_4 
REMARK    2  A    between atoms: O2_4  and  C3_5 
REMARK    3  A    between atoms: C4_6  and  O3_7 
REMARK    4  A    between atoms: O3_7  and  C5_8 
REMARK    5  A    between atoms: C5_8  and  C6_10 
REMARK    6  A    between atoms: C12_16  and  C13_17 
REMARK    7  A    between atoms: C13_17  and  O5_18 
REMARK    8  A    between atoms: O5_18  and  C14_19 
REMARK    9  A    between atoms: C14_19  and  C15_21 
REMARK   10  A    between atoms: C20_28  and  O7_29 
REMARK   11  A    between atoms: O7_29  and  C21_30 
REMARK   12  A    between atoms: C21_30  and  C22_32 
ROOT
HETATM    1  C3  UNL     1     -13.478   9.572  18.103  1.00  0.00     0.169 C 
HETATM    2  C4  UNL     1     -12.467  10.452  17.314  1.00  0.00     0.178 C 
HETATM    3  C12 UNL     1     -11.981   9.797  15.962  1.00  0.00     0.069 C 
HETATM    4  C20 UNL     1     -11.589  10.984  14.989  1.00  0.00     0.148 C 
HETATM    5  C25 UNL     1     -11.881  10.737  13.496  1.00  0.00     0.034 C 
HETATM    6  C26 UNL     1     -11.829   9.266  13.126  1.00  0.00     0.010 C 
HETATM    7  C27 UNL     1     -12.872   8.432  13.896  1.00  0.00     0.017 C 
HETATM    8  C28 UNL     1     -12.451   6.958  13.862  1.00  0.00     0.013 C 
HETATM    9  C29 UNL     1     -13.178   9.007  15.314  1.00  0.00     0.080 C 
HETATM   10  C30 UNL     1     -13.806   7.982  16.264  1.00  0.00     0.050 C 
HETATM   11  C31 UNL     1     -14.546   8.907  17.207  1.00  0.00     0.054 C 
HETATM   12  C32 UNL     1     -15.245   9.827  16.186  1.00  0.00     0.061 C 
HETATM   13  C33 UNL     1     -15.724  11.184  16.712  1.00  0.00     0.046 C 
HETATM   14  C34 UNL     1     -16.469   9.147  15.535  1.00  0.00     0.046 C 
HETATM   15  O9  UNL     1     -14.253  10.008  15.149  1.00  0.00    -0.368 OA
ENDROOT
BRANCH   3  16
HETATM   16  C13 UNL     1     -10.723   8.909  16.234  1.00  0.00     0.197 C 
BRANCH  16  17
HETATM   17  O5  UNL     1     -10.215   8.255  15.060  1.00  0.00    -0.316 OA
BRANCH  17  18
HETATM   18  C14 UNL     1      -8.860   8.119  15.060  1.00  0.00     0.294 C 
HETATM   19  O6  UNL     1      -8.056   9.021  15.231  1.00  0.00    -0.259 OA
BRANCH  18  20
HETATM   20  C15 UNL     1      -8.454   6.723  14.801  1.00  0.00     0.054 A 
HETATM   21  C16 UNL     1      -8.366   6.155  13.527  1.00  0.00     0.020 A 
HETATM   22  C17 UNL     1      -7.974   4.822  13.396  1.00  0.00     0.018 A 
HETATM   23  C18 UNL     1      -7.685   4.102  14.545  1.00  0.00     0.087 A 
HETATM   24  N1  UNL     1      -7.771   4.615  15.791  1.00  0.00    -0.374 N 
HETATM   25  C19 UNL     1      -8.155   5.913  15.890  1.00  0.00     0.105 A 
ATOM     26  H1  UNL     1      -7.558   4.054  16.617  1.00  0.00     0.164 HD
ENDBRANCH  18  20
ENDBRANCH  17  18
ENDBRANCH  16  17
ENDBRANCH   3  16
BRANCH   2  27
HETATM   27  O3  UNL     1     -11.311  10.747  18.138  1.00  0.00    -0.308 OA
BRANCH  27  28
HETATM   28  C5  UNL     1     -11.132  10.012  19.263  1.00  0.00     0.293 C 
HETATM   29  O4  UNL     1     -11.190   8.795  19.345  1.00  0.00    -0.259 OA
BRANCH  28  30
HETATM   30  C6  UNL     1     -10.842  10.898  20.421  1.00  0.00     0.039 A 
HETATM   31  C7  UNL     1     -10.997  10.369  21.710  1.00  0.00     0.017 A 
HETATM   32  C8  UNL     1     -10.722  11.156  22.830  1.00  0.00     0.001 A 
HETATM   33  C9  UNL     1     -10.295  12.475  22.668  1.00  0.00     0.000 A 
HETATM   34  C10 UNL     1     -10.141  13.009  21.389  1.00  0.00     0.001 A 
HETATM   35  C11 UNL     1     -10.412  12.224  20.265  1.00  0.00     0.017 A 
ENDBRANCH  28  30
ENDBRANCH  27  28
ENDBRANCH   2  27
BRANCH   4  36
HETATM   36  O7  UNL     1     -10.174  11.263  15.091  1.00  0.00    -0.315 OA
BRANCH  36  37
HETATM   37  C21 UNL     1      -9.772  12.565  15.099  1.00  0.00     0.262 C 
HETATM   38  O8  UNL     1      -9.652  13.274  14.111  1.00  0.00    -0.265 OA
BRANCH  37  39
HETATM   39  C22 UNL     1      -9.473  12.992  16.527  1.00  0.00     0.077 C 
HETATM   40  C23 UNL     1     -10.497  14.009  17.022  1.00  0.00     0.020 C 
HETATM   41  C24 UNL     1      -8.059  13.560  16.592  1.00  0.00     0.020 C 
ENDBRANCH  37  39
ENDBRANCH  36  37
ENDBRANCH   4  36
BRANCH   1  42
HETATM   42  O2  UNL     1     -14.165  10.347  19.108  1.00  0.00    -0.313 OA
BRANCH  42  43
HETATM   43  C2  UNL     1     -15.007   9.674  19.938  1.00  0.00     0.255 C 
HETATM   44  C1  UNL     1     -14.229   8.753  20.828  1.00  0.00     0.126 C 
HETATM   45  O1  UNL     1     -16.222   9.815  19.986  1.00  0.00    -0.266 OA
ENDBRANCH  42  43
ENDBRANCH   1  42
TORSDOF 12
ENDMDL
MODEL 2
REMARK minimizedAffinity -6.1044035
REMARK CNNscore 0.259836733
REMARK CNNaffinity 5.54885101
REMARK  12 active torsions:
REMARK  status: ('A' for Active; 'I' for Inactive)
REMARK    1  A    between atoms: C2_2  and  O2_4 
REMARK    2  A    between atoms: O2_4  and  C3_5 
REMARK    3  A    between atoms: C4_6  and  O3_7 
REMARK    4  A    between atoms: O3_7  and  C5_8 
REMARK    5  A    between atoms: C5_8  and  C6_10 
REMARK    6  A    between atoms: C12_16  and  C13_17 
REMARK    7  A    between atoms: C13_17  and  O5_18 
REMARK    8  A    between atoms: O5_18  and  C14_19 
REMARK    9  A    between atoms: C14_19  and  C15_21 
REMARK   10  A    between atoms: C20_28  and  O7_29 
REMARK   11  A    between atoms: O7_29  and  C21_30 
REMARK   12  A    between atoms: C21_30  and  C22_32 
ROOT
HETATM    1  C3  UNL     1     -16.967  -4.607  15.646  1.00  0.00     0.169 C 
HETATM    2  C4  UNL     1     -16.579  -3.108  15.798  1.00  0.00     0.178 C 
HETATM    3  C12 UNL     1     -15.677  -2.567  14.622  1.00  0.00     0.069 C 
HETATM    4  C20 UNL     1     -15.951  -1.011  14.507  1.00  0.00     0.148 C 
HETATM    5  C25 UNL     1     -15.900  -0.436  13.079  1.00  0.00     0.034 C 
HETATM    6  C26 UNL     1     -14.972  -1.218  12.167  1.00  0.00     0.010 C 
HETATM    7  C27 UNL     1     -15.409  -2.687  12.007  1.00  0.00     0.017 C 
HETATM    8  C28 UNL     1     -14.214  -3.510  11.513  1.00  0.00     0.013 C 
HETATM    9  C29 UNL     1     -16.128  -3.246  13.275  1.00  0.00     0.080 C 
HETATM   10  C30 UNL     1     -16.136  -4.776  13.344  1.00  0.00     0.050 C 
HETATM   11  C31 UNL     1     -17.362  -4.999  14.206  1.00  0.00     0.054 C 
HETATM   12  C32 UNL     1     -18.361  -4.063  13.497  1.00  0.00     0.061 C 
HETATM   13  C33 UNL     1     -19.584  -3.633  14.313  1.00  0.00     0.046 C 
HETATM   14  C34 UNL     1     -18.897  -4.673  12.183  1.00  0.00     0.046 C 
HETATM   15  O9  UNL     1     -17.561  -2.911  13.139  1.00  0.00    -0.368 OA
ENDROOT
BRANCH   3  16
HETATM   16  C13 UNL     1     -14.170  -2.808  14.967  1.00  0.00     0.197 C 
BRANCH  16  17
HETATM   17  O5  UNL     1     -13.936  -4.013  15.713  1.00  0.00    -0.316 OA
BRANCH  17  18
HETATM   18  C14 UNL     1     -12.970  -4.805  15.171  1.00  0.00     0.294 C 
HETATM   19  O6  UNL     1     -12.282  -4.525  14.202  1.00  0.00    -0.259 OA
BRANCH  18  20
HETATM   20  C15 UNL     1     -12.853  -6.090  15.890  1.00  0.00     0.054 A 
HETATM   21  C16 UNL     1     -13.919  -6.968  16.106  1.00  0.00     0.020 A 
HETATM   22  C17 UNL     1     -13.699  -8.157  16.803  1.00  0.00     0.018 A 
HETATM   23  C18 UNL     1     -12.418  -8.426  17.261  1.00  0.00     0.087 A 
HETATM   24  N1  UNL     1     -11.368  -7.597  17.079  1.00  0.00    -0.374 N 
HETATM   25  C19 UNL     1     -11.611  -6.447  16.400  1.00  0.00     0.105 A 
ATOM     26  H1  UNL     1     -10.440  -7.823  17.436  1.00  0.00     0.164 HD
ENDBRANCH  18  20
ENDBRANCH  17  18
ENDBRANCH  16  17
ENDBRANCH   3  16
BRANCH   2  27
HETATM   27  O3  UNL     1     -15.893  -2.895  17.058  1.00  0.00    -0.308 OA
BRANCH  27  28
HETATM   28  C5  UNL     1     -16.634  -2.501  18.123  1.00  0.00     0.293 C 
HETATM   29  O4  UNL     1     -16.266  -2.480  19.287  1.00  0.00    -0.259 OA
BRANCH  28  30
HETATM   30  C6  UNL     1     -17.990  -2.078  17.684  1.00  0.00     0.039 A 
HETATM   31  C7  UNL     1     -19.093  -2.784  18.183  1.00  0.00     0.017 A 
HETATM   32  C8  UNL     1     -20.388  -2.416  17.814  1.00  0.00     0.001 A 
HETATM   33  C9  UNL     1     -20.587  -1.345  16.941  1.00  0.00     0.000 A 
HETATM   34  C10 UNL     1     -19.494  -0.640  16.438  1.00  0.00     0.001 A 
HETATM   35  C11 UNL     1     -18.197  -1.002  16.808  1.00  0.00     0.017 A 
ENDBRANCH  28  30
ENDBRANCH  27  28
ENDBRANCH   2  27
BRANCH   4  36
HETATM   36  O7  UNL     1     -14.974  -0.278  15.282  1.00  0.00    -0.315 OA
BRANCH  36  37
HETATM   37  C21 UNL     1     -15.425   0.634  16.190  1.00  0.00     0.262 C 
HETATM   38  O8  UNL     1     -15.276   0.558  17.401  1.00  0.00    -0.265 OA
BRANCH  37  39
HETATM   39  C22 UNL     1     -16.162   1.747  15.465  1.00  0.00     0.077 C 
HETATM   40  C23 UNL     1     -15.183   2.718  14.811  1.00  0.00     0.020 C 
HETATM   41  C24 UNL     1     -17.074   2.467  16.452  1.00  0.00     0.020 C 
ENDBRANCH  37  39
ENDBRANCH  36  37
ENDBRANCH   4  36
BRANCH   1  42
HETATM   42  O2  UNL     1     -18.069  -4.948  16.514  1.00  0.00    -0.313 OA
BRANCH  42  43
HETATM   43  C2  UNL     1     -18.055  -6.188  17.072  1.00  0.00     0.255 C 
HETATM   44  C1  UNL     1     -16.999  -6.266  18.132  1.00  0.00     0.126 C 
HETATM   45  O1  UNL     1     -18.812  -7.107  16.785  1.00  0.00    -0.266 OA
ENDBRANCH  42  43
ENDBRANCH   1  42
TORSDOF 12
ENDMDL
MODEL 3
REMARK minimizedAffinity -5.71295929
REMARK CNNscore 0.238060474
REMARK CNNaffinity 6.05941534
REMARK  12 active torsions:
REMARK  status: ('A' for Active; 'I' for Inactive)
REMARK    1  A    between atoms: C2_2  and  O2_4 
REMARK    2  A    between atoms: O2_4  and  C3_5 
REMARK    3  A    between atoms: C4_6  and  O3_7 
REMARK    4  A    between atoms: O3_7  and  C5_8 
REMARK    5  A    between atoms: C5_8  and  C6_10 
REMARK    6  A    between atoms: C12_16  and  C13_17 
REMARK    7  A    between atoms: C13_17  and  O5_18 
REMARK    8  A    between atoms: O5_18  and  C14_19 
REMARK    9  A    between atoms: C14_19  and  C15_21 
REMARK   10  A    between atoms: C20_28  and  O7_29 
REMARK   11  A    between atoms: O7_29  and  C21_30 
REMARK   12  A    between atoms: C21_30  and  C22_32 
ROOT
HETATM    1  C3  UNL     1      16.378  -5.786   3.296  1.00  0.00     0.169 C 
HETATM    2  C4  UNL     1      15.222  -5.792   4.337  1.00  0.00     0.178 C 
HETATM    3  C12 UNL     1      14.398  -4.446   4.372  1.00  0.00     0.069 C 
HETATM    4  C20 UNL     1      12.939  -4.810   4.872  1.00  0.00     0.148 C 
HETATM    5  C25 UNL     1      11.802  -3.976   4.251  1.00  0.00     0.034 C 
HETATM    6  C26 UNL     1      12.252  -2.584   3.845  1.00  0.00     0.010 C 
HETATM    7  C27 UNL     1      13.370  -2.616   2.784  1.00  0.00     0.017 C 
HETATM    8  C28 UNL     1      14.099  -1.268   2.790  1.00  0.00     0.013 C 
HETATM    9  C29 UNL     1      14.287  -3.873   2.910  1.00  0.00     0.080 C 
HETATM   10  C30 UNL     1      15.647  -3.704   2.225  1.00  0.00     0.050 C 
HETATM   11  C31 UNL     1      15.988  -5.153   1.943  1.00  0.00     0.054 C 
HETATM   12  C32 UNL     1      14.654  -5.627   1.331  1.00  0.00     0.061 C 
HETATM   13  C33 UNL     1      14.407  -7.139   1.331  1.00  0.00     0.046 C 
HETATM   14  C34 UNL     1      14.482  -5.150  -0.128  1.00  0.00     0.046 C 
HETATM   15  O9  UNL     1      13.650  -4.950   2.124  1.00  0.00    -0.368 OA
ENDROOT
BRANCH   3  16
HETATM   16  C13 UNL     1      15.063  -3.453   5.382  1.00  0.00     0.197 C 
BRANCH  16  17
HETATM   17  O5  UNL     1      16.243  -2.815   4.868  1.00  0.00    -0.316 OA
BRANCH  17  18
HETATM   18  C14 UNL     1      16.730  -1.841   5.685  1.00  0.00     0.294 C 
HETATM   19  O6  UNL     1      16.571  -1.782   6.894  1.00  0.00    -0.259 OA
BRANCH  18  20
HETATM   20  C15 UNL     1      17.475  -0.816   4.926  1.00  0.00     0.054 A 
HETATM   21  C16 UNL     1      16.878   0.124   4.081  1.00  0.00     0.020 A 
HETATM   22  C17 UNL     1      17.678   1.047   3.407  1.00  0.00     0.018 A 
HETATM   23  C18 UNL     1      19.050   0.997   3.601  1.00  0.00     0.087 A 
HETATM   24  N1  UNL     1      19.661   0.097   4.400  1.00  0.00    -0.374 N 
HETATM   25  C19 UNL     1      18.860  -0.790   5.043  1.00  0.00     0.105 A 
ATOM     26  H1  UNL     1      20.675   0.084   4.514  1.00  0.00     0.164 HD
ENDBRANCH  18  20
ENDBRANCH  17  18
ENDBRANCH  16  17
ENDBRANCH   3  16
BRANCH   2  27
HETATM   27  O3  UNL     1      15.743  -6.062   5.662  1.00  0.00    -0.308 OA
BRANCH  27  28
HETATM   28  C5  UNL     1      15.392  -7.231   6.254  1.00  0.00     0.293 C 
HETATM   29  O4  UNL     1      14.447  -7.940   5.944  1.00  0.00    -0.259 OA
BRANCH  28  30
HETATM   30  C6  UNL     1      16.334  -7.557   7.357  1.00  0.00     0.039 A 
HETATM   31  C7  UNL     1      16.761  -6.512   8.188  1.00  0.00     0.017 A 
HETATM   32  C8  UNL     1      17.633  -6.768   9.248  1.00  0.00     0.001 A 
HETATM   33  C9  UNL     1      18.085  -8.068   9.480  1.00  0.00     0.000 A 
HETATM   34  C10 UNL     1      17.666  -9.113   8.656  1.00  0.00     0.001 A 
HETATM   35  C11 UNL     1      16.791  -8.861   7.597  1.00  0.00     0.017 A 
ENDBRANCH  28  30
ENDBRANCH  27  28
ENDBRANCH   2  27
BRANCH   4  36
HETATM   36  O7  UNL     1      12.847  -4.631   6.304  1.00  0.00    -0.315 OA
BRANCH  36  37
HETATM   37  C21 UNL     1      11.998  -5.439   7.000  1.00  0.00     0.262 C 
HETATM   38  O8  UNL     1      10.854  -5.714   6.670  1.00  0.00    -0.265 OA
BRANCH  37  39
HETATM   39  C22 UNL     1      12.687  -5.924   8.264  1.00  0.00     0.077 C 
HETATM   40  C23 UNL     1      11.670  -6.230   9.361  1.00  0.00     0.020 C 
HETATM   41  C24 UNL     1      13.689  -4.870   8.723  1.00  0.00     0.020 C 
ENDBRANCH  37  39
ENDBRANCH  36  37
ENDBRANCH   4  36
BRANCH   1  42
HETATM   42  O2  UNL     1      16.849  -7.126   3.037  1.00  0.00    -0.313 OA
BRANCH  42  43
HETATM   43  C2  UNL     1      18.099  -7.437   3.473  1.00  0.00     0.255 C 
HETATM   44  C1  UNL     1      19.127  -6.887   2.532  1.00  0.00     0.126 C 
HETATM   45  O1  UNL     1      18.362  -8.046   4.502  1.00  0.00    -0.266 OA
ENDBRANCH  42  43
ENDBRANCH   1  42
TORSDOF 12
ENDMDL
MODEL 4
REMARK minimizedAffinity -6.08612156
REMARK CNNscore 0.169437051
REMARK CNNaffinity 4.92249537
REMARK  12 active torsions:
REMARK  status: ('A' for Active; 'I' for Inactive)
REMARK    1  A    between atoms: C2_2  and  O2_4 
REMARK    2  A    between atoms: O2_4  and  C3_5 
REMARK    3  A    between atoms: C4_6  and  O3_7 
REMARK    4  A    between atoms: O3_7  and  C5_8 
REMARK    5  A    between atoms: C5_8  and  C6_10 
REMARK    6  A    between atoms: C12_16  and  C13_17 
REMARK    7  A    between atoms: C13_17  and  O5_18 
REMARK    8  A    between atoms: O5_18  and  C14_19 
REMARK    9  A    between atoms: C14_19  and  C15_21 
REMARK   10  A    between atoms: C20_28  and  O7_29 
REMARK   11  A    between atoms: O7_29  and  C21_30 
REMARK   12  A    between atoms: C21_30  and  C22_32 
ROOT
HETATM    1  C3  UNL     1      17.813   0.040   7.460  1.00  0.00     0.169 C 
HETATM    2  C4  UNL     1      18.457  -0.944   8.478  1.00  0.00     0.178 C 
HETATM    3  C12 UNL     1      18.319  -2.461   8.063  1.00  0.00     0.069 C 
HETATM    4  C20 UNL     1      19.540  -3.232   8.715  1.00  0.00     0.148 C 
HETATM    5  C25 UNL     1      20.104  -4.399   7.883  1.00  0.00     0.034 C 
HETATM    6  C26 UNL     1      19.056  -5.040   6.992  1.00  0.00     0.010 C 
HETATM    7  C27 UNL     1      18.469  -4.047   5.969  1.00  0.00     0.017 C 
HETATM    8  C28 UNL     1      17.126  -4.588   5.467  1.00  0.00     0.013 C 
HETATM    9  C29 UNL     1      18.443  -2.580   6.499  1.00  0.00     0.080 C 
HETATM   10  C30 UNL     1      17.458  -1.679   5.746  1.00  0.00     0.050 C 
HETATM   11  C31 UNL     1      18.094  -0.326   5.986  1.00  0.00     0.054 C 
HETATM   12  C32 UNL     1      19.559  -0.653   5.634  1.00  0.00     0.061 C 
HETATM   13  C33 UNL     1      20.619   0.308   6.182  1.00  0.00     0.046 C 
HETATM   14  C34 UNL     1      19.785  -0.739   4.109  1.00  0.00     0.046 C 
HETATM   15  O9  UNL     1      19.754  -1.982   6.172  1.00  0.00    -0.368 OA
ENDROOT
BRANCH   3  16
HETATM   16  C13 UNL     1      16.978  -3.036   8.627  1.00  0.00     0.197 C 
BRANCH  16  17
HETATM   17  O5  UNL     1      16.860  -4.461   8.489  1.00  0.00    -0.316 OA
BRANCH  17  18
HETATM   18  C14 UNL     1      15.980  -5.018   9.366  1.00  0.00     0.294 C 
HETATM   19  O6  UNL     1      16.198  -5.238  10.547  1.00  0.00    -0.259 OA
BRANCH  18  20
HETATM   20  C15 UNL     1      14.702  -5.361   8.711  1.00  0.00     0.054 A 
HETATM   21  C16 UNL     1      13.475  -4.769   9.026  1.00  0.00     0.020 A 
HETATM   22  C17 UNL     1      12.325  -5.171   8.346  1.00  0.00     0.018 A 
HETATM   23  C18 UNL     1      12.441  -6.153   7.373  1.00  0.00     0.087 A 
HETATM   24  N1  UNL     1      13.607  -6.753   7.052  1.00  0.00    -0.374 N 
HETATM   25  C19 UNL     1      14.710  -6.344   7.729  1.00  0.00     0.105 A 
ATOM     26  H1  UNL     1      13.656  -7.478   6.336  1.00  0.00     0.164 HD
ENDBRANCH  18  20
ENDBRANCH  17  18
ENDBRANCH  16  17
ENDBRANCH   3  16
BRANCH   2  27
HETATM   27  O3  UNL     1      17.874  -0.757   9.792  1.00  0.00    -0.308 OA
BRANCH  27  28
HETATM   28  C5  UNL     1      18.582  -0.046  10.703  1.00  0.00     0.293 C 
HETATM   29  O4  UNL     1      19.780  -0.142  10.918  1.00  0.00    -0.259 OA
BRANCH  28  30
HETATM   30  C6  UNL     1      17.692   0.899  11.427  1.00  0.00     0.039 A 
HETATM   31  C7  UNL     1      16.373   1.039  10.976  1.00  0.00     0.017 A 
HETATM   32  C8  UNL     1      15.493   1.902  11.632  1.00  0.00     0.001 A 
HETATM   33  C9  UNL     1      15.928   2.633  12.738  1.00  0.00     0.000 A 
HETATM   34  C10 UNL     1      17.240   2.502  13.192  1.00  0.00     0.001 A 
HETATM   35  C11 UNL     1      18.123   1.636  12.541  1.00  0.00     0.017 A 
ENDBRANCH  28  30
ENDBRANCH  27  28
ENDBRANCH   2  27
BRANCH   4  36
HETATM   36  O7  UNL     1      19.151  -3.787   9.993  1.00  0.00    -0.315 OA
BRANCH  36  37
HETATM   37  C21 UNL     1      20.094  -3.873  10.972  1.00  0.00     0.262 C 
HETATM   38  O8  UNL     1      21.020  -3.090  11.133  1.00  0.00    -0.265 OA
BRANCH  37  39
HETATM   39  C22 UNL     1      19.831  -5.106  11.819  1.00  0.00     0.077 C 
HETATM   40  C23 UNL     1      19.452  -6.301  10.947  1.00  0.00     0.020 C 
HETATM   41  C24 UNL     1      18.732  -4.793  12.829  1.00  0.00     0.020 C 
ENDBRANCH  37  39
ENDBRANCH  36  37
ENDBRANCH   4  36
BRANCH   1  42
HETATM   42  O2  UNL     1      18.280   1.389   7.676  1.00  0.00    -0.313 OA
BRANCH  42  43
HETATM   43  C2  UNL     1      17.438   2.398   7.324  1.00  0.00     0.255 C 
HETATM   44  C1  UNL     1      17.827   2.953   5.988  1.00  0.00     0.126 C 
HETATM   45  O1  UNL     1      16.477   2.784   7.978  1.00  0.00    -0.266 OA
ENDBRANCH  42  43
ENDBRANCH   1  42
TORSDOF 12
ENDMDL
MODEL 5
REMARK minimizedAffinity -7.8547039
REMARK CNNscore 0.159286067
REMARK CNNaffinity 6.28828573
REMARK  12 active torsions:
REMARK  status: ('A' for Active; 'I' for Inactive)
REMARK    1  A    between atoms: C2_2  and  O2_4 
REMARK    2  A    between atoms: O2_4  and  C3_5 
REMARK    3  A    between atoms: C4_6  and  O3_7 
REMARK    4  A    between atoms: O3_7  and  C5_8 
REMARK    5  A    between atoms: C5_8  and  C6_10 
REMARK    6  A    between atoms: C12_16  and  C13_17 
REMARK    7  A    between atoms: C13_17  and  O5_18 
REMARK    8  A    between atoms: O5_18  and  C14_19 
REMARK    9  A    between atoms: C14_19  and  C15_21 
REMARK   10  A    between atoms: C20_28  and  O7_29 
REMARK   11  A    between atoms: O7_29  and  C21_30 
REMARK   12  A    between atoms: C21_30  and  C22_32 
ROOT
HETATM    1  C3  UNL     1       0.995   9.211  15.812  1.00  0.00     0.169 C 
HETATM    2  C4  UNL     1       0.841   8.979  14.282  1.00  0.00     0.178 C 
HETATM    3  C12 UNL     1      -0.512   8.271  13.884  1.00  0.00     0.069 C 
HETATM    4  C20 UNL     1      -0.856   8.727  12.407  1.00  0.00     0.148 C 
HETATM    5  C25 UNL     1      -2.357   8.890  12.099  1.00  0.00     0.034 C 
HETATM    6  C26 UNL     1      -3.229   7.982  12.946  1.00  0.00     0.010 C 
HETATM    7  C27 UNL     1      -3.081   8.267  14.453  1.00  0.00     0.017 C 
HETATM    8  C28 UNL     1      -3.570   7.045  15.240  1.00  0.00     0.013 C 
HETATM    9  C29 UNL     1      -1.658   8.781  14.835  1.00  0.00     0.080 C 
HETATM   10  C30 UNL     1      -1.329   8.612  16.321  1.00  0.00     0.050 C 
HETATM   11  C31 UNL     1      -0.298   9.708  16.494  1.00  0.00     0.054 C 
HETATM   12  C32 UNL     1      -1.028  10.874  15.798  1.00  0.00     0.061 C 
HETATM   13  C33 UNL     1      -0.154  12.046  15.340  1.00  0.00     0.046 C 
HETATM   14  C34 UNL     1      -2.143  11.474  16.683  1.00  0.00     0.046 C 
HETATM   15  O9  UNL     1      -1.672  10.249  14.663  1.00  0.00    -0.368 OA
ENDROOT
BRANCH   3  16
HETATM   16  C13 UNL     1      -0.319   6.719  13.920  1.00  0.00     0.197 C 
BRANCH  16  17
HETATM   17  O5  UNL     1      -1.494   5.984  13.540  1.00  0.00    -0.316 OA
BRANCH  17  18
HETATM   18  C14 UNL     1      -1.217   4.832  12.869  1.00  0.00     0.294 C 
HETATM   19  O6  UNL     1      -0.126   4.286  12.814  1.00  0.00    -0.259 OA
BRANCH  18  20
HETATM   20  C15 UNL     1      -2.410   4.308  12.174  1.00  0.00     0.054 A 
HETATM   21  C16 UNL     1      -3.689   4.262  12.735  1.00  0.00     0.020 A 
HETATM   22  C17 UNL     1      -4.748   3.742  11.990  1.00  0.00     0.018 A 
HETATM   23  C18 UNL     1      -4.490   3.284  10.706  1.00  0.00     0.087 A 
HETATM   24  N1  UNL     1      -3.265   3.302  10.137  1.00  0.00    -0.374 N 
HETATM   25  C19 UNL     1      -2.254   3.812  10.885  1.00  0.00     0.105 A 
ATOM     26  H1  UNL     1      -3.109   2.949   9.193  1.00  0.00     0.164 HD
ENDBRANCH  18  20
ENDBRANCH  17  18
ENDBRANCH  16  17
ENDBRANCH   3  16
BRANCH   2  27
HETATM   27  O3  UNL     1       1.952   8.194  13.781  1.00  0.00    -0.308 OA
BRANCH  27  28
HETATM   28  C5  UNL     1       2.900   8.832  13.052  1.00  0.00     0.293 C 
HETATM   29  O4  UNL     1       2.725   9.807  12.339  1.00  0.00    -0.259 OA
BRANCH  28  30
HETATM   30  C6  UNL     1       4.223   8.180  13.239  1.00  0.00     0.039 A 
HETATM   31  C7  UNL     1       4.799   7.531  12.138  1.00  0.00     0.017 A 
HETATM   32  C8  UNL     1       6.047   6.917  12.258  1.00  0.00     0.001 A 
HETATM   33  C9  UNL     1       6.724   6.946  13.478  1.00  0.00     0.000 A 
HETATM   34  C10 UNL     1       6.157   7.588  14.579  1.00  0.00     0.001 A 
HETATM   35  C11 UNL     1       4.909   8.206  14.462  1.00  0.00     0.017 A 
ENDBRANCH  28  30
ENDBRANCH  27  28
ENDBRANCH   2  27
BRANCH   4  36
HETATM   36  O7  UNL     1      -0.344   7.762  11.459  1.00  0.00    -0.315 OA
BRANCH  36  37
HETATM   37  C21 UNL     1       0.124   8.220  10.263  1.00  0.00     0.262 C 
HETATM   38  O8  UNL     1      -0.455   9.013   9.534  1.00  0.00    -0.265 OA
BRANCH  37  39
HETATM   39  C22 UNL     1       1.466   7.574   9.965  1.00  0.00     0.077 C 
HETATM   40  C23 UNL     1       1.750   7.564   8.465  1.00  0.00     0.020 C 
HETATM   41  C24 UNL     1       1.477   6.160  10.536  1.00  0.00     0.020 C 
ENDBRANCH  37  39
ENDBRANCH  36  37
ENDBRANCH   4  36
BRANCH   1  42
HETATM   42  O2  UNL     1       2.037  10.172  16.089  1.00  0.00    -0.313 OA
BRANCH  42  43
HETATM   43  C2  UNL     1       2.417  10.314  17.387  1.00  0.00     0.255 C 
HETATM   44  C1  UNL     1       2.761  11.745  17.671  1.00  0.00     0.126 C 
HETATM   45  O1  UNL     1       2.445   9.420  18.223  1.00  0.00    -0.266 OA
ENDBRANCH  42  43
ENDBRANCH   1  42
TORSDOF 12
ENDMDL
MODEL 6
REMARK minimizedAffinity -5.63330078
REMARK CNNscore 0.15650931
REMARK CNNaffinity 6.21724463
REMARK  12 active torsions:
REMARK  status: ('A' for Active; 'I' for Inactive)
REMARK    1  A    between atoms: C2_2  and  O2_4 
REMARK    2  A    between atoms: O2_4  and  C3_5 
REMARK    3  A    between atoms: C4_6  and  O3_7 
REMARK    4  A    between atoms: O3_7  and  C5_8 
REMARK    5  A    between atoms: C5_8  and  C6_10 
REMARK    6  A    between atoms: C12_16  and  C13_17 
REMARK    7  A    between atoms: C13_17  and  O5_18 
REMARK    8  A    between atoms: O5_18  and  C14_19 
REMARK    9  A    between atoms: C14_19  and  C15_21 
REMARK   10  A    between atoms: C20_28  and  O7_29 
REMARK   11  A    between atoms: O7_29  and  C21_30 
REMARK   12  A    between atoms: C21_30  and  C22_32 
ROOT
HETATM    1  C3  UNL     1       1.787  15.265  -0.669  1.00  0.00     0.169 C 
HETATM    2  C4  UNL     1       3.037  15.433   0.243  1.00  0.00     0.178 C 
HETATM    3  C12 UNL     1       4.376  15.665  -0.559  1.00  0.00     0.069 C 
HETATM    4  C20 UNL     1       5.344  16.490   0.386  1.00  0.00     0.148 C 
HETATM    5  C25 UNL     1       6.262  17.499  -0.329  1.00  0.00     0.034 C 
HETATM    6  C26 UNL     1       6.594  17.083  -1.750  1.00  0.00     0.010 C 
HETATM    7  C27 UNL     1       5.337  16.966  -2.635  1.00  0.00     0.017 C 
HETATM    8  C28 UNL     1       5.666  16.094  -3.852  1.00  0.00     0.013 C 
HETATM    9  C29 UNL     1       4.069  16.540  -1.831  1.00  0.00     0.080 C 
HETATM   10  C30 UNL     1       2.959  15.956  -2.710  1.00  0.00     0.050 C 
HETATM   11  C31 UNL     1       1.749  16.258  -1.851  1.00  0.00     0.054 C 
HETATM   12  C32 UNL     1       2.026  17.735  -1.508  1.00  0.00     0.061 C 
HETATM   13  C33 UNL     1       1.294  18.296  -0.284  1.00  0.00     0.046 C 
HETATM   14  C34 UNL     1       1.703  18.677  -2.688  1.00  0.00     0.046 C 
HETATM   15  O9  UNL     1       3.459  17.779  -1.305  1.00  0.00    -0.368 OA
ENDROOT
BRANCH   3  16
HETATM   16  C13 UNL     1       5.029  14.284  -0.897  1.00  0.00     0.197 C 
BRANCH  16  17
HETATM   17  O5  UNL     1       4.259  13.494  -1.817  1.00  0.00    -0.316 OA
BRANCH  17  18
HETATM   18  C14 UNL     1       4.992  12.541  -2.456  1.00  0.00     0.294 C 
HETATM   19  O6  UNL     1       5.740  11.739  -1.918  1.00  0.00    -0.259 OA
BRANCH  18  20
HETATM   20  C15 UNL     1       4.800  12.597  -3.919  1.00  0.00     0.054 A 
HETATM   21  C16 UNL     1       5.767  12.215  -4.853  1.00  0.00     0.020 A 
HETATM   22  C17 UNL     1       5.481  12.311  -6.216  1.00  0.00     0.018 A 
HETATM   23  C18 UNL     1       4.236  12.789  -6.597  1.00  0.00     0.087 A 
HETATM   24  N1  UNL     1       3.283  13.178  -5.723  1.00  0.00    -0.374 N 
HETATM   25  C19 UNL     1       3.588  13.074  -4.404  1.00  0.00     0.105 A 
ATOM     26  H1  UNL     1       2.380  13.532  -6.038  1.00  0.00     0.164 HD
ENDBRANCH  18  20
ENDBRANCH  17  18
ENDBRANCH  16  17
ENDBRANCH   3  16
BRANCH   2  27
HETATM   27  O3  UNL     1       3.192  14.272   1.097  1.00  0.00    -0.308 OA
BRANCH  27  28
HETATM   28  C5  UNL     1       3.031  14.444   2.433  1.00  0.00     0.293 C 
HETATM   29  O4  UNL     1       3.917  14.676   3.240  1.00  0.00    -0.259 OA
BRANCH  28  30
HETATM   30  C6  UNL     1       1.597  14.316   2.803  1.00  0.00     0.039 A 
HETATM   31  C7  UNL     1       0.951  15.441   3.333  1.00  0.00     0.017 A 
HETATM   32  C8  UNL     1      -0.399  15.378   3.682  1.00  0.00     0.001 A 
HETATM   33  C9  UNL     1      -1.110  14.190   3.506  1.00  0.00     0.000 A 
HETATM   34  C10 UNL     1      -0.474  13.065   2.981  1.00  0.00     0.001 A 
HETATM   35  C11 UNL     1       0.877  13.125   2.628  1.00  0.00     0.017 A 
ENDBRANCH  28  30
ENDBRANCH  27  28
ENDBRANCH   2  27
BRANCH   4  36
HETATM   36  O7  UNL     1       6.210  15.590   1.115  1.00  0.00    -0.315 OA
BRANCH  36  37
HETATM   37  C21 UNL     1       6.648  15.975   2.347  1.00  0.00     0.262 C 
HETATM   38  O8  UNL     1       7.224  15.254   3.150  1.00  0.00    -0.265 OA
BRANCH  37  39
HETATM   39  C22 UNL     1       6.289  17.433   2.578  1.00  0.00     0.077 C 
HETATM   40  C23 UNL     1       7.541  18.283   2.772  1.00  0.00     0.020 C 
HETATM   41  C24 UNL     1       5.365  17.533   3.787  1.00  0.00     0.020 C 
ENDBRANCH  37  39
ENDBRANCH  36  37
ENDBRANCH   4  36
BRANCH   1  42
HETATM   42  O2  UNL     1       0.569  15.431   0.086  1.00  0.00    -0.313 OA
BRANCH  42  43
HETATM   43  C2  UNL     1      -0.546  14.818  -0.396  1.00  0.00     0.255 C 
HETATM   44  C1  UNL     1      -0.204  14.000  -1.603  1.00  0.00     0.126 C 
HETATM   45  O1  UNL     1      -1.665  14.888   0.095  1.00  0.00    -0.266 OA
ENDBRANCH  42  43
ENDBRANCH   1  42
TORSDOF 12
ENDMDL
MODEL 7
REMARK minimizedAffinity -5.65030766
REMARK CNNscore 0.151877075
REMARK CNNaffinity 5.54192019
REMARK  12 active torsions:
REMARK  status: ('A' for Active; 'I' for Inactive)
REMARK    1  A    between atoms: C2_2  and  O2_4 
REMARK    2  A    between atoms: O2_4  and  C3_5 
REMARK    3  A    between atoms: C4_6  and  O3_7 
REMARK    4  A    between atoms: O3_7  and  C5_8 
REMARK    5  A    between atoms: C5_8  and  C6_10 
REMARK    6  A    between atoms: C12_16  and  C13_17 
REMARK    7  A    between atoms: C13_17  and  O5_18 
REMARK    8  A    between atoms: O5_18  and  C14_19 
REMARK    9  A    between atoms: C14_19  and  C15_21 
REMARK   10  A    between atoms: C20_28  and  O7_29 
REMARK   11  A    between atoms: O7_29  and  C21_30 
REMARK   12  A    between atoms: C21_30  and  C22_32 
ROOT
HETATM    1  C3  UNL     1      -5.370 -10.080   5.816  1.00  0.00     0.169 C 
HETATM    2  C4  UNL     1      -6.727 -10.746   6.185  1.00  0.00     0.178 C 
HETATM    3  C12 UNL     1      -7.789 -10.701   5.018  1.00  0.00     0.069 C 
HETATM    4  C20 UNL     1      -8.753 -11.942   5.222  1.00  0.00     0.148 C 
HETATM    5  C25 UNL     1      -9.276 -12.591   3.927  1.00  0.00     0.034 C 
HETATM    6  C26 UNL     1      -9.371 -11.606   2.777  1.00  0.00     0.010 C 
HETATM    7  C27 UNL     1      -8.003 -10.996   2.412  1.00  0.00     0.017 C 
HETATM    8  C28 UNL     1      -8.230  -9.699   1.628  1.00  0.00     0.013 C 
HETATM    9  C29 UNL     1      -7.048 -10.877   3.641  1.00  0.00     0.080 C 
HETATM   10  C30 UNL     1      -5.914  -9.867   3.434  1.00  0.00     0.050 C 
HETATM   11  C31 UNL     1      -4.881 -10.423   4.393  1.00  0.00     0.054 C 
HETATM   12  C32 UNL     1      -4.926 -11.913   3.999  1.00  0.00     0.061 C 
HETATM   13  C33 UNL     1      -4.377 -12.904   5.031  1.00  0.00     0.046 C 
HETATM   14  C34 UNL     1      -4.175 -12.188   2.678  1.00  0.00     0.046 C 
HETATM   15  O9  UNL     1      -6.330 -12.163   3.754  1.00  0.00    -0.368 OA
ENDROOT
BRANCH   3  16
HETATM   16  C13 UNL     1      -8.616  -9.376   5.116  1.00  0.00     0.197 C 
BRANCH  16  17
HETATM   17  O5  UNL     1     -10.006  -9.541   4.792  1.00  0.00    -0.316 OA
BRANCH  17  18
HETATM   18  C14 UNL     1     -10.609  -8.386   4.396  1.00  0.00     0.294 C 
HETATM   19  O6  UNL     1     -10.489  -7.860   3.301  1.00  0.00    -0.259 OA
BRANCH  18  20
HETATM   20  C15 UNL     1     -11.432  -7.805   5.476  1.00  0.00     0.054 A 
HETATM   21  C16 UNL     1     -11.406  -8.239   6.804  1.00  0.00     0.020 A 
HETATM   22  C17 UNL     1     -12.229  -7.621   7.745  1.00  0.00     0.018 A 
HETATM   23  C18 UNL     1     -13.055  -6.589   7.324  1.00  0.00     0.087 A 
HETATM   24  N1  UNL     1     -13.115  -6.151   6.048  1.00  0.00    -0.374 N 
HETATM   25  C19 UNL     1     -12.303  -6.771   5.153  1.00  0.00     0.105 A 
ATOM     26  H1  UNL     1     -13.739  -5.394   5.771  1.00  0.00     0.164 HD
ENDBRANCH  18  20
ENDBRANCH  17  18
ENDBRANCH  16  17
ENDBRANCH   3  16
BRANCH   2  27
HETATM   27  O3  UNL     1      -7.290 -10.115   7.362  1.00  0.00    -0.308 OA
BRANCH  27  28
HETATM   28  C5  UNL     1      -6.672  -9.009   7.845  1.00  0.00     0.293 C 
HETATM   29  O4  UNL     1      -6.302  -8.047   7.189  1.00  0.00    -0.259 OA
BRANCH  28  30
HETATM   30  C6  UNL     1      -6.500  -9.112   9.317  1.00  0.00     0.039 A 
HETATM   31  C7  UNL     1      -7.026  -8.087  10.115  1.00  0.00     0.017 A 
HETATM   32  C8  UNL     1      -6.905  -8.145  11.505  1.00  0.00     0.001 A 
HETATM   33  C9  UNL     1      -6.254  -9.224  12.104  1.00  0.00     0.000 A 
HETATM   34  C10 UNL     1      -5.725 -10.247  11.317  1.00  0.00     0.001 A 
HETATM   35  C11 UNL     1      -5.847 -10.194   9.926  1.00  0.00     0.017 A 
ENDBRANCH  28  30
ENDBRANCH  27  28
ENDBRANCH   2  27
BRANCH   4  36
HETATM   36  O7  UNL     1      -9.917 -11.545   5.984  1.00  0.00    -0.315 OA
BRANCH  36  37
HETATM   37  C21 UNL     1     -10.409 -12.417   6.909  1.00  0.00     0.262 C 
HETATM   38  O8  UNL     1      -9.741 -13.202   7.566  1.00  0.00    -0.265 OA
BRANCH  37  39
HETATM   39  C22 UNL     1     -11.920 -12.277   6.980  1.00  0.00     0.077 C 
HETATM   40  C23 UNL     1     -12.476 -11.665   5.697  1.00  0.00     0.020 C 
HETATM   41  C24 UNL     1     -12.287 -11.431   8.195  1.00  0.00     0.020 C 
ENDBRANCH  37  39
ENDBRANCH  36  37
ENDBRANCH   4  36
BRANCH   1  42
HETATM   42  O2  UNL     1      -4.334 -10.467   6.744  1.00  0.00    -0.313 OA
BRANCH  42  43
HETATM   43  C2  UNL     1      -3.341  -9.567   6.972  1.00  0.00     0.255 C 
HETATM   44  C1  UNL     1      -2.562  -9.326   5.715  1.00  0.00     0.126 C 
HETATM   45  O1  UNL     1      -3.124  -9.000   8.035  1.00  0.00    -0.266 OA
ENDBRANCH  42  43
ENDBRANCH   1  42
TORSDOF 12
ENDMDL
MODEL 8
REMARK minimizedAffinity -6.91236258
REMARK CNNscore 0.141990706
REMARK CNNaffinity 6.85177994
REMARK  12 active torsions:
REMARK  status: ('A' for Active; 'I' for Inactive)
REMARK    1  A    between atoms: C2_2  and  O2_4 
REMARK    2  A    between atoms: O2_4  and  C3_5 
REMARK    3  A    between atoms: C4_6  and  O3_7 
REMARK    4  A    between atoms: O3_7  and  C5_8 
REMARK    5  A    between atoms: C5_8  and  C6_10 
REMARK    6  A    between atoms: C12_16  and  C13_17 
REMARK    7  A    between atoms: C13_17  and  O5_18 
REMARK    8  A    between atoms: O5_18  and  C14_19 
REMARK    9  A    between atoms: C14_19  and  C15_21 
REMARK   10  A    between atoms: C20_28  and  O7_29 
REMARK   11  A    between atoms: O7_29  and  C21_30 
REMARK   12  A    between atoms: C21_30  and  C22_32 
ROOT
HETATM    1  C3  UNL     1      -2.508   7.458  12.862  1.00  0.00     0.169 C 
HETATM    2  C4  UNL     1      -1.334   7.941  13.760  1.00  0.00     0.178 C 
HETATM    3  C12 UNL     1      -1.733   9.106  14.748  1.00  0.00     0.069 C 
HETATM    4  C20 UNL     1      -0.766   9.003  15.999  1.00  0.00     0.148 C 
HETATM    5  C25 UNL     1      -1.393   9.390  17.352  1.00  0.00     0.034 C 
HETATM    6  C26 UNL     1      -2.512  10.406  17.208  1.00  0.00     0.010 C 
HETATM    7  C27 UNL     1      -3.676   9.878  16.346  1.00  0.00     0.017 C 
HETATM    8  C28 UNL     1      -4.498  11.068  15.840  1.00  0.00     0.013 C 
HETATM    9  C29 UNL     1      -3.207   8.874  15.248  1.00  0.00     0.080 C 
HETATM   10  C30 UNL     1      -4.213   8.712  14.103  1.00  0.00     0.050 C 
HETATM   11  C31 UNL     1      -3.848   7.324  13.618  1.00  0.00     0.054 C 
HETATM   12  C32 UNL     1      -3.797   6.576  14.965  1.00  0.00     0.061 C 
HETATM   13  C33 UNL     1      -3.014   5.259  14.981  1.00  0.00     0.046 C 
HETATM   14  C34 UNL     1      -5.207   6.259  15.509  1.00  0.00     0.046 C 
HETATM   15  O9  UNL     1      -3.194   7.533  15.869  1.00  0.00    -0.368 OA
ENDROOT
BRANCH   3  16
HETATM   16  C13 UNL     1      -1.525  10.486  14.040  1.00  0.00     0.197 C 
BRANCH  16  17
HETATM   17  O5  UNL     1      -2.014  11.602  14.801  1.00  0.00    -0.316 OA
BRANCH  17  18
HETATM   18  C14 UNL     1      -1.386  12.773  14.506  1.00  0.00     0.294 C 
HETATM   19  O6  UNL     1      -1.688  13.533  13.599  1.00  0.00    -0.259 OA
BRANCH  18  20
HETATM   20  C15 UNL     1      -0.249  13.025  15.415  1.00  0.00     0.054 A 
HETATM   21  C16 UNL     1      -0.348  13.041  16.809  1.00  0.00     0.020 A 
HETATM   22  C17 UNL     1       0.791  13.293  17.574  1.00  0.00     0.018 A 
HETATM   23  C18 UNL     1       1.991  13.523  16.917  1.00  0.00     0.087 A 
HETATM   24  N1  UNL     1       2.120  13.526  15.574  1.00  0.00    -0.374 N 
HETATM   25  C19 UNL     1       0.996  13.279  14.853  1.00  0.00     0.105 A 
ATOM     26  H1  UNL     1       3.017  13.705  15.122  1.00  0.00     0.164 HD
ENDBRANCH  18  20
ENDBRANCH  17  18
ENDBRANCH  16  17
ENDBRANCH   3  16
BRANCH   2  27
HETATM   27  O3  UNL     1      -0.223   8.379  12.938  1.00  0.00    -0.308 OA
BRANCH  27  28
HETATM   28  C5  UNL     1      -0.488   8.746  11.660  1.00  0.00     0.293 C 
HETATM   29  O4  UNL     1      -1.506   9.292  11.264  1.00  0.00    -0.259 OA
BRANCH  28  30
HETATM   30  C6  UNL     1       0.653   8.397  10.773  1.00  0.00     0.039 A 
HETATM   31  C7  UNL     1       1.902   8.167  11.366  1.00  0.00     0.017 A 
HETATM   32  C8  UNL     1       3.001   7.821  10.578  1.00  0.00     0.001 A 
HETATM   33  C9  UNL     1       2.859   7.707   9.194  1.00  0.00     0.000 A 
HETATM   34  C10 UNL     1       1.620   7.937   8.596  1.00  0.00     0.001 A 
HETATM   35  C11 UNL     1       0.517   8.280   9.382  1.00  0.00     0.017 A 
ENDBRANCH  28  30
ENDBRANCH  27  28
ENDBRANCH   2  27
BRANCH   4  36
HETATM   36  O7  UNL     1       0.378   9.868  15.813  1.00  0.00    -0.315 OA
BRANCH  36  37
HETATM   37  C21 UNL     1       1.530   9.563  16.475  1.00  0.00     0.262 C 
HETATM   38  O8  UNL     1       1.677   9.594  17.689  1.00  0.00    -0.265 OA
BRANCH  37  39
HETATM   39  C22 UNL     1       2.611   9.204  15.469  1.00  0.00     0.077 C 
HETATM   40  C23 UNL     1       2.531  10.097  14.235  1.00  0.00     0.020 C 
HETATM   41  C24 UNL     1       2.472   7.733  15.092  1.00  0.00     0.020 C 
ENDBRANCH  37  39
ENDBRANCH  36  37
ENDBRANCH   4  36
BRANCH   1  42
HETATM   42  O2  UNL     1      -2.210   6.178  12.264  1.00  0.00    -0.313 OA
BRANCH  42  43
HETATM   43  C2  UNL     1      -1.002   5.626  12.557  1.00  0.00     0.255 C 
HETATM   44  C1  UNL     1      -0.338   5.142  11.304  1.00  0.00     0.126 C 
HETATM   45  O1  UNL     1      -0.501   5.559  13.672  1.00  0.00    -0.266 OA
ENDBRANCH  42  43
ENDBRANCH   1  42
TORSDOF 12
ENDMDL
MODEL 9
REMARK minimizedAffinity -5.91199923
REMARK CNNscore 0.134314254
REMARK CNNaffinity 6.45689774
REMARK  12 active torsions:
REMARK  status: ('A' for Active; 'I' for Inactive)
REMARK    1  A    between atoms: C2_2  and  O2_4 
REMARK    2  A    between atoms: O2_4  and  C3_5 
REMARK    3  A    between atoms: C4_6  and  O3_7 
REMARK    4  A    between atoms: O3_7  and  C5_8 
REMARK    5  A    between atoms: C5_8  and  C6_10 
REMARK    6  A    between atoms: C12_16  and  C13_17 
REMARK    7  A    between atoms: C13_17  and  O5_18 
REMARK    8  A    between atoms: O5_18  and  C14_19 
REMARK    9  A    between atoms: C14_19  and  C15_21 
REMARK   10  A    between atoms: C20_28  and  O7_29 
REMARK   11  A    between atoms: O7_29  and  C21_30 
REMARK   12  A    between atoms: C21_30  and  C22_32 
ROOT
HETATM    1  C3  UNL     1     -11.251   8.101  14.044  1.00  0.00     0.169 C 
HETATM    2  C4  UNL     1     -11.550   8.405  15.540  1.00  0.00     0.178 C 
HETATM    3  C12 UNL     1     -12.533   9.621  15.753  1.00  0.00     0.069 C 
HETATM    4  C20 UNL     1     -13.277   9.379  17.130  1.00  0.00     0.148 C 
HETATM    5  C25 UNL     1     -14.739   9.864  17.184  1.00  0.00     0.034 C 
HETATM    6  C26 UNL     1     -15.000  11.037  16.258  1.00  0.00     0.010 C 
HETATM    7  C27 UNL     1     -14.733  10.688  14.780  1.00  0.00     0.017 C 
HETATM    8  C28 UNL     1     -14.531  11.987  13.992  1.00  0.00     0.013 C 
HETATM    9  C29 UNL     1     -13.610   9.619  14.605  1.00  0.00     0.080 C 
HETATM   10  C30 UNL     1     -12.995   9.606  13.202  1.00  0.00     0.050 C 
HETATM   11  C31 UNL     1     -12.500   8.177  13.138  1.00  0.00     0.054 C 
HETATM   12  C32 UNL     1     -13.753   7.436  13.645  1.00  0.00     0.061 C 
HETATM   13  C33 UNL     1     -13.534   6.015  14.175  1.00  0.00     0.046 C 
HETATM   14  C34 UNL     1     -14.850   7.341  12.562  1.00  0.00     0.046 C 
HETATM   15  O9  UNL     1     -14.260   8.295  14.694  1.00  0.00    -0.368 OA
ENDROOT
BRANCH   3  16
HETATM   16  C13 UNL     1     -11.710  10.950  15.831  1.00  0.00     0.197 C 
BRANCH  16  17
HETATM   17  O5  UNL     1     -12.190  11.866  16.828  1.00  0.00    -0.316 OA
BRANCH  17  18
HETATM   18  C14 UNL     1     -11.689  13.125  16.691  1.00  0.00     0.294 C 
HETATM   19  O6  UNL     1     -11.890  13.871  15.745  1.00  0.00    -0.259 OA
BRANCH  18  20
HETATM   20  C15 UNL     1     -10.831  13.495  17.834  1.00  0.00     0.054 A 
HETATM   21  C16 UNL     1     -10.302  12.580  18.748  1.00  0.00     0.020 A 
HETATM   22  C17 UNL     1      -9.504  13.039  19.796  1.00  0.00     0.018 A 
HETATM   23  C18 UNL     1      -9.263  14.401  19.895  1.00  0.00     0.087 A 
HETATM   24  N1  UNL     1      -9.766  15.315  19.038  1.00  0.00    -0.374 N 
HETATM   25  C19 UNL     1     -10.540  14.840  18.028  1.00  0.00     0.105 A 
ATOM     26  H1  UNL     1      -9.575  16.311  19.143  1.00  0.00     0.164 HD
ENDBRANCH  18  20
ENDBRANCH  17  18
ENDBRANCH  16  17
ENDBRANCH   3  16
BRANCH   2  27
HETATM   27  O3  UNL     1     -10.315   8.664  16.254  1.00  0.00    -0.308 OA
BRANCH  27  28
HETATM   28  C5  UNL     1      -9.249   9.096  15.537  1.00  0.00     0.293 C 
HETATM   29  O4  UNL     1      -9.179  10.142  14.910  1.00  0.00    -0.259 OA
BRANCH  28  30
HETATM   30  C6  UNL     1      -8.137   8.113  15.616  1.00  0.00     0.039 A 
HETATM   31  C7  UNL     1      -6.964   8.385  14.899  1.00  0.00     0.017 A 
HETATM   32  C8  UNL     1      -5.885   7.501  14.953  1.00  0.00     0.001 A 
HETATM   33  C9  UNL     1      -5.974   6.338  15.720  1.00  0.00     0.000 A 
HETATM   34  C10 UNL     1      -7.139   6.059  16.435  1.00  0.00     0.001 A 
HETATM   35  C11 UNL     1      -8.220   6.943  16.386  1.00  0.00     0.017 A 
ENDBRANCH  28  30
ENDBRANCH  27  28
ENDBRANCH   2  27
BRANCH   4  36
HETATM   36  O7  UNL     1     -12.578  10.058  18.198  1.00  0.00    -0.315 OA
BRANCH  36  37
HETATM   37  C21 UNL     1     -12.200   9.330  19.286  1.00  0.00     0.262 C 
HETATM   38  O8  UNL     1     -11.075   8.898  19.491  1.00  0.00    -0.265 OA
BRANCH  37  39
HETATM   39  C22 UNL     1     -13.400   9.118  20.193  1.00  0.00     0.077 C 
HETATM   40  C23 UNL     1     -13.450  10.175  21.293  1.00  0.00     0.020 C 
HETATM   41  C24 UNL     1     -13.337   7.713  20.783  1.00  0.00     0.020 C 
ENDBRANCH  37  39
ENDBRANCH  36  37
ENDBRANCH   4  36
BRANCH   1  42
HETATM   42  O2  UNL     1     -10.672   6.788  13.887  1.00  0.00    -0.313 OA
BRANCH  42  43
HETATM   43  C2  UNL     1      -9.985   6.549  12.738  1.00  0.00     0.255 C 
HETATM   44  C1  UNL     1      -8.806   5.667  13.015  1.00  0.00     0.126 C 
HETATM   45  O1  UNL     1     -10.293   6.958  11.626  1.00  0.00    -0.266 OA
ENDBRANCH  42  43
ENDBRANCH   1  42
TORSDOF 12
ENDMDL
