MODEL 1
REMARK minimizedAffinity -8.36431026
REMARK  10 active torsions:
REMARK  status: ('A' for Active; 'I' for Inactive)
REMARK    1  A    between atoms: C7_7  and  C9_9 
REMARK    2  A    between atoms: C9_9  and  C10_10 
REMARK    3  A    between atoms: C10_10  and  O1_11 
REMARK    4  A    between atoms: C10_10  and  C13_15 
REMARK    5  A    between atoms: O1_11  and  C11_12 
REMARK    6  A    between atoms: C13_15  and  C16_19 
REMARK    7  A    between atoms: C14_16  and  C15_17 
REMARK    8  A    between atoms: C15_17  and  O3_18 
REMARK    9  A    between atoms: C16_19  and  O4_20 
REMARK   10  A    between atoms: O4_20  and  C17_21 
ROOT
HETATM    1  C9  UNL     1       5.672  63.932 -36.121  1.00  0.00     0.047 C 
ENDROOT
BRANCH   1   2
HETATM    2  C7  UNL     1       5.727  65.494 -36.440  1.00  0.00    -0.034 C 
HETATM    3  C6  UNL     1       4.398  65.982 -37.182  1.00  0.00     0.006 C 
HETATM    4  C5  UNL     1       3.160  66.184 -36.267  1.00  0.00     0.007 C 
HETATM    5  C23 UNL     1       4.498  67.249 -38.131  1.00  0.00    -0.017 C 
HETATM    6  C4  UNL     1       1.878  66.542 -37.035  1.00  0.00     0.005 C 
HETATM    7  C3  UNL     1       2.039  66.484 -38.550  1.00  0.00     0.034 C 
HETATM    8  C2  UNL     1       3.223  67.306 -39.012  1.00  0.00    -0.081 C 
HETATM    9  C1  UNL     1       3.110  68.054 -40.127  1.00  0.00     0.015 C 
HETATM   10  C22 UNL     1       5.757  67.143 -39.012  1.00  0.00     0.014 C 
HETATM   11  C24 UNL     1       4.545  68.598 -37.364  1.00  0.00     0.020 C 
HETATM   12  C21 UNL     1       7.022  66.953 -38.193  1.00  0.00     0.006 C 
HETATM   13  C19 UNL     1       6.979  65.639 -37.414  1.00  0.00    -0.010 C 
HETATM   14  C20 UNL     1       8.353  65.439 -36.748  1.00  0.00     0.011 C 
HETATM   15  C8  UNL     1       5.982  66.280 -35.139  1.00  0.00     0.016 C 
ENDBRANCH   1   2
BRANCH   1  16
HETATM   16  C10 UNL     1       6.023  63.329 -34.739  1.00  0.00     0.163 C 
BRANCH  16  17
HETATM   17  O1  UNL     1       4.782  62.945 -34.091  1.00  0.00    -0.312 OA
BRANCH  17  18
HETATM   18  C11 UNL     1       4.591  63.423 -32.830  1.00  0.00     0.255 C 
HETATM   19  C12 UNL     1       3.539  62.620 -32.129  1.00  0.00     0.126 C 
HETATM   20  O2  UNL     1       5.154  64.394 -32.341  1.00  0.00    -0.266 OA
ENDBRANCH  17  18
ENDBRANCH  16  17
BRANCH  16  21
HETATM   21  C13 UNL     1       6.871  62.066 -34.689  1.00  0.00    -0.028 C 
HETATM   22  C14 UNL     1       6.359  60.820 -34.796  1.00  0.00     0.006 C 
BRANCH  22  23
HETATM   23  C15 UNL     1       7.110  59.525 -34.766  1.00  0.00     0.192 C 
BRANCH  23  24
HETATM   24  O3  UNL     1       6.975  58.903 -36.036  1.00  0.00    -0.397 OA
HETATM   25  H22 UNL     1       6.027  58.760 -36.190  1.00  0.00     0.209 HD
ENDBRANCH  23  24
ENDBRANCH  22  23
BRANCH  21  26
HETATM   26  C16 UNL     1       8.347  62.320 -34.450  1.00  0.00     0.215 C 
BRANCH  26  27
HETATM   27  O4  UNL     1       8.843  61.420 -33.448  1.00  0.00    -0.317 OA
BRANCH  27  28
HETATM   28  C17 UNL     1       9.851  61.892 -32.668  1.00  0.00     0.255 C 
HETATM   29  C18 UNL     1      10.728  62.805 -33.470  1.00  0.00     0.126 C 
HETATM   30  O5  UNL     1      10.026  61.640 -31.484  1.00  0.00    -0.266 OA
ENDBRANCH  27  28
ENDBRANCH  26  27
ENDBRANCH  21  26
ENDBRANCH  16  21
ENDBRANCH   1  16
TORSDOF 10
ENDMDL
MODEL 2
REMARK minimizedAffinity -8.22700787
REMARK  10 active torsions:
REMARK  status: ('A' for Active; 'I' for Inactive)
REMARK    1  A    between atoms: C7_7  and  C9_9 
REMARK    2  A    between atoms: C9_9  and  C10_10 
REMARK    3  A    between atoms: C10_10  and  O1_11 
REMARK    4  A    between atoms: C10_10  and  C13_15 
REMARK    5  A    between atoms: O1_11  and  C11_12 
REMARK    6  A    between atoms: C13_15  and  C16_19 
REMARK    7  A    between atoms: C14_16  and  C15_17 
REMARK    8  A    between atoms: C15_17  and  O3_18 
REMARK    9  A    between atoms: C16_19  and  O4_20 
REMARK   10  A    between atoms: O4_20  and  C17_21 
ROOT
HETATM    1  C9  UNL     1      -0.109  52.972 -23.337  1.00  0.00     0.047 C 
ENDROOT
BRANCH   1   2
HETATM    2  C7  UNL     1       0.018  52.114 -21.998  1.00  0.00    -0.034 C 
HETATM    3  C6  UNL     1      -1.281  51.213 -21.760  1.00  0.00     0.006 C 
HETATM    4  C5  UNL     1      -1.361  49.919 -22.614  1.00  0.00     0.007 C 
HETATM    5  C23 UNL     1      -1.651  50.820 -20.268  1.00  0.00    -0.017 C 
HETATM    6  C4  UNL     1      -2.676  49.145 -22.438  1.00  0.00     0.005 C 
HETATM    7  C3  UNL     1      -3.700  49.872 -21.575  1.00  0.00     0.034 C 
HETATM    8  C2  UNL     1      -3.108  50.290 -20.246  1.00  0.00    -0.081 C 
HETATM    9  C1  UNL     1      -3.845  50.159 -19.126  1.00  0.00     0.015 C 
HETATM   10  C22 UNL     1      -1.513  52.053 -19.355  1.00  0.00     0.014 C 
HETATM   11  C24 UNL     1      -0.773  49.678 -19.691  1.00  0.00     0.020 C 
HETATM   12  C21 UNL     1      -0.136  52.688 -19.443  1.00  0.00     0.006 C 
HETATM   13  C19 UNL     1       0.136  53.214 -20.853  1.00  0.00    -0.010 C 
HETATM   14  C20 UNL     1       1.468  53.986 -20.820  1.00  0.00     0.011 C 
HETATM   15  C8  UNL     1       1.305  51.268 -22.045  1.00  0.00     0.016 C 
ENDBRANCH   1   2
BRANCH   1  16
HETATM   16  C10 UNL     1      -0.682  52.411 -24.661  1.00  0.00     0.163 C 
BRANCH  16  17
HETATM   17  O1  UNL     1      -1.126  53.533 -25.468  1.00  0.00    -0.312 OA
BRANCH  17  18
HETATM   18  C11 UNL     1      -0.152  54.372 -25.915  1.00  0.00     0.255 C 
HETATM   19  C12 UNL     1      -0.112  54.361 -27.413  1.00  0.00     0.126 C 
HETATM   20  O2  UNL     1       0.617  55.014 -25.212  1.00  0.00    -0.266 OA
ENDBRANCH  17  18
ENDBRANCH  16  17
BRANCH  16  21
HETATM   21  C13 UNL     1       0.246  51.635 -25.586  1.00  0.00    -0.028 C 
HETATM   22  C14 UNL     1       1.585  51.818 -25.622  1.00  0.00     0.006 C 
BRANCH  22  23
HETATM   23  C15 UNL     1       2.575  51.103 -26.487  1.00  0.00     0.192 C 
BRANCH  23  24
HETATM   24  O3  UNL     1       3.268  52.068 -27.264  1.00  0.00    -0.397 OA
HETATM   25  H22 UNL     1       2.607  52.541 -27.796  1.00  0.00     0.209 HD
ENDBRANCH  23  24
ENDBRANCH  22  23
BRANCH  21  26
HETATM   26  C16 UNL     1      -0.467  50.673 -26.515  1.00  0.00     0.215 C 
BRANCH  26  27
HETATM   27  O4  UNL     1      -1.887  50.866 -26.426  1.00  0.00    -0.317 OA
BRANCH  27  28
HETATM   28  C17 UNL     1      -2.655  49.959 -27.084  1.00  0.00     0.255 C 
HETATM   29  C18 UNL     1      -2.750  48.696 -26.282  1.00  0.00     0.126 C 
HETATM   30  O5  UNL     1      -3.213  50.129 -28.159  1.00  0.00    -0.266 OA
ENDBRANCH  27  28
ENDBRANCH  26  27
ENDBRANCH  21  26
ENDBRANCH  16  21
ENDBRANCH   1  16
TORSDOF 10
ENDMDL
MODEL 3
REMARK minimizedAffinity -8.10050201
REMARK  10 active torsions:
REMARK  status: ('A' for Active; 'I' for Inactive)
REMARK    1  A    between atoms: C7_7  and  C9_9 
REMARK    2  A    between atoms: C9_9  and  C10_10 
REMARK    3  A    between atoms: C10_10  and  O1_11 
REMARK    4  A    between atoms: C10_10  and  C13_15 
REMARK    5  A    between atoms: O1_11  and  C11_12 
REMARK    6  A    between atoms: C13_15  and  C16_19 
REMARK    7  A    between atoms: C14_16  and  C15_17 
REMARK    8  A    between atoms: C15_17  and  O3_18 
REMARK    9  A    between atoms: C16_19  and  O4_20 
REMARK   10  A    between atoms: O4_20  and  C17_21 
ROOT
HETATM    1  C9  UNL     1      -0.354  50.873 -22.946  1.00  0.00     0.047 C 
ENDROOT
BRANCH   1   2
HETATM    2  C7  UNL     1      -1.329  50.669 -21.700  1.00  0.00    -0.034 C 
HETATM    3  C6  UNL     1      -0.642  51.151 -20.339  1.00  0.00     0.006 C 
HETATM    4  C5  UNL     1      -0.624  52.686 -20.109  1.00  0.00     0.007 C 
HETATM    5  C23 UNL     1      -1.117  50.473 -18.986  1.00  0.00    -0.017 C 
HETATM    6  C4  UNL     1       0.145  53.111 -18.849  1.00  0.00     0.005 C 
HETATM    7  C3  UNL     1       0.861  51.958 -18.154  1.00  0.00     0.034 C 
HETATM    8  C2  UNL     1      -0.081  50.806 -17.880  1.00  0.00    -0.081 C 
HETATM    9  C1  UNL     1       0.001  50.154 -16.704  1.00  0.00     0.015 C 
HETATM   10  C22 UNL     1      -1.230  48.949 -19.177  1.00  0.00     0.014 C 
HETATM   11  C24 UNL     1      -2.479  51.008 -18.468  1.00  0.00     0.020 C 
HETATM   12  C21 UNL     1      -2.135  48.577 -20.338  1.00  0.00     0.006 C 
HETATM   13  C19 UNL     1      -1.571  49.095 -21.661  1.00  0.00    -0.010 C 
HETATM   14  C20 UNL     1      -2.446  48.539 -22.799  1.00  0.00     0.011 C 
HETATM   15  C8  UNL     1      -2.662  51.396 -21.961  1.00  0.00     0.016 C 
ENDBRANCH   1   2
BRANCH   1  16
HETATM   16  C10 UNL     1      -0.853  51.104 -24.393  1.00  0.00     0.163 C 
BRANCH  16  17
HETATM   17  O1  UNL     1      -1.917  52.090 -24.348  1.00  0.00    -0.312 OA
BRANCH  17  18
HETATM   18  C11 UNL     1      -2.813  52.053 -25.372  1.00  0.00     0.255 C 
HETATM   19  C12 UNL     1      -3.330  50.658 -25.552  1.00  0.00     0.126 C 
HETATM   20  O2  UNL     1      -3.128  52.999 -26.081  1.00  0.00    -0.266 OA
ENDBRANCH  17  18
ENDBRANCH  16  17
BRANCH  16  21
HETATM   21  C13 UNL     1       0.124  51.662 -25.419  1.00  0.00    -0.028 C 
HETATM   22  C14 UNL     1       0.737  50.902 -26.353  1.00  0.00     0.006 C 
BRANCH  22  23
HETATM   23  C15 UNL     1       1.701  51.358 -27.403  1.00  0.00     0.192 C 
BRANCH  23  24
HETATM   24  O3  UNL     1       3.011  51.307 -26.858  1.00  0.00    -0.397 OA
HETATM   25  H22 UNL     1       3.026  51.893 -26.083  1.00  0.00     0.209 HD
ENDBRANCH  23  24
ENDBRANCH  22  23
BRANCH  21  26
HETATM   26  C16 UNL     1       0.399  53.145 -25.270  1.00  0.00     0.215 C 
BRANCH  26  27
HETATM   27  O4  UNL     1       0.830  53.693 -26.525  1.00  0.00    -0.317 OA
BRANCH  27  28
HETATM   28  C17 UNL     1      -0.012  54.587 -27.107  1.00  0.00     0.255 C 
HETATM   29  C18 UNL     1      -0.725  53.941 -28.256  1.00  0.00     0.126 C 
HETATM   30  O5  UNL     1      -0.194  55.743 -26.753  1.00  0.00    -0.266 OA
ENDBRANCH  27  28
ENDBRANCH  26  27
ENDBRANCH  21  26
ENDBRANCH  16  21
ENDBRANCH   1  16
TORSDOF 10
ENDMDL
MODEL 4
REMARK minimizedAffinity -8.06199837
REMARK  10 active torsions:
REMARK  status: ('A' for Active; 'I' for Inactive)
REMARK    1  A    between atoms: C7_7  and  C9_9 
REMARK    2  A    between atoms: C9_9  and  C10_10 
REMARK    3  A    between atoms: C10_10  and  O1_11 
REMARK    4  A    between atoms: C10_10  and  C13_15 
REMARK    5  A    between atoms: O1_11  and  C11_12 
REMARK    6  A    between atoms: C13_15  and  C16_19 
REMARK    7  A    between atoms: C14_16  and  C15_17 
REMARK    8  A    between atoms: C15_17  and  O3_18 
REMARK    9  A    between atoms: C16_19  and  O4_20 
REMARK   10  A    between atoms: O4_20  and  C17_21 
ROOT
HETATM    1  C9  UNL     1      -1.028  50.922 -23.654  1.00  0.00     0.047 C 
ENDROOT
BRANCH   1   2
HETATM    2  C7  UNL     1      -2.584  50.751 -23.960  1.00  0.00    -0.034 C 
HETATM    3  C6  UNL     1      -3.380  50.256 -22.666  1.00  0.00     0.006 C 
HETATM    4  C5  UNL     1      -3.681  51.351 -21.609  1.00  0.00     0.007 C 
HETATM    5  C23 UNL     1      -4.716  49.429 -22.886  1.00  0.00    -0.017 C 
HETATM    6  C4  UNL     1      -4.345  50.811 -20.333  1.00  0.00     0.005 C 
HETATM    7  C3  UNL     1      -4.443  49.290 -20.295  1.00  0.00     0.034 C 
HETATM    8  C2  UNL     1      -5.098  48.746 -21.546  1.00  0.00    -0.081 C 
HETATM    9  C1  UNL     1      -5.983  47.736 -21.441  1.00  0.00     0.015 C 
HETATM   10  C22 UNL     1      -4.500  48.372 -23.986  1.00  0.00     0.014 C 
HETATM   11  C24 UNL     1      -5.933  50.308 -23.278  1.00  0.00     0.020 C 
HETATM   12  C21 UNL     1      -3.997  48.981 -25.283  1.00  0.00     0.006 C 
HETATM   13  C19 UNL     1      -2.626  49.629 -25.089  1.00  0.00    -0.010 C 
HETATM   14  C20 UNL     1      -2.113  50.071 -26.472  1.00  0.00     0.011 C 
HETATM   15  C8  UNL     1      -3.151  52.072 -24.515  1.00  0.00     0.016 C 
ENDBRANCH   1   2
BRANCH   1  16
HETATM   16  C10 UNL     1      -0.258  52.251 -23.853  1.00  0.00     0.163 C 
BRANCH  16  17
HETATM   17  O1  UNL     1       0.814  52.298 -22.876  1.00  0.00    -0.312 OA
BRANCH  17  18
HETATM   18  C11 UNL     1       0.557  53.002 -21.738  1.00  0.00     0.255 C 
HETATM   19  C12 UNL     1       1.484  54.174 -21.639  1.00  0.00     0.126 C 
HETATM   20  O2  UNL     1      -0.273  52.708 -20.888  1.00  0.00    -0.266 OA
ENDBRANCH  17  18
ENDBRANCH  16  17
BRANCH  16  21
HETATM   21  C13 UNL     1       0.444  52.493 -25.182  1.00  0.00    -0.028 C 
HETATM   22  C14 UNL     1       1.419  51.692 -25.667  1.00  0.00     0.006 C 
BRANCH  22  23
HETATM   23  C15 UNL     1       2.158  51.844 -26.959  1.00  0.00     0.192 C 
BRANCH  23  24
HETATM   24  O3  UNL     1       3.409  51.184 -26.837  1.00  0.00    -0.397 OA
HETATM   25  H22 UNL     1       3.888  51.603 -26.102  1.00  0.00     0.209 HD
ENDBRANCH  23  24
ENDBRANCH  22  23
BRANCH  21  26
HETATM   26  C16 UNL     1      -0.003  53.752 -25.899  1.00  0.00     0.215 C 
BRANCH  26  27
HETATM   27  O4  UNL     1      -1.163  53.476 -26.698  1.00  0.00    -0.317 OA
BRANCH  27  28
HETATM   28  C17 UNL     1      -1.150  53.973 -27.962  1.00  0.00     0.255 C 
HETATM   29  C18 UNL     1      -0.083  53.292 -28.764  1.00  0.00     0.126 C 
HETATM   30  O5  UNL     1      -1.897  54.832 -28.408  1.00  0.00    -0.266 OA
ENDBRANCH  27  28
ENDBRANCH  26  27
ENDBRANCH  21  26
ENDBRANCH  16  21
ENDBRANCH   1  16
TORSDOF 10
ENDMDL
MODEL 5
REMARK minimizedAffinity -7.95888138
REMARK  10 active torsions:
REMARK  status: ('A' for Active; 'I' for Inactive)
REMARK    1  A    between atoms: C7_7  and  C9_9 
REMARK    2  A    between atoms: C9_9  and  C10_10 
REMARK    3  A    between atoms: C10_10  and  O1_11 
REMARK    4  A    between atoms: C10_10  and  C13_15 
REMARK    5  A    between atoms: O1_11  and  C11_12 
REMARK    6  A    between atoms: C13_15  and  C16_19 
REMARK    7  A    between atoms: C14_16  and  C15_17 
REMARK    8  A    between atoms: C15_17  and  O3_18 
REMARK    9  A    between atoms: C16_19  and  O4_20 
REMARK   10  A    between atoms: O4_20  and  C17_21 
ROOT
HETATM    1  C9  UNL     1      -0.253  50.798 -21.709  1.00  0.00     0.047 C 
ENDROOT
BRANCH   1   2
HETATM    2  C7  UNL     1      -1.538  50.187 -20.989  1.00  0.00    -0.034 C 
HETATM    3  C6  UNL     1      -2.699  49.871 -22.041  1.00  0.00     0.006 C 
HETATM    4  C5  UNL     1      -2.511  48.572 -22.870  1.00  0.00     0.007 C 
HETATM    5  C23 UNL     1      -4.198  49.891 -21.524  1.00  0.00    -0.017 C 
HETATM    6  C4  UNL     1      -3.588  48.367 -23.946  1.00  0.00     0.005 C 
HETATM    7  C3  UNL     1      -4.542  49.548 -24.087  1.00  0.00     0.034 C 
HETATM    8  C2  UNL     1      -5.143  49.936 -22.753  1.00  0.00    -0.081 C 
HETATM    9  C1  UNL     1      -6.446  50.269 -22.690  1.00  0.00     0.015 C 
HETATM   10  C22 UNL     1      -4.423  51.123 -20.627  1.00  0.00     0.014 C 
HETATM   11  C24 UNL     1      -4.597  48.620 -20.727  1.00  0.00     0.020 C 
HETATM   12  C21 UNL     1      -3.432  51.192 -19.478  1.00  0.00     0.006 C 
HETATM   13  C19 UNL     1      -2.002  51.343 -19.996  1.00  0.00    -0.010 C 
HETATM   14  C20 UNL     1      -1.082  51.573 -18.783  1.00  0.00     0.011 C 
HETATM   15  C8  UNL     1      -1.135  48.937 -20.183  1.00  0.00     0.016 C 
ENDBRANCH   1   2
BRANCH   1  16
HETATM   16  C10 UNL     1      -0.228  52.197 -22.371  1.00  0.00     0.163 C 
BRANCH  16  17
HETATM   17  O1  UNL     1       1.132  52.698 -22.310  1.00  0.00    -0.312 OA
BRANCH  17  18
HETATM   18  C11 UNL     1       1.317  53.848 -21.605  1.00  0.00     0.255 C 
HETATM   19  C12 UNL     1       1.062  53.605 -20.149  1.00  0.00     0.126 C 
HETATM   20  O2  UNL     1       1.605  54.939 -22.079  1.00  0.00    -0.266 OA
ENDBRANCH  17  18
ENDBRANCH  16  17
BRANCH  16  21
HETATM   21  C13 UNL     1      -0.598  52.312 -23.844  1.00  0.00    -0.028 C 
HETATM   22  C14 UNL     1      -1.715  51.767 -24.376  1.00  0.00     0.006 C 
BRANCH  22  23
HETATM   23  C15 UNL     1      -2.165  51.833 -25.802  1.00  0.00     0.192 C 
BRANCH  23  24
HETATM   24  O3  UNL     1      -2.970  52.992 -25.962  1.00  0.00    -0.397 OA
HETATM   25  H22 UNL     1      -3.725  52.907 -25.355  1.00  0.00     0.209 HD
ENDBRANCH  23  24
ENDBRANCH  22  23
BRANCH  21  26
HETATM   26  C16 UNL     1       0.427  53.046 -24.685  1.00  0.00     0.215 C 
BRANCH  26  27
HETATM   27  O4  UNL     1       0.217  52.760 -26.076  1.00  0.00    -0.317 OA
BRANCH  27  28
HETATM   28  C17 UNL     1       1.271  52.220 -26.741  1.00  0.00     0.255 C 
HETATM   29  C18 UNL     1       0.812  51.662 -28.054  1.00  0.00     0.126 C 
HETATM   30  O5  UNL     1       2.432  52.196 -26.356  1.00  0.00    -0.266 OA
ENDBRANCH  27  28
ENDBRANCH  26  27
ENDBRANCH  21  26
ENDBRANCH  16  21
ENDBRANCH   1  16
TORSDOF 10
ENDMDL
MODEL 6
REMARK minimizedAffinity -7.90525246
REMARK  10 active torsions:
REMARK  status: ('A' for Active; 'I' for Inactive)
REMARK    1  A    between atoms: C7_7  and  C9_9 
REMARK    2  A    between atoms: C9_9  and  C10_10 
REMARK    3  A    between atoms: C10_10  and  O1_11 
REMARK    4  A    between atoms: C10_10  and  C13_15 
REMARK    5  A    between atoms: O1_11  and  C11_12 
REMARK    6  A    between atoms: C13_15  and  C16_19 
REMARK    7  A    between atoms: C14_16  and  C15_17 
REMARK    8  A    between atoms: C15_17  and  O3_18 
REMARK    9  A    between atoms: C16_19  and  O4_20 
REMARK   10  A    between atoms: O4_20  and  C17_21 
ROOT
HETATM    1  C9  UNL     1      -0.325  50.954 -23.195  1.00  0.00     0.047 C 
ENDROOT
BRANCH   1   2
HETATM    2  C7  UNL     1      -1.387  50.829 -22.012  1.00  0.00    -0.034 C 
HETATM    3  C6  UNL     1      -0.723  51.164 -20.597  1.00  0.00     0.006 C 
HETATM    4  C5  UNL     1      -0.525  52.674 -20.295  1.00  0.00     0.007 C 
HETATM    5  C23 UNL     1      -1.356  50.502 -19.303  1.00  0.00    -0.017 C 
HETATM    6  C4  UNL     1       0.218  52.947 -18.979  1.00  0.00     0.005 C 
HETATM    7  C3  UNL     1       0.743  51.685 -18.302  1.00  0.00     0.034 C 
HETATM    8  C2  UNL     1      -0.352  50.654 -18.130  1.00  0.00    -0.081 C 
HETATM    9  C1  UNL     1      -0.420  49.951 -16.984  1.00  0.00     0.015 C 
HETATM   10  C22 UNL     1      -1.650  49.013 -19.569  1.00  0.00     0.014 C 
HETATM   11  C24 UNL     1      -2.667  51.186 -18.832  1.00  0.00     0.020 C 
HETATM   12  C21 UNL     1      -2.527  48.806 -20.792  1.00  0.00     0.006 C 
HETATM   13  C19 UNL     1      -1.827  49.299 -22.058  1.00  0.00    -0.010 C 
HETATM   14  C20 UNL     1      -2.700  48.905 -23.264  1.00  0.00     0.011 C 
HETATM   15  C8  UNL     1      -2.601  51.731 -22.307  1.00  0.00     0.016 C 
ENDBRANCH   1   2
BRANCH   1  16
HETATM   16  C10 UNL     1      -0.028  52.278 -23.941  1.00  0.00     0.163 C 
BRANCH  16  17
HETATM   17  O1  UNL     1       1.151  52.875 -23.341  1.00  0.00    -0.312 OA
BRANCH  17  18
HETATM   18  C11 UNL     1       1.200  54.236 -23.339  1.00  0.00     0.255 C 
HETATM   19  C12 UNL     1       1.638  54.733 -21.996  1.00  0.00     0.126 C 
HETATM   20  O2  UNL     1       0.890  54.963 -24.273  1.00  0.00    -0.266 OA
ENDBRANCH  17  18
ENDBRANCH  16  17
BRANCH  16  21
HETATM   21  C13 UNL     1       0.304  52.219 -25.426  1.00  0.00    -0.028 C 
HETATM   22  C14 UNL     1       1.505  51.828 -25.906  1.00  0.00     0.006 C 
BRANCH  22  23
HETATM   23  C15 UNL     1       1.920  51.731 -27.341  1.00  0.00     0.192 C 
BRANCH  23  24
HETATM   24  O3  UNL     1       3.312  51.454 -27.384  1.00  0.00    -0.397 OA
HETATM   25  H22 UNL     1       3.768  52.184 -26.931  1.00  0.00     0.209 HD
ENDBRANCH  23  24
ENDBRANCH  22  23
BRANCH  21  26
HETATM   26  C16 UNL     1      -0.816  52.694 -26.330  1.00  0.00     0.215 C 
BRANCH  26  27
HETATM   27  O4  UNL     1      -2.006  52.922 -25.560  1.00  0.00    -0.317 OA
BRANCH  27  28
HETATM   28  C17 UNL     1      -3.105  52.219 -25.937  1.00  0.00     0.255 C 
HETATM   29  C18 UNL     1      -2.838  51.513 -27.232  1.00  0.00     0.126 C 
HETATM   30  O5  UNL     1      -4.159  52.140 -25.320  1.00  0.00    -0.266 OA
ENDBRANCH  27  28
ENDBRANCH  26  27
ENDBRANCH  21  26
ENDBRANCH  16  21
ENDBRANCH   1  16
TORSDOF 10
ENDMDL
MODEL 7
REMARK minimizedAffinity -7.88178205
REMARK  10 active torsions:
REMARK  status: ('A' for Active; 'I' for Inactive)
REMARK    1  A    between atoms: C7_7  and  C9_9 
REMARK    2  A    between atoms: C9_9  and  C10_10 
REMARK    3  A    between atoms: C10_10  and  O1_11 
REMARK    4  A    between atoms: C10_10  and  C13_15 
REMARK    5  A    between atoms: O1_11  and  C11_12 
REMARK    6  A    between atoms: C13_15  and  C16_19 
REMARK    7  A    between atoms: C14_16  and  C15_17 
REMARK    8  A    between atoms: C15_17  and  O3_18 
REMARK    9  A    between atoms: C16_19  and  O4_20 
REMARK   10  A    between atoms: O4_20  and  C17_21 
ROOT
HETATM    1  C9  UNL     1      -0.185  50.737 -21.691  1.00  0.00     0.047 C 
ENDROOT
BRANCH   1   2
HETATM    2  C7  UNL     1      -1.461  50.141 -20.942  1.00  0.00    -0.034 C 
HETATM    3  C6  UNL     1      -2.650  49.843 -21.967  1.00  0.00     0.006 C 
HETATM    4  C5  UNL     1      -2.500  48.543 -22.803  1.00  0.00     0.007 C 
HETATM    5  C23 UNL     1      -4.137  49.882 -21.413  1.00  0.00    -0.017 C 
HETATM    6  C4  UNL     1      -3.605  48.356 -23.853  1.00  0.00     0.005 C 
HETATM    7  C3  UNL     1      -4.546  49.550 -23.969  1.00  0.00     0.034 C 
HETATM    8  C2  UNL     1      -5.109  49.942 -22.620  1.00  0.00    -0.081 C 
HETATM    9  C1  UNL     1      -6.406  50.292 -22.525  1.00  0.00     0.015 C 
HETATM   10  C22 UNL     1      -4.324  51.114 -20.508  1.00  0.00     0.014 C 
HETATM   11  C24 UNL     1      -4.534  48.614 -20.610  1.00  0.00     0.020 C 
HETATM   12  C21 UNL     1      -3.305  51.167 -19.383  1.00  0.00     0.006 C 
HETATM   13  C19 UNL     1      -1.886  51.300 -19.936  1.00  0.00    -0.010 C 
HETATM   14  C20 UNL     1      -0.934  51.515 -18.745  1.00  0.00     0.011 C 
HETATM   15  C8  UNL     1      -1.055  48.883 -20.149  1.00  0.00     0.016 C 
ENDBRANCH   1   2
BRANCH   1  16
HETATM   16  C10 UNL     1      -0.087  52.203 -22.176  1.00  0.00     0.163 C 
BRANCH  16  17
HETATM   17  O1  UNL     1       1.267  52.666 -21.931  1.00  0.00    -0.312 OA
BRANCH  17  18
HETATM   18  C11 UNL     1       1.386  53.901 -21.369  1.00  0.00     0.255 C 
HETATM   19  C12 UNL     1       0.878  53.875 -19.960  1.00  0.00     0.126 C 
HETATM   20  O2  UNL     1       1.802  54.905 -21.930  1.00  0.00    -0.266 OA
ENDBRANCH  17  18
ENDBRANCH  16  17
BRANCH  16  21
HETATM   21  C13 UNL     1      -0.316  52.499 -23.652  1.00  0.00    -0.028 C 
HETATM   22  C14 UNL     1       0.543  53.216 -24.410  1.00  0.00     0.006 C 
BRANCH  22  23
HETATM   23  C15 UNL     1       0.408  53.551 -25.863  1.00  0.00     0.192 C 
BRANCH  23  24
HETATM   24  O3  UNL     1       0.302  54.962 -25.987  1.00  0.00    -0.397 OA
HETATM   25  H22 UNL     1      -0.482  55.240 -25.484  1.00  0.00     0.209 HD
ENDBRANCH  23  24
ENDBRANCH  22  23
BRANCH  21  26
HETATM   26  C16 UNL     1      -1.629  51.968 -24.194  1.00  0.00     0.215 C 
BRANCH  26  27
HETATM   27  O4  UNL     1      -1.464  51.550 -25.557  1.00  0.00    -0.317 OA
BRANCH  27  28
HETATM   28  C17 UNL     1      -2.515  51.786 -26.385  1.00  0.00     0.255 C 
HETATM   29  C18 UNL     1      -3.058  50.487 -26.899  1.00  0.00     0.126 C 
HETATM   30  O5  UNL     1      -2.979  52.882 -26.669  1.00  0.00    -0.266 OA
ENDBRANCH  27  28
ENDBRANCH  26  27
ENDBRANCH  21  26
ENDBRANCH  16  21
ENDBRANCH   1  16
TORSDOF 10
ENDMDL
MODEL 8
REMARK minimizedAffinity -7.87383032
REMARK  10 active torsions:
REMARK  status: ('A' for Active; 'I' for Inactive)
REMARK    1  A    between atoms: C7_7  and  C9_9 
REMARK    2  A    between atoms: C9_9  and  C10_10 
REMARK    3  A    between atoms: C10_10  and  O1_11 
REMARK    4  A    between atoms: C10_10  and  C13_15 
REMARK    5  A    between atoms: O1_11  and  C11_12 
REMARK    6  A    between atoms: C13_15  and  C16_19 
REMARK    7  A    between atoms: C14_16  and  C15_17 
REMARK    8  A    between atoms: C15_17  and  O3_18 
REMARK    9  A    between atoms: C16_19  and  O4_20 
REMARK   10  A    between atoms: O4_20  and  C17_21 
ROOT
HETATM    1  C9  UNL     1      -2.631  50.938 -25.229  1.00  0.00     0.047 C 
ENDROOT
BRANCH   1   2
HETATM    2  C7  UNL     1      -3.278  50.420 -23.866  1.00  0.00    -0.034 C 
HETATM    3  C6  UNL     1      -2.228  50.485 -22.662  1.00  0.00     0.006 C 
HETATM    4  C5  UNL     1      -2.002  51.894 -22.051  1.00  0.00     0.007 C 
HETATM    5  C23 UNL     1      -2.413  49.470 -21.458  1.00  0.00    -0.017 C 
HETATM    6  C4  UNL     1      -0.904  51.931 -20.978  1.00  0.00     0.005 C 
HETATM    7  C3  UNL     1      -0.154  50.612 -20.828  1.00  0.00     0.034 C 
HETATM    8  C2  UNL     1      -1.106  49.454 -20.623  1.00  0.00    -0.081 C 
HETATM    9  C1  UNL     1      -0.797  48.498 -19.726  1.00  0.00     0.015 C 
HETATM   10  C22 UNL     1      -2.720  48.063 -22.004  1.00  0.00     0.014 C 
HETATM   11  C24 UNL     1      -3.543  49.874 -20.473  1.00  0.00     0.020 C 
HETATM   12  C21 UNL     1      -3.919  48.052 -22.936  1.00  0.00     0.006 C 
HETATM   13  C19 UNL     1      -3.656  48.904 -24.177  1.00  0.00    -0.010 C 
HETATM   14  C20 UNL     1      -4.839  48.710 -25.143  1.00  0.00     0.011 C 
HETATM   15  C8  UNL     1      -4.556  51.225 -23.560  1.00  0.00     0.016 C 
ENDBRANCH   1   2
BRANCH   1  16
HETATM   16  C10 UNL     1      -1.335  50.351 -25.837  1.00  0.00     0.163 C 
BRANCH  16  17
HETATM   17  O1  UNL     1      -1.621  49.952 -27.203  1.00  0.00    -0.312 OA
BRANCH  17  18
HETATM   18  C11 UNL     1      -2.784  50.420 -27.733  1.00  0.00     0.255 C 
HETATM   19  C12 UNL     1      -2.799  51.917 -27.698  1.00  0.00     0.126 C 
HETATM   20  O2  UNL     1      -3.712  49.733 -28.141  1.00  0.00    -0.266 OA
ENDBRANCH  17  18
ENDBRANCH  16  17
BRANCH  16  21
HETATM   21  C13 UNL     1      -0.116  51.254 -25.964  1.00  0.00    -0.028 C 
HETATM   22  C14 UNL     1       0.843  51.084 -26.902  1.00  0.00     0.006 C 
BRANCH  22  23
HETATM   23  C15 UNL     1       2.067  51.921 -27.109  1.00  0.00     0.192 C 
BRANCH  23  24
HETATM   24  O3  UNL     1       3.200  51.154 -26.730  1.00  0.00    -0.397 OA
HETATM   25  H22 UNL     1       3.088  50.913 -25.795  1.00  0.00     0.209 HD
ENDBRANCH  23  24
ENDBRANCH  22  23
BRANCH  21  26
HETATM   26  C16 UNL     1      -0.034  52.337 -24.906  1.00  0.00     0.215 C 
BRANCH  26  27
HETATM   27  O4  UNL     1      -0.470  53.591 -25.452  1.00  0.00    -0.317 OA
BRANCH  27  28
HETATM   28  C17 UNL     1       0.285  54.675 -25.136  1.00  0.00     0.255 C 
HETATM   29  C18 UNL     1       1.051  54.410 -23.876  1.00  0.00     0.126 C 
HETATM   30  O5  UNL     1       0.360  55.714 -25.777  1.00  0.00    -0.266 OA
ENDBRANCH  27  28
ENDBRANCH  26  27
ENDBRANCH  21  26
ENDBRANCH  16  21
ENDBRANCH   1  16
TORSDOF 10
ENDMDL
MODEL 9
REMARK minimizedAffinity -7.847785
REMARK  10 active torsions:
REMARK  status: ('A' for Active; 'I' for Inactive)
REMARK    1  A    between atoms: C7_7  and  C9_9 
REMARK    2  A    between atoms: C9_9  and  C10_10 
REMARK    3  A    between atoms: C10_10  and  O1_11 
REMARK    4  A    between atoms: C10_10  and  C13_15 
REMARK    5  A    between atoms: O1_11  and  C11_12 
REMARK    6  A    between atoms: C13_15  and  C16_19 
REMARK    7  A    between atoms: C14_16  and  C15_17 
REMARK    8  A    between atoms: C15_17  and  O3_18 
REMARK    9  A    between atoms: C16_19  and  O4_20 
REMARK   10  A    between atoms: O4_20  and  C17_21 
ROOT
HETATM    1  C9  UNL     1      -1.563  51.636 -22.802  1.00  0.00     0.047 C 
ENDROOT
BRANCH   1   2
HETATM    2  C7  UNL     1      -2.266  50.378 -22.120  1.00  0.00    -0.034 C 
HETATM    3  C6  UNL     1      -3.331  49.703 -23.102  1.00  0.00     0.006 C 
HETATM    4  C5  UNL     1      -2.733  48.800 -24.214  1.00  0.00     0.007 C 
HETATM    5  C23 UNL     1      -4.546  48.916 -22.454  1.00  0.00    -0.017 C 
HETATM    6  C4  UNL     1      -3.780  48.265 -25.203  1.00  0.00     0.005 C 
HETATM    7  C3  UNL     1      -5.174  48.843 -24.986  1.00  0.00     0.034 C 
HETATM    8  C2  UNL     1      -5.621  48.684 -23.548  1.00  0.00    -0.081 C 
HETATM    9  C1  UNL     1      -6.895  48.330 -23.290  1.00  0.00     0.015 C 
HETATM   10  C22 UNL     1      -5.134  49.732 -21.288  1.00  0.00     0.014 C 
HETATM   11  C24 UNL     1      -4.164  47.507 -21.928  1.00  0.00     0.020 C 
HETATM   12  C21 UNL     1      -4.085  50.098 -20.251  1.00  0.00     0.006 C 
HETATM   13  C19 UNL     1      -3.008  50.999 -20.855  1.00  0.00    -0.010 C 
HETATM   14  C20 UNL     1      -2.083  51.459 -19.713  1.00  0.00     0.011 C 
HETATM   15  C8  UNL     1      -1.193  49.374 -21.655  1.00  0.00     0.016 C 
ENDBRANCH   1   2
BRANCH   1  16
HETATM   16  C10 UNL     1      -1.291  51.743 -24.323  1.00  0.00     0.163 C 
BRANCH  16  17
HETATM   17  O1  UNL     1      -2.193  52.740 -24.870  1.00  0.00    -0.312 OA
BRANCH  17  18
HETATM   18  C11 UNL     1      -3.299  52.263 -25.505  1.00  0.00     0.255 C 
HETATM   19  C12 UNL     1      -2.932  51.752 -26.864  1.00  0.00     0.126 C 
HETATM   20  O2  UNL     1      -4.441  52.283 -25.064  1.00  0.00    -0.266 OA
ENDBRANCH  17  18
ENDBRANCH  16  17
BRANCH  16  21
HETATM   21  C13 UNL     1       0.086  52.198 -24.786  1.00  0.00    -0.028 C 
HETATM   22  C14 UNL     1       0.756  51.622 -25.809  1.00  0.00     0.006 C 
BRANCH  22  23
HETATM   23  C15 UNL     1       2.102  52.002 -26.340  1.00  0.00     0.192 C 
BRANCH  23  24
HETATM   24  O3  UNL     1       2.954  50.870 -26.246  1.00  0.00    -0.397 OA
HETATM   25  H22 UNL     1       2.999  50.617 -25.309  1.00  0.00     0.209 HD
ENDBRANCH  23  24
ENDBRANCH  22  23
BRANCH  21  26
HETATM   26  C16 UNL     1       0.677  53.324 -23.961  1.00  0.00     0.215 C 
BRANCH  26  27
HETATM   27  O4  UNL     1       0.979  52.856 -22.638  1.00  0.00    -0.317 OA
BRANCH  27  28
HETATM   28  C17 UNL     1       1.313  53.809 -21.729  1.00  0.00     0.255 C 
HETATM   29  C18 UNL     1       1.096  53.287 -20.341  1.00  0.00     0.126 C 
HETATM   30  O5  UNL     1       1.746  54.926 -21.979  1.00  0.00    -0.266 OA
ENDBRANCH  27  28
ENDBRANCH  26  27
ENDBRANCH  21  26
ENDBRANCH  16  21
ENDBRANCH   1  16
TORSDOF 10
ENDMDL
