MODEL 1
REMARK minimizedAffinity -9.51302624
REMARK  8 active torsions:
REMARK  status: ('A' for Active; 'I' for Inactive)
REMARK    1  A    between atoms: C4_4  and  C5_5 
REMARK    2  A    between atoms: C5_5  and  C6_6 
REMARK    3  A    between atoms: C6_6  and  C7_7 
REMARK    4  A    between atoms: C7_7  and  C9_9 
REMARK    5  A    between atoms: C18_18  and  C20_20 
REMARK    6  A    between atoms: C20_20  and  O2_22 
REMARK    7  A    between atoms: C21_23  and  O3_24 
REMARK    8  A    between atoms: C23_26  and  O4_27 
ROOT
HETATM    1  C9  UNL     1      -6.792   6.944  14.189  1.00  0.00    -0.002 C 
HETATM    2  C10 UNL     1      -6.858   8.302  14.922  1.00  0.00     0.006 C 
HETATM    3  C11 UNL     1      -5.419   8.852  14.983  1.00  0.00     0.011 C 
HETATM    4  C12 UNL     1      -4.569   7.916  14.100  1.00  0.00    -0.032 C 
HETATM    5  C13 UNL     1      -4.645   8.463  12.641  1.00  0.00     0.016 C 
HETATM    6  C14 UNL     1      -3.087   7.789  14.531  1.00  0.00     0.004 C 
HETATM    7  C15 UNL     1      -2.299   9.111  14.428  1.00  0.00     0.007 C 
HETATM    8  C16 UNL     1      -1.213   9.120  13.360  1.00  0.00     0.007 C 
HETATM    9  C17 UNL     1      -0.195   8.011  13.653  1.00  0.00     0.018 C 
HETATM   10  C18 UNL     1       1.173   8.141  12.906  1.00  0.00     0.072 C 
HETATM   11  C19 UNL     1       2.005   9.281  13.555  1.00  0.00     0.030 C 
HETATM   12  C21 UNL     1       1.950   6.810  13.067  1.00  0.00     0.139 C 
HETATM   13  C22 UNL     1       1.203   5.574  12.540  1.00  0.00     0.065 C 
HETATM   14  C23 UNL     1      -0.309   5.763  12.403  1.00  0.00     0.130 C 
HETATM   15  C24 UNL     1      -0.883   6.645  13.494  1.00  0.00    -0.001 A 
HETATM   16  C25 UNL     1      -1.312   5.928  14.752  1.00  0.00     0.024 A 
HETATM   17  C26 UNL     1      -2.391   6.556  13.888  1.00  0.00    -0.025 A 
HETATM   18  C27 UNL     1      -3.260   5.588  13.058  1.00  0.00     0.011 C 
HETATM   19  C28 UNL     1      -4.784   5.562  13.269  1.00  0.00     0.011 C 
HETATM   20  C29 UNL     1      -5.289   6.542  14.325  1.00  0.00    -0.032 C 
HETATM   21  C30 UNL     1      -5.030   5.903  15.718  1.00  0.00     0.016 C 
ENDROOT
BRANCH   1  22
HETATM   22  C7  UNL     1      -7.870   5.877  14.546  1.00  0.00    -0.014 C 
HETATM   23  C8  UNL     1      -8.528   6.228  15.888  1.00  0.00     0.010 C 
BRANCH  22  24
HETATM   24  C6  UNL     1      -7.427   4.393  14.489  1.00  0.00     0.008 C 
BRANCH  24  25
HETATM   25  C5  UNL     1      -7.777   3.587  13.222  1.00  0.00     0.028 C 
BRANCH  25  26
HETATM   26  C4  UNL     1      -6.776   3.770  12.111  1.00  0.00    -0.025 C 
HETATM   27  C2  UNL     1      -6.137   2.822  11.398  1.00  0.00    -0.091 C 
HETATM   28  C1  UNL     1      -6.280   1.339  11.593  1.00  0.00     0.042 C 
HETATM   29  C3  UNL     1      -5.185   3.207  10.295  1.00  0.00     0.042 C 
ENDBRANCH  25  26
ENDBRANCH  24  25
ENDBRANCH  22  24
ENDBRANCH   1  22
BRANCH  14  30
HETATM   30  O4  UNL     1      -0.626   6.336  11.138  1.00  0.00    -0.395 OA
HETATM   31  H39 UNL     1      -0.447   5.660  10.462  1.00  0.00     0.210 HD
ENDBRANCH  14  30
BRANCH  10  32
HETATM   32  C20 UNL     1       1.064   8.556  11.437  1.00  0.00     0.151 C 
HETATM   33  O1  UNL     1       1.819   8.253  10.526  1.00  0.00    -0.649 OA
BRANCH  32  34
HETATM   34  O2  UNL     1      -0.073   9.214  11.127  1.00  0.00    -0.776 OA
HETATM   35  H33 UNL     1       0.029   9.356  10.162  1.00  0.00     0.167 HD
ENDBRANCH  32  34
ENDBRANCH  10  32
BRANCH  12  36
HETATM   36  O3  UNL     1       2.247   6.588  14.460  1.00  0.00    -0.394 OA
HETATM   37  H35 UNL     1       2.891   5.862  14.508  1.00  0.00     0.210 HD
ENDBRANCH  12  36
TORSDOF 8
ENDMDL
MODEL 2
REMARK minimizedAffinity -9.21085167
REMARK  8 active torsions:
REMARK  status: ('A' for Active; 'I' for Inactive)
REMARK    1  A    between atoms: C4_4  and  C5_5 
REMARK    2  A    between atoms: C5_5  and  C6_6 
REMARK    3  A    between atoms: C6_6  and  C7_7 
REMARK    4  A    between atoms: C7_7  and  C9_9 
REMARK    5  A    between atoms: C18_18  and  C20_20 
REMARK    6  A    between atoms: C20_20  and  O2_22 
REMARK    7  A    between atoms: C21_23  and  O3_24 
REMARK    8  A    between atoms: C23_26  and  O4_27 
ROOT
HETATM    1  C9  UNL     1      -4.852   5.867  14.275  1.00  0.00    -0.002 C 
HETATM    2  C10 UNL     1      -4.556   4.976  13.049  1.00  0.00     0.006 C 
HETATM    3  C11 UNL     1      -3.123   5.307  12.587  1.00  0.00     0.011 C 
HETATM    4  C12 UNL     1      -2.528   6.225  13.674  1.00  0.00    -0.032 C 
HETATM    5  C13 UNL     1      -1.893   5.302  14.760  1.00  0.00     0.016 C 
HETATM    6  C14 UNL     1      -1.467   7.231  13.163  1.00  0.00     0.004 C 
HETATM    7  C15 UNL     1      -0.198   6.558  12.599  1.00  0.00     0.007 C 
HETATM    8  C16 UNL     1       1.062   6.790  13.422  1.00  0.00     0.007 C 
HETATM    9  C17 UNL     1       1.350   8.293  13.508  1.00  0.00     0.018 C 
HETATM   10  C18 UNL     1       2.799   8.674  13.958  1.00  0.00     0.072 C 
HETATM   11  C19 UNL     1       3.787   8.399  12.791  1.00  0.00     0.030 C 
HETATM   12  C21 UNL     1       2.831  10.188  14.286  1.00  0.00     0.139 C 
HETATM   13  C22 UNL     1       1.834  10.621  15.373  1.00  0.00     0.065 C 
HETATM   14  C23 UNL     1       0.682   9.639  15.598  1.00  0.00     0.130 C 
HETATM   15  C24 UNL     1       0.231   8.973  14.314  1.00  0.00    -0.001 A 
HETATM   16  C25 UNL     1      -0.840   9.706  13.541  1.00  0.00     0.024 A 
HETATM   17  C26 UNL     1      -1.206   8.379  14.180  1.00  0.00    -0.025 A 
HETATM   18  C27 UNL     1      -2.094   8.441  15.441  1.00  0.00     0.011 C 
HETATM   19  C28 UNL     1      -3.460   7.732  15.445  1.00  0.00     0.011 C 
HETATM   20  C29 UNL     1      -3.799   7.013  14.143  1.00  0.00    -0.032 C 
HETATM   21  C30 UNL     1      -4.298   8.084  13.133  1.00  0.00     0.016 C 
ENDROOT
BRANCH   1  22
HETATM   22  C7  UNL     1      -6.336   6.264  14.537  1.00  0.00    -0.014 C 
HETATM   23  C8  UNL     1      -6.398   7.390  15.579  1.00  0.00     0.010 C 
BRANCH  22  24
HETATM   24  C6  UNL     1      -7.317   5.113  14.869  1.00  0.00     0.008 C 
BRANCH  24  25
HETATM   25  C5  UNL     1      -7.672   4.123  13.741  1.00  0.00     0.028 C 
BRANCH  25  26
HETATM   26  C4  UNL     1      -8.155   4.803  12.488  1.00  0.00    -0.025 C 
HETATM   27  C2  UNL     1      -9.075   5.782  12.369  1.00  0.00    -0.091 C 
HETATM   28  C1  UNL     1      -9.847   6.393  13.504  1.00  0.00     0.042 C 
HETATM   29  C3  UNL     1      -9.405   6.360  11.019  1.00  0.00     0.042 C 
ENDBRANCH  25  26
ENDBRANCH  24  25
ENDBRANCH  22  24
ENDBRANCH   1  22
BRANCH  14  30
HETATM   30  O4  UNL     1       1.063   8.630  16.528  1.00  0.00    -0.395 OA
HETATM   31  H39 UNL     1       1.137   9.054  17.400  1.00  0.00     0.210 HD
ENDBRANCH  14  30
BRANCH  10  32
HETATM   32  C20 UNL     1       3.352   7.836  15.113  1.00  0.00     0.151 C 
HETATM   33  O1  UNL     1       4.219   8.158  15.910  1.00  0.00    -0.649 OA
BRANCH  32  34
HETATM   34  O2  UNL     1       2.694   6.677  15.326  1.00  0.00    -0.776 OA
HETATM   35  H33 UNL     1       3.163   6.314  16.107  1.00  0.00     0.167 HD
ENDBRANCH  32  34
ENDBRANCH  10  32
BRANCH  12  36
HETATM   36  O3  UNL     1       2.544  10.947  13.094  1.00  0.00    -0.394 OA
HETATM   37  H35 UNL     1       2.760  11.876  13.282  1.00  0.00     0.210 HD
ENDBRANCH  12  36
TORSDOF 8
ENDMDL
MODEL 3
REMARK minimizedAffinity -9.10192394
REMARK  8 active torsions:
REMARK  status: ('A' for Active; 'I' for Inactive)
REMARK    1  A    between atoms: C4_4  and  C5_5 
REMARK    2  A    between atoms: C5_5  and  C6_6 
REMARK    3  A    between atoms: C6_6  and  C7_7 
REMARK    4  A    between atoms: C7_7  and  C9_9 
REMARK    5  A    between atoms: C18_18  and  C20_20 
REMARK    6  A    between atoms: C20_20  and  O2_22 
REMARK    7  A    between atoms: C21_23  and  O3_24 
REMARK    8  A    between atoms: C23_26  and  O4_27 
ROOT
HETATM    1  C9  UNL     1      -2.719   7.931  15.011  1.00  0.00    -0.002 C 
HETATM    2  C10 UNL     1      -1.885   7.920  16.311  1.00  0.00     0.006 C 
HETATM    3  C11 UNL     1      -0.427   7.623  15.908  1.00  0.00     0.011 C 
HETATM    4  C12 UNL     1      -0.392   7.677  14.367  1.00  0.00    -0.032 C 
HETATM    5  C13 UNL     1      -0.131   9.161  13.964  1.00  0.00     0.016 C 
HETATM    6  C14 UNL     1       0.673   6.765  13.711  1.00  0.00     0.004 C 
HETATM    7  C15 UNL     1       2.123   7.154  14.065  1.00  0.00     0.007 C 
HETATM    8  C16 UNL     1       2.940   7.689  12.897  1.00  0.00     0.007 C 
HETATM    9  C17 UNL     1       3.015   6.627  11.793  1.00  0.00     0.018 C 
HETATM   10  C18 UNL     1       4.134   6.851  10.722  1.00  0.00     0.072 C 
HETATM   11  C19 UNL     1       5.516   6.517  11.346  1.00  0.00     0.030 C 
HETATM   12  C21 UNL     1       3.881   5.886   9.537  1.00  0.00     0.139 C 
HETATM   13  C22 UNL     1       2.504   6.047   8.872  1.00  0.00     0.065 C 
HETATM   14  C23 UNL     1       1.462   6.751   9.745  1.00  0.00     0.130 C 
HETATM   15  C24 UNL     1       1.609   6.406  11.213  1.00  0.00    -0.001 A 
HETATM   16  C25 UNL     1       0.847   5.186  11.675  1.00  0.00     0.024 A 
HETATM   17  C26 UNL     1       0.403   6.542  12.194  1.00  0.00    -0.025 A 
HETATM   18  C27 UNL     1      -0.902   7.115  11.602  1.00  0.00     0.011 C 
HETATM   19  C28 UNL     1      -2.083   7.437  12.534  1.00  0.00     0.011 C 
HETATM   20  C29 UNL     1      -1.820   7.141  14.007  1.00  0.00    -0.032 C 
HETATM   21  C30 UNL     1      -2.002   5.611  14.216  1.00  0.00     0.016 C 
ENDROOT
BRANCH   1  22
HETATM   22  C7  UNL     1      -4.223   7.535  15.115  1.00  0.00    -0.014 C 
HETATM   23  C8  UNL     1      -4.371   6.266  15.966  1.00  0.00     0.010 C 
BRANCH  22  24
HETATM   24  C6  UNL     1      -5.010   7.435  13.785  1.00  0.00     0.008 C 
BRANCH  24  25
HETATM   25  C5  UNL     1      -6.033   6.290  13.640  1.00  0.00     0.028 C 
BRANCH  25  26
HETATM   26  C4  UNL     1      -5.517   5.136  12.820  1.00  0.00    -0.025 C 
HETATM   27  C2  UNL     1      -6.035   3.898  12.700  1.00  0.00    -0.091 C 
HETATM   28  C1  UNL     1      -7.263   3.395  13.407  1.00  0.00     0.042 C 
HETATM   29  C3  UNL     1      -5.385   2.882  11.799  1.00  0.00     0.042 C 
ENDBRANCH  25  26
ENDBRANCH  24  25
ENDBRANCH  22  24
ENDBRANCH   1  22
BRANCH  14  30
HETATM   30  O4  UNL     1       1.559   8.164   9.595  1.00  0.00    -0.395 OA
HETATM   31  H39 UNL     1       1.249   8.381   8.699  1.00  0.00     0.210 HD
ENDBRANCH  14  30
BRANCH  10  32
HETATM   32  C20 UNL     1       4.285   8.298  10.248  1.00  0.00     0.151 C 
HETATM   33  O1  UNL     1       4.161   8.717   9.107  1.00  0.00    -0.649 OA
BRANCH  32  34
HETATM   34  O2  UNL     1       4.437   9.198  11.241  1.00  0.00    -0.776 OA
HETATM   35  H33 UNL     1       4.479  10.045  10.748  1.00  0.00     0.167 HD
ENDBRANCH  32  34
ENDBRANCH  10  32
BRANCH  12  36
HETATM   36  O3  UNL     1       3.995   4.522   9.991  1.00  0.00    -0.394 OA
HETATM   37  H35 UNL     1       4.025   3.955   9.203  1.00  0.00     0.210 HD
ENDBRANCH  12  36
TORSDOF 8
ENDMDL
MODEL 4
REMARK minimizedAffinity -9.09491253
REMARK  8 active torsions:
REMARK  status: ('A' for Active; 'I' for Inactive)
REMARK    1  A    between atoms: C4_4  and  C5_5 
REMARK    2  A    between atoms: C5_5  and  C6_6 
REMARK    3  A    between atoms: C6_6  and  C7_7 
REMARK    4  A    between atoms: C7_7  and  C9_9 
REMARK    5  A    between atoms: C18_18  and  C20_20 
REMARK    6  A    between atoms: C20_20  and  O2_22 
REMARK    7  A    between atoms: C21_23  and  O3_24 
REMARK    8  A    between atoms: C23_26  and  O4_27 
ROOT
HETATM    1  C9  UNL     1      -4.463   5.645  14.129  1.00  0.00    -0.002 C 
HETATM    2  C10 UNL     1      -4.101   4.810  12.881  1.00  0.00     0.006 C 
HETATM    3  C11 UNL     1      -2.683   5.236  12.450  1.00  0.00     0.011 C 
HETATM    4  C12 UNL     1      -2.156   6.153  13.572  1.00  0.00    -0.032 C 
HETATM    5  C13 UNL     1      -1.483   5.235  14.640  1.00  0.00     0.016 C 
HETATM    6  C14 UNL     1      -1.148   7.232  13.106  1.00  0.00     0.004 C 
HETATM    7  C15 UNL     1       0.165   6.650  12.542  1.00  0.00     0.007 C 
HETATM    8  C16 UNL     1       1.398   6.928  13.390  1.00  0.00     0.007 C 
HETATM    9  C17 UNL     1       1.599   8.442  13.524  1.00  0.00     0.018 C 
HETATM   10  C18 UNL     1       3.018   8.891  14.006  1.00  0.00     0.072 C 
HETATM   11  C19 UNL     1       4.036   8.708  12.847  1.00  0.00     0.030 C 
HETATM   12  C21 UNL     1       2.959  10.393  14.379  1.00  0.00     0.139 C 
HETATM   13  C22 UNL     1       1.925  10.736  15.464  1.00  0.00     0.065 C 
HETATM   14  C23 UNL     1       0.828   9.685  15.643  1.00  0.00     0.130 C 
HETATM   15  C24 UNL     1       0.433   9.032  14.333  1.00  0.00    -0.001 A 
HETATM   16  C25 UNL     1      -0.669   9.727  13.567  1.00  0.00     0.024 A 
HETATM   17  C26 UNL     1      -0.966   8.362  14.161  1.00  0.00    -0.025 A 
HETATM   18  C27 UNL     1      -1.872   8.336  15.410  1.00  0.00     0.011 C 
HETATM   19  C28 UNL     1      -3.195   7.550  15.374  1.00  0.00     0.011 C 
HETATM   20  C29 UNL     1      -3.476   6.853  14.046  1.00  0.00    -0.032 C 
HETATM   21  C30 UNL     1      -4.022   7.924  13.061  1.00  0.00     0.016 C 
ENDROOT
BRANCH   1  22
HETATM   22  C7  UNL     1      -5.971   5.950  14.381  1.00  0.00    -0.014 C 
HETATM   23  C8  UNL     1      -6.151   6.579  15.769  1.00  0.00     0.010 C 
BRANCH  22  24
HETATM   24  C6  UNL     1      -6.966   4.788  14.138  1.00  0.00     0.008 C 
BRANCH  24  25
HETATM   25  C5  UNL     1      -7.262   4.389  12.677  1.00  0.00     0.028 C 
BRANCH  25  26
HETATM   26  C4  UNL     1      -6.967   2.940  12.389  1.00  0.00    -0.025 C 
HETATM   27  C2  UNL     1      -6.208   2.422  11.405  1.00  0.00    -0.091 C 
HETATM   28  C1  UNL     1      -5.497   3.214  10.343  1.00  0.00     0.042 C 
HETATM   29  C3  UNL     1      -6.007   0.933  11.298  1.00  0.00     0.042 C 
ENDBRANCH  25  26
ENDBRANCH  24  25
ENDBRANCH  22  24
ENDBRANCH   1  22
BRANCH  14  30
HETATM   30  O4  UNL     1       1.254   8.670  16.549  1.00  0.00    -0.395 OA
HETATM   31  H39 UNL     1       1.292   9.072  17.434  1.00  0.00     0.210 HD
ENDBRANCH  14  30
BRANCH  10  32
HETATM   32  C20 UNL     1       3.603   8.051  15.144  1.00  0.00     0.151 C 
HETATM   33  O1  UNL     1       4.463   8.387  15.944  1.00  0.00    -0.649 OA
BRANCH  32  34
HETATM   34  O2  UNL     1       2.984   6.867  15.339  1.00  0.00    -0.776 OA
HETATM   35  H33 UNL     1       3.468   6.506  16.111  1.00  0.00     0.167 HD
ENDBRANCH  32  34
ENDBRANCH  10  32
BRANCH  12  36
HETATM   36  O3  UNL     1       2.644  11.171  13.206  1.00  0.00    -0.394 OA
HETATM   37  H35 UNL     1       2.805  12.104  13.425  1.00  0.00     0.210 HD
ENDBRANCH  12  36
TORSDOF 8
ENDMDL
MODEL 5
REMARK minimizedAffinity -9.06377125
REMARK  8 active torsions:
REMARK  status: ('A' for Active; 'I' for Inactive)
REMARK    1  A    between atoms: C4_4  and  C5_5 
REMARK    2  A    between atoms: C5_5  and  C6_6 
REMARK    3  A    between atoms: C6_6  and  C7_7 
REMARK    4  A    between atoms: C7_7  and  C9_9 
REMARK    5  A    between atoms: C18_18  and  C20_20 
REMARK    6  A    between atoms: C20_20  and  O2_22 
REMARK    7  A    between atoms: C21_23  and  O3_24 
REMARK    8  A    between atoms: C23_26  and  O4_27 
ROOT
HETATM    1  C9  UNL     1       0.694   6.215  11.685  1.00  0.00    -0.002 C 
HETATM    2  C10 UNL     1       0.867   4.689  11.524  1.00  0.00     0.006 C 
HETATM    3  C11 UNL     1      -0.435   4.032  12.025  1.00  0.00     0.011 C 
HETATM    4  C12 UNL     1      -1.427   5.187  12.269  1.00  0.00    -0.032 C 
HETATM    5  C13 UNL     1      -2.161   5.457  10.919  1.00  0.00     0.016 C 
HETATM    6  C14 UNL     1      -2.469   4.921  13.383  1.00  0.00     0.004 C 
HETATM    7  C15 UNL     1      -3.427   3.754  13.067  1.00  0.00     0.007 C 
HETATM    8  C16 UNL     1      -4.875   4.165  12.841  1.00  0.00     0.007 C 
HETATM    9  C17 UNL     1      -5.413   4.862  14.097  1.00  0.00     0.018 C 
HETATM   10  C18 UNL     1      -6.971   4.977  14.184  1.00  0.00     0.072 C 
HETATM   11  C19 UNL     1      -7.572   3.584  14.518  1.00  0.00     0.030 C 
HETATM   12  C21 UNL     1      -7.328   5.956  15.330  1.00  0.00     0.139 C 
HETATM   13  C22 UNL     1      -6.725   7.362  15.173  1.00  0.00     0.065 C 
HETATM   14  C23 UNL     1      -5.526   7.430  14.225  1.00  0.00     0.130 C 
HETATM   15  C24 UNL     1      -4.661   6.188  14.295  1.00  0.00    -0.001 A 
HETATM   16  C25 UNL     1      -3.561   6.218  15.330  1.00  0.00     0.024 A 
HETATM   17  C26 UNL     1      -3.162   6.228  13.865  1.00  0.00    -0.025 A 
HETATM   18  C27 UNL     1      -2.647   7.569  13.299  1.00  0.00     0.011 C 
HETATM   19  C28 UNL     1      -1.232   7.648  12.699  1.00  0.00     0.011 C 
HETATM   20  C29 UNL     1      -0.461   6.331  12.731  1.00  0.00    -0.032 C 
HETATM   21  C30 UNL     1       0.100   6.154  14.170  1.00  0.00     0.016 C 
ENDROOT
BRANCH   1  22
HETATM   22  C7  UNL     1       1.977   7.068  11.916  1.00  0.00    -0.014 C 
HETATM   23  C8  UNL     1       1.676   8.549  11.650  1.00  0.00     0.010 C 
BRANCH  22  24
HETATM   24  C6  UNL     1       3.264   6.600  11.192  1.00  0.00     0.008 C 
BRANCH  24  25
HETATM   25  C5  UNL     1       3.897   7.556  10.160  1.00  0.00     0.028 C 
BRANCH  25  26
HETATM   26  C4  UNL     1       3.050   7.740   8.928  1.00  0.00    -0.025 C 
HETATM   27  C2  UNL     1       2.658   6.809   8.037  1.00  0.00    -0.091 C 
HETATM   28  C1  UNL     1       3.022   5.351   8.082  1.00  0.00     0.042 C 
HETATM   29  C3  UNL     1       1.779   7.187   6.874  1.00  0.00     0.042 C 
ENDBRANCH  25  26
ENDBRANCH  24  25
ENDBRANCH  22  24
ENDBRANCH   1  22
BRANCH  14  30
HETATM   30  O4  UNL     1      -5.965   7.607  12.880  1.00  0.00    -0.395 OA
HETATM   31  H39 UNL     1      -6.326   8.507  12.811  1.00  0.00     0.210 HD
ENDBRANCH  14  30
BRANCH  10  32
HETATM   32  C20 UNL     1      -7.658   5.370  12.874  1.00  0.00     0.151 C 
HETATM   33  O1  UNL     1      -7.415   4.942  11.756  1.00  0.00    -0.649 OA
BRANCH  32  34
HETATM   34  O2  UNL     1      -8.731   6.174  13.025  1.00  0.00    -0.776 OA
HETATM   35  H33 UNL     1      -9.042   6.279  12.101  1.00  0.00     0.167 HD
ENDBRANCH  32  34
ENDBRANCH  10  32
BRANCH  12  36
HETATM   36  O3  UNL     1      -6.872   5.417  16.588  1.00  0.00    -0.394 OA
HETATM   37  H35 UNL     1      -7.276   5.947  17.295  1.00  0.00     0.210 HD
ENDBRANCH  12  36
TORSDOF 8
ENDMDL
MODEL 6
REMARK minimizedAffinity -9.01945972
REMARK  8 active torsions:
REMARK  status: ('A' for Active; 'I' for Inactive)
REMARK    1  A    between atoms: C4_4  and  C5_5 
REMARK    2  A    between atoms: C5_5  and  C6_6 
REMARK    3  A    between atoms: C6_6  and  C7_7 
REMARK    4  A    between atoms: C7_7  and  C9_9 
REMARK    5  A    between atoms: C18_18  and  C20_20 
REMARK    6  A    between atoms: C20_20  and  O2_22 
REMARK    7  A    between atoms: C21_23  and  O3_24 
REMARK    8  A    between atoms: C23_26  and  O4_27 
ROOT
HETATM    1  C9  UNL     1      -5.494   4.427  13.516  1.00  0.00    -0.002 C 
HETATM    2  C10 UNL     1      -5.021   4.004  12.108  1.00  0.00     0.006 C 
HETATM    3  C11 UNL     1      -3.692   4.738  11.840  1.00  0.00     0.011 C 
HETATM    4  C12 UNL     1      -3.300   5.406  13.173  1.00  0.00    -0.032 C 
HETATM    5  C13 UNL     1      -2.481   4.361  13.991  1.00  0.00     0.016 C 
HETATM    6  C14 UNL     1      -2.477   6.710  13.026  1.00  0.00     0.004 C 
HETATM    7  C15 UNL     1      -1.097   6.499  12.369  1.00  0.00     0.007 C 
HETATM    8  C16 UNL     1       0.089   6.736  13.295  1.00  0.00     0.007 C 
HETATM    9  C17 UNL     1       0.054   8.178  13.815  1.00  0.00     0.018 C 
HETATM   10  C18 UNL     1       1.392   8.700  14.435  1.00  0.00     0.072 C 
HETATM   11  C19 UNL     1       2.411   8.977  13.297  1.00  0.00     0.030 C 
HETATM   12  C21 UNL     1       1.105  10.030  15.176  1.00  0.00     0.139 C 
HETATM   13  C22 UNL     1       0.043   9.922  16.283  1.00  0.00     0.065 C 
HETATM   14  C23 UNL     1      -0.875   8.705  16.158  1.00  0.00     0.130 C 
HETATM   15  C24 UNL     1      -1.181   8.356  14.714  1.00  0.00    -0.001 A 
HETATM   16  C25 UNL     1      -2.385   9.047  14.119  1.00  0.00     0.024 A 
HETATM   17  C26 UNL     1      -2.460   7.547  14.338  1.00  0.00    -0.025 A 
HETATM   18  C27 UNL     1      -3.337   7.064  15.513  1.00  0.00     0.011 C 
HETATM   19  C28 UNL     1      -4.522   6.121  15.240  1.00  0.00     0.011 C 
HETATM   20  C29 UNL     1      -4.707   5.752  13.771  1.00  0.00    -0.032 C 
HETATM   21  C30 UNL     1      -5.424   6.943  13.076  1.00  0.00     0.016 C 
ENDROOT
BRANCH   1  22
HETATM   22  C7  UNL     1      -7.028   4.423  13.795  1.00  0.00    -0.014 C 
HETATM   23  C8  UNL     1      -7.599   3.019  13.552  1.00  0.00     0.010 C 
BRANCH  22  24
HETATM   24  C6  UNL     1      -7.867   5.519  13.091  1.00  0.00     0.008 C 
BRANCH  24  25
HETATM   25  C5  UNL     1      -8.816   6.367  13.962  1.00  0.00     0.028 C 
BRANCH  25  26
HETATM   26  C4  UNL     1     -10.173   6.563  13.339  1.00  0.00    -0.025 C 
HETATM   27  C2  UNL     1     -11.188   7.336  13.772  1.00  0.00    -0.091 C 
HETATM   28  C1  UNL     1     -11.176   8.169  15.023  1.00  0.00     0.042 C 
HETATM   29  C3  UNL     1     -12.470   7.424  12.988  1.00  0.00     0.042 C 
ENDBRANCH  25  26
ENDBRANCH  24  25
ENDBRANCH  22  24
ENDBRANCH   1  22
BRANCH  14  30
HETATM   30  O4  UNL     1      -0.287   7.570  16.787  1.00  0.00    -0.395 OA
HETATM   31  H39 UNL     1      -0.301   7.733  17.746  1.00  0.00     0.210 HD
ENDBRANCH  14  30
BRANCH  10  32
HETATM   32  C20 UNL     1       2.113   7.697  15.339  1.00  0.00     0.151 C 
HETATM   33  O1  UNL     1       2.439   7.855  16.505  1.00  0.00    -0.649 OA
BRANCH  32  34
HETATM   34  O2  UNL     1       2.268   6.470  14.797  1.00  0.00    -0.776 OA
HETATM   35  H33 UNL     1       2.706   5.978  15.524  1.00  0.00     0.167 HD
ENDBRANCH  32  34
ENDBRANCH  10  32
BRANCH  12  36
HETATM   36  O3  UNL     1       0.660  11.024  14.231  1.00  0.00    -0.394 OA
HETATM   37  H35 UNL     1       0.676  11.884  14.684  1.00  0.00     0.210 HD
ENDBRANCH  12  36
TORSDOF 8
ENDMDL
MODEL 7
REMARK minimizedAffinity -9.00905418
REMARK  8 active torsions:
REMARK  status: ('A' for Active; 'I' for Inactive)
REMARK    1  A    between atoms: C4_4  and  C5_5 
REMARK    2  A    between atoms: C5_5  and  C6_6 
REMARK    3  A    between atoms: C6_6  and  C7_7 
REMARK    4  A    between atoms: C7_7  and  C9_9 
REMARK    5  A    between atoms: C18_18  and  C20_20 
REMARK    6  A    between atoms: C20_20  and  O2_22 
REMARK    7  A    between atoms: C21_23  and  O3_24 
REMARK    8  A    between atoms: C23_26  and  O4_27 
ROOT
HETATM    1  C9  UNL     1      -3.297   3.478  12.315  1.00  0.00    -0.002 C 
HETATM    2  C10 UNL     1      -2.832   3.564  10.845  1.00  0.00     0.006 C 
HETATM    3  C11 UNL     1      -1.795   4.702  10.766  1.00  0.00     0.011 C 
HETATM    4  C12 UNL     1      -1.511   5.119  12.223  1.00  0.00    -0.032 C 
HETATM    5  C13 UNL     1      -0.365   4.202  12.751  1.00  0.00     0.016 C 
HETATM    6  C14 UNL     1      -1.112   6.605  12.405  1.00  0.00     0.004 C 
HETATM    7  C15 UNL     1       0.215   6.977  11.713  1.00  0.00     0.007 C 
HETATM    8  C16 UNL     1       1.350   7.329  12.666  1.00  0.00     0.007 C 
HETATM    9  C17 UNL     1       0.941   8.528  13.531  1.00  0.00     0.018 C 
HETATM   10  C18 UNL     1       2.116   9.261  14.259  1.00  0.00     0.072 C 
HETATM   11  C19 UNL     1       2.922  10.093  13.224  1.00  0.00     0.030 C 
HETATM   12  C21 UNL     1       1.516  10.228  15.310  1.00  0.00     0.139 C 
HETATM   13  C22 UNL     1       0.618   9.548  16.357  1.00  0.00     0.065 C 
HETATM   14  C23 UNL     1       0.082   8.179  15.932  1.00  0.00     0.130 C 
HETATM   15  C24 UNL     1      -0.219   8.110  14.449  1.00  0.00    -0.001 A 
HETATM   16  C25 UNL     1      -1.614   8.532  14.048  1.00  0.00     0.024 A 
HETATM   17  C26 UNL     1      -1.237   7.070  13.884  1.00  0.00    -0.025 A 
HETATM   18  C27 UNL     1      -1.844   6.083  14.903  1.00  0.00     0.011 C 
HETATM   19  C28 UNL     1      -2.725   4.923  14.406  1.00  0.00     0.011 C 
HETATM   20  C29 UNL     1      -2.907   4.876  12.891  1.00  0.00    -0.032 C 
HETATM   21  C30 UNL     1      -3.988   5.929  12.518  1.00  0.00     0.016 C 
ENDROOT
BRANCH   1  22
HETATM   22  C7  UNL     1      -4.738   2.951  12.587  1.00  0.00    -0.014 C 
HETATM   23  C8  UNL     1      -5.167   2.000  11.460  1.00  0.00     0.010 C 
BRANCH  22  24
HETATM   24  C6  UNL     1      -5.823   4.014  12.892  1.00  0.00     0.008 C 
BRANCH  24  25
HETATM   25  C5  UNL     1      -7.222   3.514  13.306  1.00  0.00     0.028 C 
BRANCH  25  26
HETATM   26  C4  UNL     1      -8.321   4.487  12.968  1.00  0.00    -0.025 C 
HETATM   27  C2  UNL     1      -8.558   5.699  13.506  1.00  0.00    -0.091 C 
HETATM   28  C1  UNL     1      -7.758   6.335  14.609  1.00  0.00     0.042 C 
HETATM   29  C3  UNL     1      -9.701   6.545  13.010  1.00  0.00     0.042 C 
ENDBRANCH  25  26
ENDBRANCH  24  25
ENDBRANCH  22  24
ENDBRANCH   1  22
BRANCH  14  30
HETATM   30  O4  UNL     1       1.019   7.156  16.257  1.00  0.00    -0.395 OA
HETATM   31  H39 UNL     1       1.033   7.073  17.226  1.00  0.00     0.210 HD
ENDBRANCH  14  30
BRANCH  10  32
HETATM   32  C20 UNL     1       3.162   8.333  14.881  1.00  0.00     0.151 C 
HETATM   33  O1  UNL     1       3.521   8.302  16.048  1.00  0.00    -0.649 OA
BRANCH  32  34
HETATM   34  O2  UNL     1       3.619   7.372  14.051  1.00  0.00    -0.776 OA
HETATM   35  H33 UNL     1       4.234   6.875  14.630  1.00  0.00     0.167 HD
ENDBRANCH  32  34
ENDBRANCH  10  32
BRANCH  12  36
HETATM   36  O3  UNL     1       0.732  11.240  14.645  1.00  0.00    -0.394 OA
HETATM   37  H35 UNL     1       0.535  11.931  15.299  1.00  0.00     0.210 HD
ENDBRANCH  12  36
TORSDOF 8
ENDMDL
MODEL 8
REMARK minimizedAffinity -8.69876862
REMARK  8 active torsions:
REMARK  status: ('A' for Active; 'I' for Inactive)
REMARK    1  A    between atoms: C4_4  and  C5_5 
REMARK    2  A    between atoms: C5_5  and  C6_6 
REMARK    3  A    between atoms: C6_6  and  C7_7 
REMARK    4  A    between atoms: C7_7  and  C9_9 
REMARK    5  A    between atoms: C18_18  and  C20_20 
REMARK    6  A    between atoms: C20_20  and  O2_22 
REMARK    7  A    between atoms: C21_23  and  O3_24 
REMARK    8  A    between atoms: C23_26  and  O4_27 
ROOT
HETATM    1  C9  UNL     1      -2.832   7.909  15.098  1.00  0.00    -0.002 C 
HETATM    2  C10 UNL     1      -3.092   6.410  15.363  1.00  0.00     0.006 C 
HETATM    3  C11 UNL     1      -2.163   5.618  14.422  1.00  0.00     0.011 C 
HETATM    4  C12 UNL     1      -1.225   6.658  13.778  1.00  0.00    -0.032 C 
HETATM    5  C13 UNL     1      -0.002   6.829  14.731  1.00  0.00     0.016 C 
HETATM    6  C14 UNL     1      -0.728   6.290  12.358  1.00  0.00     0.004 C 
HETATM    7  C15 UNL     1       0.146   5.020  12.319  1.00  0.00     0.007 C 
HETATM    8  C16 UNL     1       1.605   5.264  11.956  1.00  0.00     0.007 C 
HETATM    9  C17 UNL     1       1.687   5.911  10.568  1.00  0.00     0.018 C 
HETATM   10  C18 UNL     1       3.094   5.854   9.884  1.00  0.00     0.072 C 
HETATM   11  C19 UNL     1       3.365   4.406   9.391  1.00  0.00     0.030 C 
HETATM   12  C21 UNL     1       3.083   6.800   8.657  1.00  0.00     0.139 C 
HETATM   13  C22 UNL     1       2.741   8.262   8.989  1.00  0.00     0.065 C 
HETATM   14  C23 UNL     1       2.016   8.452  10.323  1.00  0.00     0.130 C 
HETATM   15  C24 UNL     1       1.064   7.315  10.631  1.00  0.00    -0.001 A 
HETATM   16  C25 UNL     1      -0.341   7.480  10.100  1.00  0.00     0.024 A 
HETATM   17  C26 UNL     1      -0.140   7.518  11.604  1.00  0.00    -0.025 A 
HETATM   18  C27 UNL     1      -0.249   8.900  12.280  1.00  0.00     0.011 C 
HETATM   19  C28 UNL     1      -1.305   9.130  13.376  1.00  0.00     0.011 C 
HETATM   20  C29 UNL     1      -2.165   7.908  13.686  1.00  0.00    -0.032 C 
HETATM   21  C30 UNL     1      -3.254   7.810  12.580  1.00  0.00     0.016 C 
ENDROOT
BRANCH   1  22
HETATM   22  C7  UNL     1      -4.006   8.902  15.352  1.00  0.00    -0.014 C 
HETATM   23  C8  UNL     1      -3.680   9.800  16.554  1.00  0.00     0.010 C 
BRANCH  22  24
HETATM   24  C6  UNL     1      -5.426   8.291  15.454  1.00  0.00     0.008 C 
BRANCH  24  25
HETATM   25  C5  UNL     1      -5.564   6.764  15.287  1.00  0.00     0.028 C 
BRANCH  25  26
HETATM   26  C4  UNL     1      -6.687   6.370  14.364  1.00  0.00    -0.025 C 
HETATM   27  C2  UNL     1      -6.671   5.461  13.368  1.00  0.00    -0.091 C 
HETATM   28  C1  UNL     1      -5.478   4.649  12.949  1.00  0.00     0.042 C 
HETATM   29  C3  UNL     1      -7.916   5.183  12.568  1.00  0.00     0.042 C 
ENDBRANCH  25  26
ENDBRANCH  24  25
ENDBRANCH  22  24
ENDBRANCH   1  22
BRANCH  14  30
HETATM   30  O4  UNL     1       2.956   8.564  11.388  1.00  0.00    -0.395 OA
HETATM   31  H39 UNL     1       3.410   9.417  11.284  1.00  0.00     0.210 HD
ENDBRANCH  14  30
BRANCH  10  32
HETATM   32  C20 UNL     1       4.271   6.152  10.815  1.00  0.00     0.151 C 
HETATM   33  O1  UNL     1       4.228   6.694  11.909  1.00  0.00    -0.649 OA
BRANCH  32  34
HETATM   34  O2  UNL     1       5.447   5.627  10.414  1.00  0.00    -0.776 OA
HETATM   35  H33 UNL     1       6.050   5.891  11.141  1.00  0.00     0.167 HD
ENDBRANCH  32  34
ENDBRANCH  10  32
BRANCH  12  36
HETATM   36  O3  UNL     1       2.122   6.329   7.691  1.00  0.00    -0.394 OA
HETATM   37  H35 UNL     1       2.275   6.819   6.866  1.00  0.00     0.210 HD
ENDBRANCH  12  36
TORSDOF 8
ENDMDL
MODEL 9
REMARK minimizedAffinity -8.64279079
REMARK  8 active torsions:
REMARK  status: ('A' for Active; 'I' for Inactive)
REMARK    1  A    between atoms: C4_4  and  C5_5 
REMARK    2  A    between atoms: C5_5  and  C6_6 
REMARK    3  A    between atoms: C6_6  and  C7_7 
REMARK    4  A    between atoms: C7_7  and  C9_9 
REMARK    5  A    between atoms: C18_18  and  C20_20 
REMARK    6  A    between atoms: C20_20  and  O2_22 
REMARK    7  A    between atoms: C21_23  and  O3_24 
REMARK    8  A    between atoms: C23_26  and  O4_27 
ROOT
HETATM    1  C9  UNL     1      -6.176   7.054  14.738  1.00  0.00    -0.002 C 
HETATM    2  C10 UNL     1      -6.136   8.479  15.331  1.00  0.00     0.006 C 
HETATM    3  C11 UNL     1      -4.718   9.032  15.082  1.00  0.00     0.011 C 
HETATM    4  C12 UNL     1      -4.020   8.011  14.162  1.00  0.00    -0.032 C 
HETATM    5  C13 UNL     1      -4.360   8.406  12.692  1.00  0.00     0.016 C 
HETATM    6  C14 UNL     1      -2.484   7.927  14.335  1.00  0.00     0.004 C 
HETATM    7  C15 UNL     1      -1.748   9.231  13.963  1.00  0.00     0.007 C 
HETATM    8  C16 UNL     1      -0.867   9.131  12.725  1.00  0.00     0.007 C 
HETATM    9  C17 UNL     1       0.205   8.056  12.944  1.00  0.00     0.018 C 
HETATM   10  C18 UNL     1       1.419   8.109  11.958  1.00  0.00     0.072 C 
HETATM   11  C19 UNL     1       2.332   9.309  12.332  1.00  0.00     0.030 C 
HETATM   12  C21 UNL     1       2.235   6.801  12.112  1.00  0.00     0.139 C 
HETATM   13  C22 UNL     1       1.428   5.518  11.852  1.00  0.00     0.065 C 
HETATM   14  C23 UNL     1      -0.087   5.694  11.965  1.00  0.00     0.130 C 
HETATM   15  C24 UNL     1      -0.476   6.682  13.046  1.00  0.00    -0.001 A 
HETATM   16  C25 UNL     1      -0.666   6.097  14.426  1.00  0.00     0.024 A 
HETATM   17  C26 UNL     1      -1.890   6.634  13.706  1.00  0.00    -0.025 A 
HETATM   18  C27 UNL     1      -2.874   5.587  13.144  1.00  0.00     0.011 C 
HETATM   19  C28 UNL     1      -4.337   5.585  13.622  1.00  0.00     0.011 C 
HETATM   20  C29 UNL     1      -4.665   6.667  14.646  1.00  0.00    -0.032 C 
HETATM   21  C30 UNL     1      -4.155   6.173  16.029  1.00  0.00     0.016 C 
ENDROOT
BRANCH   1  22
HETATM   22  C7  UNL     1      -7.155   6.030  15.385  1.00  0.00    -0.014 C 
HETATM   23  C8  UNL     1      -7.544   4.958  14.357  1.00  0.00     0.010 C 
BRANCH  22  24
HETATM   24  C6  UNL     1      -8.394   6.612  16.110  1.00  0.00     0.008 C 
BRANCH  24  25
HETATM   25  C5  UNL     1      -9.596   7.044  15.245  1.00  0.00     0.028 C 
BRANCH  25  26
HETATM   26  C4  UNL     1      -9.579   8.509  14.899  1.00  0.00    -0.025 C 
HETATM   27  C2  UNL     1      -9.990   9.550  15.650  1.00  0.00    -0.091 C 
HETATM   28  C1  UNL     1     -10.593   9.450  17.023  1.00  0.00     0.042 C 
HETATM   29  C3  UNL     1      -9.863  10.960  15.136  1.00  0.00     0.042 C 
ENDBRANCH  25  26
ENDBRANCH  24  25
ENDBRANCH  22  24
ENDBRANCH   1  22
BRANCH  14  30
HETATM   30  O4  UNL     1      -0.631   6.135  10.724  1.00  0.00    -0.395 OA
HETATM   31  H39 UNL     1      -0.562   5.393  10.099  1.00  0.00     0.210 HD
ENDBRANCH  14  30
BRANCH  10  32
HETATM   32  C20 UNL     1       1.046   8.372  10.497  1.00  0.00     0.151 C 
HETATM   33  O1  UNL     1       0.025   8.897  10.079  1.00  0.00    -0.649 OA
BRANCH  32  34
HETATM   34  O2  UNL     1       2.031   8.107   9.614  1.00  0.00    -0.776 OA
HETATM   35  H33 UNL     1       1.619   8.367   8.762  1.00  0.00     0.167 HD
ENDBRANCH  32  34
ENDBRANCH  10  32
BRANCH  12  36
HETATM   36  O3  UNL     1       2.776   6.722  13.446  1.00  0.00    -0.394 OA
HETATM   37  H35 UNL     1       3.431   6.004  13.452  1.00  0.00     0.210 HD
ENDBRANCH  12  36
TORSDOF 8
ENDMDL
