MODEL 1
REMARK minimizedAffinity -8.02609348
REMARK CNNscore 0.598968923
REMARK CNNaffinity 7.00742149
REMARK  10 active torsions:
REMARK  status: ('A' for Active; 'I' for Inactive)
REMARK    1  A    between atoms: C2_2  and  O2_4 
REMARK    2  A    between atoms: O2_4  and  C3_5 
REMARK    3  A    between atoms: C3_5  and  C4_6 
REMARK    4  A    between atoms: C3_5  and  C30_36 
REMARK    5  A    between atoms: C4_6  and  O3_7 
REMARK    6  A    between atoms: C4_6  and  C5_8 
REMARK    7  A    between atoms: C5_8  and  C6_9 
REMARK    8  A    between atoms: C6_9  and  C8_11 
REMARK    9  A    between atoms: C27_31  and  O5_32 
REMARK   10  A    between atoms: C30_36  and  O7_39 
ROOT
HETATM    1  C8  UNL     1       0.431  50.742 -14.925  1.00  0.00     0.097 A 
HETATM    2  C9  UNL     1      -0.946  51.265 -14.635  1.00  0.00     0.042 C 
HETATM    3  C10 UNL     1      -1.334  50.640 -13.278  1.00  0.00     0.016 C 
HETATM    4  C11 UNL     1       0.003  50.321 -12.518  1.00  0.00    -0.002 C 
HETATM    5  C12 UNL     1      -0.155  48.941 -11.825  1.00  0.00     0.019 C 
HETATM    6  C13 UNL     1       0.467  51.465 -11.481  1.00  0.00    -0.027 C 
HETATM    7  C14 UNL     1      -0.444  51.300 -10.227  1.00  0.00     0.016 C 
HETATM    8  C15 UNL     1       0.246  52.899 -12.028  1.00  0.00     0.011 C 
HETATM    9  C16 UNL     1       0.740  54.023 -11.110  1.00  0.00     0.007 C 
HETATM   10  C17 UNL     1       2.224  53.904 -10.715  1.00  0.00     0.009 C 
HETATM   11  C18 UNL     1       2.752  55.115  -9.860  1.00  0.00     0.017 C 
HETATM   12  C19 UNL     1       3.201  56.247 -10.812  1.00  0.00     0.023 C 
HETATM   13  C20 UNL     1       1.683  55.702  -8.912  1.00  0.00     0.023 C 
HETATM   14  C21 UNL     1       3.982  54.780  -8.999  1.00  0.00     0.135 C 
HETATM   15  O4  UNL     1       4.364  55.551  -8.109  1.00  0.00    -0.297 OA
HETATM   16  C22 UNL     1       4.800  53.537  -9.268  1.00  0.00     0.080 C 
HETATM   17  C23 UNL     1       4.143  52.458 -10.113  1.00  0.00     0.017 C 
HETATM   18  C24 UNL     1       2.589  52.492 -10.160  1.00  0.00    -0.032 C 
HETATM   19  C25 UNL     1       2.086  52.269  -8.708  1.00  0.00     0.016 C 
HETATM   20  C26 UNL     1       2.018  51.317 -11.110  1.00  0.00     0.032 C 
HETATM   21  C27 UNL     1       2.918  51.073 -12.379  1.00  0.00     0.126 C 
HETATM   22  C28 UNL     1       2.425  49.966 -13.301  1.00  0.00     0.074 C 
HETATM   23  C29 UNL     1       1.000  50.176 -13.649  1.00  0.00     0.104 A 
HETATM   24  O6  UNL     1       0.561  49.323 -14.724  1.00  0.00    -0.362 OA
ENDROOT
BRANCH   1  25
HETATM   25  C6  UNL     1       1.239  51.252 -16.100  1.00  0.00     0.022 C 
HETATM   26  C7  UNL     1       1.562  52.741 -15.958  1.00  0.00     0.013 C 
BRANCH  25  27
HETATM   27  C5  UNL     1       0.496  50.946 -17.426  1.00  0.00     0.041 C 
BRANCH  27  28
HETATM   28  C4  UNL     1       0.273  52.171 -18.323  1.00  0.00     0.151 C 
BRANCH  28  29
HETATM   29  C3  UNL     1      -0.201  51.850 -19.769  1.00  0.00     0.194 C 
BRANCH  29  30
HETATM   30  O2  UNL     1      -0.281  53.061 -20.555  1.00  0.00    -0.311 OA
BRANCH  30  31
HETATM   31  C2  UNL     1       0.790  53.354 -21.341  1.00  0.00     0.255 C 
HETATM   32  C1  UNL     1       0.780  52.489 -22.566  1.00  0.00     0.126 C 
HETATM   33  O1  UNL     1       1.628  54.214 -21.115  1.00  0.00    -0.266 OA
ENDBRANCH  30  31
ENDBRANCH  29  30
BRANCH  29  34
HETATM   34  C30 UNL     1      -1.549  51.064 -19.912  1.00  0.00     0.080 C 
HETATM   35  C31 UNL     1      -1.237  49.568 -20.092  1.00  0.00     0.048 C 
HETATM   36  C32 UNL     1      -2.411  51.510 -21.103  1.00  0.00     0.048 C 
BRANCH  34  37
HETATM   37  O7  UNL     1      -2.328  51.196 -18.711  1.00  0.00    -0.388 OA
HETATM   38  H52 UNL     1      -3.136  50.659 -18.822  1.00  0.00     0.210 HD
ENDBRANCH  34  37
ENDBRANCH  29  34
ENDBRANCH  28  29
BRANCH  28  39
HETATM   39  O3  UNL     1       1.465  52.963 -18.340  1.00  0.00    -0.393 OA
HETATM   40  H6  UNL     1       2.087  52.502 -18.946  1.00  0.00     0.210 HD
ENDBRANCH  28  39
ENDBRANCH  27  28
ENDBRANCH  25  27
ENDBRANCH   1  25
BRANCH  21  41
HETATM   41  O5  UNL     1       3.093  52.261 -13.142  1.00  0.00    -0.395 OA
HETATM   42  H43 UNL     1       3.638  52.045 -13.920  1.00  0.00     0.210 HD
ENDBRANCH  21  41
TORSDOF 10
ENDMDL
MODEL 2
REMARK minimizedAffinity -7.82555962
REMARK CNNscore 0.473154843
REMARK CNNaffinity 6.27182722
REMARK  10 active torsions:
REMARK  status: ('A' for Active; 'I' for Inactive)
REMARK    1  A    between atoms: C2_2  and  O2_4 
REMARK    2  A    between atoms: O2_4  and  C3_5 
REMARK    3  A    between atoms: C3_5  and  C4_6 
REMARK    4  A    between atoms: C3_5  and  C30_36 
REMARK    5  A    between atoms: C4_6  and  O3_7 
REMARK    6  A    between atoms: C4_6  and  C5_8 
REMARK    7  A    between atoms: C5_8  and  C6_9 
REMARK    8  A    between atoms: C6_9  and  C8_11 
REMARK    9  A    between atoms: C27_31  and  O5_32 
REMARK   10  A    between atoms: C30_36  and  O7_39 
ROOT
HETATM    1  C8  UNL     1       6.067  67.704 -36.875  1.00  0.00     0.097 A 
HETATM    2  C9  UNL     1       6.787  69.006 -37.084  1.00  0.00     0.042 C 
HETATM    3  C10 UNL     1       6.375  69.469 -38.497  1.00  0.00     0.016 C 
HETATM    4  C11 UNL     1       4.980  68.817 -38.807  1.00  0.00    -0.002 C 
HETATM    5  C12 UNL     1       4.990  68.342 -40.285  1.00  0.00     0.019 C 
HETATM    6  C13 UNL     1       3.718  69.768 -38.490  1.00  0.00    -0.027 C 
HETATM    7  C14 UNL     1       3.651  70.795 -39.661  1.00  0.00     0.016 C 
HETATM    8  C15 UNL     1       3.886  70.574 -37.176  1.00  0.00     0.011 C 
HETATM    9  C16 UNL     1       2.679  71.437 -36.790  1.00  0.00     0.007 C 
HETATM   10  C17 UNL     1       1.357  70.656 -36.685  1.00  0.00     0.009 C 
HETATM   11  C18 UNL     1       0.144  71.526 -36.187  1.00  0.00     0.017 C 
HETATM   12  C19 UNL     1       0.138  71.545 -34.640  1.00  0.00     0.023 C 
HETATM   13  C20 UNL     1       0.208  72.993 -36.668  1.00  0.00     0.023 C 
HETATM   14  C21 UNL     1      -1.230  70.976 -36.603  1.00  0.00     0.135 C 
HETATM   15  O4  UNL     1      -2.253  71.664 -36.488  1.00  0.00    -0.297 OA
HETATM   16  C22 UNL     1      -1.379  69.553 -37.093  1.00  0.00     0.080 C 
HETATM   17  C23 UNL     1      -0.107  68.851 -37.541  1.00  0.00     0.017 C 
HETATM   18  C24 UNL     1       1.071  69.782 -37.945  1.00  0.00    -0.032 C 
HETATM   19  C25 UNL     1       0.589  70.620 -39.161  1.00  0.00     0.016 C 
HETATM   20  C26 UNL     1       2.366  68.917 -38.371  1.00  0.00     0.032 C 
HETATM   21  C27 UNL     1       2.547  67.624 -37.491  1.00  0.00     0.126 C 
HETATM   22  C28 UNL     1       3.751  66.768 -37.862  1.00  0.00     0.074 C 
HETATM   23  C29 UNL     1       4.979  67.595 -37.913  1.00  0.00     0.104 A 
HETATM   24  O6  UNL     1       6.179  66.800 -37.989  1.00  0.00    -0.362 OA
ENDROOT
BRANCH   1  25
HETATM   25  C6  UNL     1       6.080  67.000 -35.534  1.00  0.00     0.022 C 
HETATM   26  C7  UNL     1       6.738  67.859 -34.453  1.00  0.00     0.013 C 
BRANCH  25  27
HETATM   27  C5  UNL     1       6.767  65.616 -35.670  1.00  0.00     0.041 C 
BRANCH  27  28
HETATM   28  C4  UNL     1       5.793  64.438 -35.810  1.00  0.00     0.151 C 
BRANCH  28  29
HETATM   29  C3  UNL     1       5.685  63.522 -34.557  1.00  0.00     0.194 C 
BRANCH  29  30
HETATM   30  O2  UNL     1       5.947  62.146 -34.914  1.00  0.00    -0.311 OA
BRANCH  30  31
HETATM   31  C2  UNL     1       7.068  61.580 -34.391  1.00  0.00     0.255 C 
HETATM   32  C1  UNL     1       7.131  60.127 -34.760  1.00  0.00     0.126 C 
HETATM   33  O1  UNL     1       7.926  62.160 -33.743  1.00  0.00    -0.266 OA
ENDBRANCH  30  31
ENDBRANCH  29  30
BRANCH  29  34
HETATM   34  C30 UNL     1       4.345  63.589 -33.748  1.00  0.00     0.080 C 
HETATM   35  C31 UNL     1       4.513  64.586 -32.588  1.00  0.00     0.048 C 
HETATM   36  C32 UNL     1       3.907  62.244 -33.150  1.00  0.00     0.048 C 
BRANCH  34  37
HETATM   37  O7  UNL     1       3.285  64.082 -34.585  1.00  0.00    -0.388 OA
HETATM   38  H52 UNL     1       2.482  64.151 -34.036  1.00  0.00     0.210 HD
ENDBRANCH  34  37
ENDBRANCH  29  34
ENDBRANCH  28  29
BRANCH  28  39
HETATM   39  O3  UNL     1       6.141  63.677 -36.971  1.00  0.00    -0.393 OA
HETATM   40  H6  UNL     1       6.923  63.138 -36.715  1.00  0.00     0.210 HD
ENDBRANCH  28  39
ENDBRANCH  27  28
ENDBRANCH  25  27
ENDBRANCH   1  25
BRANCH  21  41
HETATM   41  O5  UNL     1       2.614  67.931 -36.103  1.00  0.00    -0.395 OA
HETATM   42  H43 UNL     1       2.745  67.099 -35.613  1.00  0.00     0.210 HD
ENDBRANCH  21  41
TORSDOF 10
ENDMDL
MODEL 3
REMARK minimizedAffinity -7.30169582
REMARK CNNscore 0.438885003
REMARK CNNaffinity 6.61903381
REMARK  10 active torsions:
REMARK  status: ('A' for Active; 'I' for Inactive)
REMARK    1  A    between atoms: C2_2  and  O2_4 
REMARK    2  A    between atoms: O2_4  and  C3_5 
REMARK    3  A    between atoms: C3_5  and  C4_6 
REMARK    4  A    between atoms: C3_5  and  C30_36 
REMARK    5  A    between atoms: C4_6  and  O3_7 
REMARK    6  A    between atoms: C4_6  and  C5_8 
REMARK    7  A    between atoms: C5_8  and  C6_9 
REMARK    8  A    between atoms: C6_9  and  C8_11 
REMARK    9  A    between atoms: C27_31  and  O5_32 
REMARK   10  A    between atoms: C30_36  and  O7_39 
ROOT
HETATM    1  C8  UNL     1      -6.101  47.900 -30.338  1.00  0.00     0.097 A 
HETATM    2  C9  UNL     1      -7.401  48.619 -30.553  1.00  0.00     0.042 C 
HETATM    3  C10 UNL     1      -7.650  48.551 -32.074  1.00  0.00     0.016 C 
HETATM    4  C11 UNL     1      -6.886  47.289 -32.610  1.00  0.00    -0.002 C 
HETATM    5  C12 UNL     1      -6.220  47.667 -33.961  1.00  0.00     0.019 C 
HETATM    6  C13 UNL     1      -7.797  45.966 -32.740  1.00  0.00    -0.027 C 
HETATM    7  C14 UNL     1      -8.655  46.161 -34.026  1.00  0.00     0.016 C 
HETATM    8  C15 UNL     1      -8.778  45.792 -31.551  1.00  0.00     0.011 C 
HETATM    9  C16 UNL     1      -9.617  44.509 -31.589  1.00  0.00     0.007 C 
HETATM   10  C17 UNL     1      -8.783  43.218 -31.690  1.00  0.00     0.009 C 
HETATM   11  C18 UNL     1      -9.642  41.901 -31.622  1.00  0.00     0.017 C 
HETATM   12  C19 UNL     1      -9.865  41.521 -30.139  1.00  0.00     0.023 C 
HETATM   13  C20 UNL     1     -11.034  42.048 -32.277  1.00  0.00     0.023 C 
HETATM   14  C21 UNL     1      -8.965  40.682 -32.269  1.00  0.00     0.135 C 
HETATM   15  O4  UNL     1      -9.605  39.646 -32.499  1.00  0.00    -0.297 OA
HETATM   16  C22 UNL     1      -7.484  40.689 -32.574  1.00  0.00     0.080 C 
HETATM   17  C23 UNL     1      -6.801  42.047 -32.603  1.00  0.00     0.017 C 
HETATM   18  C24 UNL     1      -7.735  43.266 -32.845  1.00  0.00    -0.032 C 
HETATM   19  C25 UNL     1      -8.377  43.075 -34.246  1.00  0.00     0.016 C 
HETATM   20  C26 UNL     1      -6.895  44.645 -32.825  1.00  0.00     0.032 C 
HETATM   21  C27 UNL     1      -5.742  44.636 -31.752  1.00  0.00     0.126 C 
HETATM   22  C28 UNL     1      -4.914  45.913 -31.702  1.00  0.00     0.074 C 
HETATM   23  C29 UNL     1      -5.795  47.098 -31.578  1.00  0.00     0.104 A 
HETATM   24  O6  UNL     1      -5.065  48.298 -31.254  1.00  0.00    -0.362 OA
ENDROOT
BRANCH   1  25
HETATM   25  C6  UNL     1      -5.581  47.603 -28.946  1.00  0.00     0.022 C 
HETATM   26  C7  UNL     1      -6.725  47.388 -27.952  1.00  0.00     0.013 C 
BRANCH  25  27
HETATM   27  C5  UNL     1      -4.622  48.731 -28.488  1.00  0.00     0.041 C 
BRANCH  27  28
HETATM   28  C4  UNL     1      -4.048  48.539 -27.078  1.00  0.00     0.151 C 
BRANCH  28  29
HETATM   29  C3  UNL     1      -4.182  49.773 -26.139  1.00  0.00     0.194 C 
BRANCH  29  30
HETATM   30  O2  UNL     1      -2.903  50.431 -25.985  1.00  0.00    -0.311 OA
BRANCH  30  31
HETATM   31  C2  UNL     1      -2.848  51.748 -26.316  1.00  0.00     0.255 C 
HETATM   32  C1  UNL     1      -1.888  51.954 -27.450  1.00  0.00     0.126 C 
HETATM   33  O1  UNL     1      -3.502  52.643 -25.801  1.00  0.00    -0.266 OA
ENDBRANCH  30  31
ENDBRANCH  29  30
BRANCH  29  34
HETATM   34  C30 UNL     1      -4.795  49.516 -24.720  1.00  0.00     0.080 C 
HETATM   35  C31 UNL     1      -3.649  49.354 -23.705  1.00  0.00     0.048 C 
HETATM   36  C32 UNL     1      -5.676  48.261 -24.637  1.00  0.00     0.048 C 
BRANCH  34  37
HETATM   37  O7  UNL     1      -5.575  50.650 -24.306  1.00  0.00    -0.388 OA
HETATM   38  H52 UNL     1      -5.902  50.470 -23.404  1.00  0.00     0.210 HD
ENDBRANCH  34  37
ENDBRANCH  29  34
ENDBRANCH  28  29
BRANCH  28  39
HETATM   39  O3  UNL     1      -2.683  48.121 -27.180  1.00  0.00    -0.393 OA
HETATM   40  H6  UNL     1      -2.168  48.931 -27.394  1.00  0.00     0.210 HD
ENDBRANCH  28  39
ENDBRANCH  27  28
ENDBRANCH  25  27
ENDBRANCH   1  25
BRANCH  21  41
HETATM   41  O5  UNL     1      -6.234  44.358 -30.446  1.00  0.00    -0.395 OA
HETATM   42  H43 UNL     1      -5.483  44.385 -29.826  1.00  0.00     0.210 HD
ENDBRANCH  21  41
TORSDOF 10
ENDMDL
MODEL 4
REMARK minimizedAffinity -7.03322887
REMARK CNNscore 0.402257442
REMARK CNNaffinity 7.06108236
REMARK  10 active torsions:
REMARK  status: ('A' for Active; 'I' for Inactive)
REMARK    1  A    between atoms: C2_2  and  O2_4 
REMARK    2  A    between atoms: O2_4  and  C3_5 
REMARK    3  A    between atoms: C3_5  and  C4_6 
REMARK    4  A    between atoms: C3_5  and  C30_36 
REMARK    5  A    between atoms: C4_6  and  O3_7 
REMARK    6  A    between atoms: C4_6  and  C5_8 
REMARK    7  A    between atoms: C5_8  and  C6_9 
REMARK    8  A    between atoms: C6_9  and  C8_11 
REMARK    9  A    between atoms: C27_31  and  O5_32 
REMARK   10  A    between atoms: C30_36  and  O7_39 
ROOT
HETATM    1  C8  UNL     1      -2.394  52.001 -11.893  1.00  0.00     0.097 A 
HETATM    2  C9  UNL     1      -3.204  53.093 -11.255  1.00  0.00     0.042 C 
HETATM    3  C10 UNL     1      -3.053  52.868  -9.736  1.00  0.00     0.016 C 
HETATM    4  C11 UNL     1      -1.697  52.107  -9.514  1.00  0.00    -0.002 C 
HETATM    5  C12 UNL     1      -1.925  51.024  -8.425  1.00  0.00     0.019 C 
HETATM    6  C13 UNL     1      -0.449  53.063  -9.158  1.00  0.00    -0.027 C 
HETATM    7  C14 UNL     1      -0.628  53.460  -7.661  1.00  0.00     0.016 C 
HETATM    8  C15 UNL     1      -0.440  54.374  -9.987  1.00  0.00     0.011 C 
HETATM    9  C16 UNL     1       0.768  55.285  -9.739  1.00  0.00     0.007 C 
HETATM   10  C17 UNL     1       2.128  54.595  -9.954  1.00  0.00     0.009 C 
HETATM   11  C18 UNL     1       3.361  55.561  -9.801  1.00  0.00     0.017 C 
HETATM   12  C19 UNL     1       3.620  56.266 -11.154  1.00  0.00     0.023 C 
HETATM   13  C20 UNL     1       3.144  56.662  -8.739  1.00  0.00     0.023 C 
HETATM   14  C21 UNL     1       4.674  54.844  -9.445  1.00  0.00     0.135 C 
HETATM   15  O4  UNL     1       5.665  55.483  -9.068  1.00  0.00    -0.297 OA
HETATM   16  C22 UNL     1       4.811  53.349  -9.618  1.00  0.00     0.080 C 
HETATM   17  C23 UNL     1       3.521  52.557  -9.751  1.00  0.00     0.017 C 
HETATM   18  C24 UNL     1       2.247  53.244  -9.183  1.00  0.00    -0.032 C 
HETATM   19  C25 UNL     1       2.479  53.439  -7.659  1.00  0.00     0.016 C 
HETATM   20  C26 UNL     1       0.944  52.316  -9.411  1.00  0.00     0.032 C 
HETATM   21  C27 UNL     1       0.977  51.555 -10.789  1.00  0.00     0.126 C 
HETATM   22  C28 UNL     1      -0.227  50.659 -11.046  1.00  0.00     0.074 C 
HETATM   23  C29 UNL     1      -1.487  51.411 -10.843  1.00  0.00     0.104 A 
HETATM   24  O6  UNL     1      -2.641  50.699 -11.331  1.00  0.00    -0.362 OA
ENDROOT
BRANCH   1  25
HETATM   25  C6  UNL     1      -2.150  51.967 -13.387  1.00  0.00     0.022 C 
HETATM   26  C7  UNL     1      -3.432  52.252 -14.173  1.00  0.00     0.013 C 
BRANCH  25  27
HETATM   27  C5  UNL     1      -1.517  50.610 -13.789  1.00  0.00     0.041 C 
BRANCH  27  28
HETATM   28  C4  UNL     1      -0.420  50.716 -14.858  1.00  0.00     0.151 C 
BRANCH  28  29
HETATM   29  C3  UNL     1      -0.488  49.639 -15.979  1.00  0.00     0.194 C 
BRANCH  29  30
HETATM   30  O2  UNL     1       0.422  49.970 -17.053  1.00  0.00    -0.311 OA
BRANCH  30  31
HETATM   31  C2  UNL     1       0.679  51.290 -17.253  1.00  0.00     0.255 C 
HETATM   32  C1  UNL     1      -0.056  51.779 -18.466  1.00  0.00     0.126 C 
HETATM   33  O1  UNL     1       1.377  51.999 -16.543  1.00  0.00    -0.266 OA
ENDBRANCH  30  31
ENDBRANCH  29  30
BRANCH  29  34
HETATM   34  C30 UNL     1      -1.901  49.342 -16.586  1.00  0.00     0.080 C 
HETATM   35  C31 UNL     1      -2.690  48.459 -15.604  1.00  0.00     0.048 C 
HETATM   36  C32 UNL     1      -1.861  48.616 -17.940  1.00  0.00     0.048 C 
BRANCH  34  37
HETATM   37  O7  UNL     1      -2.639  50.565 -16.748  1.00  0.00    -0.388 OA
HETATM   38  H52 UNL     1      -3.524  50.334 -17.085  1.00  0.00     0.210 HD
ENDBRANCH  34  37
ENDBRANCH  29  34
ENDBRANCH  28  29
BRANCH  28  39
HETATM   39  O3  UNL     1       0.861  50.708 -14.219  1.00  0.00    -0.393 OA
HETATM   40  H6  UNL     1       1.037  49.771 -13.980  1.00  0.00     0.210 HD
ENDBRANCH  28  39
ENDBRANCH  27  28
ENDBRANCH  25  27
ENDBRANCH   1  25
BRANCH  21  41
HETATM   41  O5  UNL     1       1.124  52.450 -11.886  1.00  0.00    -0.395 OA
HETATM   42  H43 UNL     1       1.117  51.927 -12.708  1.00  0.00     0.210 HD
ENDBRANCH  21  41
TORSDOF 10
ENDMDL
MODEL 5
REMARK minimizedAffinity -8.96562195
REMARK CNNscore 0.397562534
REMARK CNNaffinity 7.09844208
REMARK  10 active torsions:
REMARK  status: ('A' for Active; 'I' for Inactive)
REMARK    1  A    between atoms: C2_2  and  O2_4 
REMARK    2  A    between atoms: O2_4  and  C3_5 
REMARK    3  A    between atoms: C3_5  and  C4_6 
REMARK    4  A    between atoms: C3_5  and  C30_36 
REMARK    5  A    between atoms: C4_6  and  O3_7 
REMARK    6  A    between atoms: C4_6  and  C5_8 
REMARK    7  A    between atoms: C5_8  and  C6_9 
REMARK    8  A    between atoms: C6_9  and  C8_11 
REMARK    9  A    between atoms: C27_31  and  O5_32 
REMARK   10  A    between atoms: C30_36  and  O7_39 
ROOT
HETATM    1  C8  UNL     1      -2.771  50.845 -22.451  1.00  0.00     0.097 A 
HETATM    2  C9  UNL     1      -2.098  49.712 -23.172  1.00  0.00     0.042 C 
HETATM    3  C10 UNL     1      -1.894  48.621 -22.100  1.00  0.00     0.016 C 
HETATM    4  C11 UNL     1      -2.989  48.847 -20.997  1.00  0.00    -0.002 C 
HETATM    5  C12 UNL     1      -2.327  48.625 -19.610  1.00  0.00     0.019 C 
HETATM    6  C13 UNL     1      -4.314  47.947 -21.181  1.00  0.00    -0.027 C 
HETATM    7  C14 UNL     1      -3.929  46.516 -20.698  1.00  0.00     0.016 C 
HETATM    8  C15 UNL     1      -4.762  47.833 -22.661  1.00  0.00     0.011 C 
HETATM    9  C16 UNL     1      -6.061  47.048 -22.882  1.00  0.00     0.007 C 
HETATM   10  C17 UNL     1      -7.260  47.582 -22.078  1.00  0.00     0.009 C 
HETATM   11  C18 UNL     1      -8.613  46.841 -22.389  1.00  0.00     0.017 C 
HETATM   12  C19 UNL     1      -9.277  47.498 -23.622  1.00  0.00     0.023 C 
HETATM   13  C20 UNL     1      -8.426  45.340 -22.708  1.00  0.00     0.023 C 
HETATM   14  C21 UNL     1      -9.649  46.934 -21.257  1.00  0.00     0.135 C 
HETATM   15  O4  UNL     1     -10.658  46.216 -21.256  1.00  0.00    -0.297 OA
HETATM   16  C22 UNL     1      -9.502  47.958 -20.154  1.00  0.00     0.080 C 
HETATM   17  C23 UNL     1      -8.126  48.583 -19.984  1.00  0.00     0.017 C 
HETATM   18  C24 UNL     1      -6.938  47.763 -20.562  1.00  0.00    -0.032 C 
HETATM   19  C25 UNL     1      -6.899  46.415 -19.791  1.00  0.00     0.016 C 
HETATM   20  C26 UNL     1      -5.541  48.545 -20.344  1.00  0.00     0.032 C 
HETATM   21  C27 UNL     1      -5.686  50.103 -20.519  1.00  0.00     0.126 C 
HETATM   22  C28 UNL     1      -4.396  50.886 -20.313  1.00  0.00     0.074 C 
HETATM   23  C29 UNL     1      -3.307  50.320 -21.143  1.00  0.00     0.104 A 
HETATM   24  O6  UNL     1      -2.150  51.177 -21.196  1.00  0.00    -0.362 OA
ENDROOT
BRANCH   1  25
HETATM   25  C6  UNL     1      -3.293  52.056 -23.195  1.00  0.00     0.022 C 
HETATM   26  C7  UNL     1      -4.540  52.636 -22.522  1.00  0.00     0.013 C 
BRANCH  25  27
HETATM   27  C5  UNL     1      -3.554  51.693 -24.679  1.00  0.00     0.041 C 
BRANCH  27  28
HETATM   28  C4  UNL     1      -2.726  52.506 -25.684  1.00  0.00     0.151 C 
BRANCH  28  29
HETATM   29  C3  UNL     1      -2.144  51.687 -26.872  1.00  0.00     0.194 C 
BRANCH  29  30
HETATM   30  O2  UNL     1      -2.291  50.270 -26.628  1.00  0.00    -0.311 OA
BRANCH  30  31
HETATM   31  C2  UNL     1      -3.188  49.605 -27.403  1.00  0.00     0.255 C 
HETATM   32  C1  UNL     1      -3.773  48.453 -26.641  1.00  0.00     0.126 C 
HETATM   33  O1  UNL     1      -3.509  49.906 -28.544  1.00  0.00    -0.266 OA
ENDBRANCH  30  31
ENDBRANCH  29  30
BRANCH  29  34
HETATM   34  C30 UNL     1      -0.657  51.981 -27.268  1.00  0.00     0.080 C 
HETATM   35  C31 UNL     1       0.272  51.121 -26.393  1.00  0.00     0.048 C 
HETATM   36  C32 UNL     1      -0.240  53.449 -27.091  1.00  0.00     0.048 C 
BRANCH  34  37
HETATM   37  O7  UNL     1      -0.425  51.604 -28.636  1.00  0.00    -0.388 OA
HETATM   38  H52 UNL     1       0.518  51.761 -28.830  1.00  0.00     0.210 HD
ENDBRANCH  34  37
ENDBRANCH  29  34
ENDBRANCH  28  29
BRANCH  28  39
HETATM   39  O3  UNL     1      -1.688  53.200 -24.983  1.00  0.00    -0.393 OA
HETATM   40  H6  UNL     1      -0.995  52.528 -24.795  1.00  0.00     0.210 HD
ENDBRANCH  28  39
ENDBRANCH  27  28
ENDBRANCH  25  27
ENDBRANCH   1  25
BRANCH  21  41
HETATM   41  O5  UNL     1      -6.232  50.446 -21.788  1.00  0.00    -0.395 OA
HETATM   42  H43 UNL     1      -6.278  51.417 -21.846  1.00  0.00     0.210 HD
ENDBRANCH  21  41
TORSDOF 10
ENDMDL
MODEL 6
REMARK minimizedAffinity -7.19123936
REMARK CNNscore 0.369544148
REMARK CNNaffinity 6.31198883
REMARK  10 active torsions:
REMARK  status: ('A' for Active; 'I' for Inactive)
REMARK    1  A    between atoms: C2_2  and  O2_4 
REMARK    2  A    between atoms: O2_4  and  C3_5 
REMARK    3  A    between atoms: C3_5  and  C4_6 
REMARK    4  A    between atoms: C3_5  and  C30_36 
REMARK    5  A    between atoms: C4_6  and  O3_7 
REMARK    6  A    between atoms: C4_6  and  C5_8 
REMARK    7  A    between atoms: C5_8  and  C6_9 
REMARK    8  A    between atoms: C6_9  and  C8_11 
REMARK    9  A    between atoms: C27_31  and  O5_32 
REMARK   10  A    between atoms: C30_36  and  O7_39 
ROOT
HETATM    1  C8  UNL     1      -8.534  46.871 -27.580  1.00  0.00     0.097 A 
HETATM    2  C9  UNL     1     -10.031  46.933 -27.674  1.00  0.00     0.042 C 
HETATM    3  C10 UNL     1     -10.319  47.612 -29.029  1.00  0.00     0.016 C 
HETATM    4  C11 UNL     1      -9.079  47.342 -29.953  1.00  0.00    -0.002 C 
HETATM    5  C12 UNL     1      -8.773  48.645 -30.741  1.00  0.00     0.019 C 
HETATM    6  C13 UNL     1      -9.244  46.073 -30.934  1.00  0.00    -0.027 C 
HETATM    7  C14 UNL     1     -10.175  46.545 -32.091  1.00  0.00     0.016 C 
HETATM    8  C15 UNL     1      -9.935  44.867 -30.245  1.00  0.00     0.011 C 
HETATM    9  C16 UNL     1     -10.048  43.608 -31.113  1.00  0.00     0.007 C 
HETATM   10  C17 UNL     1      -8.704  43.110 -31.674  1.00  0.00     0.009 C 
HETATM   11  C18 UNL     1      -8.812  41.760 -32.475  1.00  0.00     0.017 C 
HETATM   12  C19 UNL     1      -8.721  40.576 -31.484  1.00  0.00     0.023 C 
HETATM   13  C20 UNL     1     -10.142  41.616 -33.248  1.00  0.00     0.023 C 
HETATM   14  C21 UNL     1      -7.676  41.544 -33.489  1.00  0.00     0.135 C 
HETATM   15  O4  UNL     1      -7.749  40.654 -34.347  1.00  0.00    -0.297 OA
HETATM   16  C22 UNL     1      -6.408  42.364 -33.417  1.00  0.00     0.080 C 
HETATM   17  C23 UNL     1      -6.470  43.645 -32.601  1.00  0.00     0.017 C 
HETATM   18  C24 UNL     1      -7.891  44.237 -32.384  1.00  0.00    -0.032 C 
HETATM   19  C25 UNL     1      -8.455  44.591 -33.787  1.00  0.00     0.016 C 
HETATM   20  C26 UNL     1      -7.824  45.575 -31.481  1.00  0.00     0.032 C 
HETATM   21  C27 UNL     1      -6.740  45.483 -30.343  1.00  0.00     0.126 C 
HETATM   22  C28 UNL     1      -6.631  46.726 -29.470  1.00  0.00     0.074 C 
HETATM   23  C29 UNL     1      -7.964  47.116 -28.954  1.00  0.00     0.104 A 
HETATM   24  O6  UNL     1      -7.885  48.111 -27.914  1.00  0.00    -0.362 OA
ENDROOT
BRANCH   1  25
HETATM   25  C6  UNL     1      -7.842  46.122 -26.460  1.00  0.00     0.022 C 
HETATM   26  C7  UNL     1      -8.419  44.715 -26.282  1.00  0.00     0.013 C 
BRANCH  25  27
HETATM   27  C5  UNL     1      -7.915  46.946 -25.149  1.00  0.00     0.041 C 
BRANCH  27  28
HETATM   28  C4  UNL     1      -7.167  48.285 -25.201  1.00  0.00     0.151 C 
BRANCH  28  29
HETATM   29  C3  UNL     1      -5.950  48.397 -24.237  1.00  0.00     0.194 C 
BRANCH  29  30
HETATM   30  O2  UNL     1      -6.294  49.194 -23.081  1.00  0.00    -0.311 OA
BRANCH  30  31
HETATM   31  C2  UNL     1      -6.460  48.530 -21.906  1.00  0.00     0.255 C 
HETATM   32  C1  UNL     1      -7.905  48.549 -21.504  1.00  0.00     0.126 C 
HETATM   33  O1  UNL     1      -5.580  47.966 -21.273  1.00  0.00    -0.266 OA
ENDBRANCH  30  31
ENDBRANCH  29  30
BRANCH  29  34
HETATM   34  C30 UNL     1      -4.614  48.941 -24.849  1.00  0.00     0.080 C 
HETATM   35  C31 UNL     1      -4.442  48.363 -26.264  1.00  0.00     0.048 C 
HETATM   36  C32 UNL     1      -3.361  48.576 -24.038  1.00  0.00     0.048 C 
BRANCH  34  37
HETATM   37  O7  UNL     1      -4.674  50.371 -24.976  1.00  0.00    -0.388 OA
HETATM   38  H52 UNL     1      -3.845  50.666 -25.399  1.00  0.00     0.210 HD
ENDBRANCH  34  37
ENDBRANCH  29  34
ENDBRANCH  28  29
BRANCH  28  39
HETATM   39  O3  UNL     1      -8.096  49.350 -24.977  1.00  0.00    -0.393 OA
HETATM   40  H6  UNL     1      -8.264  49.362 -24.009  1.00  0.00     0.210 HD
ENDBRANCH  28  39
ENDBRANCH  27  28
ENDBRANCH  25  27
ENDBRANCH   1  25
BRANCH  21  41
HETATM   41  O5  UNL     1      -6.945  44.352 -29.504  1.00  0.00    -0.395 OA
HETATM   42  H43 UNL     1      -6.260  44.359 -28.811  1.00  0.00     0.210 HD
ENDBRANCH  21  41
TORSDOF 10
ENDMDL
MODEL 7
REMARK minimizedAffinity -9.18996429
REMARK CNNscore 0.360607117
REMARK CNNaffinity 7.05475855
REMARK  10 active torsions:
REMARK  status: ('A' for Active; 'I' for Inactive)
REMARK    1  A    between atoms: C2_2  and  O2_4 
REMARK    2  A    between atoms: O2_4  and  C3_5 
REMARK    3  A    between atoms: C3_5  and  C4_6 
REMARK    4  A    between atoms: C3_5  and  C30_36 
REMARK    5  A    between atoms: C4_6  and  O3_7 
REMARK    6  A    between atoms: C4_6  and  C5_8 
REMARK    7  A    between atoms: C5_8  and  C6_9 
REMARK    8  A    between atoms: C6_9  and  C8_11 
REMARK    9  A    between atoms: C27_31  and  O5_32 
REMARK   10  A    between atoms: C30_36  and  O7_39 
ROOT
HETATM    1  C8  UNL     1      -2.527  51.031 -22.497  1.00  0.00     0.097 A 
HETATM    2  C9  UNL     1      -1.829  49.828 -23.064  1.00  0.00     0.042 C 
HETATM    3  C10 UNL     1      -1.556  48.915 -21.850  1.00  0.00     0.016 C 
HETATM    4  C11 UNL     1      -2.632  49.263 -20.760  1.00  0.00    -0.002 C 
HETATM    5  C12 UNL     1      -1.928  49.272 -19.376  1.00  0.00     0.019 C 
HETATM    6  C13 UNL     1      -3.925  48.301 -20.771  1.00  0.00    -0.027 C 
HETATM    7  C14 UNL     1      -3.473  46.970 -20.095  1.00  0.00     0.016 C 
HETATM    8  C15 UNL     1      -4.404  47.953 -22.204  1.00  0.00     0.011 C 
HETATM    9  C16 UNL     1      -5.676  47.100 -22.269  1.00  0.00     0.007 C 
HETATM   10  C17 UNL     1      -6.876  47.705 -21.517  1.00  0.00     0.009 C 
HETATM   11  C18 UNL     1      -8.206  46.879 -21.675  1.00  0.00     0.017 C 
HETATM   12  C19 UNL     1      -8.925  47.324 -22.971  1.00  0.00     0.023 C 
HETATM   13  C20 UNL     1      -7.968  45.355 -21.776  1.00  0.00     0.023 C 
HETATM   14  C21 UNL     1      -9.217  47.102 -20.538  1.00  0.00     0.135 C 
HETATM   15  O4  UNL     1     -10.197  46.357 -20.403  1.00  0.00    -0.297 OA
HETATM   16  C22 UNL     1      -9.083  48.283 -19.603  1.00  0.00     0.080 C 
HETATM   17  C23 UNL     1      -7.729  48.973 -19.567  1.00  0.00     0.017 C 
HETATM   18  C24 UNL     1      -6.524  48.119 -20.054  1.00  0.00    -0.032 C 
HETATM   19  C25 UNL     1      -6.414  46.901 -19.095  1.00  0.00     0.016 C 
HETATM   20  C26 UNL     1      -5.154  48.972 -19.994  1.00  0.00     0.032 C 
HETATM   21  C27 UNL     1      -5.363  50.481 -20.392  1.00  0.00     0.126 C 
HETATM   22  C28 UNL     1      -4.100  51.330 -20.341  1.00  0.00     0.074 C 
HETATM   23  C29 UNL     1      -3.010  50.687 -21.112  1.00  0.00     0.104 A 
HETATM   24  O6  UNL     1      -1.889  51.566 -21.324  1.00  0.00    -0.362 OA
ENDROOT
BRANCH   1  25
HETATM   25  C6  UNL     1      -3.114  52.100 -23.395  1.00  0.00     0.022 C 
HETATM   26  C7  UNL     1      -4.382  51.611 -24.099  1.00  0.00     0.013 C 
BRANCH  25  27
HETATM   27  C5  UNL     1      -2.044  52.588 -24.405  1.00  0.00     0.041 C 
BRANCH  27  28
HETATM   28  C4  UNL     1      -2.255  52.088 -25.841  1.00  0.00     0.151 C 
BRANCH  28  29
HETATM   29  C3  UNL     1      -0.954  51.694 -26.598  1.00  0.00     0.194 C 
BRANCH  29  30
HETATM   30  O2  UNL     1       0.015  51.137 -25.681  1.00  0.00    -0.311 OA
BRANCH  30  31
HETATM   31  C2  UNL     1       1.007  51.967 -25.259  1.00  0.00     0.255 C 
HETATM   32  C1  UNL     1       0.650  52.559 -23.928  1.00  0.00     0.126 C 
HETATM   33  O1  UNL     1       2.056  52.184 -25.847  1.00  0.00    -0.266 OA
ENDBRANCH  30  31
ENDBRANCH  29  30
BRANCH  29  34
HETATM   34  C30 UNL     1      -0.264  52.817 -27.444  1.00  0.00     0.080 C 
HETATM   35  C31 UNL     1       0.999  52.238 -28.106  1.00  0.00     0.048 C 
HETATM   36  C32 UNL     1       0.159  54.047 -26.626  1.00  0.00     0.048 C 
BRANCH  34  37
HETATM   37  O7  UNL     1      -1.138  53.251 -28.500  1.00  0.00    -0.388 OA
HETATM   38  H52 UNL     1      -0.658  53.916 -29.028  1.00  0.00     0.210 HD
ENDBRANCH  34  37
ENDBRANCH  29  34
ENDBRANCH  28  29
BRANCH  28  39
HETATM   39  O3  UNL     1      -2.997  53.068 -26.575  1.00  0.00    -0.393 OA
HETATM   40  H6  UNL     1      -2.354  53.776 -26.804  1.00  0.00     0.210 HD
ENDBRANCH  28  39
ENDBRANCH  27  28
ENDBRANCH  25  27
ENDBRANCH   1  25
BRANCH  21  41
HETATM   41  O5  UNL     1      -5.952  50.614 -21.681  1.00  0.00    -0.395 OA
HETATM   42  H43 UNL     1      -6.038  51.564 -21.879  1.00  0.00     0.210 HD
ENDBRANCH  21  41
TORSDOF 10
ENDMDL
MODEL 8
REMARK minimizedAffinity -8.36324024
REMARK CNNscore 0.348886579
REMARK CNNaffinity 6.69511032
REMARK  10 active torsions:
REMARK  status: ('A' for Active; 'I' for Inactive)
REMARK    1  A    between atoms: C2_2  and  O2_4 
REMARK    2  A    between atoms: O2_4  and  C3_5 
REMARK    3  A    between atoms: C3_5  and  C4_6 
REMARK    4  A    between atoms: C3_5  and  C30_36 
REMARK    5  A    between atoms: C4_6  and  O3_7 
REMARK    6  A    between atoms: C4_6  and  C5_8 
REMARK    7  A    between atoms: C5_8  and  C6_9 
REMARK    8  A    between atoms: C6_9  and  C8_11 
REMARK    9  A    between atoms: C27_31  and  O5_32 
REMARK   10  A    between atoms: C30_36  and  O7_39 
ROOT
HETATM    1  C8  UNL     1      -3.200  50.362 -22.541  1.00  0.00     0.097 A 
HETATM    2  C9  UNL     1      -3.029  49.265 -23.553  1.00  0.00     0.042 C 
HETATM    3  C10 UNL     1      -2.422  48.086 -22.765  1.00  0.00     0.016 C 
HETATM    4  C11 UNL     1      -2.848  48.265 -21.264  1.00  0.00    -0.002 C 
HETATM    5  C12 UNL     1      -1.628  47.908 -20.372  1.00  0.00     0.019 C 
HETATM    6  C13 UNL     1      -4.163  47.433 -20.843  1.00  0.00    -0.027 C 
HETATM    7  C14 UNL     1      -3.700  45.954 -20.677  1.00  0.00     0.016 C 
HETATM    8  C15 UNL     1      -5.264  47.454 -21.936  1.00  0.00     0.011 C 
HETATM    9  C16 UNL     1      -6.565  46.740 -21.554  1.00  0.00     0.007 C 
HETATM   10  C17 UNL     1      -7.202  47.253 -20.250  1.00  0.00     0.009 C 
HETATM   11  C18 UNL     1      -8.591  46.590 -19.919  1.00  0.00     0.017 C 
HETATM   12  C19 UNL     1      -9.709  47.369 -20.652  1.00  0.00     0.023 C 
HETATM   13  C20 UNL     1      -8.683  45.114 -20.366  1.00  0.00     0.023 C 
HETATM   14  C21 UNL     1      -8.961  46.633 -18.427  1.00  0.00     0.135 C 
HETATM   15  O4  UNL     1      -9.899  45.955 -17.984  1.00  0.00    -0.297 OA
HETATM   16  C22 UNL     1      -8.239  47.559 -17.476  1.00  0.00     0.080 C 
HETATM   17  C23 UNL     1      -6.905  48.116 -17.947  1.00  0.00     0.017 C 
HETATM   18  C24 UNL     1      -6.192  47.300 -19.062  1.00  0.00    -0.032 C 
HETATM   19  C25 UNL     1      -5.890  45.895 -18.474  1.00  0.00     0.016 C 
HETATM   20  C26 UNL     1      -4.805  48.008 -19.494  1.00  0.00     0.032 C 
HETATM   21  C27 UNL     1      -4.905  49.580 -19.498  1.00  0.00     0.126 C 
HETATM   22  C28 UNL     1      -3.617  50.294 -19.888  1.00  0.00     0.074 C 
HETATM   23  C29 UNL     1      -3.092  49.756 -21.165  1.00  0.00     0.104 A 
HETATM   24  O6  UNL     1      -2.039  50.570 -21.717  1.00  0.00    -0.362 OA
ENDROOT
BRANCH   1  25
HETATM   25  C6  UNL     1      -3.924  51.648 -22.883  1.00  0.00     0.022 C 
HETATM   26  C7  UNL     1      -5.254  51.375 -23.589  1.00  0.00     0.013 C 
BRANCH  25  27
HETATM   27  C5  UNL     1      -3.001  52.566 -23.725  1.00  0.00     0.041 C 
BRANCH  27  28
HETATM   28  C4  UNL     1      -2.419  51.899 -24.979  1.00  0.00     0.151 C 
BRANCH  28  29
HETATM   29  C3  UNL     1      -1.209  52.641 -25.617  1.00  0.00     0.194 C 
BRANCH  29  30
HETATM   30  O2  UNL     1      -1.115  52.333 -27.027  1.00  0.00    -0.311 OA
BRANCH  30  31
HETATM   31  C2  UNL     1      -1.021  53.388 -27.880  1.00  0.00     0.255 C 
HETATM   32  C1  UNL     1       0.290  53.347 -28.607  1.00  0.00     0.126 C 
HETATM   33  O1  UNL     1      -1.882  54.236 -28.065  1.00  0.00    -0.266 OA
ENDBRANCH  30  31
ENDBRANCH  29  30
BRANCH  29  34
HETATM   34  C30 UNL     1       0.191  52.408 -24.954  1.00  0.00     0.080 C 
HETATM   35  C31 UNL     1       0.902  51.255 -25.682  1.00  0.00     0.048 C 
HETATM   36  C32 UNL     1       0.124  52.049 -23.461  1.00  0.00     0.048 C 
BRANCH  34  37
HETATM   37  O7  UNL     1       1.011  53.579 -25.105  1.00  0.00    -0.388 OA
HETATM   38  H52 UNL     1       1.885  53.380 -24.719  1.00  0.00     0.210 HD
ENDBRANCH  34  37
ENDBRANCH  29  34
ENDBRANCH  28  29
BRANCH  28  39
HETATM   39  O3  UNL     1      -3.465  51.708 -25.937  1.00  0.00    -0.393 OA
HETATM   40  H6  UNL     1      -3.618  52.588 -26.348  1.00  0.00     0.210 HD
ENDBRANCH  28  39
ENDBRANCH  27  28
ENDBRANCH  25  27
ENDBRANCH   1  25
BRANCH  21  41
HETATM   41  O5  UNL     1      -5.958  50.044 -20.335  1.00  0.00    -0.395 OA
HETATM   42  H43 UNL     1      -5.957  51.017 -20.313  1.00  0.00     0.210 HD
ENDBRANCH  21  41
TORSDOF 10
ENDMDL
MODEL 9
REMARK minimizedAffinity -7.11003733
REMARK CNNscore 0.347780168
REMARK CNNaffinity 5.70479202
REMARK  10 active torsions:
REMARK  status: ('A' for Active; 'I' for Inactive)
REMARK    1  A    between atoms: C2_2  and  O2_4 
REMARK    2  A    between atoms: O2_4  and  C3_5 
REMARK    3  A    between atoms: C3_5  and  C4_6 
REMARK    4  A    between atoms: C3_5  and  C30_36 
REMARK    5  A    between atoms: C4_6  and  O3_7 
REMARK    6  A    between atoms: C4_6  and  C5_8 
REMARK    7  A    between atoms: C5_8  and  C6_9 
REMARK    8  A    between atoms: C6_9  and  C8_11 
REMARK    9  A    between atoms: C27_31  and  O5_32 
REMARK   10  A    between atoms: C30_36  and  O7_39 
ROOT
HETATM    1  C8  UNL     1     -12.005  45.733 -27.493  1.00  0.00     0.097 A 
HETATM    2  C9  UNL     1     -12.638  45.713 -28.855  1.00  0.00     0.042 C 
HETATM    3  C10 UNL     1     -13.161  44.272 -29.033  1.00  0.00     0.016 C 
HETATM    4  C11 UNL     1     -13.411  43.692 -27.595  1.00  0.00    -0.002 C 
HETATM    5  C12 UNL     1     -12.921  42.218 -27.579  1.00  0.00     0.019 C 
HETATM    6  C13 UNL     1     -14.933  43.824 -27.081  1.00  0.00    -0.027 C 
HETATM    7  C14 UNL     1     -15.733  42.708 -27.819  1.00  0.00     0.016 C 
HETATM    8  C15 UNL     1     -15.580  45.183 -27.457  1.00  0.00     0.011 C 
HETATM    9  C16 UNL     1     -17.003  45.389 -26.927  1.00  0.00     0.007 C 
HETATM   10  C17 UNL     1     -17.133  45.224 -25.401  1.00  0.00     0.009 C 
HETATM   11  C18 UNL     1     -18.573  45.540 -24.850  1.00  0.00     0.017 C 
HETATM   12  C19 UNL     1     -18.693  47.060 -24.593  1.00  0.00     0.023 C 
HETATM   13  C20 UNL     1     -19.701  45.144 -25.830  1.00  0.00     0.023 C 
HETATM   14  C21 UNL     1     -18.887  44.863 -23.505  1.00  0.00     0.135 C 
HETATM   15  O4  UNL     1     -20.045  44.827 -23.066  1.00  0.00    -0.297 OA
HETATM   16  C22 UNL     1     -17.781  44.290 -22.649  1.00  0.00     0.080 C 
HETATM   17  C23 UNL     1     -16.447  44.042 -23.335  1.00  0.00     0.017 C 
HETATM   18  C24 UNL     1     -16.503  43.894 -24.882  1.00  0.00    -0.032 C 
HETATM   19  C25 UNL     1     -17.383  42.652 -25.188  1.00  0.00     0.016 C 
HETATM   20  C26 UNL     1     -15.024  43.664 -25.490  1.00  0.00     0.032 C 
HETATM   21  C27 UNL     1     -13.924  44.503 -24.739  1.00  0.00     0.126 C 
HETATM   22  C28 UNL     1     -12.509  44.312 -25.270  1.00  0.00     0.074 C 
HETATM   23  C29 UNL     1     -12.474  44.515 -26.737  1.00  0.00     0.104 A 
HETATM   24  O6  UNL     1     -11.131  44.616 -27.250  1.00  0.00    -0.362 OA
ENDROOT
BRANCH   1  25
HETATM   25  C6  UNL     1     -11.510  47.021 -26.869  1.00  0.00     0.022 C 
HETATM   26  C7  UNL     1     -12.246  48.239 -27.434  1.00  0.00     0.013 C 
BRANCH  25  27
HETATM   27  C5  UNL     1      -9.975  47.139 -27.046  1.00  0.00     0.041 C 
BRANCH  27  28
HETATM   28  C4  UNL     1      -9.524  48.373 -27.840  1.00  0.00     0.151 C 
BRANCH  28  29
HETATM   29  C3  UNL     1      -8.458  48.094 -28.939  1.00  0.00     0.194 C 
BRANCH  29  30
HETATM   30  O2  UNL     1      -8.956  47.127 -29.892  1.00  0.00    -0.311 OA
BRANCH  30  31
HETATM   31  C2  UNL     1      -9.542  47.620 -31.016  1.00  0.00     0.255 C 
HETATM   32  C1  UNL     1      -8.567  48.471 -31.773  1.00  0.00     0.126 C 
HETATM   33  O1  UNL     1     -10.683  47.387 -31.388  1.00  0.00    -0.266 OA
ENDBRANCH  30  31
ENDBRANCH  29  30
BRANCH  29  34
HETATM   34  C30 UNL     1      -7.042  47.639 -28.449  1.00  0.00     0.080 C 
HETATM   35  C31 UNL     1      -6.686  46.303 -29.124  1.00  0.00     0.048 C 
HETATM   36  C32 UNL     1      -6.941  47.437 -26.929  1.00  0.00     0.048 C 
BRANCH  34  37
HETATM   37  O7  UNL     1      -6.048  48.598 -28.848  1.00  0.00    -0.388 OA
HETATM   38  H52 UNL     1      -5.178  48.258 -28.563  1.00  0.00     0.210 HD
ENDBRANCH  34  37
ENDBRANCH  29  34
ENDBRANCH  28  29
BRANCH  28  39
HETATM   39  O3  UNL     1      -9.066  49.377 -26.927  1.00  0.00    -0.393 OA
HETATM   40  H6  UNL     1      -8.166  49.096 -26.648  1.00  0.00     0.210 HD
ENDBRANCH  28  39
ENDBRANCH  27  28
ENDBRANCH  25  27
ENDBRANCH   1  25
BRANCH  21  41
HETATM   41  O5  UNL     1     -14.226  45.894 -24.734  1.00  0.00    -0.395 OA
HETATM   42  H43 UNL     1     -13.505  46.361 -24.276  1.00  0.00     0.210 HD
ENDBRANCH  21  41
TORSDOF 10
ENDMDL
