MODEL 1
REMARK minimizedAffinity -6.32683849
REMARK CNNscore 0.729792714
REMARK CNNaffinity 6.755867
REMARK  6 active torsions:
REMARK  status: ('A' for Active; 'I' for Inactive)
REMARK    1  A    between atoms: C15_15  and  C17_17 
REMARK    2  A    between atoms: C17_17  and  O2_19 
REMARK    3  A    between atoms: C26_28  and  C27_29 
REMARK    4  A    between atoms: C27_29  and  O3_30 
REMARK    5  A    between atoms: C28_31  and  O4_32 
REMARK    6  A    between atoms: C30_34  and  O5_35 
ROOT
HETATM    1  C1  UNL     1      -1.140  18.053  14.591  1.00  0.00     0.016 C 
HETATM    2  C2  UNL     1      -1.244  16.521  14.749  1.00  0.00     0.055 C 
HETATM    3  C3  UNL     1      -0.017  15.855  15.448  1.00  0.00     0.002 C 
HETATM    4  C4  UNL     1       0.492  16.667  16.655  1.00  0.00     0.013 C 
HETATM    5  C5  UNL     1       1.627  16.020  17.445  1.00  0.00     0.007 C 
HETATM    6  C6  UNL     1       1.265  14.601  17.937  1.00  0.00     0.003 C 
HETATM    7  C7  UNL     1       0.953  13.647  16.710  1.00  0.00    -0.027 C 
HETATM    8  C8  UNL     1       2.210  13.461  15.803  1.00  0.00     0.016 C 
HETATM    9  C9  UNL     1       0.661  12.200  17.230  1.00  0.00     0.011 C 
HETATM   10  C10 UNL     1       1.617  11.677  18.321  1.00  0.00     0.011 C 
HETATM   11  C11 UNL     1       1.715  12.611  19.566  1.00  0.00    -0.032 C 
HETATM   12  C12 UNL     1       0.276  12.644  20.179  1.00  0.00     0.016 C 
HETATM   13  C13 UNL     1       2.739  12.031  20.645  1.00  0.00     0.004 C 
HETATM   14  C14 UNL     1       2.298  10.628  21.166  1.00  0.00     0.026 C 
HETATM   15  C15 UNL     1       3.136  10.032  22.322  1.00  0.00     0.042 C 
HETATM   16  C16 UNL     1       4.493   9.519  21.805  1.00  0.00     0.026 C 
HETATM   17  C18 UNL     1       3.337  11.070  23.453  1.00  0.00     0.021 C 
HETATM   18  C19 UNL     1       2.660  12.414  23.177  1.00  0.00     0.011 C 
HETATM   19  C20 UNL     1       3.077  13.037  21.817  1.00  0.00    -0.040 C 
HETATM   20  C21 UNL     1       4.603  13.328  21.907  1.00  0.00     0.015 C 
HETATM   21  C22 UNL     1       2.371  14.410  21.693  1.00  0.00     0.010 C 
HETATM   22  C23 UNL     1       2.221  15.015  20.293  1.00  0.00     0.011 C 
HETATM   23  C24 UNL     1       2.219  14.033  19.078  1.00  0.00    -0.032 C 
HETATM   24  C25 UNL     1       3.681  14.000  18.547  1.00  0.00     0.016 C 
HETATM   25  C26 UNL     1      -0.336  14.318  15.869  1.00  0.00     0.025 C 
HETATM   26  C28 UNL     1      -0.691  13.519  14.563  1.00  0.00     0.135 C 
HETATM   27  C29 UNL     1      -1.592  14.282  13.585  1.00  0.00     0.101 C 
HETATM   28  C30 UNL     1      -1.203  15.755  13.419  1.00  0.00     0.168 C 
HETATM   29  O6  UNL     1       0.178  15.811  13.039  1.00  0.00    -0.354 OA
HETATM   30  C31 UNL     1       0.958  15.962  14.244  1.00  0.00     0.182 C 
ENDROOT
BRANCH  15  31
HETATM   31  C17 UNL     1       2.427   8.797  22.895  1.00  0.00     0.148 C 
HETATM   32  O1  UNL     1       1.907   7.891  22.261  1.00  0.00    -0.649 OA
BRANCH  31  33
HETATM   33  O2  UNL     1       2.331   8.798  24.241  1.00  0.00    -0.776 OA
HETATM   34  H26 UNL     1       1.825   7.982  24.443  1.00  0.00     0.167 HD
ENDBRANCH  31  33
ENDBRANCH  15  31
BRANCH  25  35
HETATM   35  C27 UNL     1      -1.609  14.278  16.827  1.00  0.00     0.177 C 
BRANCH  35  36
HETATM   36  O3  UNL     1      -2.431  13.123  16.696  1.00  0.00    -0.400 OA
HETATM   37  H43 UNL     1      -3.041  13.121  17.458  1.00  0.00     0.209 HD
ENDBRANCH  35  36
ENDBRANCH  25  35
BRANCH  26  38
HETATM   38  O4  UNL     1      -1.264  12.251  14.881  1.00  0.00    -0.394 OA
HETATM   39  H45 UNL     1      -1.640  11.881  14.058  1.00  0.00     0.210 HD
ENDBRANCH  26  38
BRANCH  28  40
HETATM   40  O5  UNL     1      -2.010  16.284  12.384  1.00  0.00    -0.365 OA
HETATM   41  H48 UNL     1      -2.329  17.164  12.646  1.00  0.00     0.213 HD
ENDBRANCH  28  40
TORSDOF 6
ENDMDL
MODEL 2
REMARK minimizedAffinity -6.18729115
REMARK CNNscore 0.629216611
REMARK CNNaffinity 6.55737305
REMARK  6 active torsions:
REMARK  status: ('A' for Active; 'I' for Inactive)
REMARK    1  A    between atoms: C15_15  and  C17_17 
REMARK    2  A    between atoms: C17_17  and  O2_19 
REMARK    3  A    between atoms: C26_28  and  C27_29 
REMARK    4  A    between atoms: C27_29  and  O3_30 
REMARK    5  A    between atoms: C28_31  and  O4_32 
REMARK    6  A    between atoms: C30_34  and  O5_35 
ROOT
HETATM    1  C1  UNL     1      -6.366  -8.345   7.664  1.00  0.00     0.016 C 
HETATM    2  C2  UNL     1      -5.211  -9.239   7.166  1.00  0.00     0.055 C 
HETATM    3  C3  UNL     1      -5.586 -10.191   5.987  1.00  0.00     0.002 C 
HETATM    4  C4  UNL     1      -6.467  -9.502   4.926  1.00  0.00     0.013 C 
HETATM    5  C5  UNL     1      -6.787 -10.347   3.695  1.00  0.00     0.007 C 
HETATM    6  C6  UNL     1      -5.513 -10.872   2.998  1.00  0.00     0.003 C 
HETATM    7  C7  UNL     1      -4.674 -11.788   3.981  1.00  0.00    -0.027 C 
HETATM    8  C8  UNL     1      -5.475 -13.064   4.391  1.00  0.00     0.016 C 
HETATM    9  C9  UNL     1      -3.428 -12.365   3.229  1.00  0.00     0.011 C 
HETATM   10  C10 UNL     1      -3.695 -12.897   1.806  1.00  0.00     0.011 C 
HETATM   11  C11 UNL     1      -4.368 -11.852   0.865  1.00  0.00    -0.032 C 
HETATM   12  C12 UNL     1      -3.341 -10.676   0.743  1.00  0.00     0.016 C 
HETATM   13  C13 UNL     1      -4.643 -12.468  -0.582  1.00  0.00     0.004 C 
HETATM   14  C14 UNL     1      -3.323 -12.921  -1.278  1.00  0.00     0.026 C 
HETATM   15  C15 UNL     1      -3.452 -13.401  -2.744  1.00  0.00     0.042 C 
HETATM   16  C16 UNL     1      -4.079 -14.806  -2.806  1.00  0.00     0.026 C 
HETATM   17  C18 UNL     1      -4.275 -12.396  -3.585  1.00  0.00     0.021 C 
HETATM   18  C19 UNL     1      -4.749 -11.176  -2.791  1.00  0.00     0.011 C 
HETATM   19  C20 UNL     1      -5.540 -11.556  -1.510  1.00  0.00    -0.040 C 
HETATM   20  C21 UNL     1      -6.826 -12.294  -1.980  1.00  0.00     0.015 C 
HETATM   21  C22 UNL     1      -6.006 -10.239  -0.840  1.00  0.00     0.010 C 
HETATM   22  C23 UNL     1      -6.384 -10.285   0.645  1.00  0.00     0.011 C 
HETATM   23  C24 UNL     1      -5.745 -11.412   1.518  1.00  0.00    -0.032 C 
HETATM   24  C25 UNL     1      -6.784 -12.569   1.557  1.00  0.00     0.016 C 
HETATM   25  C26 UNL     1      -4.263 -10.849   5.312  1.00  0.00     0.025 C 
HETATM   26  C28 UNL     1      -3.505 -11.666   6.420  1.00  0.00     0.135 C 
HETATM   27  C29 UNL     1      -3.442 -10.965   7.783  1.00  0.00     0.101 C 
HETATM   28  C30 UNL     1      -4.759 -10.294   8.187  1.00  0.00     0.168 C 
HETATM   29  O6  UNL     1      -5.796 -11.282   8.133  1.00  0.00    -0.354 OA
HETATM   30  C31 UNL     1      -6.406 -11.207   6.828  1.00  0.00     0.182 C 
ENDROOT
BRANCH  15  31
HETATM   31  C17 UNL     1      -2.057 -13.551  -3.367  1.00  0.00     0.148 C 
HETATM   32  O1  UNL     1      -1.776 -14.140  -4.399  1.00  0.00    -0.649 OA
BRANCH  31  33
HETATM   33  O2  UNL     1      -1.066 -13.023  -2.619  1.00  0.00    -0.776 OA
HETATM   34  H26 UNL     1      -0.251 -13.235  -3.123  1.00  0.00     0.167 HD
ENDBRANCH  31  33
ENDBRANCH  15  31
BRANCH  25  35
HETATM   35  C27 UNL     1      -3.289  -9.695   4.804  1.00  0.00     0.177 C 
BRANCH  35  36
HETATM   36  O3  UNL     1      -3.759  -8.952   3.685  1.00  0.00    -0.400 OA
HETATM   37  H43 UNL     1      -3.186  -8.166   3.605  1.00  0.00     0.209 HD
ENDBRANCH  35  36
ENDBRANCH  25  35
BRANCH  26  38
HETATM   38  O4  UNL     1      -2.194 -12.024   5.984  1.00  0.00    -0.394 OA
HETATM   39  H45 UNL     1      -1.703 -12.352   6.762  1.00  0.00     0.210 HD
ENDBRANCH  26  38
BRANCH  28  40
HETATM   40  O5  UNL     1      -4.600  -9.832   9.514  1.00  0.00    -0.365 OA
HETATM   41  H48 UNL     1      -4.979  -8.940   9.589  1.00  0.00     0.213 HD
ENDBRANCH  28  40
TORSDOF 6
ENDMDL
MODEL 3
REMARK minimizedAffinity -6.48776245
REMARK CNNscore 0.562737525
REMARK CNNaffinity 6.73569918
REMARK  6 active torsions:
REMARK  status: ('A' for Active; 'I' for Inactive)
REMARK    1  A    between atoms: C15_15  and  C17_17 
REMARK    2  A    between atoms: C17_17  and  O2_19 
REMARK    3  A    between atoms: C26_28  and  C27_29 
REMARK    4  A    between atoms: C27_29  and  O3_30 
REMARK    5  A    between atoms: C28_31  and  O4_32 
REMARK    6  A    between atoms: C30_34  and  O5_35 
ROOT
HETATM    1  C1  UNL     1      -3.592   2.216  12.144  1.00  0.00     0.016 C 
HETATM    2  C2  UNL     1      -2.261   2.992  12.254  1.00  0.00     0.055 C 
HETATM    3  C3  UNL     1      -2.417   4.544  12.312  1.00  0.00     0.002 C 
HETATM    4  C4  UNL     1      -3.583   4.990  13.216  1.00  0.00     0.013 C 
HETATM    5  C5  UNL     1      -3.728   6.499  13.398  1.00  0.00     0.007 C 
HETATM    6  C6  UNL     1      -2.432   7.153  13.925  1.00  0.00     0.003 C 
HETATM    7  C7  UNL     1      -1.236   6.923  12.910  1.00  0.00    -0.027 C 
HETATM    8  C8  UNL     1      -1.516   7.611  11.537  1.00  0.00     0.016 C 
HETATM    9  C9  UNL     1       0.045   7.655  13.431  1.00  0.00     0.011 C 
HETATM   10  C10 UNL     1      -0.175   9.084  13.967  1.00  0.00     0.011 C 
HETATM   11  C11 UNL     1      -1.253   9.171  15.090  1.00  0.00    -0.032 C 
HETATM   12  C12 UNL     1      -0.699   8.306  16.271  1.00  0.00     0.016 C 
HETATM   13  C13 UNL     1      -1.455  10.676  15.584  1.00  0.00     0.004 C 
HETATM   14  C14 UNL     1      -0.140  11.273  16.172  1.00  0.00     0.026 C 
HETATM   15  C15 UNL     1      -0.253  12.677  16.815  1.00  0.00     0.042 C 
HETATM   16  C16 UNL     1      -0.375  13.765  15.732  1.00  0.00     0.026 C 
HETATM   17  C18 UNL     1      -1.448  12.742  17.796  1.00  0.00     0.021 C 
HETATM   18  C19 UNL     1      -2.217  11.425  17.912  1.00  0.00     0.011 C 
HETATM   19  C20 UNL     1      -2.698  10.879  16.540  1.00  0.00    -0.040 C 
HETATM   20  C21 UNL     1      -3.703  11.920  15.971  1.00  0.00     0.015 C 
HETATM   21  C22 UNL     1      -3.505   9.584  16.807  1.00  0.00     0.010 C 
HETATM   22  C23 UNL     1      -3.689   8.601  15.645  1.00  0.00     0.011 C 
HETATM   23  C24 UNL     1      -2.622   8.624  14.505  1.00  0.00    -0.032 C 
HETATM   24  C25 UNL     1      -3.203   9.538  13.389  1.00  0.00     0.016 C 
HETATM   25  C26 UNL     1      -1.028   5.264  12.752  1.00  0.00     0.025 C 
HETATM   26  C28 UNL     1       0.071   4.889  11.692  1.00  0.00     0.135 C 
HETATM   27  C29 UNL     1       0.038   3.422  11.245  1.00  0.00     0.101 C 
HETATM   28  C30 UNL     1      -1.378   2.890  11.002  1.00  0.00     0.168 C 
HETATM   29  O6  UNL     1      -2.024   3.757  10.061  1.00  0.00    -0.354 OA
HETATM   30  C31 UNL     1      -2.756   4.749  10.810  1.00  0.00     0.182 C 
ENDROOT
BRANCH  15  31
HETATM   31  C17 UNL     1       1.039  13.005  17.576  1.00  0.00     0.148 C 
HETATM   32  O1  UNL     1       1.901  13.806  17.245  1.00  0.00    -0.649 OA
BRANCH  31  33
HETATM   33  O2  UNL     1       1.230  12.252  18.680  1.00  0.00    -0.776 OA
HETATM   34  H26 UNL     1       2.100  12.548  19.021  1.00  0.00     0.167 HD
ENDBRANCH  31  33
ENDBRANCH  15  31
BRANCH  25  35
HETATM   35  C27 UNL     1      -0.555   4.700  14.165  1.00  0.00     0.177 C 
BRANCH  35  36
HETATM   36  O3  UNL     1      -1.187   5.290  15.296  1.00  0.00    -0.400 OA
HETATM   37  H43 UNL     1      -0.971   4.731  16.066  1.00  0.00     0.209 HD
ENDBRANCH  35  36
ENDBRANCH  25  35
BRANCH  26  38
HETATM   38  O4  UNL     1       1.373   5.235  12.163  1.00  0.00    -0.394 OA
HETATM   39  H45 UNL     1       2.025   4.814  11.569  1.00  0.00     0.210 HD
ENDBRANCH  26  38
BRANCH  28  40
HETATM   40  O5  UNL     1      -1.246   1.593  10.451  1.00  0.00    -0.365 OA
HETATM   41  H48 UNL     1      -1.892   1.001  10.871  1.00  0.00     0.213 HD
ENDBRANCH  28  40
TORSDOF 6
ENDMDL
MODEL 4
REMARK minimizedAffinity -6.55005264
REMARK CNNscore 0.558414936
REMARK CNNaffinity 6.1068244
REMARK  6 active torsions:
REMARK  status: ('A' for Active; 'I' for Inactive)
REMARK    1  A    between atoms: C15_15  and  C17_17 
REMARK    2  A    between atoms: C17_17  and  O2_19 
REMARK    3  A    between atoms: C26_28  and  C27_29 
REMARK    4  A    between atoms: C27_29  and  O3_30 
REMARK    5  A    between atoms: C28_31  and  O4_32 
REMARK    6  A    between atoms: C30_34  and  O5_35 
ROOT
HETATM    1  C1  UNL     1       6.006  11.636  13.629  1.00  0.00     0.016 C 
HETATM    2  C2  UNL     1       6.877  10.875  14.653  1.00  0.00     0.055 C 
HETATM    3  C3  UNL     1       8.376  11.310  14.682  1.00  0.00     0.002 C 
HETATM    4  C4  UNL     1       8.553  12.839  14.587  1.00  0.00     0.013 C 
HETATM    5  C5  UNL     1       9.990  13.338  14.711  1.00  0.00     0.007 C 
HETATM    6  C6  UNL     1      10.669  12.854  16.011  1.00  0.00     0.003 C 
HETATM    7  C7  UNL     1      10.724  11.271  16.057  1.00  0.00    -0.027 C 
HETATM    8  C8  UNL     1      11.600  10.700  14.898  1.00  0.00     0.016 C 
HETATM    9  C9  UNL     1      11.480  10.808  17.348  1.00  0.00     0.011 C 
HETATM   10  C10 UNL     1      12.773  11.581  17.677  1.00  0.00     0.011 C 
HETATM   11  C11 UNL     1      12.569  13.123  17.782  1.00  0.00    -0.032 C 
HETATM   12  C12 UNL     1      11.577  13.336  18.974  1.00  0.00     0.016 C 
HETATM   13  C13 UNL     1      13.945  13.869  18.097  1.00  0.00     0.004 C 
HETATM   14  C14 UNL     1      14.560  13.402  19.452  1.00  0.00     0.026 C 
HETATM   15  C15 UNL     1      15.820  14.161  19.931  1.00  0.00     0.042 C 
HETATM   16  C16 UNL     1      17.056  13.738  19.115  1.00  0.00     0.026 C 
HETATM   17  C18 UNL     1      15.608  15.692  19.851  1.00  0.00     0.021 C 
HETATM   18  C19 UNL     1      14.222  16.092  19.340  1.00  0.00     0.011 C 
HETATM   19  C20 UNL     1      13.867  15.444  17.975  1.00  0.00    -0.040 C 
HETATM   20  C21 UNL     1      14.888  15.996  16.939  1.00  0.00     0.015 C 
HETATM   21  C22 UNL     1      12.475  15.975  17.550  1.00  0.00     0.010 C 
HETATM   22  C23 UNL     1      11.685  15.167  16.514  1.00  0.00     0.011 C 
HETATM   23  C24 UNL     1      11.998  13.642  16.396  1.00  0.00    -0.032 C 
HETATM   24  C25 UNL     1      13.025  13.501  15.236  1.00  0.00     0.016 C 
HETATM   25  C26 UNL     1       9.142  10.713  15.984  1.00  0.00     0.025 C 
HETATM   26  C28 UNL     1       9.054   9.144  15.924  1.00  0.00     0.135 C 
HETATM   27  C29 UNL     1       7.686   8.608  15.486  1.00  0.00     0.101 C 
HETATM   28  C30 UNL     1       7.068   9.389  14.321  1.00  0.00     0.168 C 
HETATM   29  O6  UNL     1       8.014   9.402  13.244  1.00  0.00    -0.354 OA
HETATM   30  C31 UNL     1       8.793  10.610  13.359  1.00  0.00     0.182 C 
ENDROOT
BRANCH  15  31
HETATM   31  C17 UNL     1      16.140  13.775  21.382  1.00  0.00     0.148 C 
HETATM   32  O1  UNL     1      16.386  12.655  21.804  1.00  0.00    -0.649 OA
BRANCH  31  33
HETATM   33  O2  UNL     1      16.055  14.803  22.252  1.00  0.00    -0.776 OA
HETATM   34  H26 UNL     1      16.241  14.391  23.123  1.00  0.00     0.167 HD
ENDBRANCH  31  33
ENDBRANCH  15  31
BRANCH  25  35
HETATM   35  C27 UNL     1       8.400  11.192  17.310  1.00  0.00     0.177 C 
BRANCH  35  36
HETATM   36  O3  UNL     1       8.240  10.193  18.311  1.00  0.00    -0.400 OA
HETATM   37  H43 UNL     1       7.967  10.651  19.128  1.00  0.00     0.209 HD
ENDBRANCH  35  36
ENDBRANCH  25  35
BRANCH  26  38
HETATM   38  O4  UNL     1       9.441   8.563  17.168  1.00  0.00    -0.394 OA
HETATM   39  H45 UNL     1       9.189   7.619  17.146  1.00  0.00     0.210 HD
ENDBRANCH  26  38
BRANCH  28  40
HETATM   40  O5  UNL     1       5.899   8.695  13.929  1.00  0.00    -0.365 OA
HETATM   41  H48 UNL     1       5.187   9.335  13.768  1.00  0.00     0.213 HD
ENDBRANCH  28  40
TORSDOF 6
ENDMDL
MODEL 5
REMARK minimizedAffinity -6.65303087
REMARK CNNscore 0.511823237
REMARK CNNaffinity 6.15132904
REMARK  6 active torsions:
REMARK  status: ('A' for Active; 'I' for Inactive)
REMARK    1  A    between atoms: C15_15  and  C17_17 
REMARK    2  A    between atoms: C17_17  and  O2_19 
REMARK    3  A    between atoms: C26_28  and  C27_29 
REMARK    4  A    between atoms: C27_29  and  O3_30 
REMARK    5  A    between atoms: C28_31  and  O4_32 
REMARK    6  A    between atoms: C30_34  and  O5_35 
ROOT
HETATM    1  C1  UNL     1       4.714   9.645  11.471  1.00  0.00     0.016 C 
HETATM    2  C2  UNL     1       5.272   9.310  12.872  1.00  0.00     0.055 C 
HETATM    3  C3  UNL     1       6.821   9.444  13.004  1.00  0.00     0.002 C 
HETATM    4  C4  UNL     1       7.371  10.698  12.295  1.00  0.00     0.013 C 
HETATM    5  C5  UNL     1       8.868  10.943  12.471  1.00  0.00     0.007 C 
HETATM    6  C6  UNL     1       9.280  11.010  13.959  1.00  0.00     0.003 C 
HETATM    7  C7  UNL     1       8.945   9.646  14.694  1.00  0.00    -0.027 C 
HETATM    8  C8  UNL     1       9.764   8.462  14.093  1.00  0.00     0.016 C 
HETATM    9  C9  UNL     1       9.437   9.714  16.178  1.00  0.00     0.011 C 
HETATM   10  C10 UNL     1      10.841  10.317  16.389  1.00  0.00     0.011 C 
HETATM   11  C11 UNL     1      11.008  11.740  15.775  1.00  0.00    -0.032 C 
HETATM   12  C12 UNL     1       9.987  12.649  16.538  1.00  0.00     0.016 C 
HETATM   13  C13 UNL     1      12.486  12.299  16.001  1.00  0.00     0.004 C 
HETATM   14  C14 UNL     1      12.835  12.416  17.516  1.00  0.00     0.026 C 
HETATM   15  C15 UNL     1      14.190  13.082  17.858  1.00  0.00     0.042 C 
HETATM   16  C16 UNL     1      15.359  12.124  17.566  1.00  0.00     0.026 C 
HETATM   17  C18 UNL     1      14.364  14.412  17.085  1.00  0.00     0.021 C 
HETATM   18  C19 UNL     1      13.172  14.760  16.190  1.00  0.00     0.011 C 
HETATM   19  C20 UNL     1      12.805  13.623  15.198  1.00  0.00    -0.040 C 
HETATM   20  C21 UNL     1      14.024  13.446  14.248  1.00  0.00     0.015 C 
HETATM   21  C22 UNL     1      11.631  14.126  14.321  1.00  0.00     0.010 C 
HETATM   22  C23 UNL     1      10.773  13.079  13.602  1.00  0.00     0.011 C 
HETATM   23  C24 UNL     1      10.717  11.645  14.219  1.00  0.00    -0.032 C 
HETATM   24  C25 UNL     1      11.786  10.807  13.461  1.00  0.00     0.016 C 
HETATM   25  C26 UNL     1       7.289   9.399  14.559  1.00  0.00     0.025 C 
HETATM   26  C28 UNL     1       6.830   8.023  15.166  1.00  0.00     0.135 C 
HETATM   27  C29 UNL     1       5.422   7.590  14.743  1.00  0.00     0.101 C 
HETATM   28  C30 UNL     1       5.128   7.832  13.259  1.00  0.00     0.168 C 
HETATM   29  O6  UNL     1       6.148   7.180  12.491  1.00  0.00    -0.354 OA
HETATM   30  C31 UNL     1       7.182   8.150  12.225  1.00  0.00     0.182 C 
ENDROOT
BRANCH  15  31
HETATM   31  C17 UNL     1      14.264  13.366  19.365  1.00  0.00     0.148 C 
HETATM   32  O1  UNL     1      13.932  12.614  20.269  1.00  0.00    -0.649 OA
BRANCH  31  33
HETATM   33  O2  UNL     1      14.676  14.615  19.666  1.00  0.00    -0.776 OA
HETATM   34  H26 UNL     1      14.629  14.650  20.645  1.00  0.00     0.167 HD
ENDBRANCH  31  33
ENDBRANCH  15  31
BRANCH  25  35
HETATM   35  C27 UNL     1       6.561  10.559  15.374  1.00  0.00     0.177 C 
BRANCH  35  36
HETATM   36  O3  UNL     1       5.653  10.118  16.377  1.00  0.00    -0.400 OA
HETATM   37  H43 UNL     1       5.438  10.896  16.926  1.00  0.00     0.209 HD
ENDBRANCH  35  36
ENDBRANCH  25  35
BRANCH  26  38
HETATM   38  O4  UNL     1       6.942   8.030  16.589  1.00  0.00    -0.394 OA
HETATM   39  H45 UNL     1       6.472   7.243  16.927  1.00  0.00     0.210 HD
ENDBRANCH  26  38
BRANCH  28  40
HETATM   40  O5  UNL     1       3.869   7.247  12.984  1.00  0.00    -0.365 OA
HETATM   41  H48 UNL     1       3.352   7.851  12.425  1.00  0.00     0.213 HD
ENDBRANCH  28  40
TORSDOF 6
ENDMDL
MODEL 6
REMARK minimizedAffinity -8.21733761
REMARK CNNscore 0.49985823
REMARK CNNaffinity 6.00750875
REMARK  6 active torsions:
REMARK  status: ('A' for Active; 'I' for Inactive)
REMARK    1  A    between atoms: C15_15  and  C17_17 
REMARK    2  A    between atoms: C17_17  and  O2_19 
REMARK    3  A    between atoms: C26_28  and  C27_29 
REMARK    4  A    between atoms: C27_29  and  O3_30 
REMARK    5  A    between atoms: C28_31  and  O4_32 
REMARK    6  A    between atoms: C30_34  and  O5_35 
ROOT
HETATM    1  C1  UNL     1      -2.090  10.687  18.766  1.00  0.00     0.016 C 
HETATM    2  C2  UNL     1      -0.802  10.818  17.924  1.00  0.00     0.055 C 
HETATM    3  C3  UNL     1       0.255  11.810  18.503  1.00  0.00     0.002 C 
HETATM    4  C4  UNL     1       0.408  11.688  20.032  1.00  0.00     0.013 C 
HETATM    5  C5  UNL     1       1.498  12.559  20.650  1.00  0.00     0.007 C 
HETATM    6  C6  UNL     1       2.880  12.313  20.006  1.00  0.00     0.003 C 
HETATM    7  C7  UNL     1       2.844  12.648  18.457  1.00  0.00    -0.027 C 
HETATM    8  C8  UNL     1       2.537  14.159  18.211  1.00  0.00     0.016 C 
HETATM    9  C9  UNL     1       4.271  12.461  17.844  1.00  0.00     0.011 C 
HETATM   10  C10 UNL     1       5.436  13.037  18.676  1.00  0.00     0.011 C 
HETATM   11  C11 UNL     1       5.481  12.504  20.140  1.00  0.00    -0.032 C 
HETATM   12  C12 UNL     1       5.710  10.961  20.018  1.00  0.00     0.016 C 
HETATM   13  C13 UNL     1       6.689  13.156  20.956  1.00  0.00     0.004 C 
HETATM   14  C14 UNL     1       8.069  12.825  20.311  1.00  0.00     0.026 C 
HETATM   15  C15 UNL     1       9.321  13.283  21.097  1.00  0.00     0.042 C 
HETATM   16  C16 UNL     1       9.520  14.805  20.969  1.00  0.00     0.026 C 
HETATM   17  C18 UNL     1       9.224  12.866  22.584  1.00  0.00     0.021 C 
HETATM   18  C19 UNL     1       7.944  12.099  22.923  1.00  0.00     0.011 C 
HETATM   19  C20 UNL     1       6.653  12.857  22.508  1.00  0.00    -0.040 C 
HETATM   20  C21 UNL     1       6.612  14.164  23.350  1.00  0.00     0.015 C 
HETATM   21  C22 UNL     1       5.442  12.002  22.957  1.00  0.00     0.010 C 
HETATM   22  C23 UNL     1       4.092  12.259  22.279  1.00  0.00     0.011 C 
HETATM   23  C24 UNL     1       4.111  12.878  20.845  1.00  0.00    -0.032 C 
HETATM   24  C25 UNL     1       3.934  14.411  21.035  1.00  0.00     0.016 C 
HETATM   25  C26 UNL     1       1.689  11.650  17.757  1.00  0.00     0.025 C 
HETATM   26  C28 UNL     1       1.479  11.946  16.228  1.00  0.00     0.135 C 
HETATM   27  C29 UNL     1       0.201  11.335  15.640  1.00  0.00     0.101 C 
HETATM   28  C30 UNL     1      -1.021  11.478  16.555  1.00  0.00     0.168 C 
HETATM   29  O6  UNL     1      -1.180  12.867  16.871  1.00  0.00    -0.354 OA
HETATM   30  C31 UNL     1      -0.489  13.116  18.112  1.00  0.00     0.182 C 
ENDROOT
BRANCH  15  31
HETATM   31  C17 UNL     1      10.580  12.657  20.482  1.00  0.00     0.148 C 
HETATM   32  O1  UNL     1      10.866  11.469  20.450  1.00  0.00    -0.649 OA
BRANCH  31  33
HETATM   33  O2  UNL     1      11.463  13.559  20.008  1.00  0.00    -0.776 OA
HETATM   34  H26 UNL     1      12.215  13.012  19.695  1.00  0.00     0.167 HD
ENDBRANCH  31  33
ENDBRANCH  15  31
BRANCH  25  35
HETATM   35  C27 UNL     1       2.203  10.148  17.897  1.00  0.00     0.177 C 
BRANCH  35  36
HETATM   36  O3  UNL     1       2.499   9.729  19.225  1.00  0.00    -0.400 OA
HETATM   37  H43 UNL     1       2.600   8.759  19.200  1.00  0.00     0.209 HD
ENDBRANCH  35  36
ENDBRANCH  25  35
BRANCH  26  38
HETATM   38  O4  UNL     1       2.617  11.542  15.468  1.00  0.00    -0.394 OA
HETATM   39  H45 UNL     1       2.366  11.564  14.524  1.00  0.00     0.210 HD
ENDBRANCH  26  38
BRANCH  28  40
HETATM   40  O5  UNL     1      -2.142  11.016  15.826  1.00  0.00    -0.365 OA
HETATM   41  H48 UNL     1      -2.696  10.467  16.405  1.00  0.00     0.213 HD
ENDBRANCH  28  40
TORSDOF 6
ENDMDL
MODEL 7
REMARK minimizedAffinity -8.27759933
REMARK CNNscore 0.46404627
REMARK CNNaffinity 5.97229767
REMARK  6 active torsions:
REMARK  status: ('A' for Active; 'I' for Inactive)
REMARK    1  A    between atoms: C15_15  and  C17_17 
REMARK    2  A    between atoms: C17_17  and  O2_19 
REMARK    3  A    between atoms: C26_28  and  C27_29 
REMARK    4  A    between atoms: C27_29  and  O3_30 
REMARK    5  A    between atoms: C28_31  and  O4_32 
REMARK    6  A    between atoms: C30_34  and  O5_35 
ROOT
HETATM    1  C1  UNL     1       2.516   7.224  11.977  1.00  0.00     0.016 C 
HETATM    2  C2  UNL     1       4.049   7.109  12.130  1.00  0.00     0.055 C 
HETATM    3  C3  UNL     1       4.747   8.398  12.665  1.00  0.00     0.002 C 
HETATM    4  C4  UNL     1       3.962   9.066  13.811  1.00  0.00     0.013 C 
HETATM    5  C5  UNL     1       4.641  10.276  14.449  1.00  0.00     0.007 C 
HETATM    6  C6  UNL     1       6.059   9.948  14.964  1.00  0.00     0.003 C 
HETATM    7  C7  UNL     1       6.990   9.469  13.774  1.00  0.00    -0.027 C 
HETATM    8  C8  UNL     1       7.188  10.601  12.718  1.00  0.00     0.016 C 
HETATM    9  C9  UNL     1       8.439   9.213  14.309  1.00  0.00     0.011 C 
HETATM   10  C10 UNL     1       8.995  10.284  15.269  1.00  0.00     0.011 C 
HETATM   11  C11 UNL     1       8.080  10.553  16.503  1.00  0.00    -0.032 C 
HETATM   12  C12 UNL     1       8.028   9.200  17.288  1.00  0.00     0.016 C 
HETATM   13  C13 UNL     1       8.694  11.688  17.443  1.00  0.00     0.004 C 
HETATM   14  C14 UNL     1      10.095  11.286  17.996  1.00  0.00     0.026 C 
HETATM   15  C15 UNL     1      10.723  12.246  19.035  1.00  0.00     0.042 C 
HETATM   16  C16 UNL     1      11.255  13.519  18.350  1.00  0.00     0.026 C 
HETATM   17  C18 UNL     1       9.706  12.604  20.144  1.00  0.00     0.021 C 
HETATM   18  C19 UNL     1       8.345  11.927  19.969  1.00  0.00     0.011 C 
HETATM   19  C20 UNL     1       7.711  12.188  18.575  1.00  0.00    -0.040 C 
HETATM   20  C21 UNL     1       7.450  13.718  18.482  1.00  0.00     0.015 C 
HETATM   21  C22 UNL     1       6.324  11.499  18.554  1.00  0.00     0.010 C 
HETATM   22  C23 UNL     1       5.696  11.192  17.190  1.00  0.00     0.011 C 
HETATM   23  C24 UNL     1       6.661  11.022  15.974  1.00  0.00    -0.032 C 
HETATM   24  C25 UNL     1       6.714  12.407  15.268  1.00  0.00     0.016 C 
HETATM   25  C26 UNL     1       6.283   8.101  13.105  1.00  0.00     0.025 C 
HETATM   26  C28 UNL     1       7.057   7.573  11.843  1.00  0.00     0.135 C 
HETATM   27  C29 UNL     1       6.264   6.576  10.991  1.00  0.00     0.101 C 
HETATM   28  C30 UNL     1       4.796   6.971  10.796  1.00  0.00     0.168 C 
HETATM   29  O6  UNL     1       4.761   8.297  10.251  1.00  0.00    -0.354 OA
HETATM   30  C31 UNL     1       4.641   9.220  11.352  1.00  0.00     0.182 C 
ENDROOT
BRANCH  15  31
HETATM   31  C17 UNL     1      11.952  11.587  19.676  1.00  0.00     0.148 C 
HETATM   32  O1  UNL     1      12.810  12.137  20.351  1.00  0.00    -0.649 OA
BRANCH  31  33
HETATM   33  O2  UNL     1      12.092  10.280  19.373  1.00  0.00    -0.776 OA
HETATM   34  H26 UNL     1      12.930  10.023  19.814  1.00  0.00     0.167 HD
ENDBRANCH  31  33
ENDBRANCH  15  31
BRANCH  25  35
HETATM   35  C27 UNL     1       6.313   6.954  14.210  1.00  0.00     0.177 C 
BRANCH  35  36
HETATM   36  O3  UNL     1       5.374   7.106  15.269  1.00  0.00    -0.400 OA
HETATM   37  H43 UNL     1       5.351   6.259  15.752  1.00  0.00     0.209 HD
ENDBRANCH  35  36
ENDBRANCH  25  35
BRANCH  26  38
HETATM   38  O4  UNL     1       8.319   7.017  12.213  1.00  0.00    -0.394 OA
HETATM   39  H45 UNL     1       8.670   6.536  11.438  1.00  0.00     0.210 HD
ENDBRANCH  26  38
BRANCH  28  40
HETATM   40  O5  UNL     1       4.238   6.055   9.873  1.00  0.00    -0.365 OA
HETATM   41  H48 UNL     1       3.356   5.788  10.183  1.00  0.00     0.213 HD
ENDBRANCH  28  40
TORSDOF 6
ENDMDL
MODEL 8
REMARK minimizedAffinity -6.85140896
REMARK CNNscore 0.461838037
REMARK CNNaffinity 6.09495592
REMARK  6 active torsions:
REMARK  status: ('A' for Active; 'I' for Inactive)
REMARK    1  A    between atoms: C15_15  and  C17_17 
REMARK    2  A    between atoms: C17_17  and  O2_19 
REMARK    3  A    between atoms: C26_28  and  C27_29 
REMARK    4  A    between atoms: C27_29  and  O3_30 
REMARK    5  A    between atoms: C28_31  and  O4_32 
REMARK    6  A    between atoms: C30_34  and  O5_35 
ROOT
HETATM    1  C1  UNL     1     -11.829  -7.653   1.203  1.00  0.00     0.016 C 
HETATM    2  C2  UNL     1     -12.374  -8.150   2.559  1.00  0.00     0.055 C 
HETATM    3  C3  UNL     1     -11.382  -9.039   3.372  1.00  0.00     0.002 C 
HETATM    4  C4  UNL     1      -9.937  -8.503   3.335  1.00  0.00     0.013 C 
HETATM    5  C5  UNL     1      -8.934  -9.270   4.193  1.00  0.00     0.007 C 
HETATM    6  C6  UNL     1      -9.376  -9.361   5.670  1.00  0.00     0.003 C 
HETATM    7  C7  UNL     1     -10.763 -10.118   5.793  1.00  0.00    -0.027 C 
HETATM    8  C8  UNL     1     -10.648 -11.596   5.305  1.00  0.00     0.016 C 
HETATM    9  C9  UNL     1     -11.152 -10.262   7.302  1.00  0.00     0.011 C 
HETATM   10  C10 UNL     1     -10.013 -10.694   8.247  1.00  0.00     0.011 C 
HETATM   11  C11 UNL     1      -8.757  -9.773   8.173  1.00  0.00    -0.032 C 
HETATM   12  C12 UNL     1      -9.244  -8.360   8.640  1.00  0.00     0.016 C 
HETATM   13  C13 UNL     1      -7.604 -10.286   9.152  1.00  0.00     0.004 C 
HETATM   14  C14 UNL     1      -8.070 -10.297  10.640  1.00  0.00     0.026 C 
HETATM   15  C15 UNL     1      -6.989 -10.638  11.694  1.00  0.00     0.042 C 
HETATM   16  C16 UNL     1      -6.673 -12.146  11.683  1.00  0.00     0.026 C 
HETATM   17  C18 UNL     1      -5.705  -9.807  11.460  1.00  0.00     0.021 C 
HETATM   18  C19 UNL     1      -5.805  -8.847  10.272  1.00  0.00     0.011 C 
HETATM   19  C20 UNL     1      -6.217  -9.554   8.952  1.00  0.00    -0.040 C 
HETATM   20  C21 UNL     1      -5.078 -10.556   8.607  1.00  0.00     0.015 C 
HETATM   21  C22 UNL     1      -6.223  -8.487   7.830  1.00  0.00     0.010 C 
HETATM   22  C23 UNL     1      -7.028  -8.786   6.560  1.00  0.00     0.011 C 
HETATM   23  C24 UNL     1      -8.221  -9.787   6.681  1.00  0.00    -0.032 C 
HETATM   24  C25 UNL     1      -7.664 -11.176   6.258  1.00  0.00     0.016 C 
HETATM   25  C26 UNL     1     -11.889  -9.247   4.902  1.00  0.00     0.025 C 
HETATM   26  C28 UNL     1     -13.297  -9.944   4.858  1.00  0.00     0.135 C 
HETATM   27  C29 UNL     1     -14.234  -9.397   3.774  1.00  0.00     0.101 C 
HETATM   28  C30 UNL     1     -13.536  -9.147   2.433  1.00  0.00     0.168 C 
HETATM   29  O6  UNL     1     -12.894 -10.364   2.031  1.00  0.00    -0.354 OA
HETATM   30  C31 UNL     1     -11.532 -10.319   2.505  1.00  0.00     0.182 C 
ENDROOT
BRANCH  15  31
HETATM   31  C17 UNL     1      -7.526 -10.346  13.102  1.00  0.00     0.148 C 
HETATM   32  O1  UNL     1      -8.353 -10.999  13.721  1.00  0.00    -0.649 OA
BRANCH  31  33
HETATM   33  O2  UNL     1      -7.059  -9.199  13.638  1.00  0.00    -0.776 OA
HETATM   34  H26 UNL     1      -7.520  -9.136  14.501  1.00  0.00     0.167 HD
ENDBRANCH  31  33
ENDBRANCH  15  31
BRANCH  25  35
HETATM   35  C27 UNL     1     -12.067  -7.829   5.606  1.00  0.00     0.177 C 
BRANCH  35  36
HETATM   36  O3  UNL     1     -13.385  -7.293   5.567  1.00  0.00    -0.400 OA
HETATM   37  H43 UNL     1     -13.406  -6.545   6.193  1.00  0.00     0.209 HD
ENDBRANCH  35  36
ENDBRANCH  25  35
BRANCH  26  38
HETATM   38  O4  UNL     1     -13.932  -9.893   6.135  1.00  0.00    -0.394 OA
HETATM   39  H45 UNL     1     -14.865 -10.157   6.013  1.00  0.00     0.210 HD
ENDBRANCH  26  38
BRANCH  28  40
HETATM   40  O5  UNL     1     -14.540  -8.800   1.499  1.00  0.00    -0.365 OA
HETATM   41  H48 UNL     1     -14.230  -8.054   0.959  1.00  0.00     0.213 HD
ENDBRANCH  28  40
TORSDOF 6
ENDMDL
MODEL 9
REMARK minimizedAffinity -6.14303637
REMARK CNNscore 0.439377666
REMARK CNNaffinity 6.09332085
REMARK  6 active torsions:
REMARK  status: ('A' for Active; 'I' for Inactive)
REMARK    1  A    between atoms: C15_15  and  C17_17 
REMARK    2  A    between atoms: C17_17  and  O2_19 
REMARK    3  A    between atoms: C26_28  and  C27_29 
REMARK    4  A    between atoms: C27_29  and  O3_30 
REMARK    5  A    between atoms: C28_31  and  O4_32 
REMARK    6  A    between atoms: C30_34  and  O5_35 
ROOT
HETATM    1  C1  UNL     1     -13.296 -10.257  13.415  1.00  0.00     0.016 C 
HETATM    2  C2  UNL     1     -13.074  -9.134  14.451  1.00  0.00     0.055 C 
HETATM    3  C3  UNL     1     -13.217  -7.687  13.883  1.00  0.00     0.002 C 
HETATM    4  C4  UNL     1     -14.409  -7.544  12.917  1.00  0.00     0.013 C 
HETATM    5  C5  UNL     1     -14.666  -6.129  12.403  1.00  0.00     0.007 C 
HETATM    6  C6  UNL     1     -14.851  -5.113  13.552  1.00  0.00     0.003 C 
HETATM    7  C7  UNL     1     -13.551  -5.048  14.456  1.00  0.00    -0.027 C 
HETATM    8  C8  UNL     1     -12.322  -4.532  13.645  1.00  0.00     0.016 C 
HETATM    9  C9  UNL     1     -13.737  -3.961  15.567  1.00  0.00     0.011 C 
HETATM   10  C10 UNL     1     -14.354  -2.627  15.099  1.00  0.00     0.011 C 
HETATM   11  C11 UNL     1     -15.723  -2.793  14.373  1.00  0.00    -0.032 C 
HETATM   12  C12 UNL     1     -16.691  -3.411  15.437  1.00  0.00     0.016 C 
HETATM   13  C13 UNL     1     -16.297  -1.383  13.890  1.00  0.00     0.004 C 
HETATM   14  C14 UNL     1     -16.535  -0.414  15.087  1.00  0.00     0.026 C 
HETATM   15  C15 UNL     1     -17.225   0.930  14.754  1.00  0.00     0.042 C 
HETATM   16  C16 UNL     1     -16.245   1.888  14.051  1.00  0.00     0.026 C 
HETATM   17  C18 UNL     1     -18.488   0.705  13.889  1.00  0.00     0.021 C 
HETATM   18  C19 UNL     1     -18.764  -0.769  13.581  1.00  0.00     0.011 C 
HETATM   19  C20 UNL     1     -17.552  -1.492  12.935  1.00  0.00    -0.040 C 
HETATM   20  C21 UNL     1     -17.299  -0.803  11.563  1.00  0.00     0.015 C 
HETATM   21  C22 UNL     1     -17.984  -2.947  12.625  1.00  0.00     0.010 C 
HETATM   22  C23 UNL     1     -16.884  -3.996  12.431  1.00  0.00     0.011 C 
HETATM   23  C24 UNL     1     -15.504  -3.729  13.112  1.00  0.00    -0.032 C 
HETATM   24  C25 UNL     1     -14.608  -3.069  12.026  1.00  0.00     0.016 C 
HETATM   25  C26 UNL     1     -13.295  -6.587  15.077  1.00  0.00     0.025 C 
HETATM   26  C28 UNL     1     -11.973  -6.689  15.921  1.00  0.00     0.135 C 
HETATM   27  C29 UNL     1     -11.508  -8.125  16.189  1.00  0.00     0.101 C 
HETATM   28  C30 UNL     1     -11.631  -9.044  14.969  1.00  0.00     0.168 C 
HETATM   29  O6  UNL     1     -10.919  -8.439  13.882  1.00  0.00    -0.354 OA
HETATM   30  C31 UNL     1     -11.864  -7.658  13.121  1.00  0.00     0.182 C 
ENDROOT
BRANCH  15  31
HETATM   31  C17 UNL     1     -17.629   1.644  16.052  1.00  0.00     0.148 C 
HETATM   32  O1  UNL     1     -18.494   1.295  16.841  1.00  0.00    -0.649 OA
BRANCH  31  33
HETATM   33  O2  UNL     1     -16.981   2.810  16.258  1.00  0.00    -0.776 OA
HETATM   34  H26 UNL     1     -17.375   3.155  17.088  1.00  0.00     0.167 HD
ENDBRANCH  31  33
ENDBRANCH  15  31
BRANCH  25  35
HETATM   35  C27 UNL     1     -14.517  -6.927  16.041  1.00  0.00     0.177 C 
BRANCH  35  36
HETATM   36  O3  UNL     1     -14.341  -6.548  17.401  1.00  0.00    -0.400 OA
HETATM   37  H43 UNL     1     -15.214  -6.619  17.831  1.00  0.00     0.209 HD
ENDBRANCH  35  36
ENDBRANCH  25  35
BRANCH  26  38
HETATM   38  O4  UNL     1     -12.094  -5.969  17.147  1.00  0.00    -0.394 OA
HETATM   39  H45 UNL     1     -11.337  -6.218  17.713  1.00  0.00     0.210 HD
ENDBRANCH  26  38
BRANCH  28  40
HETATM   40  O5  UNL     1     -11.028 -10.277  15.314  1.00  0.00    -0.365 OA
HETATM   41  H48 UNL     1     -11.585 -11.006  14.995  1.00  0.00     0.213 HD
ENDBRANCH  28  40
TORSDOF 6
ENDMDL
