MODEL 1
REMARK minimizedAffinity -7.25566673
REMARK CNNscore 0.701831758
REMARK CNNaffinity 6.91747808
REMARK  7 active torsions:
REMARK  status: ('A' for Active; 'I' for Inactive)
REMARK    1  A    between atoms: C2_2  and  C4_4 
REMARK    2  A    between atoms: C7_7  and  O1_9 
REMARK    3  A    between atoms: C9_10  and  C10_11 
REMARK    4  A    between atoms: C11_12  and  C12_13 
REMARK    5  A    between atoms: C14_15  and  C15_16 
REMARK    6  A    between atoms: C24_26  and  C26_28 
REMARK    7  A    between atoms: C29_32  and  O4_34 
ROOT
HETATM    1  C15 UNL     1      -0.843  52.223 -12.473  1.00  0.00     0.149 C 
HETATM    2  C16 UNL     1      -0.239  50.841 -12.195  1.00  0.00     0.054 C 
HETATM    3  C17 UNL     1       0.613  50.482 -13.450  1.00  0.00     0.050 C 
HETATM    4  C18 UNL     1      -0.203  51.289 -14.480  1.00  0.00     0.272 C 
HETATM    5  O2  UNL     1       0.343  51.472 -15.765  1.00  0.00    -0.360 OA
HETATM    6  C19 UNL     1       1.425  52.377 -15.840  1.00  0.00     0.171 C 
HETATM    7  C20 UNL     1       2.736  51.627 -15.772  1.00  0.00     0.027 C 
HETATM    8  C21 UNL     1       3.089  50.988 -14.433  1.00  0.00     0.012 C 
HETATM    9  C22 UNL     1       2.079  51.041 -13.255  1.00  0.00     0.032 C 
HETATM   10  C23 UNL     1       2.768  50.327 -12.063  1.00  0.00    -0.066 C 
HETATM   11  C24 UNL     1       3.358  50.997 -11.036  1.00  0.00    -0.021 C 
HETATM   12  C25 UNL     1       3.439  52.497 -10.903  1.00  0.00     0.052 C 
HETATM   13  C27 UNL     1       2.744  48.809 -12.210  1.00  0.00     0.038 C 
HETATM   14  C28 UNL     1       1.364  48.235 -12.530  1.00  0.00     0.042 C 
HETATM   15  C29 UNL     1       0.654  48.938 -13.708  1.00  0.00     0.067 C 
HETATM   16  C30 UNL     1      -0.716  48.263 -13.914  1.00  0.00     0.047 C 
HETATM   17  O5  UNL     1      -0.531  52.537 -13.839  1.00  0.00    -0.351 OA
ENDROOT
BRANCH   1  18
HETATM   18  C14 UNL     1      -0.276  53.302 -11.602  1.00  0.00     0.011 C 
HETATM   19  C12 UNL     1      -0.917  54.108 -10.725  1.00  0.00    -0.064 C 
HETATM   20  C13 UNL     1      -2.402  54.074 -10.471  1.00  0.00     0.048 C 
BRANCH  19  21
HETATM   21  C11 UNL     1      -0.108  55.050  -9.952  1.00  0.00     0.003 C 
HETATM   22  C10 UNL     1       1.062  54.793  -9.344  1.00  0.00    -0.018 C 
BRANCH  22  23
HETATM   23  C9  UNL     1       1.912  55.797  -8.588  1.00  0.00     0.050 C 
HETATM   24  C4  UNL     1       3.437  55.508  -8.486  1.00  0.00     0.024 C 
HETATM   25  C5  UNL     1       3.871  56.338  -7.271  1.00  0.00     0.013 C 
HETATM   26  C6  UNL     1       2.754  56.058  -6.272  1.00  0.00     0.039 C 
HETATM   27  C7  UNL     1       1.463  56.097  -7.116  1.00  0.00     0.062 C 
HETATM   28  C8  UNL     1       0.400  55.173  -6.519  1.00  0.00     0.046 C 
BRANCH  24  29
HETATM   29  C2  UNL     1       4.227  55.788  -9.755  1.00  0.00    -0.088 C 
HETATM   30  C1  UNL     1       5.515  55.409  -9.867  1.00  0.00     0.014 C 
HETATM   31  C3  UNL     1       3.540  56.508 -10.889  1.00  0.00     0.043 C 
ENDBRANCH  24  29
BRANCH  27  32
HETATM   32  O1  UNL     1       0.954  57.440  -7.061  1.00  0.00    -0.390 OA
HETATM   33  H14 UNL     1       0.131  57.465  -7.580  1.00  0.00     0.210 HD
ENDBRANCH  27  32
ENDBRANCH  22  23
ENDBRANCH  19  21
ENDBRANCH   1  18
BRANCH  15  34
HETATM   34  O4  UNL     1       1.397  48.666 -14.902  1.00  0.00    -0.389 OA
HETATM   35  H44 UNL     1       1.389  47.706 -15.063  1.00  0.00     0.210 HD
ENDBRANCH  15  34
BRANCH  11  36
HETATM   36  C26 UNL     1       4.007  50.309  -9.870  1.00  0.00     0.265 C 
HETATM   37  O3  UNL     1       5.219  50.336  -9.675  1.00  0.00    -0.302 OA
ENDBRANCH  11  36
TORSDOF 7
ENDMDL
MODEL 2
REMARK minimizedAffinity -9.00793362
REMARK CNNscore 0.676366389
REMARK CNNaffinity 7.50530386
REMARK  7 active torsions:
REMARK  status: ('A' for Active; 'I' for Inactive)
REMARK    1  A    between atoms: C2_2  and  C4_4 
REMARK    2  A    between atoms: C7_7  and  O1_9 
REMARK    3  A    between atoms: C9_10  and  C10_11 
REMARK    4  A    between atoms: C11_12  and  C12_13 
REMARK    5  A    between atoms: C14_15  and  C15_16 
REMARK    6  A    between atoms: C24_26  and  C26_28 
REMARK    7  A    between atoms: C29_32  and  O4_34 
ROOT
HETATM    1  C15 UNL     1      -3.074  47.949 -22.222  1.00  0.00     0.149 C 
HETATM    2  C16 UNL     1      -2.262  48.553 -23.374  1.00  0.00     0.054 C 
HETATM    3  C17 UNL     1      -3.188  49.615 -24.043  1.00  0.00     0.050 C 
HETATM    4  C18 UNL     1      -4.535  48.949 -23.697  1.00  0.00     0.272 C 
HETATM    5  O2  UNL     1      -5.714  49.692 -23.895  1.00  0.00    -0.360 OA
HETATM    6  C19 UNL     1      -5.935  50.735 -22.968  1.00  0.00     0.171 C 
HETATM    7  C20 UNL     1      -5.432  52.045 -23.529  1.00  0.00     0.027 C 
HETATM    8  C21 UNL     1      -3.920  52.197 -23.659  1.00  0.00     0.012 C 
HETATM    9  C22 UNL     1      -2.986  51.005 -23.318  1.00  0.00     0.032 C 
HETATM   10  C23 UNL     1      -1.538  51.515 -23.536  1.00  0.00    -0.066 C 
HETATM   11  C24 UNL     1      -0.723  51.900 -22.515  1.00  0.00    -0.021 C 
HETATM   12  C25 UNL     1      -1.095  51.897 -21.053  1.00  0.00     0.052 C 
HETATM   13  C27 UNL     1      -1.165  51.576 -25.013  1.00  0.00     0.038 C 
HETATM   14  C28 UNL     1      -1.466  50.292 -25.786  1.00  0.00     0.042 C 
HETATM   15  C29 UNL     1      -2.901  49.759 -25.576  1.00  0.00     0.067 C 
HETATM   16  C30 UNL     1      -3.060  48.470 -26.406  1.00  0.00     0.047 C 
HETATM   17  O5  UNL     1      -4.406  48.470 -22.344  1.00  0.00    -0.351 OA
ENDROOT
BRANCH   1  18
HETATM   18  C14 UNL     1      -2.546  48.321 -20.869  1.00  0.00     0.011 C 
HETATM   19  C12 UNL     1      -3.094  49.138 -19.941  1.00  0.00    -0.064 C 
HETATM   20  C13 UNL     1      -4.396  49.875 -20.123  1.00  0.00     0.048 C 
BRANCH  19  21
HETATM   21  C11 UNL     1      -2.391  49.286 -18.667  1.00  0.00     0.003 C 
HETATM   22  C10 UNL     1      -1.693  50.357 -18.255  1.00  0.00    -0.018 C 
BRANCH  22  23
HETATM   23  C9  UNL     1      -1.012  50.511 -16.908  1.00  0.00     0.050 C 
HETATM   24  C4  UNL     1       0.540  50.616 -16.900  1.00  0.00     0.024 C 
HETATM   25  C5  UNL     1       0.911  50.212 -15.468  1.00  0.00     0.013 C 
HETATM   26  C6  UNL     1       0.012  49.004 -15.228  1.00  0.00     0.039 C 
HETATM   27  C7  UNL     1      -1.343  49.404 -15.849  1.00  0.00     0.062 C 
HETATM   28  C8  UNL     1      -2.090  48.168 -16.355  1.00  0.00     0.046 C 
BRANCH  24  29
HETATM   29  C2  UNL     1       1.091  51.965 -17.337  1.00  0.00    -0.088 C 
HETATM   30  C1  UNL     1       0.613  52.585 -18.433  1.00  0.00     0.014 C 
HETATM   31  C3  UNL     1       2.192  52.593 -16.521  1.00  0.00     0.043 C 
ENDBRANCH  24  29
BRANCH  27  32
HETATM   32  O1  UNL     1      -2.135  49.995 -14.805  1.00  0.00    -0.390 OA
HETATM   33  H14 UNL     1      -2.997  50.234 -15.189  1.00  0.00     0.210 HD
ENDBRANCH  27  32
ENDBRANCH  22  23
ENDBRANCH  19  21
ENDBRANCH   1  18
BRANCH  15  34
HETATM   34  O4  UNL     1      -3.814  50.700 -26.153  1.00  0.00    -0.389 OA
HETATM   35  H44 UNL     1      -3.641  50.756 -27.109  1.00  0.00     0.210 HD
ENDBRANCH  15  34
BRANCH  11  36
HETATM   36  C26 UNL     1       0.686  52.374 -22.721  1.00  0.00     0.265 C 
HETATM   37  O3  UNL     1       1.137  53.372 -22.166  1.00  0.00    -0.302 OA
ENDBRANCH  11  36
TORSDOF 7
ENDMDL
MODEL 3
REMARK minimizedAffinity -7.22881603
REMARK CNNscore 0.584250331
REMARK CNNaffinity 6.68683386
REMARK  7 active torsions:
REMARK  status: ('A' for Active; 'I' for Inactive)
REMARK    1  A    between atoms: C2_2  and  C4_4 
REMARK    2  A    between atoms: C7_7  and  O1_9 
REMARK    3  A    between atoms: C9_10  and  C10_11 
REMARK    4  A    between atoms: C11_12  and  C12_13 
REMARK    5  A    between atoms: C14_15  and  C15_16 
REMARK    6  A    between atoms: C24_26  and  C26_28 
REMARK    7  A    between atoms: C29_32  and  O4_34 
ROOT
HETATM    1  C15 UNL     1      -0.480  52.549 -12.159  1.00  0.00     0.149 C 
HETATM    2  C16 UNL     1      -0.021  51.106 -11.916  1.00  0.00     0.054 C 
HETATM    3  C17 UNL     1       0.819  50.705 -13.166  1.00  0.00     0.050 C 
HETATM    4  C18 UNL     1       0.109  51.621 -14.184  1.00  0.00     0.272 C 
HETATM    5  O2  UNL     1       0.698  51.789 -15.451  1.00  0.00    -0.360 OA
HETATM    6  C19 UNL     1       1.866  52.585 -15.476  1.00  0.00     0.171 C 
HETATM    7  C20 UNL     1       3.095  51.707 -15.408  1.00  0.00     0.027 C 
HETATM    8  C21 UNL     1       3.353  50.994 -14.085  1.00  0.00     0.012 C 
HETATM    9  C22 UNL     1       2.328  51.109 -12.925  1.00  0.00     0.032 C 
HETATM   10  C23 UNL     1       2.917  50.293 -11.745  1.00  0.00    -0.066 C 
HETATM   11  C24 UNL     1       3.547  50.869 -10.685  1.00  0.00    -0.021 C 
HETATM   12  C25 UNL     1       3.772  52.349 -10.500  1.00  0.00     0.052 C 
HETATM   13  C27 UNL     1       2.747  48.791 -11.943  1.00  0.00     0.038 C 
HETATM   14  C28 UNL     1       1.325  48.366 -12.308  1.00  0.00     0.042 C 
HETATM   15  C29 UNL     1       0.713  49.174 -13.475  1.00  0.00     0.067 C 
HETATM   16  C30 UNL     1      -0.711  48.644 -13.730  1.00  0.00     0.047 C 
HETATM   17  O5  UNL     1      -0.109  52.874 -13.508  1.00  0.00    -0.351 OA
ENDROOT
BRANCH   1  18
HETATM   18  C14 UNL     1       0.171  53.539 -11.241  1.00  0.00     0.011 C 
HETATM   19  C12 UNL     1      -0.409  54.474 -10.454  1.00  0.00    -0.064 C 
HETATM   20  C13 UNL     1      -1.896  54.711 -10.373  1.00  0.00     0.048 C 
BRANCH  19  21
HETATM   21  C11 UNL     1       0.465  55.282  -9.604  1.00  0.00     0.003 C 
HETATM   22  C10 UNL     1       1.525  54.851  -8.902  1.00  0.00    -0.018 C 
BRANCH  22  23
HETATM   23  C9  UNL     1       2.451  55.715  -8.066  1.00  0.00     0.050 C 
HETATM   24  C4  UNL     1       1.824  56.946  -7.350  1.00  0.00     0.024 C 
HETATM   25  C5  UNL     1       3.035  57.853  -7.091  1.00  0.00     0.013 C 
HETATM   26  C6  UNL     1       3.791  57.771  -8.412  1.00  0.00     0.039 C 
HETATM   27  C7  UNL     1       3.708  56.283  -8.811  1.00  0.00     0.062 C 
HETATM   28  C8  UNL     1       3.733  56.130 -10.334  1.00  0.00     0.046 C 
BRANCH  24  29
HETATM   29  C2  UNL     1       1.006  56.617  -6.112  1.00  0.00    -0.088 C 
HETATM   30  C1  UNL     1       0.075  55.644  -6.136  1.00  0.00     0.014 C 
HETATM   31  C3  UNL     1       1.254  57.408  -4.852  1.00  0.00     0.043 C 
ENDBRANCH  24  29
BRANCH  27  32
HETATM   32  O1  UNL     1       4.879  55.632  -8.288  1.00  0.00    -0.390 OA
HETATM   33  H14 UNL     1       4.837  54.695  -8.552  1.00  0.00     0.210 HD
ENDBRANCH  27  32
ENDBRANCH  22  23
ENDBRANCH  19  21
ENDBRANCH   1  18
BRANCH  15  34
HETATM   34  O4  UNL     1       1.453  48.867 -14.664  1.00  0.00    -0.389 OA
HETATM   35  H44 UNL     1       1.354  47.918 -14.857  1.00  0.00     0.210 HD
ENDBRANCH  15  34
BRANCH  11  36
HETATM   36  C26 UNL     1       4.099  50.084  -9.531  1.00  0.00     0.265 C 
HETATM   37  O3  UNL     1       5.187  49.516  -9.575  1.00  0.00    -0.302 OA
ENDBRANCH  11  36
TORSDOF 7
ENDMDL
MODEL 4
REMARK minimizedAffinity -6.97528315
REMARK CNNscore 0.48734653
REMARK CNNaffinity 6.76557493
REMARK  7 active torsions:
REMARK  status: ('A' for Active; 'I' for Inactive)
REMARK    1  A    between atoms: C2_2  and  C4_4 
REMARK    2  A    between atoms: C7_7  and  O1_9 
REMARK    3  A    between atoms: C9_10  and  C10_11 
REMARK    4  A    between atoms: C11_12  and  C12_13 
REMARK    5  A    between atoms: C14_15  and  C15_16 
REMARK    6  A    between atoms: C24_26  and  C26_28 
REMARK    7  A    between atoms: C29_32  and  O4_34 
ROOT
HETATM    1  C15 UNL     1       1.307  55.514  -9.807  1.00  0.00     0.149 C 
HETATM    2  C16 UNL     1       2.710  55.891  -9.314  1.00  0.00     0.054 C 
HETATM    3  C17 UNL     1       2.735  55.557  -7.792  1.00  0.00     0.050 C 
HETATM    4  C18 UNL     1       1.232  55.764  -7.518  1.00  0.00     0.272 C 
HETATM    5  O2  UNL     1       0.715  55.330  -6.283  1.00  0.00    -0.360 OA
HETATM    6  C19 UNL     1       0.599  53.930  -6.133  1.00  0.00     0.171 C 
HETATM    7  C20 UNL     1       1.813  53.380  -5.421  1.00  0.00     0.027 C 
HETATM    8  C21 UNL     1       3.127  53.401  -6.195  1.00  0.00     0.012 C 
HETATM    9  C22 UNL     1       3.192  54.056  -7.601  1.00  0.00     0.032 C 
HETATM   10  C23 UNL     1       4.651  53.875  -8.094  1.00  0.00    -0.066 C 
HETATM   11  C24 UNL     1       5.021  52.915  -8.986  1.00  0.00    -0.021 C 
HETATM   12  C25 UNL     1       4.096  51.900  -9.611  1.00  0.00     0.052 C 
HETATM   13  C27 UNL     1       5.609  54.858  -7.430  1.00  0.00     0.038 C 
HETATM   14  C28 UNL     1       5.142  56.312  -7.476  1.00  0.00     0.042 C 
HETATM   15  C29 UNL     1       3.686  56.515  -6.999  1.00  0.00     0.067 C 
HETATM   16  C30 UNL     1       3.353  58.016  -7.100  1.00  0.00     0.047 C 
HETATM   17  O5  UNL     1       0.539  55.184  -8.639  1.00  0.00    -0.351 OA
ENDROOT
BRANCH   1  18
HETATM   18  C14 UNL     1       1.302  54.327 -10.723  1.00  0.00     0.011 C 
HETATM   19  C12 UNL     1       0.245  53.644 -11.219  1.00  0.00    -0.064 C 
HETATM   20  C13 UNL     1      -1.194  53.962 -10.904  1.00  0.00     0.048 C 
BRANCH  19  21
HETATM   21  C11 UNL     1       0.521  52.548 -12.147  1.00  0.00     0.003 C 
HETATM   22  C10 UNL     1       0.013  52.392 -13.381  1.00  0.00    -0.018 C 
BRANCH  22  23
HETATM   23  C9  UNL     1       0.351  51.273 -14.348  1.00  0.00     0.050 C 
HETATM   24  C4  UNL     1       1.169  51.650 -15.617  1.00  0.00     0.024 C 
HETATM   25  C5  UNL     1       0.863  50.500 -16.585  1.00  0.00     0.013 C 
HETATM   26  C6  UNL     1      -0.641  50.319 -16.409  1.00  0.00     0.039 C 
HETATM   27  C7  UNL     1      -0.869  50.451 -14.889  1.00  0.00     0.062 C 
HETATM   28  C8  UNL     1      -2.262  51.015 -14.600  1.00  0.00     0.046 C 
BRANCH  24  29
HETATM   29  C2  UNL     1       2.650  51.892 -15.373  1.00  0.00    -0.088 C 
HETATM   30  C1  UNL     1       3.295  51.277 -14.363  1.00  0.00     0.014 C 
HETATM   31  C3  UNL     1       3.386  52.844 -16.284  1.00  0.00     0.043 C 
ENDBRANCH  24  29
BRANCH  27  32
HETATM   32  O1  UNL     1      -0.810  49.128 -14.330  1.00  0.00    -0.390 OA
HETATM   33  H14 UNL     1      -0.969  49.206 -13.372  1.00  0.00     0.210 HD
ENDBRANCH  27  32
ENDBRANCH  22  23
ENDBRANCH  19  21
ENDBRANCH   1  18
BRANCH  15  34
HETATM   34  O4  UNL     1       3.629  56.206  -5.601  1.00  0.00    -0.389 OA
HETATM   35  H44 UNL     1       4.203  56.828  -5.120  1.00  0.00     0.210 HD
ENDBRANCH  15  34
BRANCH  11  36
HETATM   36  C26 UNL     1       6.428  52.751  -9.482  1.00  0.00     0.265 C 
HETATM   37  O3  UNL     1       7.014  51.672  -9.470  1.00  0.00    -0.302 OA
ENDBRANCH  11  36
TORSDOF 7
ENDMDL
MODEL 5
REMARK minimizedAffinity -7.28004169
REMARK CNNscore 0.444400489
REMARK CNNaffinity 6.71605062
REMARK  7 active torsions:
REMARK  status: ('A' for Active; 'I' for Inactive)
REMARK    1  A    between atoms: C2_2  and  C4_4 
REMARK    2  A    between atoms: C7_7  and  O1_9 
REMARK    3  A    between atoms: C9_10  and  C10_11 
REMARK    4  A    between atoms: C11_12  and  C12_13 
REMARK    5  A    between atoms: C14_15  and  C15_16 
REMARK    6  A    between atoms: C24_26  and  C26_28 
REMARK    7  A    between atoms: C29_32  and  O4_34 
ROOT
HETATM    1  C15 UNL     1      -1.755  52.589  -8.354  1.00  0.00     0.149 C 
HETATM    2  C16 UNL     1      -1.239  51.243  -8.877  1.00  0.00     0.054 C 
HETATM    3  C17 UNL     1      -1.969  50.999 -10.233  1.00  0.00     0.050 C 
HETATM    4  C18 UNL     1      -3.253  51.790  -9.911  1.00  0.00     0.272 C 
HETATM    5  O2  UNL     1      -4.146  52.065 -10.964  1.00  0.00    -0.360 OA
HETATM    6  C19 UNL     1      -3.713  53.046 -11.884  1.00  0.00     0.171 C 
HETATM    7  C20 UNL     1      -3.058  52.388 -13.077  1.00  0.00     0.027 C 
HETATM    8  C21 UNL     1      -1.710  51.719 -12.833  1.00  0.00     0.012 C 
HETATM    9  C22 UNL     1      -1.123  51.650 -11.398  1.00  0.00     0.032 C 
HETATM   10  C23 UNL     1       0.248  50.936 -11.525  1.00  0.00    -0.066 C 
HETATM   11  C24 UNL     1       1.436  51.602 -11.526  1.00  0.00    -0.021 C 
HETATM   12  C25 UNL     1       1.599  53.097 -11.414  1.00  0.00     0.052 C 
HETATM   13  C27 UNL     1       0.098  49.429 -11.695  1.00  0.00     0.038 C 
HETATM   14  C28 UNL     1      -0.820  48.772 -10.665  1.00  0.00     0.042 C 
HETATM   15  C29 UNL     1      -2.189  49.474 -10.513  1.00  0.00     0.067 C 
HETATM   16  C30 UNL     1      -3.002  48.713  -9.447  1.00  0.00     0.047 C 
HETATM   17  O5  UNL     1      -2.826  52.983  -9.226  1.00  0.00    -0.351 OA
ENDROOT
BRANCH   1  18
HETATM   18  C14 UNL     1      -0.714  53.668  -8.372  1.00  0.00     0.011 C 
HETATM   19  C12 UNL     1      -0.650  54.770  -9.153  1.00  0.00    -0.064 C 
HETATM   20  C13 UNL     1      -1.659  55.116 -10.217  1.00  0.00     0.048 C 
BRANCH  19  21
HETATM   21  C11 UNL     1       0.456  55.700  -8.924  1.00  0.00     0.003 C 
HETATM   22  C10 UNL     1       1.594  55.446  -8.256  1.00  0.00    -0.018 C 
BRANCH  22  23
HETATM   23  C9  UNL     1       2.752  56.409  -8.073  1.00  0.00     0.050 C 
HETATM   24  C4  UNL     1       4.190  55.825  -8.183  1.00  0.00     0.024 C 
HETATM   25  C5  UNL     1       5.045  56.856  -7.435  1.00  0.00     0.013 C 
HETATM   26  C6  UNL     1       4.199  57.144  -6.200  1.00  0.00     0.039 C 
HETATM   27  C7  UNL     1       2.753  57.223  -6.733  1.00  0.00     0.062 C 
HETATM   28  C8  UNL     1       1.757  56.782  -5.658  1.00  0.00     0.046 C 
BRANCH  24  29
HETATM   29  C2  UNL     1       4.653  55.532  -9.602  1.00  0.00    -0.088 C 
HETATM   30  C1  UNL     1       5.756  54.793  -9.831  1.00  0.00     0.014 C 
HETATM   31  C3  UNL     1       3.854  56.091 -10.752  1.00  0.00     0.043 C 
ENDBRANCH  24  29
BRANCH  27  32
HETATM   32  O1  UNL     1       2.483  58.602  -7.039  1.00  0.00    -0.390 OA
HETATM   33  H14 UNL     1       1.566  58.658  -7.361  1.00  0.00     0.210 HD
ENDBRANCH  27  32
ENDBRANCH  22  23
ENDBRANCH  19  21
ENDBRANCH   1  18
BRANCH  15  34
HETATM   34  O4  UNL     1      -2.913  49.306 -11.737  1.00  0.00    -0.389 OA
HETATM   35  H44 UNL     1      -3.066  48.356 -11.882  1.00  0.00     0.210 HD
ENDBRANCH  15  34
BRANCH  11  36
HETATM   36  C26 UNL     1       2.765  50.912 -11.628  1.00  0.00     0.265 C 
HETATM   37  O3  UNL     1       3.365  50.783 -12.691  1.00  0.00    -0.302 OA
ENDBRANCH  11  36
TORSDOF 7
ENDMDL
MODEL 6
REMARK minimizedAffinity -8.50372028
REMARK CNNscore 0.40772742
REMARK CNNaffinity 6.31849623
REMARK  7 active torsions:
REMARK  status: ('A' for Active; 'I' for Inactive)
REMARK    1  A    between atoms: C2_2  and  C4_4 
REMARK    2  A    between atoms: C7_7  and  O1_9 
REMARK    3  A    between atoms: C9_10  and  C10_11 
REMARK    4  A    between atoms: C11_12  and  C12_13 
REMARK    5  A    between atoms: C14_15  and  C15_16 
REMARK    6  A    between atoms: C24_26  and  C26_28 
REMARK    7  A    between atoms: C29_32  and  O4_34 
ROOT
HETATM    1  C15 UNL     1      -6.087  47.849 -29.204  1.00  0.00     0.149 C 
HETATM    2  C16 UNL     1      -7.501  48.203 -29.683  1.00  0.00     0.054 C 
HETATM    3  C17 UNL     1      -8.074  46.904 -30.327  1.00  0.00     0.050 C 
HETATM    4  C18 UNL     1      -6.731  46.299 -30.783  1.00  0.00     0.272 C 
HETATM    5  O2  UNL     1      -6.719  44.962 -31.221  1.00  0.00    -0.360 OA
HETATM    6  C19 UNL     1      -6.868  43.990 -30.206  1.00  0.00     0.171 C 
HETATM    7  C20 UNL     1      -8.317  43.573 -30.094  1.00  0.00     0.027 C 
HETATM    8  C21 UNL     1      -9.285  44.611 -29.536  1.00  0.00     0.012 C 
HETATM    9  C22 UNL     1      -8.787  46.044 -29.209  1.00  0.00     0.032 C 
HETATM   10  C23 UNL     1     -10.013  46.810 -28.647  1.00  0.00    -0.066 C 
HETATM   11  C24 UNL     1     -10.209  47.028 -27.318  1.00  0.00    -0.021 C 
HETATM   12  C25 UNL     1      -9.292  46.565 -26.212  1.00  0.00     0.052 C 
HETATM   13  C27 UNL     1     -10.978  47.238 -29.748  1.00  0.00     0.038 C 
HETATM   14  C28 UNL     1     -10.310  47.961 -30.917  1.00  0.00     0.042 C 
HETATM   15  C29 UNL     1      -9.079  47.221 -31.486  1.00  0.00     0.067 C 
HETATM   16  C30 UNL     1      -8.510  48.059 -32.648  1.00  0.00     0.047 C 
HETATM   17  O5  UNL     1      -5.803  46.534 -29.706  1.00  0.00    -0.351 OA
ENDROOT
BRANCH   1  18
HETATM   18  C14 UNL     1      -5.959  47.820 -27.711  1.00  0.00     0.011 C 
HETATM   19  C12 UNL     1      -4.927  48.234 -26.941  1.00  0.00    -0.064 C 
HETATM   20  C13 UNL     1      -3.644  48.812 -27.480  1.00  0.00     0.048 C 
BRANCH  19  21
HETATM   21  C11 UNL     1      -5.085  48.143 -25.489  1.00  0.00     0.003 C 
HETATM   22  C10 UNL     1      -4.251  48.636 -24.559  1.00  0.00    -0.018 C 
BRANCH  22  23
HETATM   23  C9  UNL     1      -4.458  48.576 -23.057  1.00  0.00     0.050 C 
HETATM   24  C4  UNL     1      -3.411  47.783 -22.223  1.00  0.00     0.024 C 
HETATM   25  C5  UNL     1      -4.169  47.458 -20.929  1.00  0.00     0.013 C 
HETATM   26  C6  UNL     1      -5.533  47.024 -21.451  1.00  0.00     0.039 C 
HETATM   27  C7  UNL     1      -5.847  48.024 -22.584  1.00  0.00     0.062 C 
HETATM   28  C8  UNL     1      -6.728  47.370 -23.651  1.00  0.00     0.046 C 
BRANCH  24  29
HETATM   29  C2  UNL     1      -2.085  48.498 -22.015  1.00  0.00    -0.088 C 
HETATM   30  C1  UNL     1      -1.835  49.679 -22.614  1.00  0.00     0.014 C 
HETATM   31  C3  UNL     1      -1.049  47.854 -21.129  1.00  0.00     0.043 C 
ENDBRANCH  24  29
BRANCH  27  32
HETATM   32  O1  UNL     1      -6.594  49.107 -22.005  1.00  0.00    -0.390 OA
HETATM   33  H14 UNL     1      -6.808  49.733 -22.721  1.00  0.00     0.210 HD
ENDBRANCH  27  32
ENDBRANCH  22  23
ENDBRANCH  19  21
ENDBRANCH   1  18
BRANCH  15  34
HETATM   34  O4  UNL     1      -9.530  45.999 -32.083  1.00  0.00    -0.389 OA
HETATM   35  H44 UNL     1     -10.131  46.214 -32.818  1.00  0.00     0.210 HD
ENDBRANCH  15  34
BRANCH  11  36
HETATM   36  C26 UNL     1     -11.383  47.787 -26.772  1.00  0.00     0.265 C 
HETATM   37  O3  UNL     1     -11.279  48.909 -26.284  1.00  0.00    -0.302 OA
ENDBRANCH  11  36
TORSDOF 7
ENDMDL
MODEL 7
REMARK minimizedAffinity -7.7546401
REMARK CNNscore 0.407276809
REMARK CNNaffinity 6.88728952
REMARK  7 active torsions:
REMARK  status: ('A' for Active; 'I' for Inactive)
REMARK    1  A    between atoms: C2_2  and  C4_4 
REMARK    2  A    between atoms: C7_7  and  O1_9 
REMARK    3  A    between atoms: C9_10  and  C10_11 
REMARK    4  A    between atoms: C11_12  and  C12_13 
REMARK    5  A    between atoms: C14_15  and  C15_16 
REMARK    6  A    between atoms: C24_26  and  C26_28 
REMARK    7  A    between atoms: C29_32  and  O4_34 
ROOT
HETATM    1  C15 UNL     1      -2.674  47.903 -21.712  1.00  0.00     0.149 C 
HETATM    2  C16 UNL     1      -2.023  48.566 -22.932  1.00  0.00     0.054 C 
HETATM    3  C17 UNL     1      -3.063  49.596 -23.468  1.00  0.00     0.050 C 
HETATM    4  C18 UNL     1      -4.333  48.862 -22.990  1.00  0.00     0.272 C 
HETATM    5  O2  UNL     1      -5.558  49.554 -23.038  1.00  0.00    -0.360 OA
HETATM    6  C19 UNL     1      -5.720  50.567 -22.067  1.00  0.00     0.171 C 
HETATM    7  C20 UNL     1      -5.340  51.910 -22.649  1.00  0.00     0.027 C 
HETATM    8  C21 UNL     1      -3.860  52.134 -22.942  1.00  0.00     0.012 C 
HETATM    9  C22 UNL     1      -2.843  50.979 -22.736  1.00  0.00     0.032 C 
HETATM   10  C23 UNL     1      -1.452  51.560 -23.101  1.00  0.00    -0.066 C 
HETATM   11  C24 UNL     1      -0.546  51.962 -22.168  1.00  0.00    -0.021 C 
HETATM   12  C25 UNL     1      -0.750  51.915 -20.674  1.00  0.00     0.052 C 
HETATM   13  C27 UNL     1      -1.250  51.666 -24.609  1.00  0.00     0.038 C 
HETATM   14  C28 UNL     1      -1.579  50.385 -25.375  1.00  0.00     0.042 C 
HETATM   15  C29 UNL     1      -2.956  49.783 -25.019  1.00  0.00     0.067 C 
HETATM   16  C30 UNL     1      -3.151  48.504 -25.857  1.00  0.00     0.047 C 
HETATM   17  O5  UNL     1      -4.033  48.364 -21.673  1.00  0.00    -0.351 OA
ENDROOT
BRANCH   1  18
HETATM   18  C14 UNL     1      -2.015  48.272 -20.417  1.00  0.00     0.011 C 
HETATM   19  C12 UNL     1      -2.500  49.026 -19.405  1.00  0.00    -0.064 C 
HETATM   20  C13 UNL     1      -3.857  49.682 -19.409  1.00  0.00     0.048 C 
BRANCH  19  21
HETATM   21  C11 UNL     1      -1.662  49.186 -18.216  1.00  0.00     0.003 C 
HETATM   22  C10 UNL     1      -1.801  50.114 -17.255  1.00  0.00    -0.018 C 
BRANCH  22  23
HETATM   23  C9  UNL     1      -0.952  50.232 -16.002  1.00  0.00     0.050 C 
HETATM   24  C4  UNL     1      -1.627  50.836 -14.737  1.00  0.00     0.024 C 
HETATM   25  C5  UNL     1      -0.433  51.311 -13.898  1.00  0.00     0.013 C 
HETATM   26  C6  UNL     1       0.455  51.976 -14.943  1.00  0.00     0.039 C 
HETATM   27  C7  UNL     1       0.387  51.032 -16.162  1.00  0.00     0.062 C 
HETATM   28  C8  UNL     1       0.568  51.818 -17.463  1.00  0.00     0.046 C 
BRANCH  24  29
HETATM   29  C2  UNL     1      -2.576  49.897 -14.010  1.00  0.00    -0.088 C 
HETATM   30  C1  UNL     1      -3.336  50.337 -12.988  1.00  0.00     0.014 C 
HETATM   31  C3  UNL     1      -2.644  48.457 -14.450  1.00  0.00     0.043 C 
ENDBRANCH  24  29
BRANCH  27  32
HETATM   32  O1  UNL     1       1.484  50.110 -16.054  1.00  0.00    -0.390 OA
HETATM   33  H14 UNL     1       1.452  49.522 -16.830  1.00  0.00     0.210 HD
ENDBRANCH  27  32
ENDBRANCH  22  23
ENDBRANCH  19  21
ENDBRANCH   1  18
BRANCH  15  34
HETATM   34  O4  UNL     1      -3.969  50.691 -25.468  1.00  0.00    -0.389 OA
HETATM   35  H44 UNL     1      -3.907  50.775 -26.436  1.00  0.00     0.210 HD
ENDBRANCH  15  34
BRANCH  11  36
HETATM   36  C26 UNL     1       0.810  52.505 -22.517  1.00  0.00     0.265 C 
HETATM   37  O3  UNL     1       1.022  53.702 -22.683  1.00  0.00    -0.302 OA
ENDBRANCH  11  36
TORSDOF 7
ENDMDL
MODEL 8
REMARK minimizedAffinity -7.61758947
REMARK CNNscore 0.347124726
REMARK CNNaffinity 5.62930679
REMARK  7 active torsions:
REMARK  status: ('A' for Active; 'I' for Inactive)
REMARK    1  A    between atoms: C2_2  and  C4_4 
REMARK    2  A    between atoms: C7_7  and  O1_9 
REMARK    3  A    between atoms: C9_10  and  C10_11 
REMARK    4  A    between atoms: C11_12  and  C12_13 
REMARK    5  A    between atoms: C14_15  and  C15_16 
REMARK    6  A    between atoms: C24_26  and  C26_28 
REMARK    7  A    between atoms: C29_32  and  O4_34 
ROOT
HETATM    1  C15 UNL     1       0.631  66.834 -39.406  1.00  0.00     0.149 C 
HETATM    2  C16 UNL     1       0.903  67.578 -40.719  1.00  0.00     0.054 C 
HETATM    3  C17 UNL     1       0.485  69.059 -40.469  1.00  0.00     0.050 C 
HETATM    4  C18 UNL     1      -0.598  68.783 -39.407  1.00  0.00     0.272 C 
HETATM    5  O2  UNL     1      -1.112  69.874 -38.682  1.00  0.00    -0.360 OA
HETATM    6  C19 UNL     1      -0.239  70.426 -37.718  1.00  0.00     0.171 C 
HETATM    7  C20 UNL     1       0.498  71.610 -38.301  1.00  0.00     0.027 C 
HETATM    8  C21 UNL     1       1.536  71.307 -39.376  1.00  0.00     0.012 C 
HETATM    9  C22 UNL     1       1.722  69.854 -39.891  1.00  0.00     0.032 C 
HETATM   10  C23 UNL     1       2.859  69.912 -40.944  1.00  0.00    -0.066 C 
HETATM   11  C24 UNL     1       4.140  69.535 -40.678  1.00  0.00    -0.021 C 
HETATM   12  C25 UNL     1       4.642  69.023 -39.350  1.00  0.00     0.052 C 
HETATM   13  C27 UNL     1       2.381  70.479 -42.276  1.00  0.00     0.038 C 
HETATM   14  C28 UNL     1       1.107  69.827 -42.812  1.00  0.00     0.042 C 
HETATM   15  C29 UNL     1      -0.036  69.748 -41.775  1.00  0.00     0.067 C 
HETATM   16  C30 UNL     1      -1.247  69.070 -42.447  1.00  0.00     0.047 C 
HETATM   17  O5  UNL     1      -0.063  67.755 -38.551  1.00  0.00    -0.351 OA
ENDROOT
BRANCH   1  18
HETATM   18  C14 UNL     1       1.882  66.396 -38.706  1.00  0.00     0.011 C 
HETATM   19  C12 UNL     1       2.399  66.839 -37.537  1.00  0.00    -0.064 C 
HETATM   20  C13 UNL     1       1.785  67.929 -36.697  1.00  0.00     0.048 C 
BRANCH  19  21
HETATM   21  C11 UNL     1       3.617  66.194 -37.046  1.00  0.00     0.003 C 
HETATM   22  C10 UNL     1       3.733  65.430 -35.947  1.00  0.00    -0.018 C 
BRANCH  22  23
HETATM   23  C9  UNL     1       4.994  64.727 -35.481  1.00  0.00     0.050 C 
HETATM   24  C4  UNL     1       5.378  64.870 -33.980  1.00  0.00     0.024 C 
HETATM   25  C5  UNL     1       6.879  64.553 -33.971  1.00  0.00     0.013 C 
HETATM   26  C6  UNL     1       7.381  65.326 -35.185  1.00  0.00     0.039 C 
HETATM   27  C7  UNL     1       6.303  65.091 -36.263  1.00  0.00     0.062 C 
HETATM   28  C8  UNL     1       6.226  66.284 -37.218  1.00  0.00     0.046 C 
BRANCH  24  29
HETATM   29  C2  UNL     1       4.549  64.023 -33.026  1.00  0.00    -0.088 C 
HETATM   30  C1  UNL     1       4.233  62.749 -33.329  1.00  0.00     0.014 C 
HETATM   31  C3  UNL     1       4.080  64.641 -31.733  1.00  0.00     0.043 C 
ENDBRANCH  24  29
BRANCH  27  32
HETATM   32  O1  UNL     1       6.708  63.944 -37.031  1.00  0.00    -0.390 OA
HETATM   33  H14 UNL     1       6.037  63.802 -37.723  1.00  0.00     0.210 HD
ENDBRANCH  27  32
ENDBRANCH  22  23
ENDBRANCH  19  21
ENDBRANCH   1  18
BRANCH  15  34
HETATM   34  O4  UNL     1      -0.462  71.084 -41.481  1.00  0.00    -0.389 OA
HETATM   35  H44 UNL     1      -0.809  71.488 -42.296  1.00  0.00     0.210 HD
ENDBRANCH  15  34
BRANCH  11  36
HETATM   36  C26 UNL     1       5.238  69.569 -41.701  1.00  0.00     0.265 C 
HETATM   37  O3  UNL     1       5.940  70.559 -41.886  1.00  0.00    -0.302 OA
ENDBRANCH  11  36
TORSDOF 7
ENDMDL
MODEL 9
REMARK minimizedAffinity -7.58627987
REMARK CNNscore 0.329302847
REMARK CNNaffinity 6.52576876
REMARK  7 active torsions:
REMARK  status: ('A' for Active; 'I' for Inactive)
REMARK    1  A    between atoms: C2_2  and  C4_4 
REMARK    2  A    between atoms: C7_7  and  O1_9 
REMARK    3  A    between atoms: C9_10  and  C10_11 
REMARK    4  A    between atoms: C11_12  and  C12_13 
REMARK    5  A    between atoms: C14_15  and  C15_16 
REMARK    6  A    between atoms: C24_26  and  C26_28 
REMARK    7  A    between atoms: C29_32  and  O4_34 
ROOT
HETATM    1  C15 UNL     1       1.012  51.429 -14.040  1.00  0.00     0.149 C 
HETATM    2  C16 UNL     1      -0.415  51.991 -14.029  1.00  0.00     0.054 C 
HETATM    3  C17 UNL     1      -1.311  50.879 -13.403  1.00  0.00     0.050 C 
HETATM    4  C18 UNL     1      -0.463  49.669 -13.844  1.00  0.00     0.272 C 
HETATM    5  O2  UNL     1      -0.758  48.412 -13.285  1.00  0.00    -0.360 OA
HETATM    6  C19 UNL     1      -0.381  48.246 -11.934  1.00  0.00     0.171 C 
HETATM    7  C20 UNL     1      -1.555  48.534 -11.026  1.00  0.00     0.027 C 
HETATM    8  C21 UNL     1      -2.011  49.987 -10.941  1.00  0.00     0.012 C 
HETATM    9  C22 UNL     1      -1.344  51.066 -11.834  1.00  0.00     0.032 C 
HETATM   10  C23 UNL     1      -2.028  52.410 -11.471  1.00  0.00    -0.066 C 
HETATM   11  C24 UNL     1      -1.458  53.337 -10.652  1.00  0.00    -0.021 C 
HETATM   12  C25 UNL     1      -0.113  53.203  -9.983  1.00  0.00     0.052 C 
HETATM   13  C27 UNL     1      -3.413  52.538 -12.095  1.00  0.00     0.038 C 
HETATM   14  C28 UNL     1      -3.452  52.237 -13.593  1.00  0.00     0.042 C 
HETATM   15  C29 UNL     1      -2.767  50.907 -13.980  1.00  0.00     0.067 C 
HETATM   16  C30 UNL     1      -2.879  50.736 -15.508  1.00  0.00     0.047 C 
HETATM   17  O5  UNL     1       0.911  50.052 -13.644  1.00  0.00    -0.351 OA
ENDROOT
BRANCH   1  18
HETATM   18  C14 UNL     1       1.929  52.127 -13.082  1.00  0.00     0.011 C 
HETATM   19  C12 UNL     1       2.536  51.634 -11.979  1.00  0.00    -0.064 C 
HETATM   20  C13 UNL     1       2.372  50.222 -11.478  1.00  0.00     0.048 C 
BRANCH  19  21
HETATM   21  C11 UNL     1       3.436  52.524 -11.245  1.00  0.00     0.003 C 
HETATM   22  C10 UNL     1       3.496  52.684  -9.912  1.00  0.00    -0.018 C 
BRANCH  22  23
HETATM   23  C9  UNL     1       4.472  53.576  -9.166  1.00  0.00     0.050 C 
HETATM   24  C4  UNL     1       4.978  54.851  -9.900  1.00  0.00     0.024 C 
HETATM   25  C5  UNL     1       6.280  55.186  -9.160  1.00  0.00     0.013 C 
HETATM   26  C6  UNL     1       6.934  53.817  -9.018  1.00  0.00     0.039 C 
HETATM   27  C7  UNL     1       5.772  52.872  -8.645  1.00  0.00     0.062 C 
HETATM   28  C8  UNL     1       6.042  51.456  -9.158  1.00  0.00     0.046 C 
BRANCH  24  29
HETATM   29  C2  UNL     1       3.975  55.993  -9.960  1.00  0.00    -0.088 C 
HETATM   30  C1  UNL     1       3.360  56.313 -11.115  1.00  0.00     0.014 C 
HETATM   31  C3  UNL     1       3.686  56.768  -8.699  1.00  0.00     0.043 C 
ENDBRANCH  24  29
BRANCH  27  32
HETATM   32  O1  UNL     1       5.712  52.812  -7.210  1.00  0.00    -0.390 OA
HETATM   33  H14 UNL     1       4.989  52.204  -6.970  1.00  0.00     0.210 HD
ENDBRANCH  27  32
ENDBRANCH  22  23
ENDBRANCH  19  21
ENDBRANCH   1  18
BRANCH  15  34
HETATM   34  O4  UNL     1      -3.531  49.833 -13.418  1.00  0.00    -0.389 OA
HETATM   35  H44 UNL     1      -4.423  49.847 -13.808  1.00  0.00     0.210 HD
ENDBRANCH  15  34
BRANCH  11  36
HETATM   36  C26 UNL     1      -2.108  54.648 -10.316  1.00  0.00     0.265 C 
HETATM   37  O3  UNL     1      -1.517  55.721 -10.398  1.00  0.00    -0.302 OA
ENDBRANCH  11  36
TORSDOF 7
ENDMDL
