MODEL 1
REMARK minimizedAffinity -9.69971466
REMARK CNNscore 0.582544088
REMARK CNNaffinity 7.49699259
REMARK  12 active torsions:
REMARK  status: ('A' for Active; 'I' for Inactive)
REMARK    1  A    between atoms: C19_21  and  O3_22 
REMARK    2  A    between atoms: C19_21  and  C20_23 
REMARK    3  A    between atoms: C20_23  and  C21_25 
REMARK    4  A    between atoms: C21_25  and  O5_26 
REMARK    5  A    between atoms: O5_26  and  C22_27 
REMARK    6  A    between atoms: C22_27  and  C23_29 
REMARK    7  A    between atoms: C23_29  and  C24_30 
REMARK    8  A    between atoms: C24_30  and  C25_31 
REMARK       I    between atoms: C25_31  and  N1_33 
REMARK    9  A    between atoms: N1_33  and  C26_34 
REMARK   10  A    between atoms: C26_34  and  C27_35 
REMARK   11  A    between atoms: C30_38  and  C31_39 
REMARK   12  A    between atoms: C31_39  and  O9_41 
ROOT
HETATM    1  C1  UNL     1       0.568   5.631  10.705  1.00  0.00     0.021 C 
HETATM    2  C2  UNL     1       0.500   6.977  11.477  1.00  0.00    -0.009 C 
HETATM    3  C3  UNL     1       0.876   8.121  10.491  1.00  0.00     0.022 C 
HETATM    4  C4  UNL     1       2.327   8.085  10.027  1.00  0.00     0.084 C 
HETATM    5  C5  UNL     1       3.242   8.109  11.225  1.00  0.00     0.149 C 
HETATM    6  O1  UNL     1       4.392   8.542  11.160  1.00  0.00    -0.293 OA
HETATM    7  C6  UNL     1       2.768   7.491  12.488  1.00  0.00     0.053 C 
HETATM    8  C7  UNL     1       1.552   6.922  12.589  1.00  0.00    -0.067 C 
HETATM    9  C8  UNL     1       1.222   6.106  13.807  1.00  0.00     0.035 C 
HETATM   10  C9  UNL     1      -0.163   6.407  14.365  1.00  0.00     0.010 C 
HETATM   11  C10 UNL     1      -1.259   6.260  13.294  1.00  0.00     0.003 C 
HETATM   12  C11 UNL     1      -0.971   7.133  12.034  1.00  0.00     0.072 C 
HETATM   13  C12 UNL     1      -1.486   8.570  12.224  1.00  0.00     0.133 C 
HETATM   14  O2  UNL     1      -1.495   9.393  11.306  1.00  0.00    -0.297 OA
HETATM   15  C13 UNL     1      -2.117   8.941  13.543  1.00  0.00     0.091 C 
HETATM   16  C14 UNL     1      -3.231   7.941  13.878  1.00  0.00     0.005 C 
HETATM   17  C15 UNL     1      -4.383   8.103  12.846  1.00  0.00     0.019 C 
HETATM   18  C16 UNL     1      -2.716   6.461  13.794  1.00  0.00     0.002 C 
HETATM   19  C17 UNL     1      -3.071   5.806  15.139  1.00  0.00     0.009 C 
HETATM   20  C18 UNL     1      -4.206   6.660  15.691  1.00  0.00     0.047 C 
HETATM   21  C19 UNL     1      -3.767   8.087  15.341  1.00  0.00     0.128 C 
ENDROOT
BRANCH  21  22
HETATM   22  O3  UNL     1      -2.694   8.437  16.217  1.00  0.00    -0.381 OA
HETATM   23  H25 UNL     1      -3.013   8.349  17.137  1.00  0.00     0.211 HD
ENDBRANCH  21  22
BRANCH  21  24
HETATM   24  C20 UNL     1      -4.919   9.100  15.506  1.00  0.00     0.185 C 
HETATM   25  O4  UNL     1      -4.740  10.211  16.018  1.00  0.00    -0.292 OA
BRANCH  24  26
HETATM   26  C21 UNL     1      -6.312   8.643  15.070  1.00  0.00     0.260 C 
BRANCH  26  27
HETATM   27  O5  UNL     1      -6.830   7.610  15.911  1.00  0.00    -0.314 OA
BRANCH  27  28
HETATM   28  C22 UNL     1      -8.040   7.130  15.518  1.00  0.00     0.259 C 
HETATM   29  O6  UNL     1      -9.102   7.448  16.042  1.00  0.00    -0.265 OA
BRANCH  28  30
HETATM   30  C23 UNL     1      -7.930   6.147  14.376  1.00  0.00     0.120 C 
BRANCH  30  31
HETATM   31  C24 UNL     1      -6.995   4.974  14.647  1.00  0.00     0.112 C 
BRANCH  31  32
HETATM   32  C25 UNL     1      -7.134   3.886  13.607  1.00  0.00     0.218 C 
HETATM   33  O7  UNL     1      -7.854   2.906  13.745  1.00  0.00    -0.274 OA
HETATM   34  N1  UNL     1      -6.344   4.110  12.499  1.00  0.00    -0.361 N 
HETATM   35  H32 UNL     1      -5.774   4.945  12.465  1.00  0.00     0.162 HD
BRANCH  34  36
HETATM   36  C26 UNL     1      -6.238   3.160  11.410  1.00  0.00     0.127 C 
BRANCH  36  37
HETATM   37  C27 UNL     1      -4.784   2.768  11.082  1.00  0.00     0.003 C 
HETATM   38  C28 UNL     1      -4.311   1.533  11.857  1.00  0.00     0.007 C 
HETATM   39  C29 UNL     1      -2.935   1.056  11.379  1.00  0.00     0.015 C 
HETATM   40  C30 UNL     1      -2.013   2.199  10.933  1.00  0.00     0.084 C 
HETATM   41  C32 UNL     1      -2.381   3.524  11.602  1.00  0.00     0.015 C 
HETATM   42  C33 UNL     1      -3.811   3.951  11.266  1.00  0.00     0.007 C 
BRANCH  40  43
HETATM   43  C31 UNL     1      -0.568   1.817  11.169  1.00  0.00     0.143 C 
HETATM   44  O8  UNL     1       0.342   2.592  11.416  1.00  0.00    -0.650 OA
BRANCH  43  45
HETATM   45  O9  UNL     1      -0.321   0.502  11.021  1.00  0.00    -0.776 OA
HETATM   46  H41 UNL     1       0.646   0.422  11.150  1.00  0.00     0.167 HD
ENDBRANCH  43  45
ENDBRANCH  40  43
ENDBRANCH  36  37
ENDBRANCH  34  36
ENDBRANCH  31  32
ENDBRANCH  30  31
ENDBRANCH  28  30
ENDBRANCH  27  28
ENDBRANCH  26  27
ENDBRANCH  24  26
ENDBRANCH  21  24
TORSDOF 12
ENDMDL
MODEL 2
REMARK minimizedAffinity -8.31285763
REMARK CNNscore 0.553910375
REMARK CNNaffinity 7.41550207
REMARK  12 active torsions:
REMARK  status: ('A' for Active; 'I' for Inactive)
REMARK    1  A    between atoms: C19_21  and  O3_22 
REMARK    2  A    between atoms: C19_21  and  C20_23 
REMARK    3  A    between atoms: C20_23  and  C21_25 
REMARK    4  A    between atoms: C21_25  and  O5_26 
REMARK    5  A    between atoms: O5_26  and  C22_27 
REMARK    6  A    between atoms: C22_27  and  C23_29 
REMARK    7  A    between atoms: C23_29  and  C24_30 
REMARK    8  A    between atoms: C24_30  and  C25_31 
REMARK       I    between atoms: C25_31  and  N1_33 
REMARK    9  A    between atoms: N1_33  and  C26_34 
REMARK   10  A    between atoms: C26_34  and  C27_35 
REMARK   11  A    between atoms: C30_38  and  C31_39 
REMARK   12  A    between atoms: C31_39  and  O9_41 
ROOT
HETATM    1  C1  UNL     1      -6.939   5.437  16.025  1.00  0.00     0.021 C 
HETATM    2  C2  UNL     1      -7.251   6.130  14.670  1.00  0.00    -0.009 C 
HETATM    3  C3  UNL     1      -6.876   5.146  13.525  1.00  0.00     0.022 C 
HETATM    4  C4  UNL     1      -5.382   4.870  13.412  1.00  0.00     0.084 C 
HETATM    5  C5  UNL     1      -4.638   6.170  13.245  1.00  0.00     0.149 C 
HETATM    6  O1  UNL     1      -3.543   6.230  12.687  1.00  0.00    -0.293 OA
HETATM    7  C6  UNL     1      -5.203   7.392  13.870  1.00  0.00     0.053 C 
HETATM    8  C7  UNL     1      -6.353   7.366  14.569  1.00  0.00    -0.067 C 
HETATM    9  C8  UNL     1      -6.748   8.570  15.377  1.00  0.00     0.035 C 
HETATM   10  C9  UNL     1      -8.218   8.936  15.217  1.00  0.00     0.010 C 
HETATM   11  C10 UNL     1      -9.144   7.744  15.522  1.00  0.00     0.003 C 
HETATM   12  C11 UNL     1      -8.790   6.490  14.664  1.00  0.00     0.072 C 
HETATM   13  C12 UNL     1      -9.478   6.546  13.289  1.00  0.00     0.133 C 
HETATM   14  O2  UNL     1      -9.456   5.596  12.503  1.00  0.00    -0.297 OA
HETATM   15  C13 UNL     1     -10.311   7.756  12.949  1.00  0.00     0.091 C 
HETATM   16  C14 UNL     1     -11.345   7.996  14.057  1.00  0.00     0.005 C 
HETATM   17  C15 UNL     1     -12.363   6.821  14.060  1.00  0.00     0.019 C 
HETATM   18  C16 UNL     1     -10.666   8.047  15.471  1.00  0.00     0.002 C 
HETATM   19  C17 UNL     1     -11.120   9.366  16.117  1.00  0.00     0.009 C 
HETATM   20  C18 UNL     1     -12.403   9.730  15.379  1.00  0.00     0.047 C 
HETATM   21  C19 UNL     1     -12.079   9.371  13.924  1.00  0.00     0.128 C 
ENDROOT
BRANCH  21  22
HETATM   22  O3  UNL     1     -11.173  10.357  13.427  1.00  0.00    -0.381 OA
HETATM   23  H25 UNL     1     -11.597  11.234  13.520  1.00  0.00     0.211 HD
ENDBRANCH  21  22
BRANCH  21  24
HETATM   24  C20 UNL     1     -13.345   9.343  13.043  1.00  0.00     0.185 C 
HETATM   25  O4  UNL     1     -13.301   9.587  11.832  1.00  0.00    -0.292 OA
BRANCH  24  26
HETATM   26  C21 UNL     1     -14.673   9.065  13.748  1.00  0.00     0.260 C 
BRANCH  26  27
HETATM   27  O5  UNL     1     -15.754   8.911  12.826  1.00  0.00    -0.314 OA
BRANCH  27  28
HETATM   28  C22 UNL     1     -15.852   7.666  12.290  1.00  0.00     0.259 C 
HETATM   29  O6  UNL     1     -15.822   7.436  11.085  1.00  0.00    -0.265 OA
BRANCH  28  30
HETATM   30  C23 UNL     1     -16.022   6.595  13.342  1.00  0.00     0.120 C 
BRANCH  30  31
HETATM   31  C24 UNL     1     -17.207   5.667  13.106  1.00  0.00     0.112 C 
BRANCH  31  32
HETATM   32  C25 UNL     1     -17.600   4.919  14.358  1.00  0.00     0.218 C 
HETATM   33  O7  UNL     1     -17.514   5.392  15.485  1.00  0.00    -0.274 OA
HETATM   34  N1  UNL     1     -18.045   3.641  14.094  1.00  0.00    -0.361 N 
HETATM   35  H32 UNL     1     -18.082   3.324  13.134  1.00  0.00     0.162 HD
BRANCH  34  36
HETATM   36  C26 UNL     1     -18.390   2.700  15.142  1.00  0.00     0.127 C 
BRANCH  36  37
HETATM   37  C27 UNL     1     -17.336   1.595  15.341  1.00  0.00     0.003 C 
HETATM   38  C28 UNL     1     -16.737   1.097  14.020  1.00  0.00     0.007 C 
HETATM   39  C29 UNL     1     -15.566   0.137  14.253  1.00  0.00     0.015 C 
HETATM   40  C30 UNL     1     -15.729  -0.733  15.507  1.00  0.00     0.084 C 
HETATM   41  C32 UNL     1     -17.199  -0.914  15.889  1.00  0.00     0.015 C 
HETATM   42  C33 UNL     1     -17.877   0.424  16.186  1.00  0.00     0.007 C 
BRANCH  40  43
HETATM   43  C31 UNL     1     -15.017  -2.053  15.315  1.00  0.00     0.143 C 
HETATM   44  O8  UNL     1     -14.919  -2.938  16.149  1.00  0.00    -0.650 OA
BRANCH  43  45
HETATM   45  O9  UNL     1     -14.413  -2.178  14.118  1.00  0.00    -0.776 OA
HETATM   46  H41 UNL     1     -13.961  -3.045  14.164  1.00  0.00     0.167 HD
ENDBRANCH  43  45
ENDBRANCH  40  43
ENDBRANCH  36  37
ENDBRANCH  34  36
ENDBRANCH  31  32
ENDBRANCH  30  31
ENDBRANCH  28  30
ENDBRANCH  27  28
ENDBRANCH  26  27
ENDBRANCH  24  26
ENDBRANCH  21  24
TORSDOF 12
ENDMDL
MODEL 3
REMARK minimizedAffinity -9.8203907
REMARK CNNscore 0.502997518
REMARK CNNaffinity 7.41042948
REMARK  12 active torsions:
REMARK  status: ('A' for Active; 'I' for Inactive)
REMARK    1  A    between atoms: C19_21  and  O3_22 
REMARK    2  A    between atoms: C19_21  and  C20_23 
REMARK    3  A    between atoms: C20_23  and  C21_25 
REMARK    4  A    between atoms: C21_25  and  O5_26 
REMARK    5  A    between atoms: O5_26  and  C22_27 
REMARK    6  A    between atoms: C22_27  and  C23_29 
REMARK    7  A    between atoms: C23_29  and  C24_30 
REMARK    8  A    between atoms: C24_30  and  C25_31 
REMARK       I    between atoms: C25_31  and  N1_33 
REMARK    9  A    between atoms: N1_33  and  C26_34 
REMARK   10  A    between atoms: C26_34  and  C27_35 
REMARK   11  A    between atoms: C30_38  and  C31_39 
REMARK   12  A    between atoms: C31_39  and  O9_41 
ROOT
HETATM    1  C1  UNL     1       2.989   8.332  11.424  1.00  0.00     0.021 C 
HETATM    2  C2  UNL     1       1.910   7.231  11.239  1.00  0.00    -0.009 C 
HETATM    3  C3  UNL     1       2.625   5.849  11.226  1.00  0.00     0.022 C 
HETATM    4  C4  UNL     1       3.523   5.629  10.016  1.00  0.00     0.084 C 
HETATM    5  C5  UNL     1       2.723   5.813   8.751  1.00  0.00     0.149 C 
HETATM    6  O1  UNL     1       3.038   5.269   7.694  1.00  0.00    -0.293 OA
HETATM    7  C6  UNL     1       1.585   6.765   8.768  1.00  0.00     0.053 C 
HETATM    8  C7  UNL     1       1.252   7.456   9.875  1.00  0.00    -0.067 C 
HETATM    9  C8  UNL     1       0.255   8.576   9.769  1.00  0.00     0.035 C 
HETATM   10  C9  UNL     1      -0.778   8.557  10.888  1.00  0.00     0.010 C 
HETATM   11  C10 UNL     1      -0.119   8.540  12.279  1.00  0.00     0.003 C 
HETATM   12  C11 UNL     1       0.888   7.360  12.438  1.00  0.00     0.072 C 
HETATM   13  C12 UNL     1       0.169   6.070  12.872  1.00  0.00     0.133 C 
HETATM   14  O2  UNL     1       0.783   5.052  13.196  1.00  0.00    -0.297 OA
HETATM   15  C13 UNL     1      -1.330   6.099  13.025  1.00  0.00     0.091 C 
HETATM   16  C14 UNL     1      -1.730   7.253  13.954  1.00  0.00     0.005 C 
HETATM   17  C15 UNL     1      -1.206   6.953  15.387  1.00  0.00     0.019 C 
HETATM   18  C16 UNL     1      -1.096   8.610  13.485  1.00  0.00     0.002 C 
HETATM   19  C17 UNL     1      -2.260   9.607  13.362  1.00  0.00     0.009 C 
HETATM   20  C18 UNL     1      -3.353   9.029  14.252  1.00  0.00     0.047 C 
HETATM   21  C19 UNL     1      -3.271   7.524  13.968  1.00  0.00     0.128 C 
ENDROOT
BRANCH  21  22
HETATM   22  O3  UNL     1      -3.814   7.299  12.666  1.00  0.00    -0.381 OA
HETATM   23  H25 UNL     1      -4.730   7.642  12.656  1.00  0.00     0.211 HD
ENDBRANCH  21  22
BRANCH  21  24
HETATM   24  C20 UNL     1      -4.060   6.699  15.006  1.00  0.00     0.185 C 
HETATM   25  O4  UNL     1      -3.502   5.884  15.749  1.00  0.00    -0.292 OA
BRANCH  24  26
HETATM   26  C21 UNL     1      -5.578   6.884  15.029  1.00  0.00     0.260 C 
BRANCH  26  27
HETATM   27  O5  UNL     1      -6.207   6.066  16.016  1.00  0.00    -0.314 OA
BRANCH  27  28
HETATM   28  C22 UNL     1      -7.293   5.385  15.562  1.00  0.00     0.259 C 
HETATM   29  O6  UNL     1      -7.452   4.178  15.707  1.00  0.00    -0.265 OA
BRANCH  28  30
HETATM   30  C23 UNL     1      -8.276   6.278  14.842  1.00  0.00     0.120 C 
BRANCH  30  31
HETATM   31  C24 UNL     1      -8.165   6.235  13.323  1.00  0.00     0.112 C 
BRANCH  31  32
HETATM   32  C25 UNL     1      -8.044   4.821  12.803  1.00  0.00     0.218 C 
HETATM   33  O7  UNL     1      -8.985   4.039  12.745  1.00  0.00    -0.274 OA
HETATM   34  N1  UNL     1      -6.757   4.505  12.424  1.00  0.00    -0.361 N 
HETATM   35  H32 UNL     1      -6.035   5.208  12.508  1.00  0.00     0.162 HD
BRANCH  34  36
HETATM   36  C26 UNL     1      -6.376   3.178  11.981  1.00  0.00     0.127 C 
BRANCH  36  37
HETATM   37  C27 UNL     1      -4.851   2.980  11.888  1.00  0.00     0.003 C 
HETATM   38  C28 UNL     1      -4.265   3.488  10.565  1.00  0.00     0.007 C 
HETATM   39  C29 UNL     1      -2.732   3.450  10.572  1.00  0.00     0.015 C 
HETATM   40  C30 UNL     1      -2.154   2.280  11.379  1.00  0.00     0.084 C 
HETATM   41  C32 UNL     1      -3.135   1.111  11.473  1.00  0.00     0.015 C 
HETATM   42  C33 UNL     1      -4.440   1.519  12.158  1.00  0.00     0.007 C 
BRANCH  40  43
HETATM   43  C31 UNL     1      -0.819   1.867  10.801  1.00  0.00     0.143 C 
HETATM   44  O8  UNL     1       0.267   2.327  11.115  1.00  0.00    -0.650 OA
BRANCH  43  45
HETATM   45  O9  UNL     1      -0.910   0.950   9.819  1.00  0.00    -0.776 OA
HETATM   46  H41 UNL     1       0.013   0.826   9.516  1.00  0.00     0.167 HD
ENDBRANCH  43  45
ENDBRANCH  40  43
ENDBRANCH  36  37
ENDBRANCH  34  36
ENDBRANCH  31  32
ENDBRANCH  30  31
ENDBRANCH  28  30
ENDBRANCH  27  28
ENDBRANCH  26  27
ENDBRANCH  24  26
ENDBRANCH  21  24
TORSDOF 12
ENDMDL
MODEL 4
REMARK minimizedAffinity -9.09398365
REMARK CNNscore 0.498882353
REMARK CNNaffinity 7.56236267
REMARK  12 active torsions:
REMARK  status: ('A' for Active; 'I' for Inactive)
REMARK    1  A    between atoms: C19_21  and  O3_22 
REMARK    2  A    between atoms: C19_21  and  C20_23 
REMARK    3  A    between atoms: C20_23  and  C21_25 
REMARK    4  A    between atoms: C21_25  and  O5_26 
REMARK    5  A    between atoms: O5_26  and  C22_27 
REMARK    6  A    between atoms: C22_27  and  C23_29 
REMARK    7  A    between atoms: C23_29  and  C24_30 
REMARK    8  A    between atoms: C24_30  and  C25_31 
REMARK       I    between atoms: C25_31  and  N1_33 
REMARK    9  A    between atoms: N1_33  and  C26_34 
REMARK   10  A    between atoms: C26_34  and  C27_35 
REMARK   11  A    between atoms: C30_38  and  C31_39 
REMARK   12  A    between atoms: C31_39  and  O9_41 
ROOT
HETATM    1  C1  UNL     1     -10.806  11.089  14.715  1.00  0.00     0.021 C 
HETATM    2  C2  UNL     1     -11.283   9.613  14.806  1.00  0.00    -0.009 C 
HETATM    3  C3  UNL     1     -12.585   9.471  13.966  1.00  0.00     0.022 C 
HETATM    4  C4  UNL     1     -13.774  10.233  14.536  1.00  0.00     0.084 C 
HETATM    5  C5  UNL     1     -14.022   9.794  15.957  1.00  0.00     0.149 C 
HETATM    6  O1  UNL     1     -15.131   9.876  16.482  1.00  0.00    -0.293 OA
HETATM    7  C6  UNL     1     -12.863   9.351  16.771  1.00  0.00     0.053 C 
HETATM    8  C7  UNL     1     -11.612   9.327  16.274  1.00  0.00    -0.067 C 
HETATM    9  C8  UNL     1     -10.455   9.104  17.207  1.00  0.00     0.035 C 
HETATM   10  C9  UNL     1      -9.437   8.111  16.662  1.00  0.00     0.010 C 
HETATM   11  C10 UNL     1      -8.940   8.508  15.259  1.00  0.00     0.003 C 
HETATM   12  C11 UNL     1     -10.116   8.702  14.253  1.00  0.00     0.072 C 
HETATM   13  C12 UNL     1     -10.531   7.362  13.619  1.00  0.00     0.133 C 
HETATM   14  O2  UNL     1     -11.340   7.296  12.692  1.00  0.00    -0.297 OA
HETATM   15  C13 UNL     1      -9.827   6.106  14.065  1.00  0.00     0.091 C 
HETATM   16  C14 UNL     1      -8.310   6.293  13.936  1.00  0.00     0.005 C 
HETATM   17  C15 UNL     1      -7.943   6.421  12.430  1.00  0.00     0.019 C 
HETATM   18  C16 UNL     1      -7.831   7.601  14.659  1.00  0.00     0.002 C 
HETATM   19  C17 UNL     1      -6.707   7.175  15.617  1.00  0.00     0.009 C 
HETATM   20  C18 UNL     1      -6.200   5.856  15.046  1.00  0.00     0.047 C 
HETATM   21  C19 UNL     1      -7.489   5.147  14.615  1.00  0.00     0.128 C 
ENDROOT
BRANCH  21  22
HETATM   22  O3  UNL     1      -8.159   4.709  15.798  1.00  0.00    -0.381 OA
HETATM   23  H25 UNL     1      -7.548   4.126  16.293  1.00  0.00     0.211 HD
ENDBRANCH  21  22
BRANCH  21  24
HETATM   24  C20 UNL     1      -7.201   3.935  13.705  1.00  0.00     0.185 C 
HETATM   25  O4  UNL     1      -8.054   3.065  13.491  1.00  0.00    -0.292 OA
BRANCH  24  26
HETATM   26  C21 UNL     1      -5.789   3.818  13.132  1.00  0.00     0.260 C 
BRANCH  26  27
HETATM   27  O5  UNL     1      -5.794   3.492  11.741  1.00  0.00    -0.314 OA
BRANCH  27  28
HETATM   28  C22 UNL     1      -5.227   2.291  11.450  1.00  0.00     0.259 C 
HETATM   29  O6  UNL     1      -5.846   1.337  10.992  1.00  0.00    -0.265 OA
BRANCH  28  30
HETATM   30  C23 UNL     1      -3.751   2.256  11.772  1.00  0.00     0.120 C 
BRANCH  30  31
HETATM   31  C24 UNL     1      -2.897   3.166  10.897  1.00  0.00     0.112 C 
BRANCH  31  32
HETATM   32  C25 UNL     1      -1.731   3.753  11.659  1.00  0.00     0.218 C 
HETATM   33  O7  UNL     1      -0.700   3.138  11.898  1.00  0.00    -0.274 OA
HETATM   34  N1  UNL     1      -1.966   5.048  12.070  1.00  0.00    -0.361 N 
HETATM   35  H32 UNL     1      -2.848   5.485  11.833  1.00  0.00     0.162 HD
BRANCH  34  36
HETATM   36  C26 UNL     1      -1.033   5.788  12.895  1.00  0.00     0.127 C 
BRANCH  36  37
HETATM   37  C27 UNL     1       0.052   6.521  12.083  1.00  0.00     0.003 C 
HETATM   38  C28 UNL     1      -0.004   6.196  10.586  1.00  0.00     0.007 C 
HETATM   39  C29 UNL     1       0.959   7.073   9.778  1.00  0.00     0.015 C 
HETATM   40  C30 UNL     1       2.246   7.425  10.536  1.00  0.00     0.084 C 
HETATM   41  C32 UNL     1       2.577   6.390  11.612  1.00  0.00     0.015 C 
HETATM   42  C33 UNL     1       1.464   6.281  12.655  1.00  0.00     0.007 C 
BRANCH  40  43
HETATM   43  C31 UNL     1       3.383   7.622   9.557  1.00  0.00     0.143 C 
HETATM   44  O8  UNL     1       3.385   8.396   8.614  1.00  0.00    -0.650 OA
BRANCH  43  45
HETATM   45  O9  UNL     1       4.430   6.801   9.765  1.00  0.00    -0.776 OA
HETATM   46  H41 UNL     1       5.048   7.008   9.036  1.00  0.00     0.167 HD
ENDBRANCH  43  45
ENDBRANCH  40  43
ENDBRANCH  36  37
ENDBRANCH  34  36
ENDBRANCH  31  32
ENDBRANCH  30  31
ENDBRANCH  28  30
ENDBRANCH  27  28
ENDBRANCH  26  27
ENDBRANCH  24  26
ENDBRANCH  21  24
TORSDOF 12
ENDMDL
MODEL 5
REMARK minimizedAffinity -9.41239738
REMARK CNNscore 0.421849996
REMARK CNNaffinity 6.66908455
REMARK  12 active torsions:
REMARK  status: ('A' for Active; 'I' for Inactive)
REMARK    1  A    between atoms: C19_21  and  O3_22 
REMARK    2  A    between atoms: C19_21  and  C20_23 
REMARK    3  A    between atoms: C20_23  and  C21_25 
REMARK    4  A    between atoms: C21_25  and  O5_26 
REMARK    5  A    between atoms: O5_26  and  C22_27 
REMARK    6  A    between atoms: C22_27  and  C23_29 
REMARK    7  A    between atoms: C23_29  and  C24_30 
REMARK    8  A    between atoms: C24_30  and  C25_31 
REMARK       I    between atoms: C25_31  and  N1_33 
REMARK    9  A    between atoms: N1_33  and  C26_34 
REMARK   10  A    between atoms: C26_34  and  C27_35 
REMARK   11  A    between atoms: C30_38  and  C31_39 
REMARK   12  A    between atoms: C31_39  and  O9_41 
ROOT
HETATM    1  C1  UNL     1      -7.267   5.190  15.914  1.00  0.00     0.021 C 
HETATM    2  C2  UNL     1      -6.901   6.310  14.902  1.00  0.00    -0.009 C 
HETATM    3  C3  UNL     1      -7.988   7.420  14.994  1.00  0.00     0.022 C 
HETATM    4  C4  UNL     1      -9.363   6.980  14.508  1.00  0.00     0.084 C 
HETATM    5  C5  UNL     1      -9.261   6.468  13.094  1.00  0.00     0.149 C 
HETATM    6  O1  UNL     1     -10.217   6.488  12.321  1.00  0.00    -0.293 OA
HETATM    7  C6  UNL     1      -7.994   5.824  12.667  1.00  0.00     0.053 C 
HETATM    8  C7  UNL     1      -6.945   5.694  13.501  1.00  0.00    -0.067 C 
HETATM    9  C8  UNL     1      -5.787   4.826  13.095  1.00  0.00     0.035 C 
HETATM   10  C9  UNL     1      -4.436   5.470  13.377  1.00  0.00     0.010 C 
HETATM   11  C10 UNL     1      -4.303   5.908  14.848  1.00  0.00     0.003 C 
HETATM   12  C11 UNL     1      -5.466   6.849  15.288  1.00  0.00     0.072 C 
HETATM   13  C12 UNL     1      -5.162   8.314  14.928  1.00  0.00     0.133 C 
HETATM   14  O2  UNL     1      -5.873   9.246  15.308  1.00  0.00    -0.297 OA
HETATM   15  C13 UNL     1      -3.882   8.624  14.193  1.00  0.00     0.091 C 
HETATM   16  C14 UNL     1      -2.694   8.018  14.953  1.00  0.00     0.005 C 
HETATM   17  C15 UNL     1      -2.539   8.752  16.315  1.00  0.00     0.019 C 
HETATM   18  C16 UNL     1      -2.923   6.495  15.251  1.00  0.00     0.002 C 
HETATM   19  C17 UNL     1      -1.686   5.761  14.708  1.00  0.00     0.009 C 
HETATM   20  C18 UNL     1      -0.603   6.831  14.652  1.00  0.00     0.047 C 
HETATM   21  C19 UNL     1      -1.359   8.062  14.139  1.00  0.00     0.128 C 
ENDROOT
BRANCH  21  22
HETATM   22  O3  UNL     1      -1.631   7.857  12.752  1.00  0.00    -0.381 OA
HETATM   23  H25 UNL     1      -0.778   7.713  12.294  1.00  0.00     0.211 HD
ENDBRANCH  21  22
BRANCH  21  24
HETATM   24  C20 UNL     1      -0.538   9.357  14.318  1.00  0.00     0.185 C 
HETATM   25  O4  UNL     1      -0.899  10.430  13.820  1.00  0.00    -0.292 OA
BRANCH  24  26
HETATM   26  C21 UNL     1       0.781   9.241  15.083  1.00  0.00     0.260 C 
BRANCH  26  27
HETATM   27  O5  UNL     1       0.907  10.240  16.097  1.00  0.00    -0.314 OA
BRANCH  27  28
HETATM   28  C22 UNL     1       1.702   9.875  17.138  1.00  0.00     0.259 C 
HETATM   29  O6  UNL     1       2.178   8.753  17.273  1.00  0.00    -0.265 OA
BRANCH  28  30
HETATM   30  C23 UNL     1       1.919  11.001  18.122  1.00  0.00     0.120 C 
BRANCH  30  31
HETATM   31  C24 UNL     1       1.139  10.855  19.423  1.00  0.00     0.112 C 
BRANCH  31  32
HETATM   32  C25 UNL     1       2.048  10.603  20.604  1.00  0.00     0.218 C 
HETATM   33  O7  UNL     1       2.480   9.497  20.902  1.00  0.00    -0.274 OA
HETATM   34  N1  UNL     1       2.318  11.752  21.318  1.00  0.00    -0.361 N 
HETATM   35  H32 UNL     1       1.918  12.627  21.006  1.00  0.00     0.162 HD
BRANCH  34  36
HETATM   36  C26 UNL     1       3.091  11.746  22.544  1.00  0.00     0.127 C 
BRANCH  36  37
HETATM   37  C27 UNL     1       4.513  12.312  22.372  1.00  0.00     0.003 C 
HETATM   38  C28 UNL     1       5.574  11.495  23.120  1.00  0.00     0.007 C 
HETATM   39  C29 UNL     1       6.993  11.966  22.784  1.00  0.00     0.015 C 
HETATM   40  C30 UNL     1       7.092  13.475  22.526  1.00  0.00     0.084 C 
HETATM   41  C32 UNL     1       5.974  14.249  23.227  1.00  0.00     0.015 C 
HETATM   42  C33 UNL     1       4.591  13.806  22.747  1.00  0.00     0.007 C 
BRANCH  40  43
HETATM   43  C31 UNL     1       8.466  13.975  22.912  1.00  0.00     0.143 C 
HETATM   44  O8  UNL     1       8.928  15.071  22.640  1.00  0.00    -0.650 OA
BRANCH  43  45
HETATM   45  O9  UNL     1       9.217  13.063  23.559  1.00  0.00    -0.776 OA
HETATM   46  H41 UNL     1      10.078  13.508  23.691  1.00  0.00     0.167 HD
ENDBRANCH  43  45
ENDBRANCH  40  43
ENDBRANCH  36  37
ENDBRANCH  34  36
ENDBRANCH  31  32
ENDBRANCH  30  31
ENDBRANCH  28  30
ENDBRANCH  27  28
ENDBRANCH  26  27
ENDBRANCH  24  26
ENDBRANCH  21  24
TORSDOF 12
ENDMDL
MODEL 6
REMARK minimizedAffinity -9.28425121
REMARK CNNscore 0.408756196
REMARK CNNaffinity 6.28101015
REMARK  12 active torsions:
REMARK  status: ('A' for Active; 'I' for Inactive)
REMARK    1  A    between atoms: C19_21  and  O3_22 
REMARK    2  A    between atoms: C19_21  and  C20_23 
REMARK    3  A    between atoms: C20_23  and  C21_25 
REMARK    4  A    between atoms: C21_25  and  O5_26 
REMARK    5  A    between atoms: O5_26  and  C22_27 
REMARK    6  A    between atoms: C22_27  and  C23_29 
REMARK    7  A    between atoms: C23_29  and  C24_30 
REMARK    8  A    between atoms: C24_30  and  C25_31 
REMARK       I    between atoms: C25_31  and  N1_33 
REMARK    9  A    between atoms: N1_33  and  C26_34 
REMARK   10  A    between atoms: C26_34  and  C27_35 
REMARK   11  A    between atoms: C30_38  and  C31_39 
REMARK   12  A    between atoms: C31_39  and  O9_41 
ROOT
HETATM    1  C1  UNL     1       0.556   7.845   9.104  1.00  0.00     0.021 C 
HETATM    2  C2  UNL     1       1.113   7.630  10.538  1.00  0.00    -0.009 C 
HETATM    3  C3  UNL     1       2.549   8.228  10.595  1.00  0.00     0.022 C 
HETATM    4  C4  UNL     1       3.563   7.482   9.737  1.00  0.00     0.084 C 
HETATM    5  C5  UNL     1       3.590   6.028  10.132  1.00  0.00     0.149 C 
HETATM    6  O1  UNL     1       4.581   5.321   9.958  1.00  0.00    -0.293 OA
HETATM    7  C6  UNL     1       2.341   5.414  10.648  1.00  0.00     0.053 C 
HETATM    8  C7  UNL     1       1.201   6.119  10.774  1.00  0.00    -0.067 C 
HETATM    9  C8  UNL     1      -0.082   5.394  11.068  1.00  0.00     0.035 C 
HETATM   10  C9  UNL     1      -0.916   6.078  12.144  1.00  0.00     0.010 C 
HETATM   11  C10 UNL     1      -1.187   7.556  11.809  1.00  0.00     0.003 C 
HETATM   12  C11 UNL     1       0.129   8.350  11.544  1.00  0.00     0.072 C 
HETATM   13  C12 UNL     1       0.743   8.863  12.858  1.00  0.00     0.133 C 
HETATM   14  O2  UNL     1       1.704   9.633  12.879  1.00  0.00    -0.297 OA
HETATM   15  C13 UNL     1       0.063   8.508  14.157  1.00  0.00     0.091 C 
HETATM   16  C14 UNL     1      -1.418   8.904  14.086  1.00  0.00     0.005 C 
HETATM   17  C15 UNL     1      -1.523  10.453  14.011  1.00  0.00     0.019 C 
HETATM   18  C16 UNL     1      -2.107   8.313  12.806  1.00  0.00     0.002 C 
HETATM   19  C17 UNL     1      -3.348   7.551  13.300  1.00  0.00     0.009 C 
HETATM   20  C18 UNL     1      -3.653   8.162  14.662  1.00  0.00     0.047 C 
HETATM   21  C19 UNL     1      -2.261   8.343  15.279  1.00  0.00     0.128 C 
ENDROOT
BRANCH  21  22
HETATM   22  O3  UNL     1      -1.778   7.050  15.647  1.00  0.00    -0.381 OA
HETATM   23  H25 UNL     1      -2.423   6.651  16.265  1.00  0.00     0.211 HD
ENDBRANCH  21  22
BRANCH  21  24
HETATM   24  C20 UNL     1      -2.298   9.253  16.525  1.00  0.00     0.185 C 
HETATM   25  O4  UNL     1      -3.348   9.773  16.920  1.00  0.00    -0.292 OA
BRANCH  24  26
HETATM   26  C21 UNL     1      -0.963   9.543  17.212  1.00  0.00     0.260 C 
BRANCH  26  27
HETATM   27  O5  UNL     1      -0.705  10.943  17.325  1.00  0.00    -0.314 OA
BRANCH  27  28
HETATM   28  C22 UNL     1      -0.841  11.431  18.587  1.00  0.00     0.259 C 
HETATM   29  O6  UNL     1      -1.602  12.346  18.888  1.00  0.00    -0.265 OA
BRANCH  28  30
HETATM   30  C23 UNL     1       0.063  10.735  19.577  1.00  0.00     0.120 C 
BRANCH  30  31
HETATM   31  C24 UNL     1       1.054  11.657  20.277  1.00  0.00     0.112 C 
BRANCH  31  32
HETATM   32  C25 UNL     1       2.311  10.928  20.694  1.00  0.00     0.218 C 
HETATM   33  O7  UNL     1       2.774   9.974  20.082  1.00  0.00    -0.274 OA
HETATM   34  N1  UNL     1       2.863  11.443  21.847  1.00  0.00    -0.361 N 
HETATM   35  H32 UNL     1       2.416  12.233  22.295  1.00  0.00     0.162 HD
BRANCH  34  36
HETATM   36  C26 UNL     1       4.019  10.852  22.493  1.00  0.00     0.127 C 
BRANCH  36  37
HETATM   37  C27 UNL     1       5.285  11.723  22.393  1.00  0.00     0.003 C 
HETATM   38  C28 UNL     1       6.405  11.254  23.330  1.00  0.00     0.007 C 
HETATM   39  C29 UNL     1       7.711  12.017  23.080  1.00  0.00     0.015 C 
HETATM   40  C30 UNL     1       7.494  13.477  22.658  1.00  0.00     0.084 C 
HETATM   41  C32 UNL     1       6.154  14.021  23.154  1.00  0.00     0.015 C 
HETATM   42  C33 UNL     1       4.975  13.220  22.597  1.00  0.00     0.007 C 
BRANCH  40  43
HETATM   43  C31 UNL     1       8.662  14.323  23.114  1.00  0.00     0.143 C 
HETATM   44  O8  UNL     1       8.828  14.762  24.240  1.00  0.00    -0.650 OA
BRANCH  43  45
HETATM   45  O9  UNL     1       9.529  14.631  22.130  1.00  0.00    -0.776 OA
HETATM   46  H41 UNL     1      10.187  15.214  22.561  1.00  0.00     0.167 HD
ENDBRANCH  43  45
ENDBRANCH  40  43
ENDBRANCH  36  37
ENDBRANCH  34  36
ENDBRANCH  31  32
ENDBRANCH  30  31
ENDBRANCH  28  30
ENDBRANCH  27  28
ENDBRANCH  26  27
ENDBRANCH  24  26
ENDBRANCH  21  24
TORSDOF 12
ENDMDL
MODEL 7
REMARK minimizedAffinity -7.95448303
REMARK CNNscore 0.367459238
REMARK CNNaffinity 6.44893694
REMARK  12 active torsions:
REMARK  status: ('A' for Active; 'I' for Inactive)
REMARK    1  A    between atoms: C19_21  and  O3_22 
REMARK    2  A    between atoms: C19_21  and  C20_23 
REMARK    3  A    between atoms: C20_23  and  C21_25 
REMARK    4  A    between atoms: C21_25  and  O5_26 
REMARK    5  A    between atoms: O5_26  and  C22_27 
REMARK    6  A    between atoms: C22_27  and  C23_29 
REMARK    7  A    between atoms: C23_29  and  C24_30 
REMARK    8  A    between atoms: C24_30  and  C25_31 
REMARK       I    between atoms: C25_31  and  N1_33 
REMARK    9  A    between atoms: N1_33  and  C26_34 
REMARK   10  A    between atoms: C26_34  and  C27_35 
REMARK   11  A    between atoms: C30_38  and  C31_39 
REMARK   12  A    between atoms: C31_39  and  O9_41 
ROOT
HETATM    1  C1  UNL     1       0.512   5.660  10.672  1.00  0.00     0.021 C 
HETATM    2  C2  UNL     1       0.431   6.943  11.543  1.00  0.00    -0.009 C 
HETATM    3  C3  UNL     1       0.836   8.157  10.658  1.00  0.00     0.022 C 
HETATM    4  C4  UNL     1       2.298   8.148  10.228  1.00  0.00     0.084 C 
HETATM    5  C5  UNL     1       3.183   8.075  11.446  1.00  0.00     0.149 C 
HETATM    6  O1  UNL     1       4.336   8.504  11.444  1.00  0.00    -0.293 OA
HETATM    7  C6  UNL     1       2.674   7.365  12.646  1.00  0.00     0.053 C 
HETATM    8  C7  UNL     1       1.454   6.797  12.673  1.00  0.00    -0.067 C 
HETATM    9  C8  UNL     1       1.091   5.891  13.816  1.00  0.00     0.035 C 
HETATM   10  C9  UNL     1      -0.307   6.157  14.361  1.00  0.00     0.010 C 
HETATM   11  C10 UNL     1      -1.377   6.099  13.256  1.00  0.00     0.003 C 
HETATM   12  C11 UNL     1      -1.053   7.064  12.074  1.00  0.00     0.072 C 
HETATM   13  C12 UNL     1      -1.567   8.486  12.361  1.00  0.00     0.133 C 
HETATM   14  O2  UNL     1      -1.550   9.376  11.509  1.00  0.00    -0.297 OA
HETATM   15  C13 UNL     1      -2.229   8.758  13.688  1.00  0.00     0.091 C 
HETATM   16  C14 UNL     1      -3.356   7.742  13.918  1.00  0.00     0.005 C 
HETATM   17  C15 UNL     1      -4.481   7.990  12.873  1.00  0.00     0.019 C 
HETATM   18  C16 UNL     1      -2.845   6.270  13.733  1.00  0.00     0.002 C 
HETATM   19  C17 UNL     1      -3.236   5.516  15.015  1.00  0.00     0.009 C 
HETATM   20  C18 UNL     1      -4.381   6.331  15.602  1.00  0.00     0.047 C 
HETATM   21  C19 UNL     1      -3.928   7.778  15.374  1.00  0.00     0.128 C 
ENDROOT
BRANCH  21  22
HETATM   22  O3  UNL     1      -2.875   8.053  16.300  1.00  0.00    -0.381 OA
HETATM   23  H25 UNL     1      -3.218   7.897  17.203  1.00  0.00     0.211 HD
ENDBRANCH  21  22
BRANCH  21  24
HETATM   24  C20 UNL     1      -5.080   8.782  15.588  1.00  0.00     0.185 C 
HETATM   25  O4  UNL     1      -4.891   9.887  16.111  1.00  0.00    -0.292 OA
BRANCH  24  26
HETATM   26  C21 UNL     1      -6.482   8.323  15.188  1.00  0.00     0.260 C 
BRANCH  26  27
HETATM   27  O5  UNL     1      -6.593   6.900  15.142  1.00  0.00    -0.314 OA
BRANCH  27  28
HETATM   28  C22 UNL     1      -7.644   6.402  15.846  1.00  0.00     0.259 C 
HETATM   29  O6  UNL     1      -7.891   5.205  15.950  1.00  0.00    -0.265 OA
BRANCH  28  30
HETATM   30  C23 UNL     1      -8.486   7.489  16.473  1.00  0.00     0.120 C 
BRANCH  30  31
HETATM   31  C24 UNL     1      -9.787   7.777  15.734  1.00  0.00     0.112 C 
BRANCH  31  32
HETATM   32  C25 UNL     1     -10.354   9.132  16.090  1.00  0.00     0.218 C 
HETATM   33  O7  UNL     1      -9.996  10.177  15.560  1.00  0.00    -0.274 OA
HETATM   34  N1  UNL     1     -11.300   9.063  17.091  1.00  0.00    -0.361 N 
HETATM   35  H32 UNL     1     -11.536   8.160  17.480  1.00  0.00     0.162 HD
BRANCH  34  36
HETATM   36  C26 UNL     1     -11.917  10.242  17.666  1.00  0.00     0.127 C 
BRANCH  36  37
HETATM   37  C27 UNL     1     -11.191  10.759  18.923  1.00  0.00     0.003 C 
HETATM   38  C28 UNL     1     -11.670  10.076  20.210  1.00  0.00     0.007 C 
HETATM   39  C29 UNL     1     -10.809  10.471  21.416  1.00  0.00     0.015 C 
HETATM   40  C30 UNL     1     -10.287  11.912  21.348  1.00  0.00     0.084 C 
HETATM   41  C32 UNL     1     -11.180  12.803  20.484  1.00  0.00     0.015 C 
HETATM   42  C33 UNL     1     -11.266  12.295  19.044  1.00  0.00     0.007 C 
BRANCH  40  43
HETATM   43  C31 UNL     1     -10.106  12.460  22.746  1.00  0.00     0.143 C 
HETATM   44  O8  UNL     1      -9.118  12.313  23.447  1.00  0.00    -0.650 OA
BRANCH  43  45
HETATM   45  O9  UNL     1     -11.187  13.108  23.222  1.00  0.00    -0.776 OA
HETATM   46  H41 UNL     1     -10.939  13.352  24.137  1.00  0.00     0.167 HD
ENDBRANCH  43  45
ENDBRANCH  40  43
ENDBRANCH  36  37
ENDBRANCH  34  36
ENDBRANCH  31  32
ENDBRANCH  30  31
ENDBRANCH  28  30
ENDBRANCH  27  28
ENDBRANCH  26  27
ENDBRANCH  24  26
ENDBRANCH  21  24
TORSDOF 12
ENDMDL
MODEL 8
REMARK minimizedAffinity -9.42491722
REMARK CNNscore 0.366902918
REMARK CNNaffinity 6.68875456
REMARK  12 active torsions:
REMARK  status: ('A' for Active; 'I' for Inactive)
REMARK    1  A    between atoms: C19_21  and  O3_22 
REMARK    2  A    between atoms: C19_21  and  C20_23 
REMARK    3  A    between atoms: C20_23  and  C21_25 
REMARK    4  A    between atoms: C21_25  and  O5_26 
REMARK    5  A    between atoms: O5_26  and  C22_27 
REMARK    6  A    between atoms: C22_27  and  C23_29 
REMARK    7  A    between atoms: C23_29  and  C24_30 
REMARK    8  A    between atoms: C24_30  and  C25_31 
REMARK       I    between atoms: C25_31  and  N1_33 
REMARK    9  A    between atoms: N1_33  and  C26_34 
REMARK   10  A    between atoms: C26_34  and  C27_35 
REMARK   11  A    between atoms: C30_38  and  C31_39 
REMARK   12  A    between atoms: C31_39  and  O9_41 
ROOT
HETATM    1  C1  UNL     1       2.979   7.939   8.767  1.00  0.00     0.021 C 
HETATM    2  C2  UNL     1       3.153   7.731  10.296  1.00  0.00    -0.009 C 
HETATM    3  C3  UNL     1       4.026   8.895  10.847  1.00  0.00     0.022 C 
HETATM    4  C4  UNL     1       5.466   8.876  10.350  1.00  0.00     0.084 C 
HETATM    5  C5  UNL     1       6.100   7.549  10.683  1.00  0.00     0.149 C 
HETATM    6  O1  UNL     1       7.315   7.422  10.824  1.00  0.00    -0.293 OA
HETATM    7  C6  UNL     1       5.232   6.346  10.733  1.00  0.00     0.053 C 
HETATM    8  C7  UNL     1       3.908   6.413  10.497  1.00  0.00    -0.067 C 
HETATM    9  C8  UNL     1       3.128   5.141  10.323  1.00  0.00     0.035 C 
HETATM   10  C9  UNL     1       1.808   5.147  11.082  1.00  0.00     0.010 C 
HETATM   11  C10 UNL     1       0.944   6.371  10.727  1.00  0.00     0.003 C 
HETATM   12  C11 UNL     1       1.711   7.713  10.941  1.00  0.00     0.072 C 
HETATM   13  C12 UNL     1       1.604   8.186  12.402  1.00  0.00     0.133 C 
HETATM   14  O2  UNL     1       2.010   9.290  12.767  1.00  0.00    -0.297 OA
HETATM   15  C13 UNL     1       0.864   7.317  13.387  1.00  0.00     0.091 C 
HETATM   16  C14 UNL     1      -0.534   6.997  12.842  1.00  0.00     0.005 C 
HETATM   17  C15 UNL     1      -1.368   8.310  12.788  1.00  0.00     0.019 C 
HETATM   18  C16 UNL     1      -0.461   6.416  11.387  1.00  0.00     0.002 C 
HETATM   19  C17 UNL     1      -1.243   5.092  11.414  1.00  0.00     0.009 C 
HETATM   20  C18 UNL     1      -2.169   5.222  12.617  1.00  0.00     0.047 C 
HETATM   21  C19 UNL     1      -1.278   5.896  13.667  1.00  0.00     0.128 C 
ENDROOT
BRANCH  21  22
HETATM   22  O3  UNL     1      -0.341   4.923  14.130  1.00  0.00    -0.381 OA
HETATM   23  H25 UNL     1      -0.844   4.162  14.486  1.00  0.00     0.211 HD
ENDBRANCH  21  22
BRANCH  21  24
HETATM   24  C20 UNL     1      -2.099   6.430  14.860  1.00  0.00     0.185 C 
HETATM   25  O4  UNL     1      -1.591   7.145  15.731  1.00  0.00    -0.292 OA
BRANCH  24  26
HETATM   26  C21 UNL     1      -3.557   5.978  14.955  1.00  0.00     0.260 C 
BRANCH  26  27
HETATM   27  O5  UNL     1      -4.462   6.959  14.444  1.00  0.00    -0.314 OA
BRANCH  27  28
HETATM   28  C22 UNL     1      -5.758   6.551  14.404  1.00  0.00     0.259 C 
HETATM   29  O6  UNL     1      -6.338   6.220  13.375  1.00  0.00    -0.265 OA
BRANCH  28  30
HETATM   30  C23 UNL     1      -6.412   6.567  15.766  1.00  0.00     0.120 C 
BRANCH  30  31
HETATM   31  C24 UNL     1      -7.912   6.300  15.744  1.00  0.00     0.112 C 
BRANCH  31  32
HETATM   32  C25 UNL     1      -8.706   7.550  15.443  1.00  0.00     0.218 C 
HETATM   33  O7  UNL     1      -8.198   8.605  15.083  1.00  0.00    -0.274 OA
HETATM   34  N1  UNL     1     -10.059   7.377  15.639  1.00  0.00    -0.361 N 
HETATM   35  H32 UNL     1     -10.399   6.474  15.942  1.00  0.00     0.162 HD
BRANCH  34  36
HETATM   36  C26 UNL     1     -11.014   8.460  15.505  1.00  0.00     0.127 C 
BRANCH  36  37
HETATM   37  C27 UNL     1     -12.076   8.206  14.419  1.00  0.00     0.003 C 
HETATM   38  C28 UNL     1     -13.377   8.980  14.665  1.00  0.00     0.007 C 
HETATM   39  C29 UNL     1     -14.344   8.856  13.482  1.00  0.00     0.015 C 
HETATM   40  C30 UNL     1     -14.271   7.497  12.773  1.00  0.00     0.084 C 
HETATM   41  C32 UNL     1     -13.757   6.396  13.701  1.00  0.00     0.015 C 
HETATM   42  C33 UNL     1     -12.350   6.701  14.219  1.00  0.00     0.007 C 
BRANCH  40  43
HETATM   43  C31 UNL     1     -15.616   7.159  12.169  1.00  0.00     0.143 C 
HETATM   44  O8  UNL     1     -16.375   6.289  12.562  1.00  0.00    -0.650 OA
BRANCH  43  45
HETATM   45  O9  UNL     1     -15.916   7.878  11.070  1.00  0.00    -0.776 OA
HETATM   46  H41 UNL     1     -16.774   7.515  10.771  1.00  0.00     0.167 HD
ENDBRANCH  43  45
ENDBRANCH  40  43
ENDBRANCH  36  37
ENDBRANCH  34  36
ENDBRANCH  31  32
ENDBRANCH  30  31
ENDBRANCH  28  30
ENDBRANCH  27  28
ENDBRANCH  26  27
ENDBRANCH  24  26
ENDBRANCH  21  24
TORSDOF 12
ENDMDL
MODEL 9
REMARK minimizedAffinity -9.20077419
REMARK CNNscore 0.341111958
REMARK CNNaffinity 6.16098261
REMARK  12 active torsions:
REMARK  status: ('A' for Active; 'I' for Inactive)
REMARK    1  A    between atoms: C19_21  and  O3_22 
REMARK    2  A    between atoms: C19_21  and  C20_23 
REMARK    3  A    between atoms: C20_23  and  C21_25 
REMARK    4  A    between atoms: C21_25  and  O5_26 
REMARK    5  A    between atoms: O5_26  and  C22_27 
REMARK    6  A    between atoms: C22_27  and  C23_29 
REMARK    7  A    between atoms: C23_29  and  C24_30 
REMARK    8  A    between atoms: C24_30  and  C25_31 
REMARK       I    between atoms: C25_31  and  N1_33 
REMARK    9  A    between atoms: N1_33  and  C26_34 
REMARK   10  A    between atoms: C26_34  and  C27_35 
REMARK   11  A    between atoms: C30_38  and  C31_39 
REMARK   12  A    between atoms: C31_39  and  O9_41 
ROOT
HETATM    1  C1  UNL     1       0.382   7.761   9.213  1.00  0.00     0.021 C 
HETATM    2  C2  UNL     1       1.111   7.584  10.573  1.00  0.00    -0.009 C 
HETATM    3  C3  UNL     1       2.558   8.137  10.424  1.00  0.00     0.022 C 
HETATM    4  C4  UNL     1       3.434   7.326   9.479  1.00  0.00     0.084 C 
HETATM    5  C5  UNL     1       3.471   5.888   9.929  1.00  0.00     0.149 C 
HETATM    6  O1  UNL     1       4.413   5.144   9.663  1.00  0.00    -0.293 OA
HETATM    7  C6  UNL     1       2.281   5.336  10.624  1.00  0.00     0.053 C 
HETATM    8  C7  UNL     1       1.186   6.082  10.862  1.00  0.00    -0.067 C 
HETATM    9  C8  UNL     1      -0.069   5.411  11.345  1.00  0.00     0.035 C 
HETATM   10  C9  UNL     1      -0.741   6.163  12.486  1.00  0.00     0.010 C 
HETATM   11  C10 UNL     1      -1.012   7.635  12.125  1.00  0.00     0.003 C 
HETATM   12  C11 UNL     1       0.282   8.374  11.663  1.00  0.00     0.072 C 
HETATM   13  C12 UNL     1       1.071   8.918  12.867  1.00  0.00     0.133 C 
HETATM   14  O2  UNL     1       2.048   9.658  12.734  1.00  0.00    -0.297 OA
HETATM   15  C13 UNL     1       0.551   8.637  14.254  1.00  0.00     0.091 C 
HETATM   16  C14 UNL     1      -0.915   9.077  14.353  1.00  0.00     0.005 C 
HETATM   17  C15 UNL     1      -0.987  10.625  14.225  1.00  0.00     0.019 C 
HETATM   18  C16 UNL     1      -1.777   8.459  13.196  1.00  0.00     0.002 C 
HETATM   19  C17 UNL     1      -2.965   7.758  13.874  1.00  0.00     0.009 C 
HETATM   20  C18 UNL     1      -3.078   8.432  15.236  1.00  0.00     0.047 C 
HETATM   21  C19 UNL     1      -1.615   8.591  15.665  1.00  0.00     0.128 C 
ENDROOT
BRANCH  21  22
HETATM   22  O3  UNL     1      -1.126   7.298  16.024  1.00  0.00    -0.381 OA
HETATM   23  H25 UNL     1      -1.697   6.945  16.736  1.00  0.00     0.211 HD
ENDBRANCH  21  22
BRANCH  21  24
HETATM   24  C20 UNL     1      -1.470   9.550  16.865  1.00  0.00     0.185 C 
HETATM   25  O4  UNL     1      -2.382   9.711  17.684  1.00  0.00    -0.292 OA
BRANCH  24  26
HETATM   26  C21 UNL     1      -0.169  10.349  16.961  1.00  0.00     0.260 C 
BRANCH  26  27
HETATM   27  O5  UNL     1       0.392  10.313  18.274  1.00  0.00    -0.314 OA
BRANCH  27  28
HETATM   28  C22 UNL     1       1.731  10.075  18.299  1.00  0.00     0.259 C 
HETATM   29  O6  UNL     1       2.312   9.360  17.489  1.00  0.00    -0.265 OA
BRANCH  28  30
HETATM   30  C23 UNL     1       2.422  10.773  19.447  1.00  0.00     0.120 C 
BRANCH  30  31
HETATM   31  C24 UNL     1       1.799  10.502  20.811  1.00  0.00     0.112 C 
BRANCH  31  32
HETATM   32  C25 UNL     1       2.792  10.689  21.935  1.00  0.00     0.218 C 
HETATM   33  O7  UNL     1       3.004   9.847  22.798  1.00  0.00    -0.274 OA
HETATM   34  N1  UNL     1       3.413  11.919  21.892  1.00  0.00    -0.361 N 
HETATM   35  H32 UNL     1       3.178  12.561  21.147  1.00  0.00     0.162 HD
BRANCH  34  36
HETATM   36  C26 UNL     1       4.336  12.364  22.918  1.00  0.00     0.127 C 
BRANCH  36  37
HETATM   37  C27 UNL     1       5.815  12.140  22.547  1.00  0.00     0.003 C 
HETATM   38  C28 UNL     1       6.760  13.126  23.244  1.00  0.00     0.007 C 
HETATM   39  C29 UNL     1       8.231  12.766  23.007  1.00  0.00     0.015 C 
HETATM   40  C30 UNL     1       8.494  12.150  21.626  1.00  0.00     0.084 C 
HETATM   41  C32 UNL     1       7.440  12.574  20.601  1.00  0.00     0.015 C 
HETATM   42  C33 UNL     1       6.035  12.139  21.021  1.00  0.00     0.007 C 
BRANCH  40  43
HETATM   43  C31 UNL     1       9.900  12.479  21.175  1.00  0.00     0.143 C 
HETATM   44  O8  UNL     1      10.716  11.679  20.748  1.00  0.00    -0.650 OA
BRANCH  43  45
HETATM   45  O9  UNL     1      10.237  13.772  21.338  1.00  0.00    -0.776 OA
HETATM   46  H41 UNL     1      11.173  13.816  21.056  1.00  0.00     0.167 HD
ENDBRANCH  43  45
ENDBRANCH  40  43
ENDBRANCH  36  37
ENDBRANCH  34  36
ENDBRANCH  31  32
ENDBRANCH  30  31
ENDBRANCH  28  30
ENDBRANCH  27  28
ENDBRANCH  26  27
ENDBRANCH  24  26
ENDBRANCH  21  24
TORSDOF 12
ENDMDL
