MODEL 1
REMARK minimizedAffinity -9.34232807
REMARK CNNscore 0.3297351
REMARK CNNaffinity 7.6554184
REMARK  13 active torsions:
REMARK  status: ('A' for Active; 'I' for Inactive)
REMARK    1  A    between atoms: O1_2  and  C2_3 
REMARK    2  A    between atoms: C2_3  and  C3_5 
REMARK    3  A    between atoms: C3_5  and  C4_6 
REMARK    4  A    between atoms: C3_5  and  N2_16 
REMARK    5  A    between atoms: C4_6  and  C5_7 
REMARK       I    between atoms: N2_16  and  C13_17 
REMARK    6  A    between atoms: C13_17  and  C14_19 
REMARK    7  A    between atoms: C14_19  and  C15_20 
REMARK    8  A    between atoms: C15_20  and  C16_21 
REMARK    9  A    between atoms: C16_21  and  O5_23 
REMARK   10  A    between atoms: O5_23  and  C17_24 
REMARK   11  A    between atoms: C17_24  and  C18_25 
REMARK   12  A    between atoms: C18_25  and  C19_27 
REMARK   13  A    between atoms: C19_27  and  O7_28 
ROOT
HETATM    1  C17 UNL     1      -0.184   4.875  12.418  1.00  0.00     0.260 C 
ENDROOT
BRANCH   1   2
HETATM    2  O5  UNL     1       0.751   5.497  11.536  1.00  0.00    -0.314 OA
BRANCH   2   3
HETATM    3  C16 UNL     1       0.474   6.804  11.255  1.00  0.00     0.259 C 
HETATM    4  O4  UNL     1       0.231   7.241  10.137  1.00  0.00    -0.265 OA
BRANCH   3   5
HETATM    5  C15 UNL     1       0.466   7.618  12.525  1.00  0.00     0.120 C 
BRANCH   5   6
HETATM    6  C14 UNL     1       1.566   7.131  13.460  1.00  0.00     0.112 C 
BRANCH   6   7
HETATM    7  C13 UNL     1       2.868   7.875  13.245  1.00  0.00     0.218 C 
HETATM    8  N2  UNL     1       2.814   8.797  12.231  1.00  0.00    -0.347 N 
HETATM    9  H13 UNL     1       1.981   8.886  11.656  1.00  0.00     0.163 HD
HETATM   10  O3  UNL     1       3.852   7.727  13.959  1.00  0.00    -0.274 OA
BRANCH   8  11
HETATM   11  C3  UNL     1       3.971   9.624  11.865  1.00  0.00     0.188 C 
BRANCH  11  12
HETATM   12  C2  UNL     1       4.455  10.300  13.145  1.00  0.00     0.281 C 
HETATM   13  O2  UNL     1       3.735  10.986  13.867  1.00  0.00    -0.263 OA
BRANCH  12  14
HETATM   14  O1  UNL     1       5.775  10.056  13.365  1.00  0.00    -0.325 OA
HETATM   15  C1  UNL     1       6.246  10.492  14.640  1.00  0.00     0.213 C 
ENDBRANCH  12  14
ENDBRANCH  11  12
BRANCH  11  16
HETATM   16  C4  UNL     1       5.094   8.772  11.260  1.00  0.00     0.076 C 
BRANCH  16  17
HETATM   17  C5  UNL     1       4.599   7.530  10.586  1.00  0.00    -0.028 A 
HETATM   18  C6  UNL     1       4.872   6.226  10.951  1.00  0.00     0.096 A 
HETATM   19  N1  UNL     1       4.243   5.394  10.066  1.00  0.00    -0.365 N 
HETATM   20  C7  UNL     1       3.559   6.125   9.124  1.00  0.00     0.042 A 
HETATM   21  H8  UNL     1       4.275   4.385  10.093  1.00  0.00     0.165 HD
HETATM   22  C8  UNL     1       2.788   5.698   8.036  1.00  0.00     0.030 A 
HETATM   23  C12 UNL     1       3.753   7.471   9.430  1.00  0.00    -0.002 A 
HETATM   24  C9  UNL     1       2.196   6.682   7.239  1.00  0.00     0.002 A 
HETATM   25  C10 UNL     1       2.366   8.034   7.524  1.00  0.00     0.001 A 
HETATM   26  C11 UNL     1       3.141   8.443   8.615  1.00  0.00     0.014 A 
ENDBRANCH  16  17
ENDBRANCH  11  16
ENDBRANCH   8  11
ENDBRANCH   6   7
ENDBRANCH   5   6
ENDBRANCH   3   5
ENDBRANCH   2   3
ENDBRANCH   1   2
BRANCH   1  27
HETATM   27  C18 UNL     1      -0.895   3.679  11.785  1.00  0.00     0.185 C 
HETATM   28  O6  UNL     1      -0.285   2.638  11.530  1.00  0.00    -0.292 OA
BRANCH  27  29
HETATM   29  C19 UNL     1      -2.411   3.829  11.513  1.00  0.00     0.128 C 
HETATM   30  C20 UNL     1      -3.096   2.472  11.180  1.00  0.00     0.047 C 
HETATM   31  C21 UNL     1      -4.512   2.519  11.789  1.00  0.00     0.009 C 
HETATM   32  C22 UNL     1      -4.681   3.963  12.246  1.00  0.00     0.002 C 
HETATM   33  C23 UNL     1      -5.757   4.293  13.297  1.00  0.00     0.003 C 
HETATM   34  C36 UNL     1      -3.246   4.360  12.717  1.00  0.00     0.005 C 
HETATM   35  C24 UNL     1      -7.158   3.733  12.984  1.00  0.00     0.010 C 
HETATM   36  C33 UNL     1      -5.761   5.841  13.498  1.00  0.00     0.072 C 
HETATM   37  C25 UNL     1      -8.197   4.804  12.670  1.00  0.00     0.035 C 
HETATM   38  C26 UNL     1      -8.245   5.934  13.675  1.00  0.00    -0.067 C 
HETATM   39  C27 UNL     1      -9.391   6.620  13.836  1.00  0.00     0.053 C 
HETATM   40  C31 UNL     1      -6.942   6.324  14.390  1.00  0.00    -0.009 C 
HETATM   41  C28 UNL     1      -9.465   7.832  14.685  1.00  0.00     0.149 C 
HETATM   42  O8  UNL     1     -10.565   8.329  14.920  1.00  0.00    -0.293 OA
HETATM   43  C29 UNL     1      -8.187   8.407  15.248  1.00  0.00     0.084 C 
HETATM   44  C30 UNL     1      -6.944   7.871  14.537  1.00  0.00     0.022 C 
HETATM   45  C32 UNL     1      -6.914   5.663  15.788  1.00  0.00     0.021 C 
HETATM   46  C34 UNL     1      -4.345   6.266  13.914  1.00  0.00     0.133 C 
HETATM   47  O9  UNL     1      -4.091   6.899  14.933  1.00  0.00    -0.297 OA
HETATM   48  C35 UNL     1      -3.232   5.882  12.942  1.00  0.00     0.091 C 
HETATM   49  C37 UNL     1      -2.808   3.652  14.029  1.00  0.00     0.019 C 
BRANCH  29  50
HETATM   50  O7  UNL     1      -2.592   4.696  10.388  1.00  0.00    -0.381 OA
HETATM   51  H20 UNL     1      -2.143   4.286   9.623  1.00  0.00     0.211 HD
ENDBRANCH  29  50
ENDBRANCH  27  29
ENDBRANCH   1  27
TORSDOF 13
ENDMDL
MODEL 2
REMARK minimizedAffinity -8.13504887
REMARK CNNscore 0.293703437
REMARK CNNaffinity 5.93185997
REMARK  13 active torsions:
REMARK  status: ('A' for Active; 'I' for Inactive)
REMARK    1  A    between atoms: O1_2  and  C2_3 
REMARK    2  A    between atoms: C2_3  and  C3_5 
REMARK    3  A    between atoms: C3_5  and  C4_6 
REMARK    4  A    between atoms: C3_5  and  N2_16 
REMARK    5  A    between atoms: C4_6  and  C5_7 
REMARK       I    between atoms: N2_16  and  C13_17 
REMARK    6  A    between atoms: C13_17  and  C14_19 
REMARK    7  A    between atoms: C14_19  and  C15_20 
REMARK    8  A    between atoms: C15_20  and  C16_21 
REMARK    9  A    between atoms: C16_21  and  O5_23 
REMARK   10  A    between atoms: O5_23  and  C17_24 
REMARK   11  A    between atoms: C17_24  and  C18_25 
REMARK   12  A    between atoms: C18_25  and  C19_27 
REMARK   13  A    between atoms: C19_27  and  O7_28 
ROOT
HETATM    1  C17 UNL     1       1.019  11.281  18.802  1.00  0.00     0.260 C 
ENDROOT
BRANCH   1   2
HETATM    2  O5  UNL     1       1.076  11.240  20.228  1.00  0.00    -0.314 OA
BRANCH   2   3
HETATM    3  C16 UNL     1       2.118  10.513  20.728  1.00  0.00     0.259 C 
HETATM    4  O4  UNL     1       2.613   9.536  20.180  1.00  0.00    -0.265 OA
BRANCH   3   5
HETATM    5  C15 UNL     1       2.596  11.115  22.026  1.00  0.00     0.120 C 
BRANCH   5   6
HETATM    6  C14 UNL     1       4.009  10.633  22.330  1.00  0.00     0.112 C 
BRANCH   6   7
HETATM    7  C13 UNL     1       5.035  11.735  22.168  1.00  0.00     0.218 C 
HETATM    8  N2  UNL     1       5.984  11.754  23.158  1.00  0.00    -0.347 N 
HETATM    9  H13 UNL     1       5.922  11.116  23.947  1.00  0.00     0.163 HD
HETATM   10  O3  UNL     1       5.064  12.490  21.204  1.00  0.00    -0.274 OA
BRANCH   8  11
HETATM   11  C3  UNL     1       7.068  12.745  23.183  1.00  0.00     0.188 C 
BRANCH  11  12
HETATM   12  C2  UNL     1       8.298  12.071  22.580  1.00  0.00     0.281 C 
HETATM   13  O2  UNL     1       9.094  11.399  23.232  1.00  0.00    -0.263 OA
BRANCH  12  14
HETATM   14  O1  UNL     1       8.398  12.326  21.248  1.00  0.00    -0.325 OA
HETATM   15  C1  UNL     1       9.615  11.872  20.656  1.00  0.00     0.213 C 
ENDBRANCH  12  14
ENDBRANCH  11  12
BRANCH  11  16
HETATM   16  C4  UNL     1       6.698  13.994  22.372  1.00  0.00     0.076 C 
BRANCH  16  17
HETATM   17  C5  UNL     1       6.303  15.159  23.225  1.00  0.00    -0.028 A 
HETATM   18  C6  UNL     1       5.047  15.726  23.320  1.00  0.00     0.096 A 
HETATM   19  N1  UNL     1       5.119  16.778  24.192  1.00  0.00    -0.365 N 
HETATM   20  C7  UNL     1       6.398  16.916  24.674  1.00  0.00     0.042 A 
HETATM   21  H8  UNL     1       4.345  17.375  24.447  1.00  0.00     0.165 HD
HETATM   22  C8  UNL     1       6.929  17.848  25.573  1.00  0.00     0.030 A 
HETATM   23  C12 UNL     1       7.164  15.906  24.093  1.00  0.00    -0.002 A 
HETATM   24  C9  UNL     1       8.285  17.740  25.890  1.00  0.00     0.002 A 
HETATM   25  C10 UNL     1       9.075  16.738  25.332  1.00  0.00     0.001 A 
HETATM   26  C11 UNL     1       8.529  15.815  24.433  1.00  0.00     0.014 A 
ENDBRANCH  16  17
ENDBRANCH  11  16
ENDBRANCH   8  11
ENDBRANCH   6   7
ENDBRANCH   5   6
ENDBRANCH   3   5
ENDBRANCH   2   3
ENDBRANCH   1   2
BRANCH   1  27
HETATM   27  C18 UNL     1      -0.191  12.053  18.276  1.00  0.00     0.185 C 
HETATM   28  O6  UNL     1      -0.101  13.243  17.965  1.00  0.00    -0.292 OA
BRANCH  27  29
HETATM   29  C19 UNL     1      -1.513  11.263  18.125  1.00  0.00     0.128 C 
HETATM   30  C20 UNL     1      -2.769  12.179  18.195  1.00  0.00     0.047 C 
HETATM   31  C21 UNL     1      -3.811  11.593  17.221  1.00  0.00     0.009 C 
HETATM   32  C22 UNL     1      -3.224  10.251  16.800  1.00  0.00     0.002 C 
HETATM   33  C23 UNL     1      -3.734   9.584  15.508  1.00  0.00     0.003 C 
HETATM   34  C36 UNL     1      -1.688  10.527  16.762  1.00  0.00     0.005 C 
HETATM   35  C24 UNL     1      -5.267   9.481  15.397  1.00  0.00     0.010 C 
HETATM   36  C33 UNL     1      -3.029   8.197  15.384  1.00  0.00     0.072 C 
HETATM   37  C25 UNL     1      -5.798   8.054  15.460  1.00  0.00     0.035 C 
HETATM   38  C26 UNL     1      -5.093   7.089  14.532  1.00  0.00    -0.067 C 
HETATM   39  C27 UNL     1      -5.751   6.002  14.091  1.00  0.00     0.053 C 
HETATM   40  C31 UNL     1      -3.607   7.336  14.223  1.00  0.00    -0.009 C 
HETATM   41  C28 UNL     1      -5.075   4.940  13.310  1.00  0.00     0.149 C 
HETATM   42  O8  UNL     1      -5.754   4.049  12.803  1.00  0.00    -0.293 OA
HETATM   43  C29 UNL     1      -3.575   4.997  13.148  1.00  0.00     0.084 C 
HETATM   44  C30 UNL     1      -2.916   5.946  14.151  1.00  0.00     0.022 C 
HETATM   45  C32 UNL     1      -3.486   8.055  12.859  1.00  0.00     0.021 C 
HETATM   46  C34 UNL     1      -1.512   8.436  15.395  1.00  0.00     0.133 C 
HETATM   47  O9  UNL     1      -0.751   8.049  14.515  1.00  0.00    -0.297 OA
HETATM   48  C35 UNL     1      -0.973   9.173  16.617  1.00  0.00     0.091 C 
HETATM   49  C37 UNL     1      -1.256  11.453  15.592  1.00  0.00     0.019 C 
BRANCH  29  50
HETATM   50  O7  UNL     1      -1.606  10.315  19.194  1.00  0.00    -0.381 OA
HETATM   51  H20 UNL     1      -1.596  10.813  20.034  1.00  0.00     0.211 HD
ENDBRANCH  29  50
ENDBRANCH  27  29
ENDBRANCH   1  27
TORSDOF 13
ENDMDL
MODEL 3
REMARK minimizedAffinity -9.37385368
REMARK CNNscore 0.270157218
REMARK CNNaffinity 6.4421134
REMARK  13 active torsions:
REMARK  status: ('A' for Active; 'I' for Inactive)
REMARK    1  A    between atoms: O1_2  and  C2_3 
REMARK    2  A    between atoms: C2_3  and  C3_5 
REMARK    3  A    between atoms: C3_5  and  C4_6 
REMARK    4  A    between atoms: C3_5  and  N2_16 
REMARK    5  A    between atoms: C4_6  and  C5_7 
REMARK       I    between atoms: N2_16  and  C13_17 
REMARK    6  A    between atoms: C13_17  and  C14_19 
REMARK    7  A    between atoms: C14_19  and  C15_20 
REMARK    8  A    between atoms: C15_20  and  C16_21 
REMARK    9  A    between atoms: C16_21  and  O5_23 
REMARK   10  A    between atoms: O5_23  and  C17_24 
REMARK   11  A    between atoms: C17_24  and  C18_25 
REMARK   12  A    between atoms: C18_25  and  C19_27 
REMARK   13  A    between atoms: C19_27  and  O7_28 
ROOT
HETATM    1  C17 UNL     1       0.079  11.106  15.902  1.00  0.00     0.260 C 
ENDROOT
BRANCH   1   2
HETATM    2  O5  UNL     1      -0.296  10.608  17.187  1.00  0.00    -0.314 OA
BRANCH   2   3
HETATM    3  C16 UNL     1      -0.469  11.575  18.135  1.00  0.00     0.259 C 
HETATM    4  O4  UNL     1      -0.730  12.748  17.896  1.00  0.00    -0.265 OA
BRANCH   3   5
HETATM    5  C15 UNL     1      -0.337  10.980  19.515  1.00  0.00     0.120 C 
BRANCH   5   6
HETATM    6  C14 UNL     1       0.696  11.760  20.319  1.00  0.00     0.112 C 
BRANCH   6   7
HETATM    7  C13 UNL     1       1.928  10.932  20.619  1.00  0.00     0.218 C 
HETATM    8  N2  UNL     1       3.104  11.623  20.476  1.00  0.00    -0.347 N 
HETATM    9  H13 UNL     1       3.105  12.577  20.128  1.00  0.00     0.163 HD
HETATM   10  O3  UNL     1       1.879   9.778  21.028  1.00  0.00    -0.274 OA
BRANCH   8  11
HETATM   11  C3  UNL     1       4.411  11.000  20.722  1.00  0.00     0.188 C 
BRANCH  11  12
HETATM   12  C2  UNL     1       5.410  11.687  19.794  1.00  0.00     0.281 C 
HETATM   13  O2  UNL     1       5.367  12.882  19.513  1.00  0.00    -0.263 OA
BRANCH  12  14
HETATM   14  O1  UNL     1       6.330  10.805  19.318  1.00  0.00    -0.325 OA
HETATM   15  C1  UNL     1       7.670  11.299  19.320  1.00  0.00     0.213 C 
ENDBRANCH  12  14
ENDBRANCH  11  12
BRANCH  11  16
HETATM   16  C4  UNL     1       4.842  11.172  22.184  1.00  0.00     0.076 C 
BRANCH  16  17
HETATM   17  C5  UNL     1       5.002  12.604  22.590  1.00  0.00    -0.028 A 
HETATM   18  C6  UNL     1       3.998  13.542  22.723  1.00  0.00     0.096 A 
HETATM   19  N1  UNL     1       4.569  14.729  23.094  1.00  0.00    -0.365 N 
HETATM   20  C7  UNL     1       5.931  14.591  23.207  1.00  0.00     0.042 A 
HETATM   21  H8  UNL     1       4.066  15.590  23.258  1.00  0.00     0.165 HD
HETATM   22  C8  UNL     1       6.908  15.533  23.552  1.00  0.00     0.030 A 
HETATM   23  C12 UNL     1       6.234  13.264  22.908  1.00  0.00    -0.002 A 
HETATM   24  C9  UNL     1       8.236  15.099  23.594  1.00  0.00     0.002 A 
HETATM   25  C10 UNL     1       8.569  13.778  23.308  1.00  0.00     0.001 A 
HETATM   26  C11 UNL     1       7.580  12.850  22.963  1.00  0.00     0.014 A 
ENDBRANCH  16  17
ENDBRANCH  11  16
ENDBRANCH   8  11
ENDBRANCH   6   7
ENDBRANCH   5   6
ENDBRANCH   3   5
ENDBRANCH   2   3
ENDBRANCH   1   2
BRANCH   1  27
HETATM   27  C18 UNL     1      -1.070  11.073  14.894  1.00  0.00     0.185 C 
HETATM   28  O6  UNL     1      -1.710  12.093  14.627  1.00  0.00    -0.292 OA
BRANCH  27  29
HETATM   29  C19 UNL     1      -1.361   9.718  14.208  1.00  0.00     0.128 C 
HETATM   30  C20 UNL     1      -0.244   8.665  14.464  1.00  0.00     0.047 C 
HETATM   31  C21 UNL     1      -0.934   7.291  14.576  1.00  0.00     0.009 C 
HETATM   32  C22 UNL     1      -2.376   7.555  14.159  1.00  0.00     0.002 C 
HETATM   33  C23 UNL     1      -3.470   6.552  14.571  1.00  0.00     0.003 C 
HETATM   34  C36 UNL     1      -2.649   8.993  14.702  1.00  0.00     0.005 C 
HETATM   35  C24 UNL     1      -3.150   5.080  14.248  1.00  0.00     0.010 C 
HETATM   36  C33 UNL     1      -4.812   7.029  13.932  1.00  0.00     0.072 C 
HETATM   37  C25 UNL     1      -4.044   4.474  13.172  1.00  0.00     0.035 C 
HETATM   38  C26 UNL     1      -5.523   4.702  13.395  1.00  0.00    -0.067 C 
HETATM   39  C27 UNL     1      -6.406   3.829  12.879  1.00  0.00     0.053 C 
HETATM   40  C31 UNL     1      -5.959   5.991  14.109  1.00  0.00    -0.009 C 
HETATM   41  C28 UNL     1      -7.867   4.072  12.925  1.00  0.00     0.149 C 
HETATM   42  O8  UNL     1      -8.633   3.175  12.579  1.00  0.00    -0.293 OA
HETATM   43  C29 UNL     1      -8.368   5.411  13.412  1.00  0.00     0.084 C 
HETATM   44  C30 UNL     1      -7.269   6.474  13.426  1.00  0.00     0.022 C 
HETATM   45  C32 UNL     1      -6.226   5.679  15.599  1.00  0.00     0.021 C 
HETATM   46  C34 UNL     1      -5.080   8.463  14.412  1.00  0.00     0.133 C 
HETATM   47  O9  UNL     1      -6.108   8.815  14.981  1.00  0.00    -0.297 OA
HETATM   48  C35 UNL     1      -3.981   9.475  14.102  1.00  0.00     0.091 C 
HETATM   49  C37 UNL     1      -2.741   9.059  16.252  1.00  0.00     0.019 C 
BRANCH  29  50
HETATM   50  O7  UNL     1      -1.445   9.927  12.794  1.00  0.00    -0.381 OA
HETATM   51  H20 UNL     1      -0.587  10.288  12.496  1.00  0.00     0.211 HD
ENDBRANCH  29  50
ENDBRANCH  27  29
ENDBRANCH   1  27
TORSDOF 13
ENDMDL
MODEL 4
REMARK minimizedAffinity -9.13151073
REMARK CNNscore 0.269451201
REMARK CNNaffinity 7.03649855
REMARK  13 active torsions:
REMARK  status: ('A' for Active; 'I' for Inactive)
REMARK    1  A    between atoms: O1_2  and  C2_3 
REMARK    2  A    between atoms: C2_3  and  C3_5 
REMARK    3  A    between atoms: C3_5  and  C4_6 
REMARK    4  A    between atoms: C3_5  and  N2_16 
REMARK    5  A    between atoms: C4_6  and  C5_7 
REMARK       I    between atoms: N2_16  and  C13_17 
REMARK    6  A    between atoms: C13_17  and  C14_19 
REMARK    7  A    between atoms: C14_19  and  C15_20 
REMARK    8  A    between atoms: C15_20  and  C16_21 
REMARK    9  A    between atoms: C16_21  and  O5_23 
REMARK   10  A    between atoms: O5_23  and  C17_24 
REMARK   11  A    between atoms: C17_24  and  C18_25 
REMARK   12  A    between atoms: C18_25  and  C19_27 
REMARK   13  A    between atoms: C19_27  and  O7_28 
ROOT
HETATM    1  C17 UNL     1      -2.936   4.904  13.183  1.00  0.00     0.260 C 
ENDROOT
BRANCH   1   2
HETATM    2  O5  UNL     1      -4.061   5.149  12.338  1.00  0.00    -0.314 OA
BRANCH   2   3
HETATM    3  C16 UNL     1      -4.653   4.019  11.851  1.00  0.00     0.259 C 
HETATM    4  O4  UNL     1      -4.414   3.522  10.757  1.00  0.00    -0.265 OA
BRANCH   3   5
HETATM    5  C15 UNL     1      -5.608   3.452  12.870  1.00  0.00     0.120 C 
BRANCH   5   6
HETATM    6  C14 UNL     1      -7.040   3.814  12.497  1.00  0.00     0.112 C 
BRANCH   6   7
HETATM    7  C13 UNL     1      -7.515   5.066  13.204  1.00  0.00     0.218 C 
HETATM    8  N2  UNL     1      -7.875   4.858  14.511  1.00  0.00    -0.347 N 
HETATM    9  H13 UNL     1      -7.877   3.921  14.904  1.00  0.00     0.163 HD
HETATM   10  O3  UNL     1      -7.504   6.176  12.685  1.00  0.00    -0.274 OA
BRANCH   8  11
HETATM   11  C3  UNL     1      -8.362   5.946  15.370  1.00  0.00     0.188 C 
BRANCH  11  12
HETATM   12  C2  UNL     1      -7.196   6.356  16.268  1.00  0.00     0.281 C 
HETATM   13  O2  UNL     1      -7.334   6.957  17.330  1.00  0.00    -0.263 OA
BRANCH  12  14
HETATM   14  O1  UNL     1      -6.004   5.983  15.730  1.00  0.00    -0.325 OA
HETATM   15  C1  UNL     1      -5.169   7.075  15.344  1.00  0.00     0.213 C 
ENDBRANCH  12  14
ENDBRANCH  11  12
BRANCH  11  16
HETATM   16  C4  UNL     1      -8.834   7.143  14.537  1.00  0.00     0.076 C 
BRANCH  16  17
HETATM   17  C5  UNL     1     -10.076   7.785  15.071  1.00  0.00    -0.028 A 
HETATM   18  C6  UNL     1     -10.178   8.584  16.193  1.00  0.00     0.096 A 
HETATM   19  N1  UNL     1     -11.488   8.949  16.340  1.00  0.00    -0.365 N 
HETATM   20  C7  UNL     1     -12.253   8.406  15.336  1.00  0.00     0.042 A 
HETATM   21  H8  UNL     1     -11.850   9.532  17.081  1.00  0.00     0.165 HD
HETATM   22  C8  UNL     1     -13.629   8.505  15.095  1.00  0.00     0.030 A 
HETATM   23  C12 UNL     1     -11.393   7.677  14.515  1.00  0.00    -0.002 A 
HETATM   24  C9  UNL     1     -14.137   7.841  13.975  1.00  0.00     0.002 A 
HETATM   25  C10 UNL     1     -13.302   7.112  13.133  1.00  0.00     0.001 A 
HETATM   26  C11 UNL     1     -11.930   7.021  13.390  1.00  0.00     0.014 A 
ENDBRANCH  16  17
ENDBRANCH  11  16
ENDBRANCH   8  11
ENDBRANCH   6   7
ENDBRANCH   5   6
ENDBRANCH   3   5
ENDBRANCH   2   3
ENDBRANCH   1   2
BRANCH   1  27
HETATM   27  C18 UNL     1      -1.899   6.026  13.133  1.00  0.00     0.185 C 
HETATM   28  O6  UNL     1      -2.176   7.165  13.516  1.00  0.00    -0.292 OA
BRANCH  27  29
HETATM   29  C19 UNL     1      -0.489   5.654  12.615  1.00  0.00     0.128 C 
HETATM   30  C20 UNL     1      -0.474   5.346  11.089  1.00  0.00     0.047 C 
HETATM   31  C21 UNL     1       0.868   5.863  10.537  1.00  0.00     0.009 C 
HETATM   32  C22 UNL     1       1.670   6.239  11.777  1.00  0.00     0.002 C 
HETATM   33  C23 UNL     1       2.863   7.203  11.634  1.00  0.00     0.003 C 
HETATM   34  C36 UNL     1       0.582   6.777  12.759  1.00  0.00     0.005 C 
HETATM   35  C24 UNL     1       3.863   6.832  10.523  1.00  0.00     0.010 C 
HETATM   36  C33 UNL     1       3.540   7.328  13.034  1.00  0.00     0.072 C 
HETATM   37  C25 UNL     1       5.231   6.402  11.040  1.00  0.00     0.035 C 
HETATM   38  C26 UNL     1       5.833   7.346  12.058  1.00  0.00    -0.067 C 
HETATM   39  C27 UNL     1       7.170   7.403  12.190  1.00  0.00     0.053 C 
HETATM   40  C31 UNL     1       4.879   8.121  12.981  1.00  0.00    -0.009 C 
HETATM   41  C28 UNL     1       7.818   8.185  13.269  1.00  0.00     0.149 C 
HETATM   42  O8  UNL     1       9.040   8.327  13.252  1.00  0.00    -0.293 OA
HETATM   43  C29 UNL     1       6.954   8.797  14.345  1.00  0.00     0.084 C 
HETATM   44  C30 UNL     1       5.551   8.191  14.381  1.00  0.00     0.022 C 
HETATM   45  C32 UNL     1       4.679   9.548  12.421  1.00  0.00     0.021 C 
HETATM   46  C34 UNL     1       2.476   7.809  14.032  1.00  0.00     0.133 C 
HETATM   47  O9  UNL     1       2.594   8.810  14.731  1.00  0.00    -0.297 OA
HETATM   48  C35 UNL     1       1.235   6.928  14.143  1.00  0.00     0.091 C 
HETATM   49  C37 UNL     1      -0.013   8.146  12.329  1.00  0.00     0.019 C 
BRANCH  29  50
HETATM   50  O7  UNL     1      -0.043   4.479  13.301  1.00  0.00    -0.381 OA
HETATM   51  H20 UNL     1      -0.682   3.764  13.109  1.00  0.00     0.211 HD
ENDBRANCH  29  50
ENDBRANCH  27  29
ENDBRANCH   1  27
TORSDOF 13
ENDMDL
MODEL 5
REMARK minimizedAffinity -9.18731403
REMARK CNNscore 0.25371477
REMARK CNNaffinity 5.70783949
REMARK  13 active torsions:
REMARK  status: ('A' for Active; 'I' for Inactive)
REMARK    1  A    between atoms: O1_2  and  C2_3 
REMARK    2  A    between atoms: C2_3  and  C3_5 
REMARK    3  A    between atoms: C3_5  and  C4_6 
REMARK    4  A    between atoms: C3_5  and  N2_16 
REMARK    5  A    between atoms: C4_6  and  C5_7 
REMARK       I    between atoms: N2_16  and  C13_17 
REMARK    6  A    between atoms: C13_17  and  C14_19 
REMARK    7  A    between atoms: C14_19  and  C15_20 
REMARK    8  A    between atoms: C15_20  and  C16_21 
REMARK    9  A    between atoms: C16_21  and  O5_23 
REMARK   10  A    between atoms: O5_23  and  C17_24 
REMARK   11  A    between atoms: C17_24  and  C18_25 
REMARK   12  A    between atoms: C18_25  and  C19_27 
REMARK   13  A    between atoms: C19_27  and  O7_28 
ROOT
HETATM    1  C17 UNL     1      -0.476  11.830  16.945  1.00  0.00     0.260 C 
ENDROOT
BRANCH   1   2
HETATM    2  O5  UNL     1      -1.834  11.727  16.513  1.00  0.00    -0.314 OA
BRANCH   2   3
HETATM    3  C16 UNL     1      -2.432  10.539  16.822  1.00  0.00     0.259 C 
HETATM    4  O4  UNL     1      -2.439  10.030  17.935  1.00  0.00    -0.265 OA
BRANCH   3   5
HETATM    5  C15 UNL     1      -3.118   9.972  15.604  1.00  0.00     0.120 C 
BRANCH   5   6
HETATM    6  C14 UNL     1      -2.987   8.454  15.596  1.00  0.00     0.112 C 
BRANCH   6   7
HETATM    7  C13 UNL     1      -4.171   7.782  14.933  1.00  0.00     0.218 C 
HETATM    8  N2  UNL     1      -4.889   6.973  15.777  1.00  0.00    -0.347 N 
HETATM    9  H13 UNL     1      -4.575   6.812  16.731  1.00  0.00     0.163 HD
HETATM   10  O3  UNL     1      -4.506   8.000  13.775  1.00  0.00    -0.274 OA
BRANCH   8  11
HETATM   11  C3  UNL     1      -6.075   6.232  15.329  1.00  0.00     0.188 C 
BRANCH  11  12
HETATM   12  C2  UNL     1      -7.292   6.958  15.900  1.00  0.00     0.281 C 
HETATM   13  O2  UNL     1      -7.598   6.941  17.090  1.00  0.00    -0.263 OA
BRANCH  12  14
HETATM   14  O1  UNL     1      -7.987   7.601  14.924  1.00  0.00    -0.325 OA
HETATM   15  C1  UNL     1      -8.152   9.001  15.149  1.00  0.00     0.213 C 
ENDBRANCH  12  14
ENDBRANCH  11  12
BRANCH  11  16
HETATM   16  C4  UNL     1      -6.157   6.188  13.798  1.00  0.00     0.076 C 
BRANCH  16  17
HETATM   17  C5  UNL     1      -6.662   4.882  13.268  1.00  0.00    -0.028 A 
HETATM   18  C6  UNL     1      -7.964   4.422  13.308  1.00  0.00     0.096 A 
HETATM   19  N1  UNL     1      -7.995   3.180  12.735  1.00  0.00    -0.365 N 
HETATM   20  C7  UNL     1      -6.739   2.812  12.318  1.00  0.00     0.042 A 
HETATM   21  H8  UNL     1      -8.821   2.607  12.633  1.00  0.00     0.165 HD
HETATM   22  C8  UNL     1      -6.303   1.638  11.693  1.00  0.00     0.030 A 
HETATM   23  C12 UNL     1      -5.880   3.866  12.629  1.00  0.00    -0.002 A 
HETATM   24  C9  UNL     1      -4.946   1.542  11.374  1.00  0.00     0.002 A 
HETATM   25  C10 UNL     1      -4.065   2.580  11.665  1.00  0.00     0.001 A 
HETATM   26  C11 UNL     1      -4.517   3.747  12.292  1.00  0.00     0.014 A 
ENDBRANCH  16  17
ENDBRANCH  11  16
ENDBRANCH   8  11
ENDBRANCH   6   7
ENDBRANCH   5   6
ENDBRANCH   3   5
ENDBRANCH   2   3
ENDBRANCH   1   2
BRANCH   1  27
HETATM   27  C18 UNL     1      -0.245  12.992  17.910  1.00  0.00     0.185 C 
HETATM   28  O6  UNL     1      -0.648  14.127  17.646  1.00  0.00    -0.292 OA
BRANCH  27  29
HETATM   29  C19 UNL     1       0.484  12.667  19.236  1.00  0.00     0.128 C 
HETATM   30  C20 UNL     1       0.099  11.270  19.803  1.00  0.00     0.047 C 
HETATM   31  C21 UNL     1       1.364  10.686  20.463  1.00  0.00     0.009 C 
HETATM   32  C22 UNL     1       2.360  11.840  20.462  1.00  0.00     0.002 C 
HETATM   33  C23 UNL     1       3.861  11.532  20.615  1.00  0.00     0.003 C 
HETATM   34  C36 UNL     1       2.037  12.591  19.132  1.00  0.00     0.005 C 
HETATM   35  C24 UNL     1       4.214  10.609  21.797  1.00  0.00     0.010 C 
HETATM   36  C33 UNL     1       4.619  12.895  20.671  1.00  0.00     0.072 C 
HETATM   37  C25 UNL     1       5.003  11.297  22.905  1.00  0.00     0.035 C 
HETATM   38  C26 UNL     1       6.200  12.082  22.417  1.00  0.00    -0.067 C 
HETATM   39  C27 UNL     1       7.241  12.276  23.247  1.00  0.00     0.053 C 
HETATM   40  C31 UNL     1       6.126  12.726  21.023  1.00  0.00    -0.009 C 
HETATM   41  C28 UNL     1       8.373  13.162  22.890  1.00  0.00     0.149 C 
HETATM   42  O8  UNL     1       9.366  13.183  23.615  1.00  0.00    -0.293 OA
HETATM   43  C29 UNL     1       8.277  14.000  21.637  1.00  0.00     0.084 C 
HETATM   44  C30 UNL     1       6.844  14.102  21.114  1.00  0.00     0.022 C 
HETATM   45  C32 UNL     1       6.855  11.818  20.006  1.00  0.00     0.021 C 
HETATM   46  C34 UNL     1       4.278  13.677  19.394  1.00  0.00     0.133 C 
HETATM   47  O9  UNL     1       5.117  14.111  18.611  1.00  0.00    -0.297 OA
HETATM   48  C35 UNL     1       2.792  13.930  19.156  1.00  0.00     0.091 C 
HETATM   49  C37 UNL     1       2.452  11.800  17.860  1.00  0.00     0.019 C 
BRANCH  29  50
HETATM   50  O7  UNL     1       0.119  13.648  20.212  1.00  0.00    -0.381 OA
HETATM   51  H20 UNL     1      -0.850  13.603  20.330  1.00  0.00     0.211 HD
ENDBRANCH  29  50
ENDBRANCH  27  29
ENDBRANCH   1  27
TORSDOF 13
ENDMDL
MODEL 6
REMARK minimizedAffinity -8.4542532
REMARK CNNscore 0.247291923
REMARK CNNaffinity 6.39878988
REMARK  13 active torsions:
REMARK  status: ('A' for Active; 'I' for Inactive)
REMARK    1  A    between atoms: O1_2  and  C2_3 
REMARK    2  A    between atoms: C2_3  and  C3_5 
REMARK    3  A    between atoms: C3_5  and  C4_6 
REMARK    4  A    between atoms: C3_5  and  N2_16 
REMARK    5  A    between atoms: C4_6  and  C5_7 
REMARK       I    between atoms: N2_16  and  C13_17 
REMARK    6  A    between atoms: C13_17  and  C14_19 
REMARK    7  A    between atoms: C14_19  and  C15_20 
REMARK    8  A    between atoms: C15_20  and  C16_21 
REMARK    9  A    between atoms: C16_21  and  O5_23 
REMARK   10  A    between atoms: O5_23  and  C17_24 
REMARK   11  A    between atoms: C17_24  and  C18_25 
REMARK   12  A    between atoms: C18_25  and  C19_27 
REMARK   13  A    between atoms: C19_27  and  O7_28 
ROOT
HETATM    1  C17 UNL     1       2.798   7.220  13.119  1.00  0.00     0.260 C 
ENDROOT
BRANCH   1   2
HETATM    2  O5  UNL     1       2.162   7.964  12.080  1.00  0.00    -0.314 OA
BRANCH   2   3
HETATM    3  C16 UNL     1       2.722   7.797  10.846  1.00  0.00     0.259 C 
HETATM    4  O4  UNL     1       3.718   8.386  10.446  1.00  0.00    -0.265 OA
BRANCH   3   5
HETATM    5  C15 UNL     1       1.963   6.751  10.068  1.00  0.00     0.120 C 
BRANCH   5   6
HETATM    6  C14 UNL     1       0.464   6.986  10.210  1.00  0.00     0.112 C 
BRANCH   6   7
HETATM    7  C13 UNL     1      -0.201   5.925  11.062  1.00  0.00     0.218 C 
HETATM    8  N2  UNL     1      -1.071   6.433  11.993  1.00  0.00    -0.347 N 
HETATM    9  H13 UNL     1      -1.172   7.437  12.114  1.00  0.00     0.163 HD
HETATM   10  O3  UNL     1      -0.040   4.723  10.886  1.00  0.00    -0.274 OA
BRANCH   8  11
HETATM   11  C3  UNL     1      -1.818   5.569  12.917  1.00  0.00     0.188 C 
BRANCH  11  12
HETATM   12  C2  UNL     1      -1.474   6.031  14.331  1.00  0.00     0.281 C 
HETATM   13  O2  UNL     1      -0.338   6.332  14.690  1.00  0.00    -0.263 OA
BRANCH  12  14
HETATM   14  O1  UNL     1      -2.575   6.048  15.128  1.00  0.00    -0.325 OA
HETATM   15  C1  UNL     1      -2.795   7.289  15.797  1.00  0.00     0.213 C 
ENDBRANCH  12  14
ENDBRANCH  11  12
BRANCH  11  16
HETATM   16  C4  UNL     1      -3.330   5.678  12.679  1.00  0.00     0.076 C 
BRANCH  16  17
HETATM   17  C5  UNL     1      -3.931   4.434  12.102  1.00  0.00    -0.028 A 
HETATM   18  C6  UNL     1      -3.394   3.642  11.106  1.00  0.00     0.096 A 
HETATM   19  N1  UNL     1      -4.266   2.616  10.860  1.00  0.00    -0.365 N 
HETATM   20  C7  UNL     1      -5.367   2.717  11.675  1.00  0.00     0.042 A 
HETATM   21  H8  UNL     1      -4.127   1.887  10.175  1.00  0.00     0.165 HD
HETATM   22  C8  UNL     1      -6.502   1.902  11.764  1.00  0.00     0.030 A 
HETATM   23  C12 UNL     1      -5.182   3.844  12.476  1.00  0.00    -0.002 A 
HETATM   24  C9  UNL     1      -7.475   2.250  12.705  1.00  0.00     0.002 A 
HETATM   25  C10 UNL     1      -7.314   3.365  13.524  1.00  0.00     0.001 A 
HETATM   26  C11 UNL     1      -6.175   4.171  13.420  1.00  0.00     0.014 A 
ENDBRANCH  16  17
ENDBRANCH  11  16
ENDBRANCH   8  11
ENDBRANCH   6   7
ENDBRANCH   5   6
ENDBRANCH   3   5
ENDBRANCH   2   3
ENDBRANCH   1   2
BRANCH   1  27
HETATM   27  C18 UNL     1       3.439   8.111  14.183  1.00  0.00     0.185 C 
HETATM   28  O6  UNL     1       2.752   8.853  14.889  1.00  0.00    -0.292 OA
BRANCH  27  29
HETATM   29  C19 UNL     1       4.975   8.011  14.348  1.00  0.00     0.128 C 
HETATM   30  C20 UNL     1       5.661   7.304  13.143  1.00  0.00     0.047 C 
HETATM   31  C21 UNL     1       7.023   7.994  12.930  1.00  0.00     0.009 C 
HETATM   32  C22 UNL     1       7.180   8.906  14.141  1.00  0.00     0.002 C 
HETATM   33  C23 UNL     1       8.174  10.081  14.069  1.00  0.00     0.003 C 
HETATM   34  C36 UNL     1       5.719   9.378  14.427  1.00  0.00     0.005 C 
HETATM   35  C24 UNL     1       9.585   9.703  13.581  1.00  0.00     0.010 C 
HETATM   36  C33 UNL     1       8.188  10.773  15.468  1.00  0.00     0.072 C 
HETATM   37  C25 UNL     1      10.664   9.827  14.651  1.00  0.00     0.035 C 
HETATM   38  C26 UNL     1      10.651  11.145  15.393  1.00  0.00    -0.067 C 
HETATM   39  C27 UNL     1      11.791  11.602  15.941  1.00  0.00     0.053 C 
HETATM   40  C31 UNL     1       9.301  11.855  15.587  1.00  0.00    -0.009 C 
HETATM   41  C28 UNL     1      11.818  12.801  16.810  1.00  0.00     0.149 C 
HETATM   42  O8  UNL     1      12.904  13.262  17.159  1.00  0.00    -0.293 OA
HETATM   43  C29 UNL     1      10.509  13.428  17.227  1.00  0.00     0.084 C 
HETATM   44  C30 UNL     1       9.318  12.496  17.003  1.00  0.00     0.022 C 
HETATM   45  C32 UNL     1       9.149  12.956  14.513  1.00  0.00     0.021 C 
HETATM   46  C34 UNL     1       6.751  11.203  15.797  1.00  0.00     0.133 C 
HETATM   47  O9  UNL     1       6.426  12.352  16.077  1.00  0.00    -0.297 OA
HETATM   48  C35 UNL     1       5.713  10.083  15.793  1.00  0.00     0.091 C 
HETATM   49  C37 UNL     1       5.165  10.354  13.352  1.00  0.00     0.019 C 
BRANCH  29  50
HETATM   50  O7  UNL     1       5.261   7.244  15.522  1.00  0.00    -0.381 OA
HETATM   51  H20 UNL     1       4.868   6.357  15.401  1.00  0.00     0.211 HD
ENDBRANCH  29  50
ENDBRANCH  27  29
ENDBRANCH   1  27
TORSDOF 13
ENDMDL
MODEL 7
REMARK minimizedAffinity -9.21551991
REMARK CNNscore 0.241371632
REMARK CNNaffinity 6.13699102
REMARK  13 active torsions:
REMARK  status: ('A' for Active; 'I' for Inactive)
REMARK    1  A    between atoms: O1_2  and  C2_3 
REMARK    2  A    between atoms: C2_3  and  C3_5 
REMARK    3  A    between atoms: C3_5  and  C4_6 
REMARK    4  A    between atoms: C3_5  and  N2_16 
REMARK    5  A    between atoms: C4_6  and  C5_7 
REMARK       I    between atoms: N2_16  and  C13_17 
REMARK    6  A    between atoms: C13_17  and  C14_19 
REMARK    7  A    between atoms: C14_19  and  C15_20 
REMARK    8  A    between atoms: C15_20  and  C16_21 
REMARK    9  A    between atoms: C16_21  and  O5_23 
REMARK   10  A    between atoms: O5_23  and  C17_24 
REMARK   11  A    between atoms: C17_24  and  C18_25 
REMARK   12  A    between atoms: C18_25  and  C19_27 
REMARK   13  A    between atoms: C19_27  and  O7_28 
ROOT
HETATM    1  C17 UNL     1       0.846   9.961  16.884  1.00  0.00     0.260 C 
ENDROOT
BRANCH   1   2
HETATM    2  O5  UNL     1       0.060   9.133  16.026  1.00  0.00    -0.314 OA
BRANCH   2   3
HETATM    3  C16 UNL     1       0.626   7.925  15.738  1.00  0.00     0.259 C 
HETATM    4  O4  UNL     1       1.525   7.404  16.386  1.00  0.00    -0.265 OA
BRANCH   3   5
HETATM    5  C15 UNL     1      -0.045   7.310  14.536  1.00  0.00     0.120 C 
BRANCH   5   6
HETATM    6  C14 UNL     1      -1.030   6.237  14.985  1.00  0.00     0.112 C 
BRANCH   6   7
HETATM    7  C13 UNL     1      -2.428   6.490  14.459  1.00  0.00     0.218 C 
HETATM    8  N2  UNL     1      -3.412   6.287  15.393  1.00  0.00    -0.347 N 
HETATM    9  H13 UNL     1      -3.183   5.930  16.317  1.00  0.00     0.163 HD
HETATM   10  O3  UNL     1      -2.656   6.911  13.332  1.00  0.00    -0.274 OA
BRANCH   8  11
HETATM   11  C3  UNL     1      -4.835   6.480  15.083  1.00  0.00     0.188 C 
BRANCH  11  12
HETATM   12  C2  UNL     1      -5.149   7.951  15.344  1.00  0.00     0.281 C 
HETATM   13  O2  UNL     1      -4.382   8.871  15.066  1.00  0.00    -0.263 OA
BRANCH  12  14
HETATM   14  O1  UNL     1      -6.367   8.100  15.930  1.00  0.00    -0.325 OA
HETATM   15  C1  UNL     1      -7.389   8.563  15.047  1.00  0.00     0.213 C 
ENDBRANCH  12  14
ENDBRANCH  11  12
BRANCH  11  16
HETATM   16  C4  UNL     1      -5.138   6.125  13.622  1.00  0.00     0.076 C 
BRANCH  16  17
HETATM   17  C5  UNL     1      -6.142   5.024  13.475  1.00  0.00    -0.028 A 
HETATM   18  C6  UNL     1      -7.399   4.970  14.044  1.00  0.00     0.096 A 
HETATM   19  N1  UNL     1      -7.984   3.790  13.676  1.00  0.00    -0.365 N 
HETATM   20  C7  UNL     1      -7.137   3.064  12.874  1.00  0.00     0.042 A 
HETATM   21  H8  UNL     1      -8.907   3.487  13.953  1.00  0.00     0.165 HD
HETATM   22  C8  UNL     1      -7.312   1.810  12.277  1.00  0.00     0.030 A 
HETATM   23  C12 UNL     1      -5.974   3.818  12.719  1.00  0.00    -0.002 A 
HETATM   24  C9  UNL     1      -6.264   1.315  11.496  1.00  0.00     0.002 A 
HETATM   25  C10 UNL     1      -5.094   2.048  11.317  1.00  0.00     0.001 A 
HETATM   26  C11 UNL     1      -4.935   3.299  11.922  1.00  0.00     0.014 A 
ENDBRANCH  16  17
ENDBRANCH  11  16
ENDBRANCH   8  11
ENDBRANCH   6   7
ENDBRANCH   5   6
ENDBRANCH   3   5
ENDBRANCH   2   3
ENDBRANCH   1   2
BRANCH   1  27
HETATM   27  C18 UNL     1       0.008  10.968  17.672  1.00  0.00     0.185 C 
HETATM   28  O6  UNL     1      -1.210  10.822  17.795  1.00  0.00    -0.292 OA
BRANCH  27  29
HETATM   29  C19 UNL     1       0.765  12.147  18.328  1.00  0.00     0.128 C 
HETATM   30  C20 UNL     1      -0.191  13.155  19.030  1.00  0.00     0.047 C 
HETATM   31  C21 UNL     1       0.540  13.673  20.284  1.00  0.00     0.009 C 
HETATM   32  C22 UNL     1       1.959  13.135  20.146  1.00  0.00     0.002 C 
HETATM   33  C23 UNL     1       2.853  13.050  21.397  1.00  0.00     0.003 C 
HETATM   34  C36 UNL     1       1.752  11.745  19.465  1.00  0.00     0.005 C 
HETATM   35  C24 UNL     1       2.920  14.343  22.231  1.00  0.00     0.010 C 
HETATM   36  C33 UNL     1       4.261  12.557  20.939  1.00  0.00     0.072 C 
HETATM   37  C25 UNL     1       4.287  15.020  22.215  1.00  0.00     0.035 C 
HETATM   38  C26 UNL     1       5.442  14.089  22.510  1.00  0.00    -0.067 C 
HETATM   39  C27 UNL     1       6.571  14.592  23.041  1.00  0.00     0.053 C 
HETATM   40  C31 UNL     1       5.315  12.618  22.083  1.00  0.00    -0.009 C 
HETATM   41  C28 UNL     1       7.791  13.769  23.210  1.00  0.00     0.149 C 
HETATM   42  O8  UNL     1       8.741  14.233  23.838  1.00  0.00    -0.293 OA
HETATM   43  C29 UNL     1       7.822  12.380  22.619  1.00  0.00     0.084 C 
HETATM   44  C30 UNL     1       6.716  12.162  21.586  1.00  0.00     0.022 C 
HETATM   45  C32 UNL     1       4.889  11.770  23.303  1.00  0.00     0.021 C 
HETATM   46  C34 UNL     1       4.079  11.212  20.220  1.00  0.00     0.133 C 
HETATM   47  O9  UNL     1       4.661  10.180  20.538  1.00  0.00    -0.297 OA
HETATM   48  C35 UNL     1       3.132  11.229  19.024  1.00  0.00     0.091 C 
HETATM   49  C37 UNL     1       1.094  10.692  20.400  1.00  0.00     0.019 C 
BRANCH  29  50
HETATM   50  O7  UNL     1       1.475  12.860  17.309  1.00  0.00    -0.381 OA
HETATM   51  H20 UNL     1       0.819  13.187  16.663  1.00  0.00     0.211 HD
ENDBRANCH  29  50
ENDBRANCH  27  29
ENDBRANCH   1  27
TORSDOF 13
ENDMDL
MODEL 8
REMARK minimizedAffinity -8.77318096
REMARK CNNscore 0.240241215
REMARK CNNaffinity 6.05149126
REMARK  13 active torsions:
REMARK  status: ('A' for Active; 'I' for Inactive)
REMARK    1  A    between atoms: O1_2  and  C2_3 
REMARK    2  A    between atoms: C2_3  and  C3_5 
REMARK    3  A    between atoms: C3_5  and  C4_6 
REMARK    4  A    between atoms: C3_5  and  N2_16 
REMARK    5  A    between atoms: C4_6  and  C5_7 
REMARK       I    between atoms: N2_16  and  C13_17 
REMARK    6  A    between atoms: C13_17  and  C14_19 
REMARK    7  A    between atoms: C14_19  and  C15_20 
REMARK    8  A    between atoms: C15_20  and  C16_21 
REMARK    9  A    between atoms: C16_21  and  O5_23 
REMARK   10  A    between atoms: O5_23  and  C17_24 
REMARK   11  A    between atoms: C17_24  and  C18_25 
REMARK   12  A    between atoms: C18_25  and  C19_27 
REMARK   13  A    between atoms: C19_27  and  O7_28 
ROOT
HETATM    1  C17 UNL     1      -0.658  11.247  17.279  1.00  0.00     0.260 C 
ENDROOT
BRANCH   1   2
HETATM    2  O5  UNL     1      -1.025  10.019  16.649  1.00  0.00    -0.314 OA
BRANCH   2   3
HETATM    3  C16 UNL     1      -2.332   9.668  16.822  1.00  0.00     0.259 C 
HETATM    4  O4  UNL     1      -2.797   9.191  17.850  1.00  0.00    -0.265 OA
BRANCH   3   5
HETATM    5  C15 UNL     1      -3.127   9.993  15.582  1.00  0.00     0.120 C 
BRANCH   5   6
HETATM    6  C14 UNL     1      -4.594   9.647  15.801  1.00  0.00     0.112 C 
BRANCH   6   7
HETATM    7  C13 UNL     1      -5.053   8.515  14.906  1.00  0.00     0.218 C 
HETATM    8  N2  UNL     1      -5.468   7.404  15.594  1.00  0.00    -0.347 N 
HETATM    9  H13 UNL     1      -5.389   7.361  16.607  1.00  0.00     0.163 HD
HETATM   10  O3  UNL     1      -5.122   8.607  13.686  1.00  0.00    -0.274 OA
BRANCH   8  11
HETATM   11  C3  UNL     1      -5.952   6.197  14.911  1.00  0.00     0.188 C 
BRANCH  11  12
HETATM   12  C2  UNL     1      -7.465   6.148  15.116  1.00  0.00     0.281 C 
HETATM   13  O2  UNL     1      -8.009   5.512  16.015  1.00  0.00    -0.263 OA
BRANCH  12  14
HETATM   14  O1  UNL     1      -8.115   6.882  14.174  1.00  0.00    -0.325 OA
HETATM   15  C1  UNL     1      -9.197   6.196  13.542  1.00  0.00     0.213 C 
ENDBRANCH  12  14
ENDBRANCH  11  12
BRANCH  11  16
HETATM   16  C4  UNL     1      -5.623   6.237  13.413  1.00  0.00     0.076 C 
BRANCH  16  17
HETATM   17  C5  UNL     1      -4.737   5.115  12.970  1.00  0.00    -0.028 A 
HETATM   18  C6  UNL     1      -3.356   5.111  12.948  1.00  0.00     0.096 A 
HETATM   19  N1  UNL     1      -2.940   3.903  12.459  1.00  0.00    -0.365 N 
HETATM   20  C7  UNL     1      -4.020   3.109  12.159  1.00  0.00     0.042 A 
HETATM   21  H8  UNL     1      -1.976   3.628  12.331  1.00  0.00     0.165 HD
HETATM   22  C8  UNL     1      -4.069   1.812  11.635  1.00  0.00     0.030 A 
HETATM   23  C12 UNL     1      -5.165   3.838  12.480  1.00  0.00    -0.002 A 
HETATM   24  C9  UNL     1      -5.330   1.243  11.436  1.00  0.00     0.002 A 
HETATM   25  C10 UNL     1      -6.491   1.944  11.754  1.00  0.00     0.001 A 
HETATM   26  C11 UNL     1      -6.424   3.240  12.275  1.00  0.00     0.014 A 
ENDBRANCH  16  17
ENDBRANCH  11  16
ENDBRANCH   8  11
ENDBRANCH   6   7
ENDBRANCH   5   6
ENDBRANCH   3   5
ENDBRANCH   2   3
ENDBRANCH   1   2
BRANCH   1  27
HETATM   27  C18 UNL     1       0.826  11.578  17.120  1.00  0.00     0.185 C 
HETATM   28  O6  UNL     1       1.511  11.024  16.257  1.00  0.00    -0.292 OA
BRANCH  27  29
HETATM   29  C19 UNL     1       1.408  12.655  18.066  1.00  0.00     0.128 C 
HETATM   30  C20 UNL     1       0.321  13.316  18.962  1.00  0.00     0.047 C 
HETATM   31  C21 UNL     1       0.976  13.609  20.326  1.00  0.00     0.009 C 
HETATM   32  C22 UNL     1       2.457  13.326  20.105  1.00  0.00     0.002 C 
HETATM   33  C23 UNL     1       3.359  13.063  21.325  1.00  0.00     0.003 C 
HETATM   34  C36 UNL     1       2.448  12.130  19.101  1.00  0.00     0.005 C 
HETATM   35  C24 UNL     1       3.244  14.110  22.450  1.00  0.00     0.010 C 
HETATM   36  C33 UNL     1       4.821  12.900  20.805  1.00  0.00     0.072 C 
HETATM   37  C25 UNL     1       4.499  14.955  22.640  1.00  0.00     0.035 C 
HETATM   38  C26 UNL     1       5.777  14.151  22.736  1.00  0.00    -0.067 C 
HETATM   39  C27 UNL     1       6.825  14.663  23.407  1.00  0.00     0.053 C 
HETATM   40  C31 UNL     1       5.861  12.827  21.961  1.00  0.00    -0.009 C 
HETATM   41  C28 UNL     1       8.151  14.003  23.409  1.00  0.00     0.149 C 
HETATM   42  O8  UNL     1       9.028  14.428  24.160  1.00  0.00    -0.293 OA
HETATM   43  C29 UNL     1       8.378  12.819  22.500  1.00  0.00     0.084 C 
HETATM   44  C30 UNL     1       7.310  12.707  21.411  1.00  0.00     0.022 C 
HETATM   45  C32 UNL     1       5.566  11.655  22.926  1.00  0.00     0.021 C 
HETATM   46  C34 UNL     1       4.831  11.760  19.776  1.00  0.00     0.133 C 
HETATM   47  O9  UNL     1       5.557  10.774  19.852  1.00  0.00    -0.297 OA
HETATM   48  C35 UNL     1       3.886  11.936  18.591  1.00  0.00     0.091 C 
HETATM   49  C37 UNL     1       1.953  10.799  19.732  1.00  0.00     0.019 C 
BRANCH  29  50
HETATM   50  O7  UNL     1       2.005  13.687  17.273  1.00  0.00    -0.381 OA
HETATM   51  H20 UNL     1       1.305  14.067  16.705  1.00  0.00     0.211 HD
ENDBRANCH  29  50
ENDBRANCH  27  29
ENDBRANCH   1  27
TORSDOF 13
ENDMDL
MODEL 9
REMARK minimizedAffinity -8.67203331
REMARK CNNscore 0.228945449
REMARK CNNaffinity 6.43827677
REMARK  13 active torsions:
REMARK  status: ('A' for Active; 'I' for Inactive)
REMARK    1  A    between atoms: O1_2  and  C2_3 
REMARK    2  A    between atoms: C2_3  and  C3_5 
REMARK    3  A    between atoms: C3_5  and  C4_6 
REMARK    4  A    between atoms: C3_5  and  N2_16 
REMARK    5  A    between atoms: C4_6  and  C5_7 
REMARK       I    between atoms: N2_16  and  C13_17 
REMARK    6  A    between atoms: C13_17  and  C14_19 
REMARK    7  A    between atoms: C14_19  and  C15_20 
REMARK    8  A    between atoms: C15_20  and  C16_21 
REMARK    9  A    between atoms: C16_21  and  O5_23 
REMARK   10  A    between atoms: O5_23  and  C17_24 
REMARK   11  A    between atoms: C17_24  and  C18_25 
REMARK   12  A    between atoms: C18_25  and  C19_27 
REMARK   13  A    between atoms: C19_27  and  O7_28 
ROOT
HETATM    1  C17 UNL     1      -0.070  10.704  16.214  1.00  0.00     0.260 C 
ENDROOT
BRANCH   1   2
HETATM    2  O5  UNL     1       1.339  10.691  15.978  1.00  0.00    -0.314 OA
BRANCH   2   3
HETATM    3  C16 UNL     1       2.065  10.075  16.955  1.00  0.00     0.259 C 
HETATM    4  O4  UNL     1       2.248   8.866  17.032  1.00  0.00    -0.265 OA
BRANCH   3   5
HETATM    5  C15 UNL     1       2.645  11.100  17.898  1.00  0.00     0.120 C 
BRANCH   5   6
HETATM    6  C14 UNL     1       3.992  11.583  17.374  1.00  0.00     0.112 C 
BRANCH   6   7
HETATM    7  C13 UNL     1       4.954  11.914  18.496  1.00  0.00     0.218 C 
HETATM    8  N2  UNL     1       4.728  13.138  19.072  1.00  0.00    -0.347 N 
HETATM    9  H13 UNL     1       4.017  13.762  18.700  1.00  0.00     0.163 HD
HETATM   10  O3  UNL     1       5.804  11.133  18.905  1.00  0.00    -0.274 OA
BRANCH   8  11
HETATM   11  C3  UNL     1       5.551  13.646  20.177  1.00  0.00     0.188 C 
BRANCH  11  12
HETATM   12  C2  UNL     1       5.928  15.083  19.824  1.00  0.00     0.281 C 
HETATM   13  O2  UNL     1       6.859  15.378  19.078  1.00  0.00    -0.263 OA
BRANCH  12  14
HETATM   14  O1  UNL     1       5.116  15.976  20.451  1.00  0.00    -0.325 OA
HETATM   15  C1  UNL     1       4.190  16.632  19.585  1.00  0.00     0.213 C 
ENDBRANCH  12  14
ENDBRANCH  11  12
BRANCH  11  16
HETATM   16  C4  UNL     1       4.781  13.612  21.504  1.00  0.00     0.076 C 
BRANCH  16  17
HETATM   17  C5  UNL     1       4.817  12.276  22.177  1.00  0.00    -0.028 A 
HETATM   18  C6  UNL     1       5.802  11.801  23.021  1.00  0.00     0.096 A 
HETATM   19  N1  UNL     1       5.462  10.532  23.403  1.00  0.00    -0.365 N 
HETATM   20  C7  UNL     1       4.272  10.161  22.827  1.00  0.00     0.042 A 
HETATM   21  H8  UNL     1       6.007   9.945  24.018  1.00  0.00     0.165 HD
HETATM   22  C8  UNL     1       3.554   8.963  22.929  1.00  0.00     0.030 A 
HETATM   23  C12 UNL     1       3.835  11.239  22.059  1.00  0.00    -0.002 A 
HETATM   24  C9  UNL     1       2.351   8.869  22.225  1.00  0.00     0.002 A 
HETATM   25  C10 UNL     1       1.885   9.932  21.456  1.00  0.00     0.001 A 
HETATM   26  C11 UNL     1       2.616  11.122  21.363  1.00  0.00     0.014 A 
ENDBRANCH  16  17
ENDBRANCH  11  16
ENDBRANCH   8  11
ENDBRANCH   6   7
ENDBRANCH   5   6
ENDBRANCH   3   5
ENDBRANCH   2   3
ENDBRANCH   1   2
BRANCH   1  27
HETATM   27  C18 UNL     1      -0.887  10.847  14.930  1.00  0.00     0.185 C 
HETATM   28  O6  UNL     1      -1.209  11.958  14.502  1.00  0.00    -0.292 OA
BRANCH  27  29
HETATM   29  C19 UNL     1      -1.254   9.542  14.185  1.00  0.00     0.128 C 
HETATM   30  C20 UNL     1      -0.161   8.444  14.326  1.00  0.00     0.047 C 
HETATM   31  C21 UNL     1      -0.889   7.087  14.396  1.00  0.00     0.009 C 
HETATM   32  C22 UNL     1      -2.339   7.417  14.066  1.00  0.00     0.002 C 
HETATM   33  C23 UNL     1      -3.444   6.425  14.475  1.00  0.00     0.003 C 
HETATM   34  C36 UNL     1      -2.540   8.829  14.701  1.00  0.00     0.005 C 
HETATM   35  C24 UNL     1      -3.188   4.965  14.056  1.00  0.00     0.010 C 
HETATM   36  C33 UNL     1      -4.799   6.977  13.931  1.00  0.00     0.072 C 
HETATM   37  C25 UNL     1      -4.152   4.448  12.993  1.00  0.00     0.035 C 
HETATM   38  C26 UNL     1      -5.610   4.706  13.301  1.00  0.00    -0.067 C 
HETATM   39  C27 UNL     1      -6.545   3.890  12.782  1.00  0.00     0.053 C 
HETATM   40  C31 UNL     1      -5.969   5.965  14.107  1.00  0.00    -0.009 C 
HETATM   41  C28 UNL     1      -7.993   4.174  12.915  1.00  0.00     0.149 C 
HETATM   42  O8  UNL     1      -8.803   3.320  12.557  1.00  0.00    -0.293 OA
HETATM   43  C29 UNL     1      -8.427   5.496  13.500  1.00  0.00     0.084 C 
HETATM   44  C30 UNL     1      -7.294   6.524  13.518  1.00  0.00     0.022 C 
HETATM   45  C32 UNL     1      -6.175   5.576  15.589  1.00  0.00     0.021 C 
HETATM   46  C34 UNL     1      -4.997   8.388  14.503  1.00  0.00     0.133 C 
HETATM   47  O9  UNL     1      -5.985   8.737  15.142  1.00  0.00    -0.297 OA
HETATM   48  C35 UNL     1      -3.882   9.384  14.196  1.00  0.00     0.091 C 
HETATM   49  C37 UNL     1      -2.555   8.809  16.255  1.00  0.00     0.019 C 
BRANCH  29  50
HETATM   50  O7  UNL     1      -1.399   9.835  12.790  1.00  0.00    -0.381 OA
HETATM   51  H20 UNL     1      -0.545  10.186  12.471  1.00  0.00     0.211 HD
ENDBRANCH  29  50
ENDBRANCH  27  29
ENDBRANCH   1  27
TORSDOF 13
ENDMDL
