MODEL 1
REMARK minimizedAffinity -7.64765406
REMARK CNNscore 0.462236106
REMARK CNNaffinity 6.49230051
REMARK  10 active torsions:
REMARK  status: ('A' for Active; 'I' for Inactive)
REMARK    1  A    between atoms: C19_20  and  O2_21 
REMARK    2  A    between atoms: C19_20  and  C20_22 
REMARK    3  A    between atoms: C20_22  and  C21_24 
REMARK    4  A    between atoms: C21_24  and  O4_25 
REMARK    5  A    between atoms: O4_25  and  C22_26 
REMARK    6  A    between atoms: C22_26  and  C23_28 
REMARK    7  A    between atoms: C23_28  and  C24_29 
REMARK    8  A    between atoms: C24_29  and  C25_30 
REMARK       I    between atoms: C25_30  and  N1_32 
REMARK    9  A    between atoms: N1_32  and  C26_33 
REMARK   10  A    between atoms: C26_33  and  C27_34 
ROOT
HETATM    1  C1  UNL     1      -0.668   7.425  11.318  1.00  0.00     0.020 C 
HETATM    2  C2  UNL     1      -0.782   6.636  12.654  1.00  0.00    -0.016 C 
HETATM    3  C3  UNL     1       0.549   5.864  12.880  1.00  0.00     0.022 C 
HETATM    4  C4  UNL     1       0.769   4.720  11.900  1.00  0.00     0.084 C 
HETATM    5  C5  UNL     1      -0.396   3.766  11.963  1.00  0.00     0.149 C 
HETATM    6  O1  UNL     1      -0.277   2.561  11.755  1.00  0.00    -0.293 OA
HETATM    7  C6  UNL     1      -1.744   4.335  12.206  1.00  0.00     0.053 C 
HETATM    8  C7  UNL     1      -1.926   5.638  12.481  1.00  0.00    -0.068 C 
HETATM    9  C8  UNL     1      -3.319   6.202  12.540  1.00  0.00     0.035 C 
HETATM   10  C9  UNL     1      -3.521   7.000  13.808  1.00  0.00     0.010 C 
HETATM   11  C10 UNL     1      -2.519   8.162  13.951  1.00  0.00    -0.004 C 
HETATM   12  C11 UNL     1      -1.030   7.694  13.810  1.00  0.00     0.002 C 
HETATM   13  C12 UNL     1      -0.454   7.388  15.213  1.00  0.00     0.007 C 
HETATM   14  C13 UNL     1      -0.440   8.631  16.142  1.00  0.00     0.013 C 
HETATM   15  C14 UNL     1      -1.604   9.624  15.908  1.00  0.00    -0.002 C 
HETATM   16  C15 UNL     1      -1.141  10.785  14.979  1.00  0.00     0.019 C 
HETATM   17  C16 UNL     1      -2.784   8.831  15.318  1.00  0.00     0.002 C 
HETATM   18  C17 UNL     1      -3.966   9.796  15.397  1.00  0.00     0.009 C 
HETATM   19  C18 UNL     1      -3.677  10.672  16.632  1.00  0.00     0.047 C 
HETATM   20  C19 UNL     1      -2.301  10.218  17.183  1.00  0.00     0.128 C 
ENDROOT
BRANCH  20  21
HETATM   21  O2  UNL     1      -2.575   9.210  18.170  1.00  0.00    -0.381 OA
HETATM   22  H27 UNL     1      -1.721   8.882  18.504  1.00  0.00     0.211 HD
ENDBRANCH  20  21
BRANCH  20  23
HETATM   23  C20 UNL     1      -1.505  11.311  17.913  1.00  0.00     0.185 C 
HETATM   24  O3  UNL     1      -1.432  12.458  17.454  1.00  0.00    -0.292 OA
BRANCH  23  25
HETATM   25  C21 UNL     1      -0.676  10.893  19.128  1.00  0.00     0.260 C 
BRANCH  25  26
HETATM   26  O4  UNL     1       0.661  10.539  18.769  1.00  0.00    -0.314 OA
BRANCH  26  27
HETATM   27  C22 UNL     1       1.608  11.106  19.567  1.00  0.00     0.259 C 
HETATM   28  O5  UNL     1       2.435  11.927  19.183  1.00  0.00    -0.265 OA
BRANCH  27  29
HETATM   29  C23 UNL     1       1.564  10.556  20.975  1.00  0.00     0.120 C 
BRANCH  29  30
HETATM   30  C24 UNL     1       2.704   9.592  21.294  1.00  0.00     0.112 C 
BRANCH  30  31
HETATM   31  C25 UNL     1       3.548  10.096  22.448  1.00  0.00     0.218 C 
HETATM   32  O6  UNL     1       3.211   9.976  23.622  1.00  0.00    -0.274 OA
HETATM   33  N1  UNL     1       4.708  10.720  22.048  1.00  0.00    -0.357 N 
HETATM   34  H34 UNL     1       4.999  10.623  21.084  1.00  0.00     0.162 HD
BRANCH  33  35
HETATM   35  C26 UNL     1       5.707  11.124  23.012  1.00  0.00     0.162 C 
BRANCH  35  36
HETATM   36  C27 UNL     1       5.895  12.613  23.012  1.00  0.00    -0.025 A 
HETATM   37  C28 UNL     1       4.804  13.487  22.992  1.00  0.00     0.011 A 
HETATM   38  C29 UNL     1       5.017  14.863  23.008  1.00  0.00     0.018 A 
HETATM   39  C30 UNL     1       6.321  15.323  23.060  1.00  0.00     0.087 A 
HETATM   40  N2  UNL     1       7.400  14.513  23.099  1.00  0.00    -0.375 N 
HETATM   41  C31 UNL     1       7.162  13.182  23.074  1.00  0.00     0.096 A 
ATOM     42  H2  UNL     1       8.347  14.888  23.146  1.00  0.00     0.164 HD
ENDBRANCH  35  36
ENDBRANCH  33  35
ENDBRANCH  30  31
ENDBRANCH  29  30
ENDBRANCH  27  29
ENDBRANCH  26  27
ENDBRANCH  25  26
ENDBRANCH  23  25
ENDBRANCH  20  23
TORSDOF 10
ENDMDL
MODEL 2
REMARK minimizedAffinity -10.0550261
REMARK CNNscore 0.438721538
REMARK CNNaffinity 7.03745985
REMARK  10 active torsions:
REMARK  status: ('A' for Active; 'I' for Inactive)
REMARK    1  A    between atoms: C19_20  and  O2_21 
REMARK    2  A    between atoms: C19_20  and  C20_22 
REMARK    3  A    between atoms: C20_22  and  C21_24 
REMARK    4  A    between atoms: C21_24  and  O4_25 
REMARK    5  A    between atoms: O4_25  and  C22_26 
REMARK    6  A    between atoms: C22_26  and  C23_28 
REMARK    7  A    between atoms: C23_28  and  C24_29 
REMARK    8  A    between atoms: C24_29  and  C25_30 
REMARK       I    between atoms: C25_30  and  N1_32 
REMARK    9  A    between atoms: N1_32  and  C26_33 
REMARK   10  A    between atoms: C26_33  and  C27_34 
ROOT
HETATM    1  C1  UNL     1       4.038   6.640  10.269  1.00  0.00     0.020 C 
HETATM    2  C2  UNL     1       2.759   5.873   9.829  1.00  0.00    -0.016 C 
HETATM    3  C3  UNL     1       3.086   4.352   9.802  1.00  0.00     0.022 C 
HETATM    4  C4  UNL     1       4.046   3.952   8.690  1.00  0.00     0.084 C 
HETATM    5  C5  UNL     1       3.488   4.383   7.358  1.00  0.00     0.149 C 
HETATM    6  O1  UNL     1       3.701   3.762   6.319  1.00  0.00    -0.293 OA
HETATM    7  C6  UNL     1       2.722   5.651   7.305  1.00  0.00     0.053 C 
HETATM    8  C7  UNL     1       2.424   6.347   8.417  1.00  0.00    -0.068 C 
HETATM    9  C8  UNL     1       1.807   7.714   8.299  1.00  0.00     0.035 C 
HETATM   10  C9  UNL     1       0.585   7.827   9.183  1.00  0.00     0.010 C 
HETATM   11  C10 UNL     1       0.892   7.558  10.668  1.00  0.00    -0.004 C 
HETATM   12  C11 UNL     1       1.626   6.191  10.894  1.00  0.00     0.002 C 
HETATM   13  C12 UNL     1       0.579   5.092  11.194  1.00  0.00     0.007 C 
HETATM   14  C13 UNL     1      -0.235   5.373  12.484  1.00  0.00     0.013 C 
HETATM   15  C14 UNL     1      -0.482   6.874  12.777  1.00  0.00    -0.002 C 
HETATM   16  C15 UNL     1       0.578   7.406  13.785  1.00  0.00     0.019 C 
HETATM   17  C16 UNL     1      -0.448   7.623  11.433  1.00  0.00     0.002 C 
HETATM   18  C17 UNL     1      -0.989   9.015  11.762  1.00  0.00     0.009 C 
HETATM   19  C18 UNL     1      -1.976   8.789  12.924  1.00  0.00     0.047 C 
HETATM   20  C19 UNL     1      -1.919   7.278  13.264  1.00  0.00     0.128 C 
ENDROOT
BRANCH  20  21
HETATM   21  O2  UNL     1      -2.952   6.651  12.486  1.00  0.00    -0.381 OA
HETATM   22  H27 UNL     1      -2.910   5.692  12.656  1.00  0.00     0.211 HD
ENDBRANCH  20  21
BRANCH  20  23
HETATM   23  C20 UNL     1      -2.232   6.933  14.728  1.00  0.00     0.185 C 
HETATM   24  O3  UNL     1      -1.381   7.084  15.614  1.00  0.00    -0.292 OA
BRANCH  23  25
HETATM   25  C21 UNL     1      -3.566   6.246  15.025  1.00  0.00     0.260 C 
BRANCH  25  26
HETATM   26  O4  UNL     1      -4.678   7.006  14.548  1.00  0.00    -0.314 OA
BRANCH  26  27
HETATM   27  C22 UNL     1      -5.864   6.657  15.122  1.00  0.00     0.259 C 
HETATM   28  O5  UNL     1      -5.970   5.911  16.089  1.00  0.00    -0.265 OA
BRANCH  27  29
HETATM   29  C23 UNL     1      -7.045   7.249  14.385  1.00  0.00     0.120 C 
BRANCH  29  30
HETATM   30  C24 UNL     1      -8.296   6.375  14.429  1.00  0.00     0.112 C 
BRANCH  30  31
HETATM   31  C25 UNL     1      -8.317   5.381  13.284  1.00  0.00     0.218 C 
HETATM   32  O6  UNL     1      -8.534   5.709  12.122  1.00  0.00    -0.274 OA
HETATM   33  N1  UNL     1      -8.095   4.082  13.681  1.00  0.00    -0.357 N 
HETATM   34  H34 UNL     1      -7.751   3.917  14.619  1.00  0.00     0.162 HD
BRANCH  33  35
HETATM   35  C26 UNL     1      -7.925   3.025  12.710  1.00  0.00     0.162 C 
BRANCH  35  36
HETATM   36  C27 UNL     1      -6.482   2.865  12.325  1.00  0.00    -0.025 A 
HETATM   37  C28 UNL     1      -5.497   3.733  12.804  1.00  0.00     0.011 A 
HETATM   38  C29 UNL     1      -4.168   3.544  12.437  1.00  0.00     0.018 A 
HETATM   39  C30 UNL     1      -3.862   2.475  11.613  1.00  0.00     0.087 A 
HETATM   40  N2  UNL     1      -4.780   1.604  11.145  1.00  0.00    -0.375 N 
HETATM   41  C31 UNL     1      -6.064   1.819  11.510  1.00  0.00     0.096 A 
ATOM     42  H2  UNL     1      -4.517   0.822  10.545  1.00  0.00     0.164 HD
ENDBRANCH  35  36
ENDBRANCH  33  35
ENDBRANCH  30  31
ENDBRANCH  29  30
ENDBRANCH  27  29
ENDBRANCH  26  27
ENDBRANCH  25  26
ENDBRANCH  23  25
ENDBRANCH  20  23
TORSDOF 10
ENDMDL
MODEL 3
REMARK minimizedAffinity -7.34633923
REMARK CNNscore 0.408106327
REMARK CNNaffinity 6.77261782
REMARK  10 active torsions:
REMARK  status: ('A' for Active; 'I' for Inactive)
REMARK    1  A    between atoms: C19_20  and  O2_21 
REMARK    2  A    between atoms: C19_20  and  C20_22 
REMARK    3  A    between atoms: C20_22  and  C21_24 
REMARK    4  A    between atoms: C21_24  and  O4_25 
REMARK    5  A    between atoms: O4_25  and  C22_26 
REMARK    6  A    between atoms: C22_26  and  C23_28 
REMARK    7  A    between atoms: C23_28  and  C24_29 
REMARK    8  A    between atoms: C24_29  and  C25_30 
REMARK       I    between atoms: C25_30  and  N1_32 
REMARK    9  A    between atoms: N1_32  and  C26_33 
REMARK   10  A    between atoms: C26_33  and  C27_34 
ROOT
HETATM    1  C1  UNL     1      -2.682   4.253   9.856  1.00  0.00     0.020 C 
HETATM    2  C2  UNL     1      -2.404   3.768  11.307  1.00  0.00    -0.016 C 
HETATM    3  C3  UNL     1      -0.908   3.353  11.405  1.00  0.00     0.022 C 
HETATM    4  C4  UNL     1      -0.569   2.093  10.620  1.00  0.00     0.084 C 
HETATM    5  C5  UNL     1      -1.448   0.958  11.077  1.00  0.00     0.149 C 
HETATM    6  O1  UNL     1      -1.076  -0.213  11.068  1.00  0.00    -0.293 OA
HETATM    7  C6  UNL     1      -2.841   1.277  11.471  1.00  0.00     0.053 C 
HETATM    8  C7  UNL     1      -3.288   2.543  11.540  1.00  0.00    -0.068 C 
HETATM    9  C8  UNL     1      -4.751   2.808  11.766  1.00  0.00     0.035 C 
HETATM   10  C9  UNL     1      -4.947   3.805  12.887  1.00  0.00     0.010 C 
HETATM   11  C10 UNL     1      -4.243   5.150  12.624  1.00  0.00    -0.004 C 
HETATM   12  C11 UNL     1      -2.724   4.978  12.282  1.00  0.00     0.002 C 
HETATM   13  C12 UNL     1      -1.890   5.108  13.578  1.00  0.00     0.007 C 
HETATM   14  C13 UNL     1      -2.036   6.499  14.250  1.00  0.00     0.013 C 
HETATM   15  C14 UNL     1      -3.426   7.158  14.074  1.00  0.00    -0.002 C 
HETATM   16  C15 UNL     1      -3.398   8.159  12.881  1.00  0.00     0.019 C 
HETATM   17  C16 UNL     1      -4.455   6.031  13.875  1.00  0.00     0.002 C 
HETATM   18  C17 UNL     1      -5.809   6.727  14.008  1.00  0.00     0.009 C 
HETATM   19  C18 UNL     1      -5.558   7.890  14.987  1.00  0.00     0.047 C 
HETATM   20  C19 UNL     1      -4.048   7.859  15.333  1.00  0.00     0.128 C 
ENDROOT
BRANCH  20  21
HETATM   21  O2  UNL     1      -3.922   7.056  16.518  1.00  0.00    -0.381 OA
HETATM   22  H27 UNL     1      -2.974   6.991  16.733  1.00  0.00     0.211 HD
ENDBRANCH  20  21
BRANCH  20  23
HETATM   23  C20 UNL     1      -3.438   9.224  15.688  1.00  0.00     0.185 C 
HETATM   24  O3  UNL     1      -3.831  10.259  15.136  1.00  0.00    -0.292 OA
BRANCH  23  25
HETATM   25  C21 UNL     1      -2.223   9.238  16.618  1.00  0.00     0.260 C 
BRANCH  25  26
HETATM   26  O4  UNL     1      -1.605  10.526  16.671  1.00  0.00    -0.314 OA
BRANCH  26  27
HETATM   27  C22 UNL     1      -0.497  10.566  17.462  1.00  0.00     0.259 C 
HETATM   28  O5  UNL     1       0.636  10.293  17.079  1.00  0.00    -0.265 OA
BRANCH  27  29
HETATM   29  C23 UNL     1      -0.835  10.927  18.892  1.00  0.00     0.120 C 
BRANCH  29  30
HETATM   30  C24 UNL     1       0.184  11.856  19.548  1.00  0.00     0.112 C 
BRANCH  30  31
HETATM   31  C25 UNL     1       1.296  11.072  20.217  1.00  0.00     0.218 C 
HETATM   32  O6  UNL     1       1.092  10.058  20.877  1.00  0.00    -0.274 OA
HETATM   33  N1  UNL     1       2.544  11.623  20.032  1.00  0.00    -0.357 N 
HETATM   34  H34 UNL     1       2.651  12.350  19.336  1.00  0.00     0.162 HD
BRANCH  33  35
HETATM   35  C26 UNL     1       3.736  10.928  20.464  1.00  0.00     0.162 C 
BRANCH  35  36
HETATM   36  C27 UNL     1       4.655  11.843  21.221  1.00  0.00    -0.025 A 
HETATM   37  C28 UNL     1       4.223  12.541  22.352  1.00  0.00     0.011 A 
HETATM   38  C29 UNL     1       5.108  13.368  23.037  1.00  0.00     0.018 A 
HETATM   39  C30 UNL     1       6.410  13.457  22.577  1.00  0.00     0.087 A 
HETATM   40  N2  UNL     1       6.872  12.787  21.501  1.00  0.00    -0.375 N 
HETATM   41  C31 UNL     1       5.986  11.998  20.850  1.00  0.00     0.096 A 
ATOM     42  H2  UNL     1       7.841  12.871  21.195  1.00  0.00     0.164 HD
ENDBRANCH  35  36
ENDBRANCH  33  35
ENDBRANCH  30  31
ENDBRANCH  29  30
ENDBRANCH  27  29
ENDBRANCH  26  27
ENDBRANCH  25  26
ENDBRANCH  23  25
ENDBRANCH  20  23
TORSDOF 10
ENDMDL
MODEL 4
REMARK minimizedAffinity -8.52244282
REMARK CNNscore 0.372781873
REMARK CNNaffinity 6.48987818
REMARK  10 active torsions:
REMARK  status: ('A' for Active; 'I' for Inactive)
REMARK    1  A    between atoms: C19_20  and  O2_21 
REMARK    2  A    between atoms: C19_20  and  C20_22 
REMARK    3  A    between atoms: C20_22  and  C21_24 
REMARK    4  A    between atoms: C21_24  and  O4_25 
REMARK    5  A    between atoms: O4_25  and  C22_26 
REMARK    6  A    between atoms: C22_26  and  C23_28 
REMARK    7  A    between atoms: C23_28  and  C24_29 
REMARK    8  A    between atoms: C24_29  and  C25_30 
REMARK       I    between atoms: C25_30  and  N1_32 
REMARK    9  A    between atoms: N1_32  and  C26_33 
REMARK   10  A    between atoms: C26_33  and  C27_34 
ROOT
HETATM    1  C1  UNL     1       4.063   6.574  10.202  1.00  0.00     0.020 C 
HETATM    2  C2  UNL     1       2.806   5.778   9.749  1.00  0.00    -0.016 C 
HETATM    3  C3  UNL     1       3.180   4.269   9.685  1.00  0.00     0.022 C 
HETATM    4  C4  UNL     1       4.147   3.925   8.560  1.00  0.00     0.084 C 
HETATM    5  C5  UNL     1       3.570   4.369   7.241  1.00  0.00     0.149 C 
HETATM    6  O1  UNL     1       3.798   3.780   6.186  1.00  0.00    -0.293 OA
HETATM    7  C6  UNL     1       2.765   5.614   7.221  1.00  0.00     0.053 C 
HETATM    8  C7  UNL     1       2.450   6.274   8.349  1.00  0.00    -0.068 C 
HETATM    9  C8  UNL     1       1.790   7.623   8.266  1.00  0.00     0.035 C 
HETATM   10  C9  UNL     1       0.569   7.678   9.157  1.00  0.00     0.010 C 
HETATM   11  C10 UNL     1       0.892   7.384  10.634  1.00  0.00    -0.004 C 
HETATM   12  C11 UNL     1       1.668   6.036  10.825  1.00  0.00     0.002 C 
HETATM   13  C12 UNL     1       0.658   4.898  11.103  1.00  0.00     0.007 C 
HETATM   14  C13 UNL     1      -0.159   5.123  12.403  1.00  0.00     0.013 C 
HETATM   15  C14 UNL     1      -0.451   6.608  12.732  1.00  0.00    -0.002 C 
HETATM   16  C15 UNL     1       0.597   7.149  13.748  1.00  0.00     0.019 C 
HETATM   17  C16 UNL     1      -0.447   7.389  11.406  1.00  0.00     0.002 C 
HETATM   18  C17 UNL     1      -1.028   8.755  11.769  1.00  0.00     0.009 C 
HETATM   19  C18 UNL     1      -2.003   8.471  12.930  1.00  0.00     0.047 C 
HETATM   20  C19 UNL     1      -1.897   6.955  13.234  1.00  0.00     0.128 C 
ENDROOT
BRANCH  20  21
HETATM   21  O2  UNL     1      -2.914   6.315  12.445  1.00  0.00    -0.381 OA
HETATM   22  H27 UNL     1      -2.841   5.354  12.592  1.00  0.00     0.211 HD
ENDBRANCH  20  21
BRANCH  20  23
HETATM   23  C20 UNL     1      -2.193   6.567  14.691  1.00  0.00     0.185 C 
HETATM   24  O3  UNL     1      -1.911   5.441  15.119  1.00  0.00    -0.292 OA
BRANCH  23  25
HETATM   25  C21 UNL     1      -2.993   7.556  15.541  1.00  0.00     0.260 C 
BRANCH  25  26
HETATM   26  O4  UNL     1      -2.686   8.913  15.214  1.00  0.00    -0.314 OA
BRANCH  26  27
HETATM   27  C22 UNL     1      -3.734   9.766  15.387  1.00  0.00     0.259 C 
HETATM   28  O5  UNL     1      -3.664  10.983  15.253  1.00  0.00    -0.265 OA
BRANCH  27  29
HETATM   29  C23 UNL     1      -4.986   9.041  15.828  1.00  0.00     0.120 C 
BRANCH  29  30
HETATM   30  C24 UNL     1      -5.991   8.810  14.701  1.00  0.00     0.112 C 
BRANCH  30  31
HETATM   31  C25 UNL     1      -7.356   8.438  15.246  1.00  0.00     0.218 C 
HETATM   32  O6  UNL     1      -7.592   7.351  15.765  1.00  0.00    -0.274 OA
HETATM   33  N1  UNL     1      -8.303   9.423  15.077  1.00  0.00    -0.357 N 
HETATM   34  H34 UNL     1      -7.992  10.346  14.805  1.00  0.00     0.162 HD
BRANCH  33  35
HETATM   35  C26 UNL     1      -9.615   9.305  15.672  1.00  0.00     0.162 C 
BRANCH  35  36
HETATM   36  C27 UNL     1     -10.616   8.778  14.685  1.00  0.00    -0.025 A 
HETATM   37  C28 UNL     1     -11.015   7.439  14.692  1.00  0.00     0.011 A 
HETATM   38  C29 UNL     1     -11.957   6.991  13.771  1.00  0.00     0.018 A 
HETATM   39  C30 UNL     1     -12.486   7.906  12.877  1.00  0.00     0.087 A 
HETATM   40  N2  UNL     1     -12.141   9.210  12.849  1.00  0.00    -0.375 N 
HETATM   41  C31 UNL     1     -11.217   9.614  13.750  1.00  0.00     0.096 A 
ATOM     42  H2  UNL     1     -12.557   9.858  12.181  1.00  0.00     0.164 HD
ENDBRANCH  35  36
ENDBRANCH  33  35
ENDBRANCH  30  31
ENDBRANCH  29  30
ENDBRANCH  27  29
ENDBRANCH  26  27
ENDBRANCH  25  26
ENDBRANCH  23  25
ENDBRANCH  20  23
TORSDOF 10
ENDMDL
MODEL 5
REMARK minimizedAffinity -9.05892467
REMARK CNNscore 0.366720617
REMARK CNNaffinity 6.99543381
REMARK  10 active torsions:
REMARK  status: ('A' for Active; 'I' for Inactive)
REMARK    1  A    between atoms: C19_20  and  O2_21 
REMARK    2  A    between atoms: C19_20  and  C20_22 
REMARK    3  A    between atoms: C20_22  and  C21_24 
REMARK    4  A    between atoms: C21_24  and  O4_25 
REMARK    5  A    between atoms: O4_25  and  C22_26 
REMARK    6  A    between atoms: C22_26  and  C23_28 
REMARK    7  A    between atoms: C23_28  and  C24_29 
REMARK    8  A    between atoms: C24_29  and  C25_30 
REMARK       I    between atoms: C25_30  and  N1_32 
REMARK    9  A    between atoms: N1_32  and  C26_33 
REMARK   10  A    between atoms: C26_33  and  C27_34 
ROOT
HETATM    1  C1  UNL     1       0.954   5.760  10.304  1.00  0.00     0.020 C 
HETATM    2  C2  UNL     1       0.829   7.300  10.476  1.00  0.00    -0.016 C 
HETATM    3  C3  UNL     1       0.343   7.905   9.127  1.00  0.00     0.022 C 
HETATM    4  C4  UNL     1       1.380   7.832   8.014  1.00  0.00     0.084 C 
HETATM    5  C5  UNL     1       2.648   8.515   8.456  1.00  0.00     0.149 C 
HETATM    6  O1  UNL     1       3.398   9.091   7.671  1.00  0.00    -0.293 OA
HETATM    7  C6  UNL     1       3.031   8.406   9.885  1.00  0.00     0.053 C 
HETATM    8  C7  UNL     1       2.229   7.824  10.793  1.00  0.00    -0.068 C 
HETATM    9  C8  UNL     1       2.736   7.575  12.187  1.00  0.00     0.035 C 
HETATM   10  C9  UNL     1       1.750   8.087  13.214  1.00  0.00     0.010 C 
HETATM   11  C10 UNL     1       0.357   7.444  13.080  1.00  0.00    -0.004 C 
HETATM   12  C11 UNL     1      -0.226   7.565  11.631  1.00  0.00     0.002 C 
HETATM   13  C12 UNL     1      -1.105   8.835  11.537  1.00  0.00     0.007 C 
HETATM   14  C13 UNL     1      -2.321   8.797  12.499  1.00  0.00     0.013 C 
HETATM   15  C14 UNL     1      -2.069   8.044  13.829  1.00  0.00    -0.002 C 
HETATM   16  C15 UNL     1      -2.589   6.580  13.723  1.00  0.00     0.019 C 
HETATM   17  C16 UNL     1      -0.561   8.115  14.126  1.00  0.00     0.002 C 
HETATM   18  C17 UNL     1      -0.436   7.627  15.569  1.00  0.00     0.009 C 
HETATM   19  C18 UNL     1      -1.758   8.045  16.242  1.00  0.00     0.047 C 
HETATM   20  C19 UNL     1      -2.624   8.706  15.139  1.00  0.00     0.128 C 
ENDROOT
BRANCH  20  21
HETATM   21  O2  UNL     1      -2.344  10.114  15.197  1.00  0.00    -0.381 OA
HETATM   22  H27 UNL     1      -2.850  10.547  14.485  1.00  0.00     0.211 HD
ENDBRANCH  20  21
BRANCH  20  23
HETATM   23  C20 UNL     1      -4.142   8.574  15.344  1.00  0.00     0.185 C 
HETATM   24  O3  UNL     1      -4.765   9.396  16.027  1.00  0.00    -0.292 OA
BRANCH  23  25
HETATM   25  C21 UNL     1      -4.822   7.310  14.817  1.00  0.00     0.260 C 
BRANCH  25  26
HETATM   26  O4  UNL     1      -5.859   7.610  13.881  1.00  0.00    -0.314 OA
BRANCH  26  27
HETATM   27  C22 UNL     1      -6.751   6.595  13.711  1.00  0.00     0.259 C 
HETATM   28  O5  UNL     1      -7.708   6.637  12.945  1.00  0.00    -0.265 OA
BRANCH  27  29
HETATM   29  C23 UNL     1      -6.461   5.427  14.627  1.00  0.00     0.120 C 
BRANCH  29  30
HETATM   30  C24 UNL     1      -7.544   4.352  14.615  1.00  0.00     0.112 C 
BRANCH  30  31
HETATM   31  C25 UNL     1      -7.363   3.398  13.450  1.00  0.00     0.218 C 
HETATM   32  O6  UNL     1      -8.278   2.715  13.001  1.00  0.00    -0.274 OA
HETATM   33  N1  UNL     1      -6.074   3.358  12.969  1.00  0.00    -0.357 N 
HETATM   34  H34 UNL     1      -5.425   4.072  13.271  1.00  0.00     0.162 HD
BRANCH  33  35
HETATM   35  C26 UNL     1      -5.751   2.624  11.766  1.00  0.00     0.162 C 
BRANCH  35  36
HETATM   36  C27 UNL     1      -4.281   2.684  11.469  1.00  0.00    -0.025 A 
HETATM   37  C28 UNL     1      -3.632   3.899  11.231  1.00  0.00     0.011 A 
HETATM   38  C29 UNL     1      -2.264   3.916  10.975  1.00  0.00     0.018 A 
HETATM   39  C30 UNL     1      -1.582   2.713  10.981  1.00  0.00     0.087 A 
HETATM   40  N2  UNL     1      -2.166   1.521  11.223  1.00  0.00    -0.375 N 
HETATM   41  C31 UNL     1      -3.498   1.535  11.460  1.00  0.00     0.096 A 
ATOM     42  H2  UNL     1      -1.630   0.654  11.227  1.00  0.00     0.164 HD
ENDBRANCH  35  36
ENDBRANCH  33  35
ENDBRANCH  30  31
ENDBRANCH  29  30
ENDBRANCH  27  29
ENDBRANCH  26  27
ENDBRANCH  25  26
ENDBRANCH  23  25
ENDBRANCH  20  23
TORSDOF 10
ENDMDL
MODEL 6
REMARK minimizedAffinity -8.06206799
REMARK CNNscore 0.364873141
REMARK CNNaffinity 6.35629129
REMARK  10 active torsions:
REMARK  status: ('A' for Active; 'I' for Inactive)
REMARK    1  A    between atoms: C19_20  and  O2_21 
REMARK    2  A    between atoms: C19_20  and  C20_22 
REMARK    3  A    between atoms: C20_22  and  C21_24 
REMARK    4  A    between atoms: C21_24  and  O4_25 
REMARK    5  A    between atoms: O4_25  and  C22_26 
REMARK    6  A    between atoms: C22_26  and  C23_28 
REMARK    7  A    between atoms: C23_28  and  C24_29 
REMARK    8  A    between atoms: C24_29  and  C25_30 
REMARK       I    between atoms: C25_30  and  N1_32 
REMARK    9  A    between atoms: N1_32  and  C26_33 
REMARK   10  A    between atoms: C26_33  and  C27_34 
ROOT
HETATM    1  C1  UNL     1      -2.004  10.126  19.172  1.00  0.00     0.020 C 
HETATM    2  C2  UNL     1      -1.476  11.063  18.048  1.00  0.00    -0.016 C 
HETATM    3  C3  UNL     1      -0.054  11.553  18.448  1.00  0.00     0.022 C 
HETATM    4  C4  UNL     1      -0.047  12.509  19.633  1.00  0.00     0.084 C 
HETATM    5  C5  UNL     1      -0.935  13.691  19.338  1.00  0.00     0.149 C 
HETATM    6  O1  UNL     1      -0.716  14.813  19.789  1.00  0.00    -0.293 OA
HETATM    7  C6  UNL     1      -2.160  13.453  18.537  1.00  0.00     0.053 C 
HETATM    8  C7  UNL     1      -2.427  12.256  17.985  1.00  0.00    -0.068 C 
HETATM    9  C8  UNL     1      -3.763  12.013  17.339  1.00  0.00     0.035 C 
HETATM   10  C9  UNL     1      -3.590  11.420  15.958  1.00  0.00     0.010 C 
HETATM   11  C10 UNL     1      -2.805  10.094  15.969  1.00  0.00    -0.004 C 
HETATM   12  C11 UNL     1      -1.428  10.215  16.708  1.00  0.00     0.002 C 
HETATM   13  C12 UNL     1      -0.322  10.543  15.678  1.00  0.00     0.007 C 
HETATM   14  C13 UNL     1      -0.151   9.436  14.604  1.00  0.00     0.013 C 
HETATM   15  C14 UNL     1      -1.457   8.694  14.229  1.00  0.00    -0.002 C 
HETATM   16  C15 UNL     1      -1.571   7.366  15.035  1.00  0.00     0.019 C 
HETATM   17  C16 UNL     1      -2.632   9.651  14.499  1.00  0.00     0.002 C 
HETATM   18  C17 UNL     1      -3.831   8.975  13.836  1.00  0.00     0.009 C 
HETATM   19  C18 UNL     1      -3.236   8.199  12.645  1.00  0.00     0.047 C 
HETATM   20  C19 UNL     1      -1.701   8.406  12.706  1.00  0.00     0.128 C 
ENDROOT
BRANCH  20  21
HETATM   21  O2  UNL     1      -1.417   9.551  11.885  1.00  0.00    -0.381 OA
HETATM   22  H27 UNL     1      -0.459   9.723  11.939  1.00  0.00     0.211 HD
ENDBRANCH  20  21
BRANCH  20  23
HETATM   23  C20 UNL     1      -0.870   7.255  12.118  1.00  0.00     0.185 C 
HETATM   24  O3  UNL     1      -1.194   6.076  12.306  1.00  0.00    -0.292 OA
BRANCH  23  25
HETATM   25  C21 UNL     1       0.454   7.610  11.439  1.00  0.00     0.260 C 
BRANCH  25  26
HETATM   26  O4  UNL     1       0.489   7.180  10.077  1.00  0.00    -0.314 OA
BRANCH  26  27
HETATM   27  C22 UNL     1       0.529   8.206   9.181  1.00  0.00     0.259 C 
HETATM   28  O5  UNL     1      -0.388   8.998   8.997  1.00  0.00    -0.265 OA
BRANCH  27  29
HETATM   29  C23 UNL     1       1.819   8.217   8.391  1.00  0.00     0.120 C 
BRANCH  29  30
HETATM   30  C24 UNL     1       2.117   6.897   7.684  1.00  0.00     0.112 C 
BRANCH  30  31
HETATM   31  C25 UNL     1       3.043   6.025   8.509  1.00  0.00     0.218 C 
HETATM   32  O6  UNL     1       3.228   4.836   8.268  1.00  0.00    -0.274 OA
HETATM   33  N1  UNL     1       3.630   6.689   9.562  1.00  0.00    -0.357 N 
HETATM   34  H34 UNL     1       3.568   7.699   9.589  1.00  0.00     0.162 HD
BRANCH  33  35
HETATM   35  C26 UNL     1       4.658   6.060  10.360  1.00  0.00     0.162 C 
BRANCH  35  36
HETATM   36  C27 UNL     1       5.526   7.081  11.036  1.00  0.00    -0.025 A 
HETATM   37  C28 UNL     1       5.502   8.426  10.657  1.00  0.00     0.011 A 
HETATM   38  C29 UNL     1       6.310   9.347  11.317  1.00  0.00     0.018 A 
HETATM   39  C30 UNL     1       7.108   8.894  12.352  1.00  0.00     0.087 A 
HETATM   40  N2  UNL     1       7.147   7.609  12.760  1.00  0.00    -0.375 N 
HETATM   41  C31 UNL     1       6.358   6.735  12.094  1.00  0.00     0.096 A 
ATOM     42  H2  UNL     1       7.743   7.312  13.533  1.00  0.00     0.164 HD
ENDBRANCH  35  36
ENDBRANCH  33  35
ENDBRANCH  30  31
ENDBRANCH  29  30
ENDBRANCH  27  29
ENDBRANCH  26  27
ENDBRANCH  25  26
ENDBRANCH  23  25
ENDBRANCH  20  23
TORSDOF 10
ENDMDL
MODEL 7
REMARK minimizedAffinity -8.46711349
REMARK CNNscore 0.343432695
REMARK CNNaffinity 6.69190073
REMARK  10 active torsions:
REMARK  status: ('A' for Active; 'I' for Inactive)
REMARK    1  A    between atoms: C19_20  and  O2_21 
REMARK    2  A    between atoms: C19_20  and  C20_22 
REMARK    3  A    between atoms: C20_22  and  C21_24 
REMARK    4  A    between atoms: C21_24  and  O4_25 
REMARK    5  A    between atoms: O4_25  and  C22_26 
REMARK    6  A    between atoms: C22_26  and  C23_28 
REMARK    7  A    between atoms: C23_28  and  C24_29 
REMARK    8  A    between atoms: C24_29  and  C25_30 
REMARK       I    between atoms: C25_30  and  N1_32 
REMARK    9  A    between atoms: N1_32  and  C26_33 
REMARK   10  A    between atoms: C26_33  and  C27_34 
ROOT
HETATM    1  C1  UNL     1       4.080   6.778   9.995  1.00  0.00     0.020 C 
HETATM    2  C2  UNL     1       2.808   5.959   9.635  1.00  0.00    -0.016 C 
HETATM    3  C3  UNL     1       3.190   4.451   9.607  1.00  0.00     0.022 C 
HETATM    4  C4  UNL     1       4.102   4.071   8.449  1.00  0.00     0.084 C 
HETATM    5  C5  UNL     1       3.456   4.463   7.145  1.00  0.00     0.149 C 
HETATM    6  O1  UNL     1       3.635   3.836   6.102  1.00  0.00    -0.293 OA
HETATM    7  C6  UNL     1       2.641   5.701   7.120  1.00  0.00     0.053 C 
HETATM    8  C7  UNL     1       2.378   6.401   8.238  1.00  0.00    -0.068 C 
HETATM    9  C8  UNL     1       1.705   7.742   8.139  1.00  0.00     0.035 C 
HETATM   10  C9  UNL     1       0.530   7.823   9.087  1.00  0.00     0.010 C 
HETATM   11  C10 UNL     1       0.928   7.585  10.557  1.00  0.00    -0.004 C 
HETATM   12  C11 UNL     1       1.724   6.250  10.757  1.00  0.00     0.002 C 
HETATM   13  C12 UNL     1       0.738   5.117  11.127  1.00  0.00     0.007 C 
HETATM   14  C13 UNL     1      -0.015   5.385  12.457  1.00  0.00     0.013 C 
HETATM   15  C14 UNL     1      -0.302   6.879  12.746  1.00  0.00    -0.002 C 
HETATM   16  C15 UNL     1       0.792   7.464  13.688  1.00  0.00     0.019 C 
HETATM   17  C16 UNL     1      -0.370   7.611  11.394  1.00  0.00     0.002 C 
HETATM   18  C17 UNL     1      -0.943   8.986  11.736  1.00  0.00     0.009 C 
HETATM   19  C18 UNL     1      -1.856   8.740  12.953  1.00  0.00     0.047 C 
HETATM   20  C19 UNL     1      -1.723   7.237  13.307  1.00  0.00     0.128 C 
ENDROOT
BRANCH  20  21
HETATM   21  O2  UNL     1      -2.773   6.561  12.595  1.00  0.00    -0.381 OA
HETATM   22  H27 UNL     1      -2.686   5.608  12.773  1.00  0.00     0.211 HD
ENDBRANCH  20  21
BRANCH  20  23
HETATM   23  C20 UNL     1      -1.943   6.901  14.790  1.00  0.00     0.185 C 
HETATM   24  O3  UNL     1      -1.113   6.234  15.421  1.00  0.00    -0.292 OA
BRANCH  23  25
HETATM   25  C21 UNL     1      -3.291   7.274  15.411  1.00  0.00     0.260 C 
BRANCH  25  26
HETATM   26  O4  UNL     1      -4.153   6.141  15.539  1.00  0.00    -0.314 OA
BRANCH  26  27
HETATM   27  C22 UNL     1      -5.427   6.375  15.118  1.00  0.00     0.259 C 
HETATM   28  O5  UNL     1      -5.715   6.946  14.072  1.00  0.00    -0.265 OA
BRANCH  27  29
HETATM   29  C23 UNL     1      -6.451   5.903  16.126  1.00  0.00     0.120 C 
BRANCH  29  30
HETATM   30  C24 UNL     1      -7.108   7.037  16.911  1.00  0.00     0.112 C 
BRANCH  30  31
HETATM   31  C25 UNL     1      -8.385   7.505  16.240  1.00  0.00     0.218 C 
HETATM   32  O6  UNL     1      -8.683   8.691  16.131  1.00  0.00    -0.274 OA
HETATM   33  N1  UNL     1      -9.181   6.475  15.794  1.00  0.00    -0.357 N 
HETATM   34  H34 UNL     1      -8.789   5.543  15.762  1.00  0.00     0.162 HD
BRANCH  33  35
HETATM   35  C26 UNL     1     -10.357   6.735  14.995  1.00  0.00     0.162 C 
BRANCH  35  36
HETATM   36  C27 UNL     1     -10.068   6.578  13.530  1.00  0.00    -0.025 A 
HETATM   37  C28 UNL     1     -10.836   7.227  12.560  1.00  0.00     0.011 A 
HETATM   38  C29 UNL     1     -10.527   7.071  11.212  1.00  0.00     0.018 A 
HETATM   39  C30 UNL     1      -9.444   6.279  10.876  1.00  0.00     0.087 A 
HETATM   40  N2  UNL     1      -8.666   5.650  11.782  1.00  0.00    -0.375 N 
HETATM   41  C31 UNL     1      -8.996   5.814  13.084  1.00  0.00     0.096 A 
ATOM     42  H2  UNL     1      -7.870   5.080  11.499  1.00  0.00     0.164 HD
ENDBRANCH  35  36
ENDBRANCH  33  35
ENDBRANCH  30  31
ENDBRANCH  29  30
ENDBRANCH  27  29
ENDBRANCH  26  27
ENDBRANCH  25  26
ENDBRANCH  23  25
ENDBRANCH  20  23
TORSDOF 10
ENDMDL
MODEL 8
REMARK minimizedAffinity -7.7891736
REMARK CNNscore 0.331914932
REMARK CNNaffinity 6.5330615
REMARK  10 active torsions:
REMARK  status: ('A' for Active; 'I' for Inactive)
REMARK    1  A    between atoms: C19_20  and  O2_21 
REMARK    2  A    between atoms: C19_20  and  C20_22 
REMARK    3  A    between atoms: C20_22  and  C21_24 
REMARK    4  A    between atoms: C21_24  and  O4_25 
REMARK    5  A    between atoms: O4_25  and  C22_26 
REMARK    6  A    between atoms: C22_26  and  C23_28 
REMARK    7  A    between atoms: C23_28  and  C24_29 
REMARK    8  A    between atoms: C24_29  and  C25_30 
REMARK       I    between atoms: C25_30  and  N1_32 
REMARK    9  A    between atoms: N1_32  and  C26_33 
REMARK   10  A    between atoms: C26_33  and  C27_34 
ROOT
HETATM    1  C1  UNL     1       1.159   6.378  13.733  1.00  0.00     0.020 C 
HETATM    2  C2  UNL     1       0.165   6.282  12.540  1.00  0.00    -0.016 C 
HETATM    3  C3  UNL     1       0.345   4.891  11.866  1.00  0.00     0.022 C 
HETATM    4  C4  UNL     1       1.672   4.731  11.137  1.00  0.00     0.084 C 
HETATM    5  C5  UNL     1       1.822   5.824  10.110  1.00  0.00     0.149 C 
HETATM    6  O1  UNL     1       2.437   5.664   9.058  1.00  0.00    -0.293 OA
HETATM    7  C6  UNL     1       1.270   7.161  10.436  1.00  0.00     0.053 C 
HETATM    8  C7  UNL     1       0.553   7.380  11.552  1.00  0.00    -0.068 C 
HETATM    9  C8  UNL     1       0.171   8.785  11.930  1.00  0.00     0.035 C 
HETATM   10  C9  UNL     1      -1.307   8.872  12.242  1.00  0.00     0.010 C 
HETATM   11  C10 UNL     1      -1.736   7.927  13.380  1.00  0.00    -0.004 C 
HETATM   12  C11 UNL     1      -1.300   6.443  13.129  1.00  0.00     0.002 C 
HETATM   13  C12 UNL     1      -2.452   5.681  12.432  1.00  0.00     0.007 C 
HETATM   14  C13 UNL     1      -3.741   5.622  13.293  1.00  0.00     0.013 C 
HETATM   15  C14 UNL     1      -3.973   6.860  14.193  1.00  0.00    -0.002 C 
HETATM   16  C15 UNL     1      -3.453   6.581  15.635  1.00  0.00     0.019 C 
HETATM   17  C16 UNL     1      -3.268   8.057  13.532  1.00  0.00     0.002 C 
HETATM   18  C17 UNL     1      -3.785   9.273  14.300  1.00  0.00     0.009 C 
HETATM   19  C18 UNL     1      -5.209   8.882  14.742  1.00  0.00     0.047 C 
HETATM   20  C19 UNL     1      -5.435   7.426  14.264  1.00  0.00     0.128 C 
ENDROOT
BRANCH  20  21
HETATM   21  O2  UNL     1      -6.045   7.518  12.966  1.00  0.00    -0.381 OA
HETATM   22  H27 UNL     1      -6.162   6.612  12.628  1.00  0.00     0.211 HD
ENDBRANCH  20  21
BRANCH  20  23
HETATM   23  C20 UNL     1      -6.411   6.608  15.125  1.00  0.00     0.185 C 
HETATM   24  O3  UNL     1      -6.863   7.064  16.182  1.00  0.00    -0.292 OA
BRANCH  23  25
HETATM   25  C21 UNL     1      -6.672   5.157  14.717  1.00  0.00     0.260 C 
BRANCH  25  26
HETATM   26  O4  UNL     1      -6.924   5.031  13.316  1.00  0.00    -0.314 OA
BRANCH  26  27
HETATM   27  C22 UNL     1      -8.247   4.930  13.007  1.00  0.00     0.259 C 
HETATM   28  O5  UNL     1      -8.849   3.869  12.881  1.00  0.00    -0.265 OA
BRANCH  27  29
HETATM   29  C23 UNL     1      -8.878   6.285  12.774  1.00  0.00     0.120 C 
BRANCH  29  30
HETATM   30  C24 UNL     1     -10.359   6.218  12.406  1.00  0.00     0.112 C 
BRANCH  30  31
HETATM   31  C25 UNL     1     -11.184   7.156  13.264  1.00  0.00     0.218 C 
HETATM   32  O6  UNL     1     -12.325   7.499  12.968  1.00  0.00    -0.274 OA
HETATM   33  N1  UNL     1     -10.522   7.601  14.385  1.00  0.00    -0.357 N 
HETATM   34  H34 UNL     1      -9.661   7.141  14.650  1.00  0.00     0.162 HD
BRANCH  33  35
HETATM   35  C26 UNL     1     -11.205   8.377  15.396  1.00  0.00     0.162 C 
BRANCH  35  36
HETATM   36  C27 UNL     1     -10.739   9.803  15.397  1.00  0.00    -0.025 A 
HETATM   37  C28 UNL     1     -11.640  10.867  15.501  1.00  0.00     0.011 A 
HETATM   38  C29 UNL     1     -11.169  12.176  15.515  1.00  0.00     0.018 A 
HETATM   39  C30 UNL     1      -9.803  12.381  15.441  1.00  0.00     0.087 A 
HETATM   40  N2  UNL     1      -8.899  11.383  15.358  1.00  0.00    -0.375 N 
HETATM   41  C31 UNL     1      -9.387  10.121  15.338  1.00  0.00     0.096 A 
ATOM     42  H2  UNL     1      -7.897  11.571  15.312  1.00  0.00     0.164 HD
ENDBRANCH  35  36
ENDBRANCH  33  35
ENDBRANCH  30  31
ENDBRANCH  29  30
ENDBRANCH  27  29
ENDBRANCH  26  27
ENDBRANCH  25  26
ENDBRANCH  23  25
ENDBRANCH  20  23
TORSDOF 10
ENDMDL
MODEL 9
REMARK minimizedAffinity -9.02375698
REMARK CNNscore 0.323597789
REMARK CNNaffinity 6.72299194
REMARK  10 active torsions:
REMARK  status: ('A' for Active; 'I' for Inactive)
REMARK    1  A    between atoms: C19_20  and  O2_21 
REMARK    2  A    between atoms: C19_20  and  C20_22 
REMARK    3  A    between atoms: C20_22  and  C21_24 
REMARK    4  A    between atoms: C21_24  and  O4_25 
REMARK    5  A    between atoms: O4_25  and  C22_26 
REMARK    6  A    between atoms: C22_26  and  C23_28 
REMARK    7  A    between atoms: C23_28  and  C24_29 
REMARK    8  A    between atoms: C24_29  and  C25_30 
REMARK       I    between atoms: C25_30  and  N1_32 
REMARK    9  A    between atoms: N1_32  and  C26_33 
REMARK   10  A    between atoms: C26_33  and  C27_34 
ROOT
HETATM    1  C1  UNL     1       4.156   6.656   9.892  1.00  0.00     0.020 C 
HETATM    2  C2  UNL     1       2.884   5.840   9.523  1.00  0.00    -0.016 C 
HETATM    3  C3  UNL     1       3.272   4.335   9.459  1.00  0.00     0.022 C 
HETATM    4  C4  UNL     1       4.177   3.985   8.286  1.00  0.00     0.084 C 
HETATM    5  C5  UNL     1       3.520   4.403   6.995  1.00  0.00     0.149 C 
HETATM    6  O1  UNL     1       3.695   3.800   5.938  1.00  0.00    -0.293 OA
HETATM    7  C6  UNL     1       2.701   5.638   7.004  1.00  0.00     0.053 C 
HETATM    8  C7  UNL     1       2.443   6.312   8.139  1.00  0.00    -0.068 C 
HETATM    9  C8  UNL     1       1.764   7.652   8.074  1.00  0.00     0.035 C 
HETATM   10  C9  UNL     1       0.595   7.707   9.033  1.00  0.00     0.010 C 
HETATM   11  C10 UNL     1       1.005   7.438  10.493  1.00  0.00    -0.004 C 
HETATM   12  C11 UNL     1       1.807   6.102  10.658  1.00  0.00     0.002 C 
HETATM   13  C12 UNL     1       0.828   4.957  11.010  1.00  0.00     0.007 C 
HETATM   14  C13 UNL     1       0.083   5.193  12.351  1.00  0.00     0.013 C 
HETATM   15  C14 UNL     1      -0.207   6.679  12.675  1.00  0.00    -0.002 C 
HETATM   16  C15 UNL     1       0.891   7.246  13.622  1.00  0.00     0.019 C 
HETATM   17  C16 UNL     1      -0.287   7.440  11.340  1.00  0.00     0.002 C 
HETATM   18  C17 UNL     1      -0.863   8.805  11.717  1.00  0.00     0.009 C 
HETATM   19  C18 UNL     1      -1.766   8.528  12.935  1.00  0.00     0.047 C 
HETATM   20  C19 UNL     1      -1.626   7.018  13.254  1.00  0.00     0.128 C 
ENDROOT
BRANCH  20  21
HETATM   21  O2  UNL     1      -2.678   6.354  12.534  1.00  0.00    -0.381 OA
HETATM   22  H27 UNL     1      -2.586   5.397  12.690  1.00  0.00     0.211 HD
ENDBRANCH  20  21
BRANCH  20  23
HETATM   23  C20 UNL     1      -1.834   6.648  14.731  1.00  0.00     0.185 C 
HETATM   24  O3  UNL     1      -1.086   5.840  15.296  1.00  0.00    -0.292 OA
BRANCH  23  25
HETATM   25  C21 UNL     1      -3.088   7.181  15.426  1.00  0.00     0.260 C 
BRANCH  25  26
HETATM   26  O4  UNL     1      -4.132   6.205  15.469  1.00  0.00    -0.314 OA
BRANCH  26  27
HETATM   27  C22 UNL     1      -5.317   6.653  14.968  1.00  0.00     0.259 C 
HETATM   28  O5  UNL     1      -6.085   7.395  15.570  1.00  0.00    -0.265 OA
BRANCH  27  29
HETATM   29  C23 UNL     1      -5.607   6.074  13.601  1.00  0.00     0.120 C 
BRANCH  29  30
HETATM   30  C24 UNL     1      -6.166   4.654  13.642  1.00  0.00     0.112 C 
BRANCH  30  31
HETATM   31  C25 UNL     1      -7.622   4.620  13.222  1.00  0.00     0.218 C 
HETATM   32  O6  UNL     1      -8.269   3.580  13.146  1.00  0.00    -0.274 OA
HETATM   33  N1  UNL     1      -8.134   5.861  12.913  1.00  0.00    -0.357 N 
HETATM   34  H34 UNL     1      -7.597   6.679  13.169  1.00  0.00     0.162 HD
BRANCH  33  35
HETATM   35  C26 UNL     1      -9.543   6.040  12.645  1.00  0.00     0.162 C 
BRANCH  35  36
HETATM   36  C27 UNL     1     -10.178   6.954  13.652  1.00  0.00    -0.025 A 
HETATM   37  C28 UNL     1      -9.491   7.372  14.796  1.00  0.00     0.011 A 
HETATM   38  C29 UNL     1     -10.107   8.233  15.699  1.00  0.00     0.018 A 
HETATM   39  C30 UNL     1     -11.392   8.664  15.420  1.00  0.00     0.087 A 
HETATM   40  N2  UNL     1     -12.082   8.300  14.319  1.00  0.00    -0.375 N 
HETATM   41  C31 UNL     1     -11.461   7.456  13.464  1.00  0.00     0.096 A 
ATOM     42  H2  UNL     1     -13.025   8.644  14.142  1.00  0.00     0.164 HD
ENDBRANCH  35  36
ENDBRANCH  33  35
ENDBRANCH  30  31
ENDBRANCH  29  30
ENDBRANCH  27  29
ENDBRANCH  26  27
ENDBRANCH  25  26
ENDBRANCH  23  25
ENDBRANCH  20  23
TORSDOF 10
ENDMDL
