MODEL 1
REMARK minimizedAffinity -7.87770128
REMARK CNNscore 0.470538676
REMARK CNNaffinity 6.91521263
REMARK  6 active torsions:
REMARK  status: ('A' for Active; 'I' for Inactive)
REMARK    1  A    between atoms: C2_2  and  C3_3 
REMARK    2  A    between atoms: C3_3  and  C4_4 
REMARK    3  A    between atoms: C3_3  and  C27_28 
REMARK    4  A    between atoms: C5_5  and  C6_6 
REMARK    5  A    between atoms: C6_6  and  C8_8 
REMARK    6  A    between atoms: C16_16  and  O1_17 
ROOT
HETATM    1  C8  UNL     1      -0.143   7.996  13.223  1.00  0.00    -0.002 C 
HETATM    2  C9  UNL     1      -1.555   8.497  12.855  1.00  0.00     0.040 C 
HETATM    3  C10 UNL     1      -2.428   7.509  13.574  1.00  0.00    -0.068 C 
HETATM    4  C11 UNL     1      -3.478   7.793  14.366  1.00  0.00    -0.072 C 
HETATM    5  C12 UNL     1      -4.220   9.105  14.369  1.00  0.00     0.035 C 
HETATM    6  C13 UNL     1      -5.712   8.862  14.107  1.00  0.00     0.010 C 
HETATM    7  C14 UNL     1      -6.299   7.808  15.064  1.00  0.00    -0.003 C 
HETATM    8  C15 UNL     1      -7.809   7.635  14.864  1.00  0.00     0.037 C 
HETATM    9  C16 UNL     1      -8.392   6.681  15.906  1.00  0.00     0.118 C 
HETATM   10  C17 UNL     1      -7.657   5.343  15.946  1.00  0.00     0.032 C 
HETATM   11  C18 UNL     1      -6.143   5.510  16.093  1.00  0.00     0.012 C 
HETATM   12  C19 UNL     1      -5.518   6.442  15.020  1.00  0.00    -0.033 C 
HETATM   13  C20 UNL     1      -5.640   5.754  13.639  1.00  0.00     0.016 C 
HETATM   14  C21 UNL     1      -4.025   6.781  15.361  1.00  0.00     0.023 C 
HETATM   15  C22 UNL     1      -3.031   5.629  15.623  1.00  0.00     0.011 C 
HETATM   16  C23 UNL     1      -2.347   5.072  14.381  1.00  0.00     0.014 C 
HETATM   17  C24 UNL     1      -1.786   6.149  13.435  1.00  0.00    -0.020 C 
HETATM   18  C25 UNL     1      -1.922   5.610  11.991  1.00  0.00     0.020 C 
HETATM   19  C26 UNL     1      -0.321   6.527  13.705  1.00  0.00     0.019 C 
ENDROOT
BRANCH   1  20
HETATM   20  C6  UNL     1       0.895   8.176  12.089  1.00  0.00     0.008 C 
HETATM   21  C7  UNL     1       0.205   8.376  10.732  1.00  0.00     0.014 C 
BRANCH  20  22
HETATM   22  C5  UNL     1       1.804   6.969  11.981  1.00  0.00    -0.026 C 
HETATM   23  C4  UNL     1       2.899   6.815  11.215  1.00  0.00    -0.025 C 
BRANCH  23  24
HETATM   24  C3  UNL     1       3.541   7.819  10.279  1.00  0.00     0.011 C 
BRANCH  24  25
HETATM   25  C2  UNL     1       5.039   8.006  10.627  1.00  0.00     0.004 C 
HETATM   26  C1  UNL     1       5.274   8.843  11.879  1.00  0.00     0.006 C 
ENDBRANCH  24  25
BRANCH  24  27
HETATM   27  C27 UNL     1       3.371   7.438   8.777  1.00  0.00    -0.015 C 
HETATM   28  C28 UNL     1       2.721   8.568   7.970  1.00  0.00     0.010 C 
HETATM   29  C29 UNL     1       2.601   6.133   8.539  1.00  0.00     0.010 C 
ENDBRANCH  24  27
ENDBRANCH  23  24
ENDBRANCH  20  22
ENDBRANCH   1  20
BRANCH   9  30
HETATM   30  O1  UNL     1      -9.767   6.464  15.603  1.00  0.00    -0.396 OA
HETATM   31  H24 UNL     1     -10.124   5.859  16.276  1.00  0.00     0.210 HD
ENDBRANCH   9  30
TORSDOF 6
ENDMDL
MODEL 2
REMARK minimizedAffinity -9.69460583
REMARK CNNscore 0.462746769
REMARK CNNaffinity 7.03743887
REMARK  6 active torsions:
REMARK  status: ('A' for Active; 'I' for Inactive)
REMARK    1  A    between atoms: C2_2  and  C3_3 
REMARK    2  A    between atoms: C3_3  and  C4_4 
REMARK    3  A    between atoms: C3_3  and  C27_28 
REMARK    4  A    between atoms: C5_5  and  C6_6 
REMARK    5  A    between atoms: C6_6  and  C8_8 
REMARK    6  A    between atoms: C16_16  and  O1_17 
ROOT
HETATM    1  C8  UNL     1      -0.030   6.244  11.830  1.00  0.00    -0.002 C 
HETATM    2  C9  UNL     1      -1.031   5.236  12.432  1.00  0.00     0.040 C 
HETATM    3  C10 UNL     1      -2.080   6.147  13.000  1.00  0.00    -0.068 C 
HETATM    4  C11 UNL     1      -3.410   6.044  12.830  1.00  0.00    -0.072 C 
HETATM    5  C12 UNL     1      -4.123   4.794  12.382  1.00  0.00     0.035 C 
HETATM    6  C13 UNL     1      -5.194   4.406  13.411  1.00  0.00     0.010 C 
HETATM    7  C14 UNL     1      -6.135   5.582  13.732  1.00  0.00    -0.003 C 
HETATM    8  C15 UNL     1      -7.260   5.167  14.687  1.00  0.00     0.037 C 
HETATM    9  C16 UNL     1      -8.252   6.312  14.892  1.00  0.00     0.118 C 
HETATM   10  C17 UNL     1      -7.567   7.604  15.332  1.00  0.00     0.032 C 
HETATM   11  C18 UNL     1      -6.408   7.996  14.412  1.00  0.00     0.012 C 
HETATM   12  C19 UNL     1      -5.362   6.864  14.220  1.00  0.00    -0.033 C 
HETATM   13  C20 UNL     1      -4.643   6.623  15.569  1.00  0.00     0.016 C 
HETATM   14  C21 UNL     1      -4.342   7.219  13.083  1.00  0.00     0.023 C 
HETATM   15  C22 UNL     1      -3.580   8.561  13.146  1.00  0.00     0.011 C 
HETATM   16  C23 UNL     1      -2.281   8.529  13.941  1.00  0.00     0.014 C 
HETATM   17  C24 UNL     1      -1.371   7.333  13.611  1.00  0.00    -0.020 C 
HETATM   18  C25 UNL     1      -0.639   6.936  14.916  1.00  0.00     0.020 C 
HETATM   19  C26 UNL     1      -0.336   7.611  12.509  1.00  0.00     0.019 C 
ENDROOT
BRANCH   1  20
HETATM   20  C6  UNL     1       1.447   5.793  11.938  1.00  0.00     0.008 C 
HETATM   21  C7  UNL     1       2.332   6.919  12.490  1.00  0.00     0.014 C 
BRANCH  20  22
HETATM   22  C5  UNL     1       1.994   5.384  10.585  1.00  0.00    -0.026 C 
HETATM   23  C4  UNL     1       2.369   6.176   9.564  1.00  0.00    -0.025 C 
BRANCH  23  24
HETATM   24  C3  UNL     1       2.379   7.690   9.501  1.00  0.00     0.011 C 
BRANCH  24  25
HETATM   25  C2  UNL     1       3.825   8.217   9.325  1.00  0.00     0.004 C 
HETATM   26  C1  UNL     1       4.805   7.664  10.352  1.00  0.00     0.006 C 
ENDBRANCH  24  25
BRANCH  24  27
HETATM   27  C27 UNL     1       1.449   8.254   8.384  1.00  0.00    -0.015 C 
HETATM   28  C28 UNL     1      -0.005   8.367   8.853  1.00  0.00     0.010 C 
HETATM   29  C29 UNL     1       1.501   7.474   7.065  1.00  0.00     0.010 C 
ENDBRANCH  24  27
ENDBRANCH  23  24
ENDBRANCH  20  22
ENDBRANCH   1  20
BRANCH   9  30
HETATM   30  O1  UNL     1      -9.204   5.916  15.874  1.00  0.00    -0.396 OA
HETATM   31  H24 UNL     1      -9.830   6.652  15.990  1.00  0.00     0.210 HD
ENDBRANCH   9  30
TORSDOF 6
ENDMDL
MODEL 3
REMARK minimizedAffinity -8.73327351
REMARK CNNscore 0.445869446
REMARK CNNaffinity 6.87864065
REMARK  6 active torsions:
REMARK  status: ('A' for Active; 'I' for Inactive)
REMARK    1  A    between atoms: C2_2  and  C3_3 
REMARK    2  A    between atoms: C3_3  and  C4_4 
REMARK    3  A    between atoms: C3_3  and  C27_28 
REMARK    4  A    between atoms: C5_5  and  C6_6 
REMARK    5  A    between atoms: C6_6  and  C8_8 
REMARK    6  A    between atoms: C16_16  and  O1_17 
ROOT
HETATM    1  C8  UNL     1      -4.272   7.342  13.252  1.00  0.00    -0.002 C 
HETATM    2  C9  UNL     1      -2.962   8.154  13.346  1.00  0.00     0.040 C 
HETATM    3  C10 UNL     1      -1.960   7.185  12.790  1.00  0.00    -0.068 C 
HETATM    4  C11 UNL     1      -1.032   7.440  11.850  1.00  0.00    -0.072 C 
HETATM    5  C12 UNL     1      -0.557   8.818  11.466  1.00  0.00     0.035 C 
HETATM    6  C13 UNL     1       0.967   8.907  11.622  1.00  0.00     0.010 C 
HETATM    7  C14 UNL     1       1.688   7.767  10.881  1.00  0.00    -0.003 C 
HETATM    8  C15 UNL     1       3.213   7.912  10.958  1.00  0.00     0.037 C 
HETATM    9  C16 UNL     1       3.906   6.844  10.112  1.00  0.00     0.118 C 
HETATM   10  C17 UNL     1       3.440   5.432  10.459  1.00  0.00     0.032 C 
HETATM   11  C18 UNL     1       1.916   5.295  10.434  1.00  0.00     0.012 C 
HETATM   12  C19 UNL     1       1.188   6.341  11.321  1.00  0.00    -0.033 C 
HETATM   13  C20 UNL     1       1.519   6.047  12.803  1.00  0.00     0.016 C 
HETATM   14  C21 UNL     1      -0.360   6.323  11.066  1.00  0.00     0.023 C 
HETATM   15  C22 UNL     1      -1.128   4.989  11.183  1.00  0.00     0.011 C 
HETATM   16  C23 UNL     1      -1.619   4.647  12.583  1.00  0.00     0.014 C 
HETATM   17  C24 UNL     1      -2.320   5.811  13.306  1.00  0.00    -0.020 C 
HETATM   18  C25 UNL     1      -1.999   5.677  14.814  1.00  0.00     0.020 C 
HETATM   19  C26 UNL     1      -3.844   5.853  13.109  1.00  0.00     0.019 C 
ENDROOT
BRANCH   1  20
HETATM   20  C6  UNL     1      -5.257   7.616  14.414  1.00  0.00     0.008 C 
HETATM   21  C7  UNL     1      -4.730   8.723  15.339  1.00  0.00     0.014 C 
BRANCH  20  22
HETATM   22  C5  UNL     1      -5.478   6.371  15.249  1.00  0.00    -0.026 C 
HETATM   23  C4  UNL     1      -6.550   5.558  15.267  1.00  0.00    -0.025 C 
BRANCH  23  24
HETATM   24  C3  UNL     1      -7.812   5.647  14.432  1.00  0.00     0.011 C 
BRANCH  24  25
HETATM   25  C2  UNL     1      -8.475   7.038  14.595  1.00  0.00     0.004 C 
HETATM   26  C1  UNL     1      -9.211   7.211  15.918  1.00  0.00     0.006 C 
ENDBRANCH  24  25
BRANCH  24  27
HETATM   27  C27 UNL     1      -7.563   5.331  12.926  1.00  0.00    -0.015 C 
HETATM   28  C28 UNL     1      -8.758   5.727  12.053  1.00  0.00     0.010 C 
HETATM   29  C29 UNL     1      -7.182   3.874  12.641  1.00  0.00     0.010 C 
ENDBRANCH  24  27
ENDBRANCH  23  24
ENDBRANCH  20  22
ENDBRANCH   1  20
BRANCH   9  30
HETATM   30  O1  UNL     1       5.312   6.949  10.313  1.00  0.00    -0.396 OA
HETATM   31  H24 UNL     1       5.738   6.267   9.765  1.00  0.00     0.210 HD
ENDBRANCH   9  30
TORSDOF 6
ENDMDL
MODEL 4
REMARK minimizedAffinity -6.77622271
REMARK CNNscore 0.398623973
REMARK CNNaffinity 6.56430578
REMARK  6 active torsions:
REMARK  status: ('A' for Active; 'I' for Inactive)
REMARK    1  A    between atoms: C2_2  and  C3_3 
REMARK    2  A    between atoms: C3_3  and  C4_4 
REMARK    3  A    between atoms: C3_3  and  C27_28 
REMARK    4  A    between atoms: C5_5  and  C6_6 
REMARK    5  A    between atoms: C6_6  and  C8_8 
REMARK    6  A    between atoms: C16_16  and  O1_17 
ROOT
HETATM    1  C8  UNL     1      -3.715   6.486  13.580  1.00  0.00    -0.002 C 
HETATM    2  C9  UNL     1      -2.821   7.638  13.076  1.00  0.00     0.040 C 
HETATM    3  C10 UNL     1      -1.497   6.950  12.909  1.00  0.00    -0.068 C 
HETATM    4  C11 UNL     1      -0.691   7.011  11.835  1.00  0.00    -0.072 C 
HETATM    5  C12 UNL     1      -0.758   8.079  10.772  1.00  0.00     0.035 C 
HETATM    6  C13 UNL     1       0.607   8.767  10.636  1.00  0.00     0.010 C 
HETATM    7  C14 UNL     1       1.745   7.751  10.432  1.00  0.00    -0.003 C 
HETATM    8  C15 UNL     1       3.093   8.444  10.201  1.00  0.00     0.037 C 
HETATM    9  C16 UNL     1       4.183   7.423   9.875  1.00  0.00     0.118 C 
HETATM   10  C17 UNL     1       4.273   6.314  10.921  1.00  0.00     0.032 C 
HETATM   11  C18 UNL     1       2.920   5.653  11.194  1.00  0.00     0.012 C 
HETATM   12  C19 UNL     1       1.804   6.664  11.569  1.00  0.00    -0.033 C 
HETATM   13  C20 UNL     1       2.147   7.289  12.943  1.00  0.00     0.016 C 
HETATM   14  C21 UNL     1       0.395   5.975  11.590  1.00  0.00     0.023 C 
HETATM   15  C22 UNL     1       0.189   4.706  12.444  1.00  0.00     0.011 C 
HETATM   16  C23 UNL     1      -0.205   4.959  13.893  1.00  0.00     0.014 C 
HETATM   17  C24 UNL     1      -1.333   5.993  14.066  1.00  0.00    -0.020 C 
HETATM   18  C25 UNL     1      -1.062   6.753  15.387  1.00  0.00     0.020 C 
HETATM   19  C26 UNL     1      -2.745   5.387  14.104  1.00  0.00     0.019 C 
ENDROOT
BRANCH   1  20
HETATM   20  C6  UNL     1      -4.788   6.933  14.602  1.00  0.00     0.008 C 
HETATM   21  C7  UNL     1      -5.021   5.853  15.669  1.00  0.00     0.014 C 
BRANCH  20  22
HETATM   22  C5  UNL     1      -6.111   7.213  13.919  1.00  0.00    -0.026 C 
HETATM   23  C4  UNL     1      -6.850   6.383  13.161  1.00  0.00    -0.025 C 
BRANCH  23  24
HETATM   24  C3  UNL     1      -6.578   4.933  12.812  1.00  0.00     0.011 C 
BRANCH  24  25
HETATM   25  C2  UNL     1      -5.093   4.739  12.416  1.00  0.00     0.004 C 
HETATM   26  C1  UNL     1      -4.846   3.497  11.568  1.00  0.00     0.006 C 
ENDBRANCH  24  25
BRANCH  24  27
HETATM   27  C27 UNL     1      -6.972   3.953  13.959  1.00  0.00    -0.015 C 
HETATM   28  C28 UNL     1      -7.610   2.668  13.420  1.00  0.00     0.010 C 
HETATM   29  C29 UNL     1      -7.885   4.566  15.028  1.00  0.00     0.010 C 
ENDBRANCH  24  27
ENDBRANCH  23  24
ENDBRANCH  20  22
ENDBRANCH   1  20
BRANCH   9  30
HETATM   30  O1  UNL     1       5.430   8.104   9.789  1.00  0.00    -0.396 OA
HETATM   31  H24 UNL     1       6.112   7.443   9.577  1.00  0.00     0.210 HD
ENDBRANCH   9  30
TORSDOF 6
ENDMDL
MODEL 5
REMARK minimizedAffinity -8.76228905
REMARK CNNscore 0.333837628
REMARK CNNaffinity 6.98540354
REMARK  6 active torsions:
REMARK  status: ('A' for Active; 'I' for Inactive)
REMARK    1  A    between atoms: C2_2  and  C3_3 
REMARK    2  A    between atoms: C3_3  and  C4_4 
REMARK    3  A    between atoms: C3_3  and  C27_28 
REMARK    4  A    between atoms: C5_5  and  C6_6 
REMARK    5  A    between atoms: C6_6  and  C8_8 
REMARK    6  A    between atoms: C16_16  and  O1_17 
ROOT
HETATM    1  C8  UNL     1      -7.034   5.291  14.343  1.00  0.00    -0.002 C 
HETATM    2  C9  UNL     1      -6.220   5.124  13.042  1.00  0.00     0.040 C 
HETATM    3  C10 UNL     1      -4.863   5.609  13.465  1.00  0.00    -0.068 C 
HETATM    4  C11 UNL     1      -3.688   4.989  13.254  1.00  0.00    -0.072 C 
HETATM    5  C12 UNL     1      -3.460   3.912  12.224  1.00  0.00     0.035 C 
HETATM    6  C13 UNL     1      -2.315   4.321  11.287  1.00  0.00     0.010 C 
HETATM    7  C14 UNL     1      -1.049   4.721  12.067  1.00  0.00    -0.003 C 
HETATM    8  C15 UNL     1       0.122   5.036  11.129  1.00  0.00     0.037 C 
HETATM    9  C16 UNL     1       1.400   5.307  11.923  1.00  0.00     0.118 C 
HETATM   10  C17 UNL     1       1.206   6.382  12.990  1.00  0.00     0.032 C 
HETATM   11  C18 UNL     1       0.006   6.099  13.897  1.00  0.00     0.012 C 
HETATM   12  C19 UNL     1      -1.315   5.863  13.117  1.00  0.00    -0.033 C 
HETATM   13  C20 UNL     1      -1.727   7.188  12.432  1.00  0.00     0.016 C 
HETATM   14  C21 UNL     1      -2.447   5.332  14.064  1.00  0.00     0.023 C 
HETATM   15  C22 UNL     1      -2.790   6.121  15.345  1.00  0.00     0.011 C 
HETATM   16  C23 UNL     1      -3.821   7.227  15.166  1.00  0.00     0.014 C 
HETATM   17  C24 UNL     1      -5.067   6.802  14.368  1.00  0.00    -0.020 C 
HETATM   18  C25 UNL     1      -5.542   8.037  13.564  1.00  0.00     0.020 C 
HETATM   19  C26 UNL     1      -6.224   6.278  15.233  1.00  0.00     0.019 C 
ENDROOT
BRANCH   1  20
HETATM   20  C6  UNL     1      -8.507   5.703  14.106  1.00  0.00     0.008 C 
HETATM   21  C7  UNL     1      -8.761   6.026  12.626  1.00  0.00     0.014 C 
BRANCH  20  22
HETATM   22  C5  UNL     1      -8.871   6.925  14.924  1.00  0.00    -0.026 C 
HETATM   23  C4  UNL     1      -9.971   7.695  14.828  1.00  0.00    -0.025 C 
BRANCH  23  24
HETATM   24  C3  UNL     1     -11.159   7.529  13.901  1.00  0.00     0.011 C 
BRANCH  24  25
HETATM   25  C2  UNL     1     -12.142   6.472  14.462  1.00  0.00     0.004 C 
HETATM   26  C1  UNL     1     -13.498   6.471  13.767  1.00  0.00     0.006 C 
ENDBRANCH  24  25
BRANCH  24  27
HETATM   27  C27 UNL     1     -11.898   8.873  13.621  1.00  0.00    -0.015 C 
HETATM   28  C28 UNL     1     -11.825   9.269  12.143  1.00  0.00     0.010 C 
HETATM   29  C29 UNL     1     -11.426  10.046  14.488  1.00  0.00     0.010 C 
ENDBRANCH  24  27
ENDBRANCH  23  24
ENDBRANCH  20  22
ENDBRANCH   1  20
BRANCH   9  30
HETATM   30  O1  UNL     1       2.420   5.710  11.015  1.00  0.00    -0.396 OA
HETATM   31  H24 UNL     1       3.227   5.874  11.535  1.00  0.00     0.210 HD
ENDBRANCH   9  30
TORSDOF 6
ENDMDL
MODEL 6
REMARK minimizedAffinity -7.21938038
REMARK CNNscore 0.270814359
REMARK CNNaffinity 6.84547091
REMARK  6 active torsions:
REMARK  status: ('A' for Active; 'I' for Inactive)
REMARK    1  A    between atoms: C2_2  and  C3_3 
REMARK    2  A    between atoms: C3_3  and  C4_4 
REMARK    3  A    between atoms: C3_3  and  C27_28 
REMARK    4  A    between atoms: C5_5  and  C6_6 
REMARK    5  A    between atoms: C6_6  and  C8_8 
REMARK    6  A    between atoms: C16_16  and  O1_17 
ROOT
HETATM    1  C8  UNL     1      -5.191   8.060  15.773  1.00  0.00    -0.002 C 
HETATM    2  C9  UNL     1      -6.172   8.978  15.013  1.00  0.00     0.040 C 
HETATM    3  C10 UNL     1      -7.373   8.089  14.867  1.00  0.00    -0.068 C 
HETATM    4  C11 UNL     1      -8.649   8.411  15.147  1.00  0.00    -0.072 C 
HETATM    5  C12 UNL     1      -9.168   9.821  15.276  1.00  0.00     0.035 C 
HETATM    6  C13 UNL     1     -10.338  10.037  14.306  1.00  0.00     0.010 C 
HETATM    7  C14 UNL     1     -11.421   8.953  14.462  1.00  0.00    -0.003 C 
HETATM    8  C15 UNL     1     -12.631   9.223  13.560  1.00  0.00     0.037 C 
HETATM    9  C16 UNL     1     -13.744   8.209  13.822  1.00  0.00     0.118 C 
HETATM   10  C17 UNL     1     -13.255   6.767  13.717  1.00  0.00     0.032 C 
HETATM   11  C18 UNL     1     -12.015   6.504  14.576  1.00  0.00     0.012 C 
HETATM   12  C19 UNL     1     -10.852   7.494  14.298  1.00  0.00    -0.033 C 
HETATM   13  C20 UNL     1     -10.319   7.242  12.867  1.00  0.00     0.016 C 
HETATM   14  C21 UNL     1      -9.712   7.347  15.367  1.00  0.00     0.023 C 
HETATM   15  C22 UNL     1      -9.097   5.955  15.625  1.00  0.00     0.011 C 
HETATM   16  C23 UNL     1      -7.932   5.586  14.716  1.00  0.00     0.014 C 
HETATM   17  C24 UNL     1      -6.875   6.695  14.566  1.00  0.00    -0.020 C 
HETATM   18  C25 UNL     1      -6.309   6.602  13.128  1.00  0.00     0.020 C 
HETATM   19  C26 UNL     1      -5.720   6.610  15.577  1.00  0.00     0.019 C 
ENDROOT
BRANCH   1  20
HETATM   20  C6  UNL     1      -3.711   8.262  15.369  1.00  0.00     0.008 C 
HETATM   21  C7  UNL     1      -3.022   9.288  16.280  1.00  0.00     0.014 C 
BRANCH  20  22
HETATM   22  C5  UNL     1      -3.596   8.750  13.939  1.00  0.00    -0.026 C 
HETATM   23  C4  UNL     1      -2.833   8.255  12.948  1.00  0.00    -0.025 C 
BRANCH  23  24
HETATM   24  C3  UNL     1      -1.909   7.054  12.981  1.00  0.00     0.011 C 
BRANCH  24  25
HETATM   25  C2  UNL     1      -2.665   5.774  12.548  1.00  0.00     0.004 C 
HETATM   26  C1  UNL     1      -3.072   4.882  13.714  1.00  0.00     0.006 C 
ENDBRANCH  24  25
BRANCH  24  27
HETATM   27  C27 UNL     1      -0.628   7.255  12.115  1.00  0.00    -0.015 C 
HETATM   28  C28 UNL     1      -0.651   8.588  11.360  1.00  0.00     0.010 C 
HETATM   29  C29 UNL     1      -0.346   6.114  11.130  1.00  0.00     0.010 C 
ENDBRANCH  24  27
ENDBRANCH  23  24
ENDBRANCH  20  22
ENDBRANCH   1  20
BRANCH   9  30
HETATM   30  O1  UNL     1     -14.789   8.431  12.881  1.00  0.00    -0.396 OA
HETATM   31  H24 UNL     1     -15.491   7.782  13.063  1.00  0.00     0.210 HD
ENDBRANCH   9  30
TORSDOF 6
ENDMDL
MODEL 7
REMARK minimizedAffinity -6.90718508
REMARK CNNscore 0.248754606
REMARK CNNaffinity 5.33879805
REMARK  6 active torsions:
REMARK  status: ('A' for Active; 'I' for Inactive)
REMARK    1  A    between atoms: C2_2  and  C3_3 
REMARK    2  A    between atoms: C3_3  and  C4_4 
REMARK    3  A    between atoms: C3_3  and  C27_28 
REMARK    4  A    between atoms: C5_5  and  C6_6 
REMARK    5  A    between atoms: C6_6  and  C8_8 
REMARK    6  A    between atoms: C16_16  and  O1_17 
ROOT
HETATM    1  C8  UNL     1       3.084   7.709  10.718  1.00  0.00    -0.002 C 
HETATM    2  C9  UNL     1       3.501   7.393  12.171  1.00  0.00     0.040 C 
HETATM    3  C10 UNL     1       4.872   8.001  12.236  1.00  0.00    -0.068 C 
HETATM    4  C11 UNL     1       5.344   8.816  13.196  1.00  0.00    -0.072 C 
HETATM    5  C12 UNL     1       4.744   8.957  14.572  1.00  0.00     0.035 C 
HETATM    6  C13 UNL     1       5.810   8.667  15.638  1.00  0.00     0.010 C 
HETATM    7  C14 UNL     1       7.083   9.505  15.420  1.00  0.00    -0.003 C 
HETATM    8  C15 UNL     1       8.109   9.285  16.539  1.00  0.00     0.037 C 
HETATM    9  C16 UNL     1       9.308  10.217  16.371  1.00  0.00     0.118 C 
HETATM   10  C17 UNL     1       9.935  10.117  14.983  1.00  0.00     0.032 C 
HETATM   11  C18 UNL     1       8.907  10.284  13.861  1.00  0.00     0.012 C 
HETATM   12  C19 UNL     1       7.698   9.318  13.983  1.00  0.00    -0.033 C 
HETATM   13  C20 UNL     1       8.199   7.871  13.756  1.00  0.00     0.016 C 
HETATM   14  C21 UNL     1       6.563   9.696  12.969  1.00  0.00     0.023 C 
HETATM   15  C22 UNL     1       6.907   9.836  11.471  1.00  0.00     0.011 C 
HETATM   16  C23 UNL     1       6.832   8.544  10.667  1.00  0.00     0.014 C 
HETATM   17  C24 UNL     1       5.557   7.720  10.919  1.00  0.00    -0.020 C 
HETATM   18  C25 UNL     1       5.943   6.225  10.796  1.00  0.00     0.020 C 
HETATM   19  C26 UNL     1       4.402   8.031   9.955  1.00  0.00     0.019 C 
ENDROOT
BRANCH   1  20
HETATM   20  C6  UNL     1       2.220   6.602  10.065  1.00  0.00     0.008 C 
HETATM   21  C7  UNL     1       2.722   6.268   8.653  1.00  0.00     0.014 C 
BRANCH  20  22
HETATM   22  C5  UNL     1       0.771   7.030   9.961  1.00  0.00    -0.026 C 
HETATM   23  C4  UNL     1      -0.280   6.598  10.681  1.00  0.00    -0.025 C 
BRANCH  23  24
HETATM   24  C3  UNL     1      -0.295   5.592  11.815  1.00  0.00     0.011 C 
BRANCH  24  25
HETATM   25  C2  UNL     1      -0.722   6.272  13.139  1.00  0.00     0.004 C 
HETATM   26  C1  UNL     1       0.429   6.486  14.114  1.00  0.00     0.006 C 
ENDBRANCH  24  25
BRANCH  24  27
HETATM   27  C27 UNL     1      -1.199   4.358  11.514  1.00  0.00    -0.015 C 
HETATM   28  C28 UNL     1      -2.487   4.376  12.345  1.00  0.00     0.010 C 
HETATM   29  C29 UNL     1      -0.499   3.005  11.687  1.00  0.00     0.010 C 
ENDBRANCH  24  27
ENDBRANCH  23  24
ENDBRANCH  20  22
ENDBRANCH   1  20
BRANCH   9  30
HETATM   30  O1  UNL     1      10.278   9.890  17.361  1.00  0.00    -0.396 OA
HETATM   31  H24 UNL     1      11.031  10.495  17.245  1.00  0.00     0.210 HD
ENDBRANCH   9  30
TORSDOF 6
ENDMDL
MODEL 8
REMARK minimizedAffinity -6.62733459
REMARK CNNscore 0.230739072
REMARK CNNaffinity 5.98603868
REMARK  6 active torsions:
REMARK  status: ('A' for Active; 'I' for Inactive)
REMARK    1  A    between atoms: C2_2  and  C3_3 
REMARK    2  A    between atoms: C3_3  and  C4_4 
REMARK    3  A    between atoms: C3_3  and  C27_28 
REMARK    4  A    between atoms: C5_5  and  C6_6 
REMARK    5  A    between atoms: C6_6  and  C8_8 
REMARK    6  A    between atoms: C16_16  and  O1_17 
ROOT
HETATM    1  C8  UNL     1      -2.554   8.030  16.128  1.00  0.00    -0.002 C 
HETATM    2  C9  UNL     1      -1.342   8.800  16.693  1.00  0.00     0.040 C 
HETATM    3  C10 UNL     1      -1.917  10.172  16.895  1.00  0.00    -0.068 C 
HETATM    4  C11 UNL     1      -1.815  10.930  18.001  1.00  0.00    -0.072 C 
HETATM    5  C12 UNL     1      -0.788  10.730  19.086  1.00  0.00     0.035 C 
HETATM    6  C13 UNL     1       0.013  12.023  19.291  1.00  0.00     0.010 C 
HETATM    7  C14 UNL     1      -0.905  13.239  19.515  1.00  0.00    -0.003 C 
HETATM    8  C15 UNL     1      -0.104  14.511  19.814  1.00  0.00     0.037 C 
HETATM    9  C16 UNL     1      -1.034  15.674  20.157  1.00  0.00     0.118 C 
HETATM   10  C17 UNL     1      -2.101  15.900  19.089  1.00  0.00     0.032 C 
HETATM   11  C18 UNL     1      -2.870  14.621  18.748  1.00  0.00     0.012 C 
HETATM   12  C19 UNL     1      -1.950  13.435  18.354  1.00  0.00    -0.033 C 
HETATM   13  C20 UNL     1      -1.260  13.770  17.010  1.00  0.00     0.016 C 
HETATM   14  C21 UNL     1      -2.759  12.094  18.262  1.00  0.00     0.023 C 
HETATM   15  C22 UNL     1      -4.017  12.032  17.370  1.00  0.00     0.011 C 
HETATM   16  C23 UNL     1      -3.759  11.670  15.914  1.00  0.00     0.014 C 
HETATM   17  C24 UNL     1      -2.824  10.462  15.722  1.00  0.00    -0.020 C 
HETATM   18  C25 UNL     1      -2.007  10.713  14.431  1.00  0.00     0.020 C 
HETATM   19  C26 UNL     1      -3.549   9.111  15.615  1.00  0.00     0.019 C 
ENDROOT
BRANCH   1  20
HETATM   20  C6  UNL     1      -2.175   6.959  15.076  1.00  0.00     0.008 C 
HETATM   21  C7  UNL     1      -0.653   6.884  14.886  1.00  0.00     0.014 C 
BRANCH  20  22
HETATM   22  C5  UNL     1      -2.802   7.266  13.732  1.00  0.00    -0.026 C 
HETATM   23  C4  UNL     1      -3.820   6.631  13.123  1.00  0.00    -0.025 C 
BRANCH  23  24
HETATM   24  C3  UNL     1      -4.638   5.460  13.630  1.00  0.00     0.011 C 
BRANCH  24  25
HETATM   25  C2  UNL     1      -6.150   5.794  13.587  1.00  0.00     0.004 C 
HETATM   26  C1  UNL     1      -6.496   7.137  14.217  1.00  0.00     0.006 C 
ENDBRANCH  24  25
BRANCH  24  27
HETATM   27  C27 UNL     1      -4.345   4.139  12.855  1.00  0.00    -0.015 C 
HETATM   28  C28 UNL     1      -3.161   4.291  11.894  1.00  0.00     0.010 C 
HETATM   29  C29 UNL     1      -5.550   3.571  12.096  1.00  0.00     0.010 C 
ENDBRANCH  24  27
ENDBRANCH  23  24
ENDBRANCH  20  22
ENDBRANCH   1  20
BRANCH   9  30
HETATM   30  O1  UNL     1      -0.249  16.852  20.308  1.00  0.00    -0.396 OA
HETATM   31  H24 UNL     1      -0.854  17.582  20.529  1.00  0.00     0.210 HD
ENDBRANCH   9  30
TORSDOF 6
ENDMDL
MODEL 9
REMARK minimizedAffinity -6.91888857
REMARK CNNscore 0.20947507
REMARK CNNaffinity 5.96021032
REMARK  6 active torsions:
REMARK  status: ('A' for Active; 'I' for Inactive)
REMARK    1  A    between atoms: C2_2  and  C3_3 
REMARK    2  A    between atoms: C3_3  and  C4_4 
REMARK    3  A    between atoms: C3_3  and  C27_28 
REMARK    4  A    between atoms: C5_5  and  C6_6 
REMARK    5  A    between atoms: C6_6  and  C8_8 
REMARK    6  A    between atoms: C16_16  and  O1_17 
ROOT
HETATM    1  C8  UNL     1       0.762   7.270  12.803  1.00  0.00    -0.002 C 
HETATM    2  C9  UNL     1       0.768   8.783  13.108  1.00  0.00     0.040 C 
HETATM    3  C10 UNL     1      -0.319   8.894  14.138  1.00  0.00    -0.068 C 
HETATM    4  C11 UNL     1      -0.246   9.537  15.316  1.00  0.00    -0.072 C 
HETATM    5  C12 UNL     1       0.777  10.592  15.655  1.00  0.00     0.035 C 
HETATM    6  C13 UNL     1       0.071  11.884  16.087  1.00  0.00     0.010 C 
HETATM    7  C14 UNL     1      -0.960  11.630  17.202  1.00  0.00    -0.003 C 
HETATM    8  C15 UNL     1      -1.596  12.934  17.698  1.00  0.00     0.037 C 
HETATM    9  C16 UNL     1      -2.520  12.674  18.887  1.00  0.00     0.118 C 
HETATM   10  C17 UNL     1      -3.562  11.598  18.590  1.00  0.00     0.032 C 
HETATM   11  C18 UNL     1      -2.938  10.311  18.045  1.00  0.00     0.012 C 
HETATM   12  C19 UNL     1      -2.028  10.542  16.809  1.00  0.00    -0.033 C 
HETATM   13  C20 UNL     1      -2.912  11.005  15.626  1.00  0.00     0.016 C 
HETATM   14  C21 UNL     1      -1.220   9.247  16.447  1.00  0.00     0.023 C 
HETATM   15  C22 UNL     1      -1.980   7.921  16.233  1.00  0.00     0.011 C 
HETATM   16  C23 UNL     1      -2.483   7.686  14.815  1.00  0.00     0.014 C 
HETATM   17  C24 UNL     1      -1.435   7.965  13.722  1.00  0.00    -0.020 C 
HETATM   18  C25 UNL     1      -2.192   8.515  12.489  1.00  0.00     0.020 C 
HETATM   19  C26 UNL     1      -0.610   6.736  13.309  1.00  0.00     0.019 C 
ENDROOT
BRANCH   1  20
HETATM   20  C6  UNL     1       1.075   6.933  11.325  1.00  0.00     0.008 C 
HETATM   21  C7  UNL     1      -0.185   6.460  10.586  1.00  0.00     0.014 C 
BRANCH  20  22
HETATM   22  C5  UNL     1       2.118   5.839  11.223  1.00  0.00    -0.026 C 
HETATM   23  C4  UNL     1       3.319   5.886  10.617  1.00  0.00    -0.025 C 
BRANCH  23  24
HETATM   24  C3  UNL     1       3.968   7.056   9.904  1.00  0.00     0.011 C 
BRANCH  24  25
HETATM   25  C2  UNL     1       2.891   8.034   9.372  1.00  0.00     0.004 C 
HETATM   26  C1  UNL     1       2.629   7.898   7.877  1.00  0.00     0.006 C 
ENDBRANCH  24  25
BRANCH  24  27
HETATM   27  C27 UNL     1       5.001   7.809  10.797  1.00  0.00    -0.015 C 
HETATM   28  C28 UNL     1       5.304   9.213  10.261  1.00  0.00     0.010 C 
HETATM   29  C29 UNL     1       6.315   7.052  11.019  1.00  0.00     0.010 C 
ENDBRANCH  24  27
ENDBRANCH  23  24
ENDBRANCH  20  22
ENDBRANCH   1  20
BRANCH   9  30
HETATM   30  O1  UNL     1      -3.172  13.892  19.230  1.00  0.00    -0.396 OA
HETATM   31  H24 UNL     1      -3.752  13.711  19.990  1.00  0.00     0.210 HD
ENDBRANCH   9  30
TORSDOF 6
ENDMDL
