MODEL 1
REMARK minimizedAffinity -8.18066025
REMARK CNNscore 0.57676363
REMARK CNNaffinity 6.92683458
REMARK  8 active torsions:
REMARK  status: ('A' for Active; 'I' for Inactive)
REMARK    1  A    between atoms: O1_2  and  C2_3 
REMARK    2  A    between atoms: C2_3  and  C3_4 
REMARK    3  A    between atoms: C7_8  and  C8_9 
REMARK    4  A    between atoms: C8_9  and  C9_10 
REMARK    5  A    between atoms: C8_9  and  C10_12 
REMARK    6  A    between atoms: C9_10  and  O2_11 
REMARK    7  A    between atoms: C19_21  and  S1_22 
REMARK    8  A    between atoms: S1_22  and  O5_25 
ROOT
HETATM    1  C10 UNL     1      -7.623   6.801  15.480  1.00  0.00     0.003 C 
HETATM    2  C11 UNL     1      -7.063   5.567  16.207  1.00  0.00     0.006 C 
HETATM    3  C12 UNL     1      -5.555   5.760  16.187  1.00  0.00     0.006 C 
HETATM    4  C13 UNL     1      -5.328   6.153  14.729  1.00  0.00    -0.001 C 
HETATM    5  C14 UNL     1      -3.896   6.575  14.319  1.00  0.00    -0.001 C 
HETATM    6  C15 UNL     1      -2.850   5.577  14.843  1.00  0.00     0.033 C 
HETATM    7  C16 UNL     1      -1.437   6.022  14.651  1.00  0.00    -0.022 C 
HETATM    8  C17 UNL     1      -1.072   7.275  14.333  1.00  0.00    -0.066 C 
HETATM    9  C18 UNL     1       0.399   7.634  14.238  1.00  0.00     0.057 C 
HETATM   10  C19 UNL     1       0.763   8.854  15.100  1.00  0.00     0.132 C 
HETATM   11  C20 UNL     1      -0.414   9.378  15.909  1.00  0.00     0.101 C 
HETATM   12  C21 UNL     1      -1.566   9.619  14.962  1.00  0.00     0.141 C 
HETATM   13  O6  UNL     1      -2.056  10.745  14.864  1.00  0.00    -0.297 OA
HETATM   14  C22 UNL     1      -2.085   8.413  14.141  1.00  0.00     0.044 C 
HETATM   15  C23 UNL     1      -2.091   8.811  12.653  1.00  0.00     0.029 C 
HETATM   16  C24 UNL     1      -3.515   8.027  14.684  1.00  0.00     0.010 C 
HETATM   17  C25 UNL     1      -4.624   8.983  14.202  1.00  0.00     0.007 C 
HETATM   18  C26 UNL     1      -5.976   8.625  14.805  1.00  0.00     0.010 C 
HETATM   19  C27 UNL     1      -6.461   7.195  14.460  1.00  0.00    -0.036 C 
HETATM   20  C28 UNL     1      -6.844   7.104  12.971  1.00  0.00     0.016 C 
ENDROOT
BRANCH   1  21
HETATM   21  C8  UNL     1      -9.082   6.674  14.923  1.00  0.00     0.044 C 
BRANCH  21  22
HETATM   22  C7  UNL     1      -9.913   7.999  15.036  1.00  0.00     0.142 C 
HETATM   23  C6  UNL     1      -9.077   9.254  15.289  1.00  0.00     0.067 C 
HETATM   24  C4  UNL     1      -9.927  10.494  15.175  1.00  0.00    -0.067 C 
HETATM   25  C3  UNL     1     -11.053  10.489  14.429  1.00  0.00     0.043 C 
HETATM   26  C5  UNL     1      -9.394  11.687  15.920  1.00  0.00     0.044 C 
HETATM   27  C29 UNL     1     -11.368   9.297  13.592  1.00  0.00     0.292 C 
HETATM   28  O7  UNL     1     -10.626   8.184  13.795  1.00  0.00    -0.311 OA
HETATM   29  O8  UNL     1     -12.231   9.334  12.723  1.00  0.00    -0.260 OA
BRANCH  25  30
HETATM   30  C2  UNL     1     -12.074  11.588  14.250  1.00  0.00     0.212 C 
BRANCH  30  31
HETATM   31  O1  UNL     1     -13.322  11.096  13.753  1.00  0.00    -0.391 OA
HETATM   32  C1  UNL     1     -14.420  11.689  14.429  1.00  0.00     0.201 C 
ENDBRANCH  30  31
ENDBRANCH  25  30
ENDBRANCH  21  22
BRANCH  21  33
HETATM   33  C9  UNL     1      -9.019   6.203  13.456  1.00  0.00     0.171 C 
BRANCH  33  34
HETATM   34  O2  UNL     1      -9.241   4.802  13.364  1.00  0.00    -0.400 OA
HETATM   35  H15 UNL     1      -8.480   4.361  13.781  1.00  0.00     0.209 HD
ENDBRANCH  33  34
ENDBRANCH  21  33
ENDBRANCH   1  21
BRANCH  10  36
HETATM   36  S1  UNL     1       2.147   8.457  16.168  1.00  0.00     0.099 S 
HETATM   37  O3  UNL     1       3.371   8.420  15.403  1.00  0.00    -0.601 OA
HETATM   38  O4  UNL     1       2.028   9.192  17.408  1.00  0.00    -0.601 OA
BRANCH  36  39
HETATM   39  O5  UNL     1       1.744   6.937  16.535  1.00  0.00    -0.295 OA
HETATM   40  H29 UNL     1       1.822   6.830  17.508  1.00  0.00     0.232 HD
ENDBRANCH  36  39
ENDBRANCH  10  36
TORSDOF 8
ENDMDL
MODEL 2
REMARK minimizedAffinity -8.14717579
REMARK CNNscore 0.524881363
REMARK CNNaffinity 6.83423662
REMARK  8 active torsions:
REMARK  status: ('A' for Active; 'I' for Inactive)
REMARK    1  A    between atoms: O1_2  and  C2_3 
REMARK    2  A    between atoms: C2_3  and  C3_4 
REMARK    3  A    between atoms: C7_8  and  C8_9 
REMARK    4  A    between atoms: C8_9  and  C9_10 
REMARK    5  A    between atoms: C8_9  and  C10_12 
REMARK    6  A    between atoms: C9_10  and  O2_11 
REMARK    7  A    between atoms: C19_21  and  S1_22 
REMARK    8  A    between atoms: S1_22  and  O5_25 
ROOT
HETATM    1  C10 UNL     1      -1.906   7.662  14.546  1.00  0.00     0.003 C 
HETATM    2  C11 UNL     1      -1.584   6.543  13.542  1.00  0.00     0.006 C 
HETATM    3  C12 UNL     1      -0.097   6.698  13.258  1.00  0.00     0.006 C 
HETATM    4  C13 UNL     1       0.002   8.204  13.024  1.00  0.00    -0.001 C 
HETATM    5  C14 UNL     1       1.417   8.802  12.828  1.00  0.00    -0.001 C 
HETATM    6  C15 UNL     1       2.234   7.980  11.817  1.00  0.00     0.033 C 
HETATM    7  C16 UNL     1       3.668   8.386  11.724  1.00  0.00    -0.022 C 
HETATM    8  C17 UNL     1       4.295   9.173  12.615  1.00  0.00    -0.066 C 
HETATM    9  C18 UNL     1       5.777   9.459  12.462  1.00  0.00     0.057 C 
HETATM   10  C19 UNL     1       6.570   9.143  13.740  1.00  0.00     0.132 C 
HETATM   11  C20 UNL     1       5.705   8.547  14.841  1.00  0.00     0.101 C 
HETATM   12  C21 UNL     1       4.527   9.465  15.063  1.00  0.00     0.141 C 
HETATM   13  O6  UNL     1       4.337   9.965  16.173  1.00  0.00    -0.297 OA
HETATM   14  C22 UNL     1       3.595   9.742  13.857  1.00  0.00     0.044 C 
HETATM   15  C23 UNL     1       3.469  11.268  13.687  1.00  0.00     0.029 C 
HETATM   16  C24 UNL     1       2.212   9.034  14.132  1.00  0.00     0.010 C 
HETATM   17  C25 UNL     1       1.330   9.798  15.139  1.00  0.00     0.007 C 
HETATM   18  C26 UNL     1       0.038   9.049  15.437  1.00  0.00     0.010 C 
HETATM   19  C27 UNL     1      -0.848   8.803  14.190  1.00  0.00    -0.036 C 
HETATM   20  C28 UNL     1      -1.461  10.127  13.698  1.00  0.00     0.016 C 
ENDROOT
BRANCH   1  21
HETATM   21  C8  UNL     1      -3.414   8.068  14.671  1.00  0.00     0.044 C 
BRANCH  21  22
HETATM   22  C7  UNL     1      -4.387   6.842  14.763  1.00  0.00     0.142 C 
HETATM   23  C6  UNL     1      -5.801   7.186  15.232  1.00  0.00     0.067 C 
HETATM   24  C4  UNL     1      -6.716   5.996  15.091  1.00  0.00    -0.067 C 
HETATM   25  C3  UNL     1      -6.447   5.026  14.189  1.00  0.00     0.043 C 
HETATM   26  C5  UNL     1      -7.916   6.020  15.996  1.00  0.00     0.044 C 
HETATM   27  C29 UNL     1      -5.327   5.218  13.225  1.00  0.00     0.292 C 
HETATM   28  O7  UNL     1      -4.487   6.256  13.448  1.00  0.00    -0.311 OA
HETATM   29  O8  UNL     1      -5.195   4.496  12.243  1.00  0.00    -0.260 OA
BRANCH  25  30
HETATM   30  C2  UNL     1      -7.183   3.729  13.947  1.00  0.00     0.212 C 
BRANCH  30  31
HETATM   31  O1  UNL     1      -7.935   3.749  12.730  1.00  0.00    -0.391 OA
HETATM   32  C1  UNL     1      -8.713   4.932  12.619  1.00  0.00     0.201 C 
ENDBRANCH  30  31
ENDBRANCH  25  30
ENDBRANCH  21  22
BRANCH  21  33
HETATM   33  C9  UNL     1      -3.586   8.984  15.900  1.00  0.00     0.171 C 
BRANCH  33  34
HETATM   34  O2  UNL     1      -2.977   8.408  17.049  1.00  0.00    -0.400 OA
HETATM   35  H15 UNL     1      -3.490   7.614  17.280  1.00  0.00     0.209 HD
ENDBRANCH  33  34
ENDBRANCH  21  33
ENDBRANCH   1  21
BRANCH  10  36
HETATM   36  S1  UNL     1       7.947   8.062  13.354  1.00  0.00     0.099 S 
HETATM   37  O3  UNL     1       7.595   7.178  12.268  1.00  0.00    -0.601 OA
HETATM   38  O4  UNL     1       9.178   8.821  13.369  1.00  0.00    -0.601 OA
BRANCH  36  39
HETATM   39  O5  UNL     1       7.966   7.194  14.715  1.00  0.00    -0.295 OA
HETATM   40  H29 UNL     1       8.892   7.158  15.038  1.00  0.00     0.232 HD
ENDBRANCH  36  39
ENDBRANCH  10  36
TORSDOF 8
ENDMDL
MODEL 3
REMARK minimizedAffinity -9.84107208
REMARK CNNscore 0.504165769
REMARK CNNaffinity 6.85420036
REMARK  8 active torsions:
REMARK  status: ('A' for Active; 'I' for Inactive)
REMARK    1  A    between atoms: O1_2  and  C2_3 
REMARK    2  A    between atoms: C2_3  and  C3_4 
REMARK    3  A    between atoms: C7_8  and  C8_9 
REMARK    4  A    between atoms: C8_9  and  C9_10 
REMARK    5  A    between atoms: C8_9  and  C10_12 
REMARK    6  A    between atoms: C9_10  and  O2_11 
REMARK    7  A    between atoms: C19_21  and  S1_22 
REMARK    8  A    between atoms: S1_22  and  O5_25 
ROOT
HETATM    1  C10 UNL     1      -5.900   6.631  14.226  1.00  0.00     0.003 C 
HETATM    2  C11 UNL     1      -5.980   8.085  13.730  1.00  0.00     0.006 C 
HETATM    3  C12 UNL     1      -4.658   8.319  13.015  1.00  0.00     0.006 C 
HETATM    4  C13 UNL     1      -3.670   7.742  14.026  1.00  0.00    -0.001 C 
HETATM    5  C14 UNL     1      -2.182   7.668  13.606  1.00  0.00    -0.001 C 
HETATM    6  C15 UNL     1      -1.709   8.997  12.993  1.00  0.00     0.033 C 
HETATM    7  C16 UNL     1      -0.344   8.936  12.392  1.00  0.00    -0.022 C 
HETATM    8  C17 UNL     1       0.318   7.798  12.123  1.00  0.00    -0.066 C 
HETATM    9  C18 UNL     1       1.672   7.852  11.439  1.00  0.00     0.057 C 
HETATM   10  C19 UNL     1       1.732   6.964  10.186  1.00  0.00     0.132 C 
HETATM   11  C20 UNL     1       0.403   6.292   9.874  1.00  0.00     0.101 C 
HETATM   12  C21 UNL     1      -0.062   5.568  11.115  1.00  0.00     0.141 C 
HETATM   13  O6  UNL     1      -0.257   4.352  11.082  1.00  0.00    -0.297 OA
HETATM   14  C22 UNL     1      -0.273   6.408  12.399  1.00  0.00     0.044 C 
HETATM   15  C23 UNL     1       0.533   5.756  13.539  1.00  0.00     0.029 C 
HETATM   16  C24 UNL     1      -1.821   6.473  12.695  1.00  0.00     0.010 C 
HETATM   17  C25 UNL     1      -2.375   5.175  13.313  1.00  0.00     0.007 C 
HETATM   18  C26 UNL     1      -3.883   5.246  13.515  1.00  0.00     0.010 C 
HETATM   19  C27 UNL     1      -4.338   6.395  14.449  1.00  0.00    -0.036 C 
HETATM   20  C28 UNL     1      -3.928   6.098  15.903  1.00  0.00     0.016 C 
ENDROOT
BRANCH   1  21
HETATM   21  C8  UNL     1      -6.880   6.240  15.386  1.00  0.00     0.044 C 
BRANCH  21  22
HETATM   22  C7  UNL     1      -8.189   7.102  15.417  1.00  0.00     0.142 C 
HETATM   23  C6  UNL     1      -7.963   8.608  15.276  1.00  0.00     0.067 C 
HETATM   24  C4  UNL     1      -9.274   9.332  15.107  1.00  0.00    -0.067 C 
HETATM   25  C3  UNL     1     -10.353   8.692  14.604  1.00  0.00     0.043 C 
HETATM   26  C5  UNL     1      -9.244  10.780  15.510  1.00  0.00     0.044 C 
HETATM   27  C29 UNL     1     -10.196   7.310  14.070  1.00  0.00     0.292 C 
HETATM   28  O7  UNL     1      -9.027   6.676  14.322  1.00  0.00    -0.311 OA
HETATM   29  O8  UNL     1     -11.068   6.783  13.389  1.00  0.00    -0.260 OA
BRANCH  25  30
HETATM   30  C2  UNL     1     -11.762   9.207  14.430  1.00  0.00     0.212 C 
BRANCH  30  31
HETATM   31  O1  UNL     1     -11.864  10.169  13.375  1.00  0.00    -0.391 OA
HETATM   32  C1  UNL     1     -12.678   9.691  12.315  1.00  0.00     0.201 C 
ENDBRANCH  30  31
ENDBRANCH  25  30
ENDBRANCH  21  22
BRANCH  21  33
HETATM   33  C9  UNL     1      -7.225   4.742  15.265  1.00  0.00     0.171 C 
BRANCH  33  34
HETATM   34  O2  UNL     1      -8.193   4.366  16.236  1.00  0.00    -0.400 OA
HETATM   35  H15 UNL     1      -7.769   4.435  17.109  1.00  0.00     0.209 HD
ENDBRANCH  33  34
ENDBRANCH  21  33
ENDBRANCH   1  21
BRANCH  10  36
HETATM   36  S1  UNL     1       2.308   7.922   8.785  1.00  0.00     0.099 S 
HETATM   37  O3  UNL     1       1.280   8.838   8.353  1.00  0.00    -0.601 OA
HETATM   38  O4  UNL     1       3.674   8.339   9.013  1.00  0.00    -0.601 OA
BRANCH  36  39
HETATM   39  O5  UNL     1       2.402   6.732   7.698  1.00  0.00    -0.295 OA
HETATM   40  H29 UNL     1       3.275   6.798   7.253  1.00  0.00     0.232 HD
ENDBRANCH  36  39
ENDBRANCH  10  36
TORSDOF 8
ENDMDL
MODEL 4
REMARK minimizedAffinity -8.57839489
REMARK CNNscore 0.499036491
REMARK CNNaffinity 6.4747982
REMARK  8 active torsions:
REMARK  status: ('A' for Active; 'I' for Inactive)
REMARK    1  A    between atoms: O1_2  and  C2_3 
REMARK    2  A    between atoms: C2_3  and  C3_4 
REMARK    3  A    between atoms: C7_8  and  C8_9 
REMARK    4  A    between atoms: C8_9  and  C9_10 
REMARK    5  A    between atoms: C8_9  and  C10_12 
REMARK    6  A    between atoms: C9_10  and  O2_11 
REMARK    7  A    between atoms: C19_21  and  S1_22 
REMARK    8  A    between atoms: S1_22  and  O5_25 
ROOT
HETATM    1  C10 UNL     1       0.291  10.594  17.891  1.00  0.00     0.003 C 
HETATM    2  C11 UNL     1      -0.904  10.927  18.800  1.00  0.00     0.006 C 
HETATM    3  C12 UNL     1      -2.087  10.224  18.152  1.00  0.00     0.006 C 
HETATM    4  C13 UNL     1      -1.901  10.622  16.690  1.00  0.00    -0.001 C 
HETATM    5  C14 UNL     1      -2.855   9.983  15.651  1.00  0.00    -0.001 C 
HETATM    6  C15 UNL     1      -4.319  10.064  16.116  1.00  0.00     0.033 C 
HETATM    7  C16 UNL     1      -5.271   9.299  15.256  1.00  0.00    -0.022 C 
HETATM    8  C17 UNL     1      -4.903   8.384  14.343  1.00  0.00    -0.066 C 
HETATM    9  C18 UNL     1      -5.961   7.609  13.578  1.00  0.00     0.057 C 
HETATM   10  C19 UNL     1      -5.754   6.089  13.666  1.00  0.00     0.132 C 
HETATM   11  C20 UNL     1      -4.582   5.703  14.558  1.00  0.00     0.101 C 
HETATM   12  C21 UNL     1      -3.363   6.461  14.089  1.00  0.00     0.141 C 
HETATM   13  O6  UNL     1      -2.360   5.846  13.725  1.00  0.00    -0.297 OA
HETATM   14  C22 UNL     1      -3.437   8.007  14.087  1.00  0.00     0.044 C 
HETATM   15  C23 UNL     1      -3.046   8.505  12.683  1.00  0.00     0.029 C 
HETATM   16  C24 UNL     1      -2.483   8.547  15.222  1.00  0.00     0.010 C 
HETATM   17  C25 UNL     1      -0.992   8.500  14.833  1.00  0.00     0.007 C 
HETATM   18  C26 UNL     1      -0.097   8.956  15.978  1.00  0.00     0.010 C 
HETATM   19  C27 UNL     1      -0.372  10.404  16.452  1.00  0.00    -0.036 C 
HETATM   20  C28 UNL     1       0.090  11.415  15.386  1.00  0.00     0.016 C 
ENDROOT
BRANCH   1  21
HETATM   21  C8  UNL     1       1.537  11.537  18.011  1.00  0.00     0.044 C 
BRANCH  21  22
HETATM   22  C7  UNL     1       2.251  11.458  19.405  1.00  0.00     0.142 C 
HETATM   23  C6  UNL     1       1.843  12.552  20.392  1.00  0.00     0.067 C 
HETATM   24  C4  UNL     1       2.413  12.278  21.760  1.00  0.00    -0.067 C 
HETATM   25  C3  UNL     1       2.724  11.018  22.135  1.00  0.00     0.043 C 
HETATM   26  C5  UNL     1       2.562  13.495  22.630  1.00  0.00     0.044 C 
HETATM   27  C29 UNL     1       2.352   9.881  21.247  1.00  0.00     0.292 C 
HETATM   28  O7  UNL     1       1.924  10.183  19.998  1.00  0.00    -0.311 OA
HETATM   29  O8  UNL     1       2.387   8.721  21.641  1.00  0.00    -0.260 OA
BRANCH  25  30
HETATM   30  C2  UNL     1       3.370  10.544  23.416  1.00  0.00     0.212 C 
BRANCH  30  31
HETATM   31  O1  UNL     1       4.751  10.214  23.238  1.00  0.00    -0.391 OA
HETATM   32  C1  UNL     1       5.527  11.367  22.950  1.00  0.00     0.201 C 
ENDBRANCH  30  31
ENDBRANCH  25  30
ENDBRANCH  21  22
BRANCH  21  33
HETATM   33  C9  UNL     1       2.529  11.202  16.879  1.00  0.00     0.171 C 
BRANCH  33  34
HETATM   34  O2  UNL     1       3.387  10.133  17.258  1.00  0.00    -0.400 OA
HETATM   35  H15 UNL     1       3.958  10.461  17.975  1.00  0.00     0.209 HD
ENDBRANCH  33  34
ENDBRANCH  21  33
ENDBRANCH   1  21
BRANCH  10  36
HETATM   36  S1  UNL     1      -7.264   5.296  14.216  1.00  0.00     0.099 S 
HETATM   37  O3  UNL     1      -7.319   5.279  15.659  1.00  0.00    -0.601 OA
HETATM   38  O4  UNL     1      -8.372   5.748  13.403  1.00  0.00    -0.601 OA
BRANCH  36  39
HETATM   39  O5  UNL     1      -6.950   3.795  13.712  1.00  0.00    -0.295 OA
HETATM   40  H29 UNL     1      -7.741   3.467  13.231  1.00  0.00     0.232 HD
ENDBRANCH  36  39
ENDBRANCH  10  36
TORSDOF 8
ENDMDL
MODEL 5
REMARK minimizedAffinity -7.89481831
REMARK CNNscore 0.421606869
REMARK CNNaffinity 6.26029158
REMARK  8 active torsions:
REMARK  status: ('A' for Active; 'I' for Inactive)
REMARK    1  A    between atoms: O1_2  and  C2_3 
REMARK    2  A    between atoms: C2_3  and  C3_4 
REMARK    3  A    between atoms: C7_8  and  C8_9 
REMARK    4  A    between atoms: C8_9  and  C9_10 
REMARK    5  A    between atoms: C8_9  and  C10_12 
REMARK    6  A    between atoms: C9_10  and  O2_11 
REMARK    7  A    between atoms: C19_21  and  S1_22 
REMARK    8  A    between atoms: S1_22  and  O5_25 
ROOT
HETATM    1  C10 UNL     1       0.300  10.739  17.683  1.00  0.00     0.003 C 
HETATM    2  C11 UNL     1       1.364  11.082  16.628  1.00  0.00     0.006 C 
HETATM    3  C12 UNL     1       2.581  11.511  17.435  1.00  0.00     0.006 C 
HETATM    4  C13 UNL     1       1.943  12.461  18.445  1.00  0.00    -0.001 C 
HETATM    5  C14 UNL     1       2.853  13.027  19.563  1.00  0.00    -0.001 C 
HETATM    6  C15 UNL     1       4.177  13.558  18.988  1.00  0.00     0.033 C 
HETATM    7  C16 UNL     1       5.178  13.941  20.028  1.00  0.00    -0.022 C 
HETATM    8  C17 UNL     1       5.096  13.600  21.325  1.00  0.00    -0.066 C 
HETATM    9  C18 UNL     1       6.212  13.979  22.280  1.00  0.00     0.057 C 
HETATM   10  C19 UNL     1       6.747  12.771  23.066  1.00  0.00     0.132 C 
HETATM   11  C20 UNL     1       6.090  11.461  22.657  1.00  0.00     0.101 C 
HETATM   12  C21 UNL     1       4.593  11.637  22.748  1.00  0.00     0.141 C 
HETATM   13  O6  UNL     1       3.932  10.907  23.488  1.00  0.00    -0.297 OA
HETATM   14  C22 UNL     1       3.947  12.752  21.890  1.00  0.00     0.044 C 
HETATM   15  C23 UNL     1       3.098  13.642  22.818  1.00  0.00     0.029 C 
HETATM   16  C24 UNL     1       3.102  12.067  20.748  1.00  0.00     0.010 C 
HETATM   17  C25 UNL     1       1.755  11.507  21.244  1.00  0.00     0.007 C 
HETATM   18  C26 UNL     1       1.002  10.787  20.132  1.00  0.00     0.010 C 
HETATM   19  C27 UNL     1       0.671  11.684  18.913  1.00  0.00    -0.036 C 
HETATM   20  C28 UNL     1      -0.406  12.719  19.285  1.00  0.00     0.016 C 
ENDROOT
BRANCH   1  21
HETATM   21  C8  UNL     1      -1.187  10.722  17.187  1.00  0.00     0.044 C 
BRANCH  21  22
HETATM   22  C7  UNL     1      -1.417   9.816  15.929  1.00  0.00     0.142 C 
HETATM   23  C6  UNL     1      -1.001   8.356  16.111  1.00  0.00     0.067 C 
HETATM   24  C4  UNL     1      -1.448   7.521  14.939  1.00  0.00    -0.067 C 
HETATM   25  C3  UNL     1      -2.502   7.904  14.184  1.00  0.00     0.043 C 
HETATM   26  C5  UNL     1      -0.652   6.263  14.728  1.00  0.00     0.044 C 
HETATM   27  C29 UNL     1      -3.317   9.075  14.613  1.00  0.00     0.292 C 
HETATM   28  O7  UNL     1      -2.827   9.838  15.618  1.00  0.00    -0.311 OA
HETATM   29  O8  UNL     1      -4.410   9.314  14.112  1.00  0.00    -0.260 OA
BRANCH  25  30
HETATM   30  C2  UNL     1      -3.054   7.261  12.934  1.00  0.00     0.212 C 
BRANCH  30  31
HETATM   31  O1  UNL     1      -3.910   6.152  13.226  1.00  0.00    -0.391 OA
HETATM   32  C1  UNL     1      -3.488   4.978  12.549  1.00  0.00     0.201 C 
ENDBRANCH  30  31
ENDBRANCH  25  30
ENDBRANCH  21  22
BRANCH  21  33
HETATM   33  C9  UNL     1      -2.096  10.272  18.348  1.00  0.00     0.171 C 
BRANCH  33  34
HETATM   34  O2  UNL     1      -2.822   9.100  17.998  1.00  0.00    -0.400 OA
HETATM   35  H15 UNL     1      -3.449   9.347  17.297  1.00  0.00     0.209 HD
ENDBRANCH  33  34
ENDBRANCH  21  33
ENDBRANCH   1  21
BRANCH  10  36
HETATM   36  S1  UNL     1       8.529  12.673  22.898  1.00  0.00     0.099 S 
HETATM   37  O3  UNL     1       8.899  12.719  21.503  1.00  0.00    -0.601 OA
HETATM   38  O4  UNL     1       9.157  13.510  23.896  1.00  0.00    -0.601 OA
BRANCH  36  39
HETATM   39  O5  UNL     1       8.740  11.159  23.419  1.00  0.00    -0.295 OA
HETATM   40  H29 UNL     1       9.470  11.165  24.075  1.00  0.00     0.232 HD
ENDBRANCH  36  39
ENDBRANCH  10  36
TORSDOF 8
ENDMDL
MODEL 6
REMARK minimizedAffinity -7.77146864
REMARK CNNscore 0.417268038
REMARK CNNaffinity 6.57907677
REMARK  8 active torsions:
REMARK  status: ('A' for Active; 'I' for Inactive)
REMARK    1  A    between atoms: O1_2  and  C2_3 
REMARK    2  A    between atoms: C2_3  and  C3_4 
REMARK    3  A    between atoms: C7_8  and  C8_9 
REMARK    4  A    between atoms: C8_9  and  C9_10 
REMARK    5  A    between atoms: C8_9  and  C10_12 
REMARK    6  A    between atoms: C9_10  and  O2_11 
REMARK    7  A    between atoms: C19_21  and  S1_22 
REMARK    8  A    between atoms: S1_22  and  O5_25 
ROOT
HETATM    1  C10 UNL     1      -2.921   7.992  14.310  1.00  0.00     0.003 C 
HETATM    2  C11 UNL     1      -2.930   7.214  12.984  1.00  0.00     0.006 C 
HETATM    3  C12 UNL     1      -1.476   7.196  12.539  1.00  0.00     0.006 C 
HETATM    4  C13 UNL     1      -1.086   8.658  12.749  1.00  0.00    -0.001 C 
HETATM    5  C14 UNL     1       0.398   9.038  12.529  1.00  0.00    -0.001 C 
HETATM    6  C15 UNL     1       0.933   8.456  11.209  1.00  0.00     0.033 C 
HETATM    7  C16 UNL     1       2.406   8.620  11.027  1.00  0.00    -0.022 C 
HETATM    8  C17 UNL     1       3.260   8.963  12.006  1.00  0.00    -0.066 C 
HETATM    9  C18 UNL     1       4.749   9.027  11.725  1.00  0.00     0.057 C 
HETATM   10  C19 UNL     1       5.571   8.189  12.718  1.00  0.00     0.132 C 
HETATM   11  C20 UNL     1       4.702   7.430  13.711  1.00  0.00     0.101 C 
HETATM   12  C21 UNL     1       3.766   8.415  14.368  1.00  0.00     0.141 C 
HETATM   13  O6  UNL     1       3.784   8.560  15.591  1.00  0.00    -0.297 OA
HETATM   14  C22 UNL     1       2.808   9.216  13.451  1.00  0.00     0.044 C 
HETATM   15  C23 UNL     1       2.988  10.715  13.760  1.00  0.00     0.029 C 
HETATM   16  C24 UNL     1       1.338   8.704  13.709  1.00  0.00     0.010 C 
HETATM   17  C25 UNL     1       0.728   9.245  15.017  1.00  0.00     0.007 C 
HETATM   18  C26 UNL     1      -0.660   8.670  15.270  1.00  0.00     0.010 C 
HETATM   19  C27 UNL     1      -1.685   8.989  14.154  1.00  0.00    -0.036 C 
HETATM   20  C28 UNL     1      -2.051  10.484  14.172  1.00  0.00     0.016 C 
ENDROOT
BRANCH   1  21
HETATM   21  C8  UNL     1      -4.295   8.586  14.774  1.00  0.00     0.044 C 
BRANCH  21  22
HETATM   22  C7  UNL     1      -5.536   7.850  14.161  1.00  0.00     0.142 C 
HETATM   23  C6  UNL     1      -5.409   6.327  14.108  1.00  0.00     0.067 C 
HETATM   24  C4  UNL     1      -6.716   5.695  13.704  1.00  0.00    -0.067 C 
HETATM   25  C3  UNL     1      -7.886   6.337  13.921  1.00  0.00     0.043 C 
HETATM   26  C5  UNL     1      -6.586   4.328  13.090  1.00  0.00     0.044 C 
HETATM   27  C29 UNL     1      -7.887   7.603  14.706  1.00  0.00     0.292 C 
HETATM   28  O7  UNL     1      -6.687   8.171  14.970  1.00  0.00    -0.311 OA
HETATM   29  O8  UNL     1      -8.926   8.089  15.137  1.00  0.00    -0.260 OA
BRANCH  25  30
HETATM   30  C2  UNL     1      -9.282   5.918  13.524  1.00  0.00     0.212 C 
BRANCH  30  31
HETATM   31  O1  UNL     1      -9.732   6.580  12.338  1.00  0.00    -0.391 OA
HETATM   32  C1  UNL     1     -10.967   7.246  12.552  1.00  0.00     0.201 C 
ENDBRANCH  30  31
ENDBRANCH  25  30
ENDBRANCH  21  22
BRANCH  21  33
HETATM   33  C9  UNL     1      -4.359   8.555  16.315  1.00  0.00     0.171 C 
BRANCH  33  34
HETATM   34  O2  UNL     1      -3.968   9.808  16.863  1.00  0.00    -0.400 OA
HETATM   35  H15 UNL     1      -3.021   9.924  16.674  1.00  0.00     0.209 HD
ENDBRANCH  33  34
ENDBRANCH  21  33
ENDBRANCH   1  21
BRANCH  10  36
HETATM   36  S1  UNL     1       6.652   7.071  11.829  1.00  0.00     0.099 S 
HETATM   37  O3  UNL     1       6.229   6.961  10.452  1.00  0.00    -0.601 OA
HETATM   38  O4  UNL     1       8.026   7.328  12.200  1.00  0.00    -0.601 OA
BRANCH  36  39
HETATM   39  O5  UNL     1       6.257   5.699  12.581  1.00  0.00    -0.295 OA
HETATM   40  H29 UNL     1       7.089   5.241  12.831  1.00  0.00     0.232 HD
ENDBRANCH  36  39
ENDBRANCH  10  36
TORSDOF 8
ENDMDL
MODEL 7
REMARK minimizedAffinity -8.06633663
REMARK CNNscore 0.396181792
REMARK CNNaffinity 6.06240511
REMARK  8 active torsions:
REMARK  status: ('A' for Active; 'I' for Inactive)
REMARK    1  A    between atoms: O1_2  and  C2_3 
REMARK    2  A    between atoms: C2_3  and  C3_4 
REMARK    3  A    between atoms: C7_8  and  C8_9 
REMARK    4  A    between atoms: C8_9  and  C9_10 
REMARK    5  A    between atoms: C8_9  and  C10_12 
REMARK    6  A    between atoms: C9_10  and  O2_11 
REMARK    7  A    between atoms: C19_21  and  S1_22 
REMARK    8  A    between atoms: S1_22  and  O5_25 
ROOT
HETATM    1  C10 UNL     1      -0.110  11.073  17.298  1.00  0.00     0.003 C 
HETATM    2  C11 UNL     1       1.374  10.711  17.475  1.00  0.00     0.006 C 
HETATM    3  C12 UNL     1       1.725   9.909  16.231  1.00  0.00     0.006 C 
HETATM    4  C13 UNL     1       0.542   8.947  16.158  1.00  0.00    -0.001 C 
HETATM    5  C14 UNL     1       0.453   8.021  14.920  1.00  0.00    -0.001 C 
HETATM    6  C15 UNL     1       1.802   7.341  14.634  1.00  0.00     0.033 C 
HETATM    7  C16 UNL     1       1.839   6.586  13.346  1.00  0.00    -0.022 C 
HETATM    8  C17 UNL     1       0.925   6.705  12.368  1.00  0.00    -0.066 C 
HETATM    9  C18 UNL     1       1.104   5.946  11.067  1.00  0.00     0.057 C 
HETATM   10  C19 UNL     1       1.022   6.863   9.836  1.00  0.00     0.132 C 
HETATM   11  C20 UNL     1       0.853   8.330  10.203  1.00  0.00     0.101 C 
HETATM   12  C21 UNL     1      -0.328   8.449  11.136  1.00  0.00     0.141 C 
HETATM   13  O6  UNL     1      -1.287   9.158  10.827  1.00  0.00    -0.297 OA
HETATM   14  C22 UNL     1      -0.276   7.656  12.465  1.00  0.00     0.044 C 
HETATM   15  C23 UNL     1      -1.558   6.809  12.570  1.00  0.00     0.029 C 
HETATM   16  C24 UNL     1      -0.118   8.688  13.648  1.00  0.00     0.010 C 
HETATM   17  C25 UNL     1      -1.431   9.415  13.997  1.00  0.00     0.007 C 
HETATM   18  C26 UNL     1      -1.224  10.456  15.090  1.00  0.00     0.010 C 
HETATM   19  C27 UNL     1      -0.689   9.872  16.421  1.00  0.00    -0.036 C 
HETATM   20  C28 UNL     1      -1.776   9.029  17.113  1.00  0.00     0.016 C 
ENDROOT
BRANCH   1  21
HETATM   21  C8  UNL     1      -0.885  11.479  18.599  1.00  0.00     0.044 C 
BRANCH  21  22
HETATM   22  C7  UNL     1       0.036  11.608  19.861  1.00  0.00     0.142 C 
HETATM   23  C6  UNL     1       0.985  10.430  20.080  1.00  0.00     0.067 C 
HETATM   24  C4  UNL     1       1.968  10.732  21.182  1.00  0.00    -0.067 C 
HETATM   25  C3  UNL     1       2.286  12.010  21.488  1.00  0.00     0.043 C 
HETATM   26  C5  UNL     1       2.550   9.518  21.850  1.00  0.00     0.044 C 
HETATM   27  C29 UNL     1       1.780  13.113  20.625  1.00  0.00     0.292 C 
HETATM   28  O7  UNL     1       0.837  12.799  19.706  1.00  0.00    -0.311 OA
HETATM   29  O8  UNL     1       2.229  14.250  20.708  1.00  0.00    -0.260 OA
BRANCH  25  30
HETATM   30  C2  UNL     1       3.176  12.523  22.595  1.00  0.00     0.212 C 
BRANCH  30  31
HETATM   31  O1  UNL     1       4.130  11.548  23.023  1.00  0.00    -0.391 OA
HETATM   32  C1  UNL     1       5.460  12.013  22.852  1.00  0.00     0.201 C 
ENDBRANCH  30  31
ENDBRANCH  25  30
ENDBRANCH  21  22
BRANCH  21  33
HETATM   33  C9  UNL     1      -1.635  12.801  18.342  1.00  0.00     0.171 C 
BRANCH  33  34
HETATM   34  O2  UNL     1      -2.457  12.700  17.186  1.00  0.00    -0.400 OA
HETATM   35  H15 UNL     1      -1.866  12.618  16.417  1.00  0.00     0.209 HD
ENDBRANCH  33  34
ENDBRANCH  21  33
ENDBRANCH   1  21
BRANCH  10  36
HETATM   36  S1  UNL     1       2.463   6.625   8.798  1.00  0.00     0.099 S 
HETATM   37  O3  UNL     1       2.095   6.732   7.405  1.00  0.00    -0.601 OA
HETATM   38  O4  UNL     1       3.588   7.339   9.360  1.00  0.00    -0.601 OA
BRANCH  36  39
HETATM   39  O5  UNL     1       2.743   5.068   9.120  1.00  0.00    -0.295 OA
HETATM   40  H29 UNL     1       3.698   4.969   9.323  1.00  0.00     0.232 HD
ENDBRANCH  36  39
ENDBRANCH  10  36
TORSDOF 8
ENDMDL
MODEL 8
REMARK minimizedAffinity -9.07255363
REMARK CNNscore 0.332792222
REMARK CNNaffinity 6.60379601
REMARK  8 active torsions:
REMARK  status: ('A' for Active; 'I' for Inactive)
REMARK    1  A    between atoms: O1_2  and  C2_3 
REMARK    2  A    between atoms: C2_3  and  C3_4 
REMARK    3  A    between atoms: C7_8  and  C8_9 
REMARK    4  A    between atoms: C8_9  and  C9_10 
REMARK    5  A    between atoms: C8_9  and  C10_12 
REMARK    6  A    between atoms: C9_10  and  O2_11 
REMARK    7  A    between atoms: C19_21  and  S1_22 
REMARK    8  A    between atoms: S1_22  and  O5_25 
ROOT
HETATM    1  C10 UNL     1      -7.418   7.266  14.432  1.00  0.00     0.003 C 
HETATM    2  C11 UNL     1      -7.868   6.109  13.525  1.00  0.00     0.006 C 
HETATM    3  C12 UNL     1      -9.326   6.410  13.212  1.00  0.00     0.006 C 
HETATM    4  C13 UNL     1      -9.859   6.754  14.601  1.00  0.00    -0.001 C 
HETATM    5  C14 UNL     1     -11.319   7.260  14.698  1.00  0.00    -0.001 C 
HETATM    6  C15 UNL     1     -12.274   6.364  13.891  1.00  0.00     0.033 C 
HETATM    7  C16 UNL     1     -13.663   6.902  13.784  1.00  0.00    -0.022 C 
HETATM    8  C17 UNL     1     -14.016   8.163  14.084  1.00  0.00    -0.066 C 
HETATM    9  C18 UNL     1     -15.445   8.623  13.863  1.00  0.00     0.057 C 
HETATM   10  C19 UNL     1     -15.525   9.903  13.015  1.00  0.00     0.132 C 
HETATM   11  C20 UNL     1     -14.163  10.375  12.528  1.00  0.00     0.101 C 
HETATM   12  C21 UNL     1     -13.249  10.490  13.725  1.00  0.00     0.141 C 
HETATM   13  O6  UNL     1     -12.728  11.572  13.999  1.00  0.00    -0.297 OA
HETATM   14  C22 UNL     1     -13.007   9.214  14.569  1.00  0.00     0.044 C 
HETATM   15  C23 UNL     1     -13.321   9.545  16.040  1.00  0.00     0.029 C 
HETATM   16  C24 UNL     1     -11.517   8.750  14.343  1.00  0.00     0.010 C 
HETATM   17  C25 UNL     1     -10.494   9.601  15.121  1.00  0.00     0.007 C 
HETATM   18  C26 UNL     1      -9.063   9.173  14.822  1.00  0.00     0.010 C 
HETATM   19  C27 UNL     1      -8.758   7.698  15.183  1.00  0.00    -0.036 C 
HETATM   20  C28 UNL     1      -8.735   7.513  16.711  1.00  0.00     0.016 C 
ENDROOT
BRANCH   1  21
HETATM   21  C8  UNL     1      -6.137   7.009  15.298  1.00  0.00     0.044 C 
BRANCH  21  22
HETATM   22  C7  UNL     1      -5.042   6.162  14.561  1.00  0.00     0.142 C 
HETATM   23  C6  UNL     1      -5.592   5.139  13.567  1.00  0.00     0.067 C 
HETATM   24  C4  UNL     1      -4.477   4.524  12.761  1.00  0.00    -0.067 C 
HETATM   25  C3  UNL     1      -3.315   5.188  12.577  1.00  0.00     0.043 C 
HETATM   26  C5  UNL     1      -4.795   3.171  12.186  1.00  0.00     0.044 C 
HETATM   27  C29 UNL     1      -3.200   6.598  13.044  1.00  0.00     0.292 C 
HETATM   28  O7  UNL     1      -4.191   7.073  13.834  1.00  0.00    -0.311 OA
HETATM   29  O8  UNL     1      -2.272   7.317  12.691  1.00  0.00    -0.260 OA
BRANCH  25  30
HETATM   30  C2  UNL     1      -2.059   4.722  11.879  1.00  0.00     0.212 C 
BRANCH  30  31
HETATM   31  O1  UNL     1      -0.976   4.513  12.789  1.00  0.00    -0.391 OA
HETATM   32  C1  UNL     1       0.279   4.610  12.133  1.00  0.00     0.201 C 
ENDBRANCH  30  31
ENDBRANCH  25  30
ENDBRANCH  21  22
BRANCH  21  33
HETATM   33  C9  UNL     1      -5.556   8.366  15.745  1.00  0.00     0.171 C 
BRANCH  33  34
HETATM   34  O2  UNL     1      -5.586   9.306  14.679  1.00  0.00    -0.400 OA
HETATM   35  H15 UNL     1      -4.957   8.997  14.004  1.00  0.00     0.209 HD
ENDBRANCH  33  34
ENDBRANCH  21  33
ENDBRANCH   1  21
BRANCH  10  36
HETATM   36  S1  UNL     1     -16.646   9.654  11.638  1.00  0.00     0.099 S 
HETATM   37  O3  UNL     1     -17.138  10.926  11.163  1.00  0.00    -0.601 OA
HETATM   38  O4  UNL     1     -16.105   8.651  10.749  1.00  0.00    -0.601 OA
BRANCH  36  39
HETATM   39  O5  UNL     1     -17.846   8.920  12.429  1.00  0.00    -0.295 OA
HETATM   40  H29 UNL     1     -18.102   8.123  11.917  1.00  0.00     0.232 HD
ENDBRANCH  36  39
ENDBRANCH  10  36
TORSDOF 8
ENDMDL
MODEL 9
REMARK minimizedAffinity -7.9550662
REMARK CNNscore 0.31659621
REMARK CNNaffinity 6.16862154
REMARK  8 active torsions:
REMARK  status: ('A' for Active; 'I' for Inactive)
REMARK    1  A    between atoms: O1_2  and  C2_3 
REMARK    2  A    between atoms: C2_3  and  C3_4 
REMARK    3  A    between atoms: C7_8  and  C8_9 
REMARK    4  A    between atoms: C8_9  and  C9_10 
REMARK    5  A    between atoms: C8_9  and  C10_12 
REMARK    6  A    between atoms: C9_10  and  O2_11 
REMARK    7  A    between atoms: C19_21  and  S1_22 
REMARK    8  A    between atoms: S1_22  and  O5_25 
ROOT
HETATM    1  C10 UNL     1       1.099   8.739  13.301  1.00  0.00     0.003 C 
HETATM    2  C11 UNL     1      -0.281   8.628  12.632  1.00  0.00     0.006 C 
HETATM    3  C12 UNL     1      -1.209   9.433  13.529  1.00  0.00     0.006 C 
HETATM    4  C13 UNL     1      -0.807   8.914  14.908  1.00  0.00    -0.001 C 
HETATM    5  C14 UNL     1      -1.448   9.598  16.141  1.00  0.00    -0.001 C 
HETATM    6  C15 UNL     1      -2.969   9.742  15.971  1.00  0.00     0.033 C 
HETATM    7  C16 UNL     1      -3.623  10.563  17.033  1.00  0.00    -0.022 C 
HETATM    8  C17 UNL     1      -2.964  11.357  17.893  1.00  0.00    -0.066 C 
HETATM    9  C18 UNL     1      -3.737  12.208  18.884  1.00  0.00     0.057 C 
HETATM   10  C19 UNL     1      -3.338  13.691  18.821  1.00  0.00     0.132 C 
HETATM   11  C20 UNL     1      -2.314  13.982  17.733  1.00  0.00     0.101 C 
HETATM   12  C21 UNL     1      -1.148  13.041  17.920  1.00  0.00     0.141 C 
HETATM   13  O6  UNL     1      -0.017  13.492  18.105  1.00  0.00    -0.297 OA
HETATM   14  C22 UNL     1      -1.438  11.520  17.871  1.00  0.00     0.044 C 
HETATM   15  C23 UNL     1      -0.863  10.880  19.149  1.00  0.00     0.029 C 
HETATM   16  C24 UNL     1      -0.802  10.941  16.549  1.00  0.00     0.010 C 
HETATM   17  C25 UNL     1       0.727  10.766  16.638  1.00  0.00     0.007 C 
HETATM   18  C26 UNL     1       1.315  10.277  15.321  1.00  0.00     0.010 C 
HETATM   19  C27 UNL     1       0.754   8.913  14.849  1.00  0.00    -0.036 C 
HETATM   20  C28 UNL     1       1.262   7.780  15.759  1.00  0.00     0.016 C 
ENDROOT
BRANCH   1  21
HETATM   21  C8  UNL     1       2.154   7.652  12.897  1.00  0.00     0.044 C 
BRANCH  21  22
HETATM   22  C7  UNL     1       2.078   7.236  11.388  1.00  0.00     0.142 C 
HETATM   23  C6  UNL     1       2.825   8.169  10.433  1.00  0.00     0.067 C 
HETATM   24  C4  UNL     1       2.876   7.583   9.045  1.00  0.00    -0.067 C 
HETATM   25  C3  UNL     1       2.782   6.248   8.858  1.00  0.00     0.043 C 
HETATM   26  C5  UNL     1       3.063   8.594   7.948  1.00  0.00     0.044 C 
HETATM   27  C29 UNL     1       2.787   5.345  10.042  1.00  0.00     0.292 C 
HETATM   28  O7  UNL     1       2.655   5.918  11.261  1.00  0.00    -0.311 OA
HETATM   29  O8  UNL     1       2.950   4.136   9.926  1.00  0.00    -0.260 OA
BRANCH  25  30
HETATM   30  C2  UNL     1       2.732   5.476   7.560  1.00  0.00     0.212 C 
BRANCH  30  31
HETATM   31  O1  UNL     1       3.693   4.417   7.521  1.00  0.00    -0.391 OA
HETATM   32  C1  UNL     1       3.705   3.775   6.254  1.00  0.00     0.201 C 
ENDBRANCH  30  31
ENDBRANCH  25  30
ENDBRANCH  21  22
BRANCH  21  33
HETATM   33  C9  UNL     1       3.564   8.171  13.243  1.00  0.00     0.171 C 
BRANCH  33  34
HETATM   34  O2  UNL     1       4.526   7.129  13.141  1.00  0.00    -0.400 OA
HETATM   35  H15 UNL     1       4.336   6.490  13.849  1.00  0.00     0.209 HD
ENDBRANCH  33  34
ENDBRANCH  21  33
ENDBRANCH   1  21
BRANCH  10  36
HETATM   36  S1  UNL     1      -4.798  14.710  18.614  1.00  0.00     0.099 S 
HETATM   37  O3  UNL     1      -4.551  15.736  17.629  1.00  0.00    -0.601 OA
HETATM   38  O4  UNL     1      -5.974  13.869  18.582  1.00  0.00    -0.601 OA
BRANCH  36  39
HETATM   39  O5  UNL     1      -4.815  15.411  20.068  1.00  0.00    -0.295 OA
HETATM   40  H29 UNL     1      -5.727  15.344  20.425  1.00  0.00     0.232 HD
ENDBRANCH  36  39
ENDBRANCH  10  36
TORSDOF 8
ENDMDL
