MODEL 1
REMARK minimizedAffinity -8.05473614
REMARK CNNscore 0.446998417
REMARK CNNaffinity 6.34941864
REMARK  10 active torsions:
REMARK  status: ('A' for Active; 'I' for Inactive)
REMARK    1  A    between atoms: O1_2  and  C2_3 
REMARK    2  A    between atoms: C4_5  and  O2_6 
REMARK    3  A    between atoms: O2_6  and  C5_7 
REMARK    4  A    between atoms: C8_10  and  C9_11 
REMARK    5  A    between atoms: N1_12  and  C10_14 
REMARK    6  A    between atoms: C10_14  and  C11_15 
REMARK    7  A    between atoms: C21_27  and  C22_28 
REMARK    8  A    between atoms: C28_36  and  O5_37 
REMARK    9  A    between atoms: C32_41  and  O6_42 
REMARK   10  A    between atoms: C36_47  and  O8_48 
ROOT
HETATM    1  C5  UNL     1      -7.687  48.035 -24.202  1.00  0.00     0.127 C 
HETATM    2  C6  UNL     1      -8.590  46.819 -23.996  1.00  0.00     0.033 C 
HETATM    3  C7  UNL     1      -8.708  45.934 -25.241  1.00  0.00     0.021 C 
HETATM    4  C8  UNL     1      -9.101  46.686 -26.551  1.00  0.00     0.026 C 
HETATM    5  C16 UNL     1      -8.928  45.647 -27.745  1.00  0.00     0.009 C 
HETATM    6  C17 UNL     1     -10.224  44.868 -28.060  1.00  0.00     0.007 C 
HETATM    7  C18 UNL     1     -10.034  43.841 -29.175  1.00  0.00     0.013 C 
HETATM    8  C19 UNL     1      -9.497  44.471 -30.486  1.00  0.00    -0.005 C 
HETATM    9  C20 UNL     1     -10.592  45.339 -31.136  1.00  0.00     0.019 C 
HETATM   10  C21 UNL     1      -8.973  43.391 -31.483  1.00  0.00     0.028 C 
HETATM   11  C26 UNL     1      -7.616  42.973 -30.886  1.00  0.00     0.013 C 
HETATM   12  C27 UNL     1      -7.119  44.169 -30.060  1.00  0.00     0.040 C 
HETATM   13  C28 UNL     1      -8.191  45.271 -30.208  1.00  0.00     0.070 C 
HETATM   14  C29 UNL     1      -8.307  46.264 -29.018  1.00  0.00     0.026 C 
HETATM   15  C30 UNL     1      -6.953  46.954 -28.706  1.00  0.00     0.011 C 
HETATM   16  C31 UNL     1      -6.845  47.549 -27.298  1.00  0.00     0.039 C 
HETATM   17  C32 UNL     1      -8.212  47.963 -26.735  1.00  0.00     0.073 C 
HETATM   18  C33 UNL     1      -8.122  48.805 -25.446  1.00  0.00     0.071 C 
ENDROOT
BRANCH   1  19
HETATM   19  O2  UNL     1      -6.332  47.587 -24.318  1.00  0.00    -0.356 OA
BRANCH  19  20
HETATM   20  C4  UNL     1      -5.415  48.331 -23.500  1.00  0.00     0.263 C 
HETATM   21  C3  UNL     1      -4.117  48.466 -24.285  1.00  0.00     0.095 C 
HETATM   22  C2  UNL     1      -3.035  49.174 -23.463  1.00  0.00     0.156 C 
HETATM   23  C36 UNL     1      -3.622  49.955 -22.271  1.00  0.00     0.175 C 
HETATM   24  C34 UNL     1      -5.027  50.520 -22.564  1.00  0.00     0.151 C 
HETATM   25  O7  UNL     1      -5.924  49.628 -23.236  1.00  0.00    -0.354 OA
HETATM   26  C35 UNL     1      -4.964  51.796 -23.397  1.00  0.00     0.042 C 
BRANCH  22  27
HETATM   27  O1  UNL     1      -2.273  50.086 -24.269  1.00  0.00    -0.388 OA
HETATM   28  C1  UNL     1      -1.270  50.786 -23.541  1.00  0.00     0.202 C 
ENDBRANCH  22  27
BRANCH  23  29
HETATM   29  O8  UNL     1      -3.719  49.061 -21.147  1.00  0.00    -0.390 OA
HETATM   30  H50 UNL     1      -2.822  48.962 -20.783  1.00  0.00     0.210 HD
ENDBRANCH  23  29
ENDBRANCH  19  20
ENDBRANCH   1  19
BRANCH  17  31
HETATM   31  O6  UNL     1      -8.795  48.849 -27.716  1.00  0.00    -0.389 OA
HETATM   32  H42 UNL     1      -8.201  49.621 -27.804  1.00  0.00     0.210 HD
ENDBRANCH  17  31
BRANCH   4  33
HETATM   33  C9  UNL     1     -10.560  47.167 -26.492  1.00  0.00     0.069 C 
HETATM   34  N1  UNL     1     -11.138  47.731 -27.497  1.00  0.00    -0.397 N 
ATOM     35  H1  UNL     1     -10.677  47.882 -28.395  1.00  0.00     0.159 HD
BRANCH  34  36
HETATM   36  C10 UNL     1     -12.517  48.134 -27.229  1.00  0.00     0.158 C 
BRANCH  36  37
HETATM   37  C11 UNL     1     -13.456  46.985 -27.448  1.00  0.00    -0.025 A 
HETATM   38  C12 UNL     1     -13.504  46.303 -28.667  1.00  0.00     0.011 A 
HETATM   39  C13 UNL     1     -14.372  45.224 -28.825  1.00  0.00     0.018 A 
HETATM   40  C14 UNL     1     -15.161  44.860 -27.746  1.00  0.00     0.087 A 
HETATM   41  N2  UNL     1     -15.138  45.484 -26.549  1.00  0.00    -0.375 N 
HETATM   42  C15 UNL     1     -14.277  46.523 -26.424  1.00  0.00     0.096 A 
ATOM     43  H2  UNL     1     -15.736  45.188 -25.778  1.00  0.00     0.164 HD
ENDBRANCH  36  37
ENDBRANCH  34  36
ENDBRANCH   4  33
BRANCH  13  44
HETATM   44  O5  UNL     1      -7.855  46.026 -31.385  1.00  0.00    -0.389 OA
HETATM   45  H36 UNL     1      -6.968  46.410 -31.258  1.00  0.00     0.210 HD
ENDBRANCH  13  44
BRANCH  10  46
HETATM   46  C22 UNL     1      -9.905  42.262 -31.827  1.00  0.00    -0.045 A 
HETATM   47  C23 UNL     1     -10.214  41.170 -31.127  1.00  0.00     0.087 A 
HETATM   48  C24 UNL     1     -11.134  40.376 -31.942  1.00  0.00     0.283 A 
HETATM   49  O3  UNL     1     -11.643  39.326 -31.594  1.00  0.00    -0.260 OA
HETATM   50  O4  UNL     1     -11.331  41.004 -33.131  1.00  0.00    -0.314 OA
HETATM   51  C25 UNL     1     -10.583  42.218 -33.147  1.00  0.00     0.213 A 
ENDBRANCH  10  46
TORSDOF 10
ENDMDL
MODEL 2
REMARK minimizedAffinity -8.50323391
REMARK CNNscore 0.436704874
REMARK CNNaffinity 6.04755402
REMARK  10 active torsions:
REMARK  status: ('A' for Active; 'I' for Inactive)
REMARK    1  A    between atoms: O1_2  and  C2_3 
REMARK    2  A    between atoms: C4_5  and  O2_6 
REMARK    3  A    between atoms: O2_6  and  C5_7 
REMARK    4  A    between atoms: C8_10  and  C9_11 
REMARK    5  A    between atoms: N1_12  and  C10_14 
REMARK    6  A    between atoms: C10_14  and  C11_15 
REMARK    7  A    between atoms: C21_27  and  C22_28 
REMARK    8  A    between atoms: C28_36  and  O5_37 
REMARK    9  A    between atoms: C32_41  and  O6_42 
REMARK   10  A    between atoms: C36_47  and  O8_48 
ROOT
HETATM    1  C5  UNL     1      -7.512  47.344 -27.369  1.00  0.00     0.127 C 
HETATM    2  C6  UNL     1      -8.559  48.457 -27.330  1.00  0.00     0.033 C 
HETATM    3  C7  UNL     1      -9.948  47.968 -26.908  1.00  0.00     0.021 C 
HETATM    4  C8  UNL     1     -10.488  46.742 -27.708  1.00  0.00     0.026 C 
HETATM    5  C16 UNL     1     -11.805  46.251 -26.960  1.00  0.00     0.009 C 
HETATM    6  C17 UNL     1     -13.092  46.904 -27.512  1.00  0.00     0.007 C 
HETATM    7  C18 UNL     1     -14.344  46.462 -26.756  1.00  0.00     0.013 C 
HETATM    8  C19 UNL     1     -14.527  44.922 -26.747  1.00  0.00    -0.005 C 
HETATM    9  C20 UNL     1     -14.907  44.434 -28.159  1.00  0.00     0.019 C 
HETATM   10  C21 UNL     1     -15.582  44.464 -25.693  1.00  0.00     0.028 C 
HETATM   11  C26 UNL     1     -14.833  44.588 -24.352  1.00  0.00     0.013 C 
HETATM   12  C27 UNL     1     -13.339  44.449 -24.677  1.00  0.00     0.040 C 
HETATM   13  C28 UNL     1     -13.246  44.226 -26.202  1.00  0.00     0.070 C 
HETATM   14  C29 UNL     1     -11.934  44.714 -26.877  1.00  0.00     0.026 C 
HETATM   15  C30 UNL     1     -10.678  44.078 -26.225  1.00  0.00     0.011 C 
HETATM   16  C31 UNL     1      -9.370  44.840 -26.474  1.00  0.00     0.039 C 
HETATM   17  C32 UNL     1      -9.396  45.622 -27.794  1.00  0.00     0.073 C 
HETATM   18  C33 UNL     1      -8.019  46.177 -28.212  1.00  0.00     0.071 C 
ENDROOT
BRANCH   1  19
HETATM   19  O2  UNL     1      -7.232  46.930 -26.027  1.00  0.00    -0.356 OA
BRANCH  19  20
HETATM   20  C4  UNL     1      -6.711  47.984 -25.203  1.00  0.00     0.263 C 
HETATM   21  C3  UNL     1      -6.715  47.478 -23.766  1.00  0.00     0.095 C 
HETATM   22  C2  UNL     1      -6.256  48.564 -22.787  1.00  0.00     0.156 C 
HETATM   23  C36 UNL     1      -5.496  49.704 -23.492  1.00  0.00     0.175 C 
HETATM   24  C34 UNL     1      -4.695  49.217 -24.718  1.00  0.00     0.151 C 
HETATM   25  O7  UNL     1      -5.377  48.292 -25.573  1.00  0.00    -0.354 OA
HETATM   26  C35 UNL     1      -3.380  48.560 -24.313  1.00  0.00     0.042 C 
BRANCH  22  27
HETATM   27  O1  UNL     1      -5.409  48.024 -21.761  1.00  0.00    -0.388 OA
HETATM   28  C1  UNL     1      -5.350  46.602 -21.763  1.00  0.00     0.202 C 
ENDBRANCH  22  27
BRANCH  23  29
HETATM   29  O8  UNL     1      -6.454  50.681 -23.936  1.00  0.00    -0.390 OA
HETATM   30  H50 UNL     1      -6.722  51.195 -23.154  1.00  0.00     0.210 HD
ENDBRANCH  23  29
ENDBRANCH  19  20
ENDBRANCH   1  19
BRANCH  17  31
HETATM   31  O6  UNL     1      -9.734  44.663 -28.820  1.00  0.00    -0.389 OA
HETATM   32  H42 UNL     1      -9.033  43.981 -28.827  1.00  0.00     0.210 HD
ENDBRANCH  17  31
BRANCH   4  33
HETATM   33  C9  UNL     1     -10.832  47.138 -29.154  1.00  0.00     0.069 C 
HETATM   34  N1  UNL     1     -10.825  46.284 -30.119  1.00  0.00    -0.397 N 
ATOM     35  H1  UNL     1     -10.606  45.295 -29.989  1.00  0.00     0.159 HD
BRANCH  34  36
HETATM   36  C10 UNL     1     -11.157  46.866 -31.418  1.00  0.00     0.158 C 
BRANCH  36  37
HETATM   37  C11 UNL     1      -9.935  46.962 -32.282  1.00  0.00    -0.025 A 
HETATM   38  C12 UNL     1      -8.898  47.851 -31.984  1.00  0.00     0.011 A 
HETATM   39  C13 UNL     1      -7.767  47.895 -32.798  1.00  0.00     0.018 A 
HETATM   40  C14 UNL     1      -7.711  47.037 -33.883  1.00  0.00     0.087 A 
HETATM   41  N2  UNL     1      -8.685  46.156 -34.200  1.00  0.00    -0.375 N 
HETATM   42  C15 UNL     1      -9.768  46.131 -33.385  1.00  0.00     0.096 A 
ATOM     43  H2  UNL     1      -8.610  45.541 -35.010  1.00  0.00     0.164 HD
ENDBRANCH  36  37
ENDBRANCH  34  36
ENDBRANCH   4  33
BRANCH  13  44
HETATM   44  O5  UNL     1     -13.361  42.811 -26.426  1.00  0.00    -0.389 OA
HETATM   45  H36 UNL     1     -12.629  42.368 -25.959  1.00  0.00     0.210 HD
ENDBRANCH  13  44
BRANCH  10  46
HETATM   46  C22 UNL     1     -16.935  45.119 -25.742  1.00  0.00    -0.045 A 
HETATM   47  C23 UNL     1     -17.460  46.047 -24.943  1.00  0.00     0.087 A 
HETATM   48  C24 UNL     1     -18.825  46.300 -25.408  1.00  0.00     0.283 A 
HETATM   49  O3  UNL     1     -19.585  47.117 -24.922  1.00  0.00    -0.260 OA
HETATM   50  O4  UNL     1     -19.094  45.488 -26.463  1.00  0.00    -0.314 OA
HETATM   51  C25 UNL     1     -17.942  44.697 -26.748  1.00  0.00     0.213 A 
ENDBRANCH  10  46
TORSDOF 10
ENDMDL
MODEL 3
REMARK minimizedAffinity -8.74460411
REMARK CNNscore 0.359144598
REMARK CNNaffinity 6.63202429
REMARK  10 active torsions:
REMARK  status: ('A' for Active; 'I' for Inactive)
REMARK    1  A    between atoms: O1_2  and  C2_3 
REMARK    2  A    between atoms: C4_5  and  O2_6 
REMARK    3  A    between atoms: O2_6  and  C5_7 
REMARK    4  A    between atoms: C8_10  and  C9_11 
REMARK    5  A    between atoms: N1_12  and  C10_14 
REMARK    6  A    between atoms: C10_14  and  C11_15 
REMARK    7  A    between atoms: C21_27  and  C22_28 
REMARK    8  A    between atoms: C28_36  and  O5_37 
REMARK    9  A    between atoms: C32_41  and  O6_42 
REMARK   10  A    between atoms: C36_47  and  O8_48 
ROOT
HETATM    1  C5  UNL     1      -8.301  47.635 -32.453  1.00  0.00     0.127 C 
HETATM    2  C6  UNL     1      -7.386  46.594 -31.808  1.00  0.00     0.033 C 
HETATM    3  C7  UNL     1      -7.812  46.209 -30.388  1.00  0.00     0.021 C 
HETATM    4  C8  UNL     1      -8.036  47.411 -29.416  1.00  0.00     0.026 C 
HETATM    5  C16 UNL     1      -8.700  46.815 -28.098  1.00  0.00     0.009 C 
HETATM    6  C17 UNL     1      -7.662  46.421 -27.024  1.00  0.00     0.007 C 
HETATM    7  C18 UNL     1      -8.308  45.808 -25.782  1.00  0.00     0.013 C 
HETATM    8  C19 UNL     1      -9.369  46.737 -25.137  1.00  0.00    -0.005 C 
HETATM    9  C20 UNL     1      -8.674  47.946 -24.481  1.00  0.00     0.019 C 
HETATM   10  C21 UNL     1     -10.262  45.977 -24.108  1.00  0.00     0.028 C 
HETATM   11  C26 UNL     1     -11.220  45.158 -24.993  1.00  0.00     0.013 C 
HETATM   12  C27 UNL     1     -11.320  45.907 -26.330  1.00  0.00     0.040 C 
HETATM   13  C28 UNL     1     -10.431  47.162 -26.192  1.00  0.00     0.070 C 
HETATM   14  C29 UNL     1      -9.819  47.705 -27.512  1.00  0.00     0.026 C 
HETATM   15  C30 UNL     1     -10.910  48.009 -28.573  1.00  0.00     0.011 C 
HETATM   16  C31 UNL     1     -10.401  48.072 -30.018  1.00  0.00     0.039 C 
HETATM   17  C32 UNL     1      -8.930  48.502 -30.097  1.00  0.00     0.073 C 
HETATM   18  C33 UNL     1      -8.459  48.838 -31.527  1.00  0.00     0.071 C 
ENDROOT
BRANCH   1  19
HETATM   19  O2  UNL     1      -9.567  47.026 -32.730  1.00  0.00    -0.356 OA
BRANCH  19  20
HETATM   20  C4  UNL     1      -9.491  45.974 -33.704  1.00  0.00     0.263 C 
HETATM   21  C3  UNL     1     -10.713  45.087 -33.507  1.00  0.00     0.095 C 
HETATM   22  C2  UNL     1     -10.686  43.876 -34.447  1.00  0.00     0.156 C 
HETATM   23  C36 UNL     1      -9.719  44.075 -35.630  1.00  0.00     0.175 C 
HETATM   24  C34 UNL     1      -9.619  45.549 -36.076  1.00  0.00     0.151 C 
HETATM   25  O7  UNL     1      -9.525  46.510 -35.017  1.00  0.00    -0.354 OA
HETATM   26  C35 UNL     1     -10.802  45.961 -36.946  1.00  0.00     0.042 C 
BRANCH  22  27
HETATM   27  O1  UNL     1     -11.990  43.589 -34.974  1.00  0.00    -0.388 OA
HETATM   28  C1  UNL     1     -12.002  42.516 -35.909  1.00  0.00     0.202 C 
ENDBRANCH  22  27
BRANCH  23  29
HETATM   29  O8  UNL     1      -8.410  43.636 -35.223  1.00  0.00    -0.390 OA
HETATM   30  H50 UNL     1      -8.415  42.662 -35.248  1.00  0.00     0.210 HD
ENDBRANCH  23  29
ENDBRANCH  19  20
ENDBRANCH   1  19
BRANCH  17  31
HETATM   31  O6  UNL     1      -8.841  49.751 -29.376  1.00  0.00    -0.389 OA
HETATM   32  H42 UNL     1      -9.422  50.394 -29.829  1.00  0.00     0.210 HD
ENDBRANCH  17  31
BRANCH   4  33
HETATM   33  C9  UNL     1      -6.701  48.087 -29.063  1.00  0.00     0.069 C 
HETATM   34  N1  UNL     1      -5.787  47.486 -28.383  1.00  0.00    -0.397 N 
ATOM     35  H1  UNL     1      -5.879  46.526 -28.049  1.00  0.00     0.159 HD
BRANCH  34  36
HETATM   36  C10 UNL     1      -4.605  48.309 -28.134  1.00  0.00     0.158 C 
BRANCH  36  37
HETATM   37  C11 UNL     1      -4.317  48.389 -26.664  1.00  0.00    -0.025 A 
HETATM   38  C12 UNL     1      -3.014  48.547 -26.182  1.00  0.00     0.011 A 
HETATM   39  C13 UNL     1      -2.789  48.641 -24.810  1.00  0.00     0.018 A 
HETATM   40  C14 UNL     1      -3.884  48.582 -23.964  1.00  0.00     0.087 A 
HETATM   41  N2  UNL     1      -5.158  48.442 -24.388  1.00  0.00    -0.375 N 
HETATM   42  C15 UNL     1      -5.346  48.361 -25.727  1.00  0.00     0.096 A 
ATOM     43  H2  UNL     1      -5.940  48.400 -23.734  1.00  0.00     0.164 HD
ENDBRANCH  36  37
ENDBRANCH  34  36
ENDBRANCH   4  33
BRANCH  13  44
HETATM   44  O5  UNL     1     -11.254  48.196 -25.625  1.00  0.00    -0.389 OA
HETATM   45  H36 UNL     1     -12.001  48.357 -26.229  1.00  0.00     0.210 HD
ENDBRANCH  13  44
BRANCH  10  46
HETATM   46  C22 UNL     1      -9.562  45.206 -23.024  1.00  0.00    -0.045 A 
HETATM   47  C23 UNL     1      -8.847  45.651 -21.990  1.00  0.00     0.087 A 
HETATM   48  C24 UNL     1      -8.349  44.478 -21.268  1.00  0.00     0.283 A 
HETATM   49  O3  UNL     1      -7.684  44.518 -20.250  1.00  0.00    -0.260 OA
HETATM   50  O4  UNL     1      -8.758  43.353 -21.911  1.00  0.00    -0.314 OA
HETATM   51  C25 UNL     1      -9.540  43.722 -23.046  1.00  0.00     0.213 A 
ENDBRANCH  10  46
TORSDOF 10
ENDMDL
MODEL 4
REMARK minimizedAffinity -8.04841995
REMARK CNNscore 0.327270865
REMARK CNNaffinity 6.59452009
REMARK  10 active torsions:
REMARK  status: ('A' for Active; 'I' for Inactive)
REMARK    1  A    between atoms: O1_2  and  C2_3 
REMARK    2  A    between atoms: C4_5  and  O2_6 
REMARK    3  A    between atoms: O2_6  and  C5_7 
REMARK    4  A    between atoms: C8_10  and  C9_11 
REMARK    5  A    between atoms: N1_12  and  C10_14 
REMARK    6  A    between atoms: C10_14  and  C11_15 
REMARK    7  A    between atoms: C21_27  and  C22_28 
REMARK    8  A    between atoms: C28_36  and  O5_37 
REMARK    9  A    between atoms: C32_41  and  O6_42 
REMARK   10  A    between atoms: C36_47  and  O8_48 
ROOT
HETATM    1  C5  UNL     1       0.536  56.178  -6.120  1.00  0.00     0.127 C 
HETATM    2  C6  UNL     1       0.381  56.778  -7.518  1.00  0.00     0.033 C 
HETATM    3  C7  UNL     1      -0.304  55.833  -8.510  1.00  0.00     0.021 C 
HETATM    4  C8  UNL     1       0.319  54.404  -8.599  1.00  0.00     0.026 C 
HETATM    5  C16 UNL     1      -0.674  53.527  -9.481  1.00  0.00     0.009 C 
HETATM    6  C17 UNL     1      -0.318  53.540 -10.984  1.00  0.00     0.007 C 
HETATM    7  C18 UNL     1      -1.304  52.733 -11.828  1.00  0.00     0.013 C 
HETATM    8  C19 UNL     1      -1.433  51.262 -11.356  1.00  0.00    -0.005 C 
HETATM    9  C20 UNL     1      -0.139  50.492 -11.687  1.00  0.00     0.019 C 
HETATM   10  C21 UNL     1      -2.679  50.556 -11.975  1.00  0.00     0.028 C 
HETATM   11  C26 UNL     1      -3.860  51.131 -11.170  1.00  0.00     0.013 C 
HETATM   12  C27 UNL     1      -3.289  51.560  -9.810  1.00  0.00     0.040 C 
HETATM   13  C28 UNL     1      -1.786  51.206  -9.841  1.00  0.00     0.070 C 
HETATM   14  C29 UNL     1      -0.867  52.088  -8.952  1.00  0.00     0.026 C 
HETATM   15  C30 UNL     1      -1.325  52.091  -7.470  1.00  0.00     0.011 C 
HETATM   16  C31 UNL     1      -0.810  53.272  -6.640  1.00  0.00     0.039 C 
HETATM   17  C32 UNL     1       0.528  53.810  -7.164  1.00  0.00     0.073 C 
HETATM   18  C33 UNL     1       1.211  54.811  -6.209  1.00  0.00     0.071 C 
ENDROOT
BRANCH   1  19
HETATM   19  O2  UNL     1      -0.758  56.079  -5.515  1.00  0.00    -0.356 OA
BRANCH  19  20
HETATM   20  C4  UNL     1      -0.770  56.462  -4.132  1.00  0.00     0.263 C 
HETATM   21  C3  UNL     1      -0.662  57.980  -4.083  1.00  0.00     0.095 C 
HETATM   22  C2  UNL     1      -0.580  58.491  -2.640  1.00  0.00     0.156 C 
HETATM   23  C36 UNL     1      -1.067  57.444  -1.620  1.00  0.00     0.175 C 
HETATM   24  C34 UNL     1      -2.186  56.542  -2.180  1.00  0.00     0.151 C 
HETATM   25  O7  UNL     1      -1.989  56.072  -3.519  1.00  0.00    -0.354 OA
HETATM   26  C35 UNL     1      -3.544  57.236  -2.150  1.00  0.00     0.042 C 
BRANCH  22  27
HETATM   27  O1  UNL     1      -1.351  59.689  -2.460  1.00  0.00    -0.388 OA
HETATM   28  C1  UNL     1      -0.564  60.825  -2.122  1.00  0.00     0.202 C 
ENDBRANCH  22  27
BRANCH  23  29
HETATM   29  O8  UNL     1       0.048  56.609  -1.259  1.00  0.00    -0.390 OA
HETATM   30  H50 UNL     1       0.598  57.119  -0.638  1.00  0.00     0.210 HD
ENDBRANCH  23  29
ENDBRANCH  19  20
ENDBRANCH   1  19
BRANCH  17  31
HETATM   31  O6  UNL     1       1.423  52.677  -7.212  1.00  0.00    -0.389 OA
HETATM   32  H42 UNL     1       1.512  52.336  -6.299  1.00  0.00     0.210 HD
ENDBRANCH  17  31
BRANCH   4  33
HETATM   33  C9  UNL     1       1.702  54.449  -9.267  1.00  0.00     0.069 C 
HETATM   34  N1  UNL     1       2.229  55.550  -9.682  1.00  0.00    -0.397 N 
ATOM     35  H1  UNL     1       1.775  56.458  -9.582  1.00  0.00     0.159 HD
BRANCH  34  36
HETATM   36  C10 UNL     1       3.537  55.373 -10.308  1.00  0.00     0.158 C 
BRANCH  36  37
HETATM   37  C11 UNL     1       4.634  55.551  -9.300  1.00  0.00    -0.025 A 
HETATM   38  C12 UNL     1       5.885  54.950  -9.467  1.00  0.00     0.011 A 
HETATM   39  C13 UNL     1       6.886  55.158  -8.520  1.00  0.00     0.018 A 
HETATM   40  C14 UNL     1       6.600  55.972  -7.437  1.00  0.00     0.087 A 
HETATM   41  N2  UNL     1       5.410  56.580  -7.243  1.00  0.00    -0.375 N 
HETATM   42  C15 UNL     1       4.460  56.365  -8.185  1.00  0.00     0.096 A 
ATOM     43  H2  UNL     1       5.235  57.171  -6.430  1.00  0.00     0.164 HD
ENDBRANCH  36  37
ENDBRANCH  34  36
ENDBRANCH   4  33
BRANCH  13  44
HETATM   44  O5  UNL     1      -1.667  49.846  -9.390  1.00  0.00    -0.389 OA
HETATM   45  H36 UNL     1      -2.025  49.792  -8.486  1.00  0.00     0.210 HD
ENDBRANCH  13  44
BRANCH  10  46
HETATM   46  C22 UNL     1      -2.828  50.606 -13.470  1.00  0.00    -0.045 A 
HETATM   47  C23 UNL     1      -2.405  49.744 -14.396  1.00  0.00     0.087 A 
HETATM   48  C24 UNL     1      -2.772  50.295 -15.702  1.00  0.00     0.283 A 
HETATM   49  O3  UNL     1      -2.564  49.749 -16.770  1.00  0.00    -0.260 OA
HETATM   50  O4  UNL     1      -3.383  51.495 -15.524  1.00  0.00    -0.314 OA
HETATM   51  C25 UNL     1      -3.462  51.775 -14.128  1.00  0.00     0.213 A 
ENDBRANCH  10  46
TORSDOF 10
ENDMDL
MODEL 5
REMARK minimizedAffinity -8.32791233
REMARK CNNscore 0.312174648
REMARK CNNaffinity 5.84201622
REMARK  10 active torsions:
REMARK  status: ('A' for Active; 'I' for Inactive)
REMARK    1  A    between atoms: O1_2  and  C2_3 
REMARK    2  A    between atoms: C4_5  and  O2_6 
REMARK    3  A    between atoms: O2_6  and  C5_7 
REMARK    4  A    between atoms: C8_10  and  C9_11 
REMARK    5  A    between atoms: N1_12  and  C10_14 
REMARK    6  A    between atoms: C10_14  and  C11_15 
REMARK    7  A    between atoms: C21_27  and  C22_28 
REMARK    8  A    between atoms: C28_36  and  O5_37 
REMARK    9  A    between atoms: C32_41  and  O6_42 
REMARK   10  A    between atoms: C36_47  and  O8_48 
ROOT
HETATM    1  C5  UNL     1      -7.632  47.632 -25.685  1.00  0.00     0.127 C 
HETATM    2  C6  UNL     1      -8.762  48.126 -26.589  1.00  0.00     0.033 C 
HETATM    3  C7  UNL     1     -10.150  47.982 -25.958  1.00  0.00     0.021 C 
HETATM    4  C8  UNL     1     -10.480  46.559 -25.405  1.00  0.00     0.026 C 
HETATM    5  C16 UNL     1     -11.840  46.690 -24.587  1.00  0.00     0.009 C 
HETATM    6  C17 UNL     1     -13.091  46.410 -25.448  1.00  0.00     0.007 C 
HETATM    7  C18 UNL     1     -14.392  46.584 -24.666  1.00  0.00     0.013 C 
HETATM    8  C19 UNL     1     -14.450  45.699 -23.394  1.00  0.00    -0.005 C 
HETATM    9  C20 UNL     1     -14.600  44.218 -23.794  1.00  0.00     0.019 C 
HETATM   10  C21 UNL     1     -15.594  46.138 -22.427  1.00  0.00     0.028 C 
HETATM   11  C26 UNL     1     -15.040  47.413 -21.764  1.00  0.00     0.013 C 
HETATM   12  C27 UNL     1     -13.510  47.301 -21.821  1.00  0.00     0.040 C 
HETATM   13  C28 UNL     1     -13.199  45.950 -22.501  1.00  0.00     0.070 C 
HETATM   14  C29 UNL     1     -11.854  45.876 -23.275  1.00  0.00     0.026 C 
HETATM   15  C30 UNL     1     -10.647  46.243 -22.371  1.00  0.00     0.011 C 
HETATM   16  C31 UNL     1      -9.384  46.669 -23.129  1.00  0.00     0.039 C 
HETATM   17  C32 UNL     1      -9.299  46.030 -24.522  1.00  0.00     0.073 C 
HETATM   18  C33 UNL     1      -7.928  46.213 -25.205  1.00  0.00     0.071 C 
ENDROOT
BRANCH   1  19
HETATM   19  O2  UNL     1      -7.498  48.534 -24.581  1.00  0.00    -0.356 OA
BRANCH  19  20
HETATM   20  C4  UNL     1      -6.134  48.768 -24.200  1.00  0.00     0.263 C 
HETATM   21  C3  UNL     1      -5.261  48.381 -25.386  1.00  0.00     0.095 C 
HETATM   22  C2  UNL     1      -3.770  48.512 -25.053  1.00  0.00     0.156 C 
HETATM   23  C36 UNL     1      -3.522  49.400 -23.819  1.00  0.00     0.175 C 
HETATM   24  C34 UNL     1      -4.567  50.526 -23.676  1.00  0.00     0.151 C 
HETATM   25  O7  UNL     1      -5.927  50.142 -23.912  1.00  0.00    -0.354 OA
HETATM   26  C35 UNL     1      -4.270  51.698 -24.606  1.00  0.00     0.042 C 
BRANCH  22  27
HETATM   27  O1  UNL     1      -3.030  49.056 -26.157  1.00  0.00    -0.388 OA
HETATM   28  C1  UNL     1      -3.740  49.021 -27.389  1.00  0.00     0.202 C 
ENDBRANCH  22  27
BRANCH  23  29
HETATM   29  O8  UNL     1      -3.587  48.571 -22.644  1.00  0.00    -0.390 OA
HETATM   30  H50 UNL     1      -2.749  48.079 -22.595  1.00  0.00     0.210 HD
ENDBRANCH  23  29
ENDBRANCH  19  20
ENDBRANCH   1  19
BRANCH  17  31
HETATM   31  O6  UNL     1      -9.421  44.605 -24.315  1.00  0.00    -0.389 OA
HETATM   32  H42 UNL     1      -8.672  44.326 -23.752  1.00  0.00     0.210 HD
ENDBRANCH  17  31
BRANCH   4  33
HETATM   33  C9  UNL     1     -10.662  45.553 -26.553  1.00  0.00     0.069 C 
HETATM   34  N1  UNL     1     -10.844  45.928 -27.772  1.00  0.00    -0.397 N 
ATOM     35  H1  UNL     1     -10.866  46.908 -28.058  1.00  0.00     0.159 HD
BRANCH  34  36
HETATM   36  C10 UNL     1     -11.018  44.818 -28.706  1.00  0.00     0.158 C 
BRANCH  36  37
HETATM   37  C11 UNL     1     -10.931  45.302 -30.124  1.00  0.00    -0.025 A 
HETATM   38  C12 UNL     1     -11.144  44.441 -31.204  1.00  0.00     0.011 A 
HETATM   39  C13 UNL     1     -11.078  44.934 -32.506  1.00  0.00     0.018 A 
HETATM   40  C14 UNL     1     -10.808  46.281 -32.681  1.00  0.00     0.087 A 
HETATM   41  N2  UNL     1     -10.607  47.148 -31.666  1.00  0.00    -0.375 N 
HETATM   42  C15 UNL     1     -10.686  46.641 -30.412  1.00  0.00     0.096 A 
ATOM     43  H2  UNL     1     -10.408  48.134 -31.834  1.00  0.00     0.164 HD
ENDBRANCH  36  37
ENDBRANCH  34  36
ENDBRANCH   4  33
BRANCH  13  44
HETATM   44  O5  UNL     1     -13.169  44.956 -21.462  1.00  0.00    -0.389 OA
HETATM   45  H36 UNL     1     -12.473  45.200 -20.827  1.00  0.00     0.210 HD
ENDBRANCH  13  44
BRANCH  10  46
HETATM   46  C22 UNL     1     -16.977  46.256 -23.006  1.00  0.00    -0.045 A 
HETATM   47  C23 UNL     1     -17.387  46.887 -24.107  1.00  0.00     0.087 A 
HETATM   48  C24 UNL     1     -18.840  46.727 -24.184  1.00  0.00     0.283 A 
HETATM   49  O3  UNL     1     -19.540  47.154 -25.083  1.00  0.00    -0.260 OA
HETATM   50  O4  UNL     1     -19.269  46.025 -23.102  1.00  0.00    -0.314 OA
HETATM   51  C25 UNL     1     -18.145  45.681 -22.294  1.00  0.00     0.213 A 
ENDBRANCH  10  46
TORSDOF 10
ENDMDL
MODEL 6
REMARK minimizedAffinity -7.01223421
REMARK CNNscore 0.26269266
REMARK CNNaffinity 5.97041082
REMARK  10 active torsions:
REMARK  status: ('A' for Active; 'I' for Inactive)
REMARK    1  A    between atoms: O1_2  and  C2_3 
REMARK    2  A    between atoms: C4_5  and  O2_6 
REMARK    3  A    between atoms: O2_6  and  C5_7 
REMARK    4  A    between atoms: C8_10  and  C9_11 
REMARK    5  A    between atoms: N1_12  and  C10_14 
REMARK    6  A    between atoms: C10_14  and  C11_15 
REMARK    7  A    between atoms: C21_27  and  C22_28 
REMARK    8  A    between atoms: C28_36  and  O5_37 
REMARK    9  A    between atoms: C32_41  and  O6_42 
REMARK   10  A    between atoms: C36_47  and  O8_48 
ROOT
HETATM    1  C5  UNL     1     -11.437  45.087 -37.105  1.00  0.00     0.127 C 
HETATM    2  C6  UNL     1     -12.441  44.972 -35.957  1.00  0.00     0.033 C 
HETATM    3  C7  UNL     1     -11.914  45.535 -34.633  1.00  0.00     0.021 C 
HETATM    4  C8  UNL     1     -10.519  44.991 -34.192  1.00  0.00     0.026 C 
HETATM    5  C16 UNL     1     -10.057  45.872 -32.949  1.00  0.00     0.009 C 
HETATM    6  C17 UNL     1     -10.481  45.269 -31.591  1.00  0.00     0.007 C 
HETATM    7  C18 UNL     1     -10.074  46.145 -30.408  1.00  0.00     0.013 C 
HETATM    8  C19 UNL     1      -8.551  46.437 -30.374  1.00  0.00    -0.005 C 
HETATM    9  C20 UNL     1      -7.782  45.153 -30.004  1.00  0.00     0.019 C 
HETATM   10  C21 UNL     1      -8.200  47.601 -29.396  1.00  0.00     0.028 C 
HETATM   11  C26 UNL     1      -8.632  48.864 -30.165  1.00  0.00     0.013 C 
HETATM   12  C27 UNL     1      -8.571  48.505 -31.657  1.00  0.00     0.040 C 
HETATM   13  C28 UNL     1      -8.084  47.041 -31.730  1.00  0.00     0.070 C 
HETATM   14  C29 UNL     1      -8.556  46.234 -32.970  1.00  0.00     0.026 C 
HETATM   15  C30 UNL     1      -8.164  46.933 -34.299  1.00  0.00     0.011 C 
HETATM   16  C31 UNL     1      -8.981  46.495 -35.520  1.00  0.00     0.039 C 
HETATM   17  C32 UNL     1      -9.505  45.059 -35.384  1.00  0.00     0.073 C 
HETATM   18  C33 UNL     1     -10.095  44.489 -36.690  1.00  0.00     0.071 C 
ENDROOT
BRANCH   1  19
HETATM   19  O2  UNL     1     -11.301  46.468 -37.459  1.00  0.00    -0.356 OA
BRANCH  19  20
HETATM   20  C4  UNL     1     -12.064  46.836 -38.619  1.00  0.00     0.263 C 
HETATM   21  C3  UNL     1     -11.548  48.190 -39.088  1.00  0.00     0.095 C 
HETATM   22  C2  UNL     1     -12.358  48.718 -40.277  1.00  0.00     0.156 C 
HETATM   23  C36 UNL     1     -13.162  47.606 -40.978  1.00  0.00     0.175 C 
HETATM   24  C34 UNL     1     -12.456  46.235 -40.923  1.00  0.00     0.151 C 
HETATM   25  O7  UNL     1     -11.873  45.891 -39.660  1.00  0.00    -0.354 OA
HETATM   26  C35 UNL     1     -11.349  46.124 -41.966  1.00  0.00     0.042 C 
BRANCH  22  27
HETATM   27  O1  UNL     1     -11.512  49.346 -41.252  1.00  0.00    -0.388 OA
HETATM   28  C1  UNL     1     -12.102  49.432 -42.545  1.00  0.00     0.202 C 
ENDBRANCH  22  27
BRANCH  23  29
HETATM   29  O8  UNL     1     -14.436  47.485 -40.320  1.00  0.00    -0.390 OA
HETATM   30  H50 UNL     1     -14.987  48.228 -40.626  1.00  0.00     0.210 HD
ENDBRANCH  23  29
ENDBRANCH  19  20
ENDBRANCH   1  19
BRANCH  17  31
HETATM   31  O6  UNL     1      -8.348  44.237 -35.112  1.00  0.00    -0.389 OA
HETATM   32  H42 UNL     1      -7.743  44.321 -35.875  1.00  0.00     0.210 HD
ENDBRANCH  17  31
BRANCH   4  33
HETATM   33  C9  UNL     1     -10.613  43.514 -33.773  1.00  0.00     0.069 C 
HETATM   34  N1  UNL     1     -10.518  42.552 -34.626  1.00  0.00    -0.397 N 
ATOM     35  H1  UNL     1     -10.362  42.702 -35.623  1.00  0.00     0.159 HD
BRANCH  34  36
HETATM   36  C10 UNL     1     -10.657  41.226 -34.028  1.00  0.00     0.158 C 
BRANCH  36  37
HETATM   37  C11 UNL     1     -11.669  40.412 -34.779  1.00  0.00    -0.025 A 
HETATM   38  C12 UNL     1     -12.801  41.000 -35.351  1.00  0.00     0.011 A 
HETATM   39  C13 UNL     1     -13.707  40.214 -36.061  1.00  0.00     0.018 A 
HETATM   40  C14 UNL     1     -13.441  38.860 -36.182  1.00  0.00     0.087 A 
HETATM   41  N2  UNL     1     -12.354  38.255 -35.656  1.00  0.00    -0.375 N 
HETATM   42  C15 UNL     1     -11.489  39.046 -34.978  1.00  0.00     0.096 A 
ATOM     43  H2  UNL     1     -12.193  37.253 -35.763  1.00  0.00     0.164 HD
ENDBRANCH  36  37
ENDBRANCH  34  36
ENDBRANCH   4  33
BRANCH  13  44
HETATM   44  O5  UNL     1      -6.646  47.079 -31.745  1.00  0.00    -0.389 OA
HETATM   45  H36 UNL     1      -6.363  47.585 -32.528  1.00  0.00     0.210 HD
ENDBRANCH  13  44
BRANCH  10  46
HETATM   46  C22 UNL     1      -8.711  47.494 -27.985  1.00  0.00    -0.045 A 
HETATM   47  C23 UNL     1      -8.361  46.648 -27.016  1.00  0.00     0.087 A 
HETATM   48  C24 UNL     1      -9.200  46.947 -25.854  1.00  0.00     0.283 A 
HETATM   49  O3  UNL     1      -9.125  46.382 -24.779  1.00  0.00    -0.260 OA
HETATM   50  O4  UNL     1     -10.057  47.952 -26.170  1.00  0.00    -0.314 OA
HETATM   51  C25 UNL     1      -9.817  48.365 -27.514  1.00  0.00     0.213 A 
ENDBRANCH  10  46
TORSDOF 10
ENDMDL
MODEL 7
REMARK minimizedAffinity -7.95344925
REMARK CNNscore 0.259455711
REMARK CNNaffinity 5.6724205
REMARK  10 active torsions:
REMARK  status: ('A' for Active; 'I' for Inactive)
REMARK    1  A    between atoms: O1_2  and  C2_3 
REMARK    2  A    between atoms: C4_5  and  O2_6 
REMARK    3  A    between atoms: O2_6  and  C5_7 
REMARK    4  A    between atoms: C8_10  and  C9_11 
REMARK    5  A    between atoms: N1_12  and  C10_14 
REMARK    6  A    between atoms: C10_14  and  C11_15 
REMARK    7  A    between atoms: C21_27  and  C22_28 
REMARK    8  A    between atoms: C28_36  and  O5_37 
REMARK    9  A    between atoms: C32_41  and  O6_42 
REMARK   10  A    between atoms: C36_47  and  O8_48 
ROOT
HETATM    1  C5  UNL     1      -7.592  47.469 -25.883  1.00  0.00     0.127 C 
HETATM    2  C6  UNL     1      -8.722  48.085 -26.710  1.00  0.00     0.033 C 
HETATM    3  C7  UNL     1     -10.097  47.960 -26.045  1.00  0.00     0.021 C 
HETATM    4  C8  UNL     1     -10.482  46.517 -25.590  1.00  0.00     0.026 C 
HETATM    5  C16 UNL     1     -11.808  46.651 -24.720  1.00  0.00     0.009 C 
HETATM    6  C17 UNL     1     -13.097  46.498 -25.557  1.00  0.00     0.007 C 
HETATM    7  C18 UNL     1     -14.364  46.674 -24.722  1.00  0.00     0.013 C 
HETATM    8  C19 UNL     1     -14.429  45.699 -23.518  1.00  0.00    -0.005 C 
HETATM    9  C20 UNL     1     -14.666  44.262 -24.023  1.00  0.00     0.019 C 
HETATM   10  C21 UNL     1     -15.520  46.117 -22.484  1.00  0.00     0.028 C 
HETATM   11  C26 UNL     1     -14.883  47.310 -21.746  1.00  0.00     0.013 C 
HETATM   12  C27 UNL     1     -13.363  47.129 -21.862  1.00  0.00     0.040 C 
HETATM   13  C28 UNL     1     -13.142  45.820 -22.651  1.00  0.00     0.070 C 
HETATM   14  C29 UNL     1     -11.825  45.741 -23.472  1.00  0.00     0.026 C 
HETATM   15  C30 UNL     1     -10.575  45.979 -22.585  1.00  0.00     0.011 C 
HETATM   16  C31 UNL     1      -9.315  46.400 -23.350  1.00  0.00     0.039 C 
HETATM   17  C32 UNL     1      -9.304  45.866 -24.789  1.00  0.00     0.073 C 
HETATM   18  C33 UNL     1      -7.946  46.034 -25.501  1.00  0.00     0.071 C 
ENDROOT
BRANCH   1  19
HETATM   19  O2  UNL     1      -7.381  48.277 -24.720  1.00  0.00    -0.356 OA
BRANCH  19  20
HETATM   20  C4  UNL     1      -5.995  48.551 -24.463  1.00  0.00     0.263 C 
HETATM   21  C3  UNL     1      -5.255  48.417 -25.787  1.00  0.00     0.095 C 
HETATM   22  C2  UNL     1      -3.744  48.607 -25.608  1.00  0.00     0.156 C 
HETATM   23  C36 UNL     1      -3.396  49.311 -24.282  1.00  0.00     0.175 C 
HETATM   24  C34 UNL     1      -4.476  50.321 -23.842  1.00  0.00     0.151 C 
HETATM   25  O7  UNL     1      -5.831  49.876 -23.982  1.00  0.00    -0.354 OA
HETATM   26  C35 UNL     1      -4.363  51.640 -24.598  1.00  0.00     0.042 C 
BRANCH  22  27
HETATM   27  O1  UNL     1      -3.177  49.368 -26.685  1.00  0.00    -0.388 OA
HETATM   28  C1  UNL     1      -1.850  49.812 -26.430  1.00  0.00     0.202 C 
ENDBRANCH  22  27
BRANCH  23  29
HETATM   29  O8  UNL     1      -3.269  48.309 -23.257  1.00  0.00    -0.390 OA
HETATM   30  H50 UNL     1      -2.404  47.879 -23.383  1.00  0.00     0.210 HD
ENDBRANCH  23  29
ENDBRANCH  19  20
ENDBRANCH   1  19
BRANCH  17  31
HETATM   31  O6  UNL     1      -9.492  44.437 -24.685  1.00  0.00    -0.389 OA
HETATM   32  H42 UNL     1      -8.741  44.079 -24.170  1.00  0.00     0.210 HD
ENDBRANCH  17  31
BRANCH   4  33
HETATM   33  C9  UNL     1     -10.748  45.611 -26.803  1.00  0.00     0.069 C 
HETATM   34  N1  UNL     1     -11.149  44.393 -26.674  1.00  0.00    -0.397 N 
ATOM     35  H1  UNL     1     -11.330  43.957 -25.770  1.00  0.00     0.159 HD
BRANCH  34  36
HETATM   36  C10 UNL     1     -11.321  43.696 -27.947  1.00  0.00     0.158 C 
BRANCH  36  37
HETATM   37  C11 UNL     1     -12.705  43.128 -28.055  1.00  0.00    -0.025 A 
HETATM   38  C12 UNL     1     -12.928  41.748 -28.097  1.00  0.00     0.011 A 
HETATM   39  C13 UNL     1     -14.230  41.258 -28.174  1.00  0.00     0.018 A 
HETATM   40  C14 UNL     1     -15.270  42.172 -28.198  1.00  0.00     0.087 A 
HETATM   41  N2  UNL     1     -15.100  43.510 -28.149  1.00  0.00    -0.375 N 
HETATM   42  C15 UNL     1     -13.823  43.956 -28.066  1.00  0.00     0.096 A 
ATOM     43  H2  UNL     1     -15.892  44.153 -28.172  1.00  0.00     0.164 HD
ENDBRANCH  36  37
ENDBRANCH  34  36
ENDBRANCH   4  33
BRANCH  13  44
HETATM   44  O5  UNL     1     -13.131  44.750 -21.691  1.00  0.00    -0.389 OA
HETATM   45  H36 UNL     1     -12.405  44.910 -21.063  1.00  0.00     0.210 HD
ENDBRANCH  13  44
BRANCH  10  46
HETATM   46  C22 UNL     1     -16.912  46.346 -23.006  1.00  0.00    -0.045 A 
HETATM   47  C23 UNL     1     -17.313  46.727 -24.219  1.00  0.00     0.087 A 
HETATM   48  C24 UNL     1     -18.772  46.842 -24.178  1.00  0.00     0.283 A 
HETATM   49  O3  UNL     1     -19.473  47.141 -25.127  1.00  0.00    -0.260 OA
HETATM   50  O4  UNL     1     -19.207  46.553 -22.924  1.00  0.00    -0.314 OA
HETATM   51  C25 UNL     1     -18.086  46.224 -22.106  1.00  0.00     0.213 A 
ENDBRANCH  10  46
TORSDOF 10
ENDMDL
MODEL 8
REMARK minimizedAffinity -7.7261982
REMARK CNNscore 0.244401395
REMARK CNNaffinity 5.77906418
REMARK  10 active torsions:
REMARK  status: ('A' for Active; 'I' for Inactive)
REMARK    1  A    between atoms: O1_2  and  C2_3 
REMARK    2  A    between atoms: C4_5  and  O2_6 
REMARK    3  A    between atoms: O2_6  and  C5_7 
REMARK    4  A    between atoms: C8_10  and  C9_11 
REMARK    5  A    between atoms: N1_12  and  C10_14 
REMARK    6  A    between atoms: C10_14  and  C11_15 
REMARK    7  A    between atoms: C21_27  and  C22_28 
REMARK    8  A    between atoms: C28_36  and  O5_37 
REMARK    9  A    between atoms: C32_41  and  O6_42 
REMARK   10  A    between atoms: C36_47  and  O8_48 
ROOT
HETATM    1  C5  UNL     1     -11.187  45.995 -37.143  1.00  0.00     0.127 C 
HETATM    2  C6  UNL     1     -12.303  45.939 -36.099  1.00  0.00     0.033 C 
HETATM    3  C7  UNL     1     -11.835  46.319 -34.691  1.00  0.00     0.021 C 
HETATM    4  C8  UNL     1     -10.576  45.548 -34.183  1.00  0.00     0.026 C 
HETATM    5  C16 UNL     1     -10.120  46.256 -32.832  1.00  0.00     0.009 C 
HETATM    6  C17 UNL     1     -10.751  45.620 -31.574  1.00  0.00     0.007 C 
HETATM    7  C18 UNL     1     -10.343  46.337 -30.287  1.00  0.00     0.013 C 
HETATM    8  C19 UNL     1      -8.806  46.403 -30.099  1.00  0.00    -0.005 C 
HETATM    9  C20 UNL     1      -8.258  44.998 -29.781  1.00  0.00     0.019 C 
HETATM   10  C21 UNL     1      -8.395  47.428 -28.996  1.00  0.00     0.028 C 
HETATM   11  C26 UNL     1      -8.575  48.794 -29.684  1.00  0.00     0.013 C 
HETATM   12  C27 UNL     1      -8.420  48.543 -31.191  1.00  0.00     0.040 C 
HETATM   13  C28 UNL     1      -8.132  47.035 -31.352  1.00  0.00     0.070 C 
HETATM   14  C29 UNL     1      -8.588  46.399 -32.694  1.00  0.00     0.026 C 
HETATM   15  C30 UNL     1      -7.979  47.133 -33.918  1.00  0.00     0.011 C 
HETATM   16  C31 UNL     1      -8.727  46.911 -35.237  1.00  0.00     0.039 C 
HETATM   17  C32 UNL     1      -9.452  45.559 -35.274  1.00  0.00     0.073 C 
HETATM   18  C33 UNL     1      -9.986  45.180 -36.670  1.00  0.00     0.071 C 
ENDROOT
BRANCH   1  19
HETATM   19  O2  UNL     1     -10.830  47.364 -37.361  1.00  0.00    -0.356 OA
BRANCH  19  20
HETATM   20  C4  UNL     1     -11.401  47.917 -38.557  1.00  0.00     0.263 C 
HETATM   21  C3  UNL     1     -11.694  46.755 -39.497  1.00  0.00     0.095 C 
HETATM   22  C2  UNL     1     -12.230  47.245 -40.847  1.00  0.00     0.156 C 
HETATM   23  C36 UNL     1     -12.757  48.691 -40.777  1.00  0.00     0.175 C 
HETATM   24  C34 UNL     1     -13.364  49.038 -39.401  1.00  0.00     0.151 C 
HETATM   25  O7  UNL     1     -12.619  48.584 -38.265  1.00  0.00    -0.354 OA
HETATM   26  C35 UNL     1     -14.780  48.491 -39.250  1.00  0.00     0.042 C 
BRANCH  22  27
HETATM   27  O1  UNL     1     -13.287  46.403 -41.331  1.00  0.00    -0.388 OA
HETATM   28  C1  UNL     1     -13.605  46.622 -42.701  1.00  0.00     0.202 C 
ENDBRANCH  22  27
BRANCH  23  29
HETATM   29  O8  UNL     1     -11.659  49.587 -41.025  1.00  0.00    -0.390 OA
HETATM   30  H50 UNL     1     -11.493  49.577 -41.985  1.00  0.00     0.210 HD
ENDBRANCH  23  29
ENDBRANCH  19  20
ENDBRANCH   1  19
BRANCH  17  31
HETATM   31  O6  UNL     1      -8.450  44.561 -34.979  1.00  0.00    -0.389 OA
HETATM   32  H42 UNL     1      -7.767  44.615 -35.677  1.00  0.00     0.210 HD
ENDBRANCH  17  31
BRANCH   4  33
HETATM   33  C9  UNL     1     -10.910  44.073 -33.905  1.00  0.00     0.069 C 
HETATM   34  N1  UNL     1     -11.070  43.216 -34.855  1.00  0.00    -0.397 N 
ATOM     35  H1  UNL     1     -10.973  43.451 -35.843  1.00  0.00     0.159 HD
BRANCH  34  36
HETATM   36  C10 UNL     1     -11.405  41.874 -34.381  1.00  0.00     0.158 C 
BRANCH  36  37
HETATM   37  C11 UNL     1     -10.377  41.387 -33.403  1.00  0.00    -0.025 A 
HETATM   38  C12 UNL     1     -10.666  41.261 -32.041  1.00  0.00     0.011 A 
HETATM   39  C13 UNL     1      -9.692  40.782 -31.167  1.00  0.00     0.018 A 
HETATM   40  C14 UNL     1      -8.458  40.437 -31.692  1.00  0.00     0.087 A 
HETATM   41  N2  UNL     1      -8.141  40.533 -33.002  1.00  0.00    -0.375 N 
HETATM   42  C15 UNL     1      -9.111  40.994 -33.827  1.00  0.00     0.096 A 
ATOM     43  H2  UNL     1      -7.219  40.271 -33.351  1.00  0.00     0.164 HD
ENDBRANCH  36  37
ENDBRANCH  34  36
ENDBRANCH   4  33
BRANCH  13  44
HETATM   44  O5  UNL     1      -6.708  46.867 -31.242  1.00  0.00    -0.389 OA
HETATM   45  H36 UNL     1      -6.284  47.384 -31.950  1.00  0.00     0.210 HD
ENDBRANCH  13  44
BRANCH  10  46
HETATM   46  C22 UNL     1      -9.049  47.289 -27.649  1.00  0.00    -0.045 A 
HETATM   47  C23 UNL     1     -10.194  47.806 -27.202  1.00  0.00     0.087 A 
HETATM   48  C24 UNL     1     -10.340  47.397 -25.804  1.00  0.00     0.283 A 
HETATM   49  O3  UNL     1     -11.291  47.670 -25.095  1.00  0.00    -0.260 OA
HETATM   50  O4  UNL     1      -9.255  46.665 -25.438  1.00  0.00    -0.314 OA
HETATM   51  C25 UNL     1      -8.376  46.544 -26.555  1.00  0.00     0.213 A 
ENDBRANCH  10  46
TORSDOF 10
ENDMDL
MODEL 9
REMARK minimizedAffinity -7.93022966
REMARK CNNscore 0.232335627
REMARK CNNaffinity 6.09473276
REMARK  10 active torsions:
REMARK  status: ('A' for Active; 'I' for Inactive)
REMARK    1  A    between atoms: O1_2  and  C2_3 
REMARK    2  A    between atoms: C4_5  and  O2_6 
REMARK    3  A    between atoms: O2_6  and  C5_7 
REMARK    4  A    between atoms: C8_10  and  C9_11 
REMARK    5  A    between atoms: N1_12  and  C10_14 
REMARK    6  A    between atoms: C10_14  and  C11_15 
REMARK    7  A    between atoms: C21_27  and  C22_28 
REMARK    8  A    between atoms: C28_36  and  O5_37 
REMARK    9  A    between atoms: C32_41  and  O6_42 
REMARK   10  A    between atoms: C36_47  and  O8_48 
ROOT
HETATM    1  C5  UNL     1      -3.207  49.259 -12.183  1.00  0.00     0.127 C 
HETATM    2  C6  UNL     1      -1.802  48.795 -11.796  1.00  0.00     0.033 C 
HETATM    3  C7  UNL     1      -1.031  49.825 -10.965  1.00  0.00     0.021 C 
HETATM    4  C8  UNL     1      -0.979  51.261 -11.575  1.00  0.00     0.026 C 
HETATM    5  C16 UNL     1      -0.359  52.210 -10.458  1.00  0.00     0.009 C 
HETATM    6  C17 UNL     1       1.176  52.345 -10.563  1.00  0.00     0.007 C 
HETATM    7  C18 UNL     1       1.766  53.220  -9.458  1.00  0.00     0.013 C 
HETATM    8  C19 UNL     1       1.140  54.638  -9.419  1.00  0.00    -0.005 C 
HETATM    9  C20 UNL     1       1.603  55.448 -10.646  1.00  0.00     0.019 C 
HETATM   10  C21 UNL     1       1.476  55.389  -8.093  1.00  0.00     0.028 C 
HETATM   11  C26 UNL     1       0.549  54.728  -7.056  1.00  0.00     0.013 C 
HETATM   12  C27 UNL     1      -0.652  54.177  -7.838  1.00  0.00     0.040 C 
HETATM   13  C28 UNL     1      -0.411  54.545  -9.318  1.00  0.00     0.070 C 
HETATM   14  C29 UNL     1      -1.049  53.590 -10.364  1.00  0.00     0.026 C 
HETATM   15  C30 UNL     1      -2.579  53.441 -10.154  1.00  0.00     0.011 C 
HETATM   16  C31 UNL     1      -3.196  52.189 -10.790  1.00  0.00     0.039 C 
HETATM   17  C32 UNL     1      -2.410  51.716 -12.020  1.00  0.00     0.073 C 
HETATM   18  C33 UNL     1      -3.140  50.635 -12.843  1.00  0.00     0.071 C 
ENDROOT
BRANCH   1  19
HETATM   19  O2  UNL     1      -4.021  49.289 -11.006  1.00  0.00    -0.356 OA
BRANCH  19  20
HETATM   20  C4  UNL     1      -5.342  48.766 -11.215  1.00  0.00     0.263 C 
HETATM   21  C3  UNL     1      -5.475  47.516 -10.355  1.00  0.00     0.095 C 
HETATM   22  C2  UNL     1      -6.827  46.827 -10.570  1.00  0.00     0.156 C 
HETATM   23  C36 UNL     1      -7.864  47.763 -11.220  1.00  0.00     0.175 C 
HETATM   24  C34 UNL     1      -7.674  49.239 -10.811  1.00  0.00     0.151 C 
HETATM   25  O7  UNL     1      -6.320  49.708 -10.802  1.00  0.00    -0.354 OA
HETATM   26  C35 UNL     1      -8.251  49.524  -9.428  1.00  0.00     0.042 C 
BRANCH  22  27
HETATM   27  O1  UNL     1      -7.372  46.339  -9.335  1.00  0.00    -0.388 OA
HETATM   28  C1  UNL     1      -8.671  45.775  -9.471  1.00  0.00     0.202 C 
ENDBRANCH  22  27
BRANCH  23  29
HETATM   29  O8  UNL     1      -7.726  47.669 -12.650  1.00  0.00    -0.390 OA
HETATM   30  H50 UNL     1      -8.145  46.834 -12.923  1.00  0.00     0.210 HD
ENDBRANCH  23  29
ENDBRANCH  19  20
ENDBRANCH   1  19
BRANCH  17  31
HETATM   31  O6  UNL     1      -2.327  52.857 -12.903  1.00  0.00    -0.389 OA
HETATM   32  H42 UNL     1      -3.241  53.110 -13.143  1.00  0.00     0.210 HD
ENDBRANCH  17  31
BRANCH   4  33
HETATM   33  C9  UNL     1      -0.092  51.293 -12.831  1.00  0.00     0.069 C 
HETATM   34  N1  UNL     1       0.591  50.270 -13.214  1.00  0.00    -0.397 N 
ATOM     35  H1  UNL     1       0.579  49.375 -12.725  1.00  0.00     0.159 HD
BRANCH  34  36
HETATM   36  C10 UNL     1       1.385  50.514 -14.416  1.00  0.00     0.158 C 
BRANCH  36  37
HETATM   37  C11 UNL     1       0.628  50.098 -15.643  1.00  0.00    -0.025 A 
HETATM   38  C12 UNL     1       0.561  50.919 -16.773  1.00  0.00     0.011 A 
HETATM   39  C13 UNL     1      -0.133  50.487 -17.902  1.00  0.00     0.018 A 
HETATM   40  C14 UNL     1      -0.730  49.238 -17.863  1.00  0.00     0.087 A 
HETATM   41  N2  UNL     1      -0.680  48.411 -16.797  1.00  0.00    -0.375 N 
HETATM   42  C15 UNL     1       0.008  48.855 -15.718  1.00  0.00     0.096 A 
ATOM     43  H2  UNL     1      -1.136  47.498 -16.804  1.00  0.00     0.164 HD
ENDBRANCH  36  37
ENDBRANCH  34  36
ENDBRANCH   4  33
BRANCH  13  44
HETATM   44  O5  UNL     1      -0.964  55.857  -9.518  1.00  0.00    -0.389 OA
HETATM   45  H36 UNL     1      -1.916  55.820  -9.314  1.00  0.00     0.210 HD
ENDBRANCH  13  44
BRANCH  10  46
HETATM   46  C22 UNL     1       2.925  55.481  -7.702  1.00  0.00    -0.045 A 
HETATM   47  C23 UNL     1       3.758  56.520  -7.764  1.00  0.00     0.087 A 
HETATM   48  C24 UNL     1       5.068  56.057  -7.302  1.00  0.00     0.283 A 
HETATM   49  O3  UNL     1       6.058  56.757  -7.201  1.00  0.00    -0.260 OA
HETATM   50  O4  UNL     1       4.991  54.734  -7.001  1.00  0.00    -0.314 OA
HETATM   51  C25 UNL     1       3.657  54.281  -7.226  1.00  0.00     0.213 A 
ENDBRANCH  10  46
TORSDOF 10
ENDMDL
