MODEL 1
REMARK minimizedAffinity -9.05347252
REMARK  10 active torsions:
REMARK  status: ('A' for Active; 'I' for Inactive)
REMARK    1  A    between atoms: C3_3  and  C5_5 
REMARK    2  A    between atoms: C6_6  and  C7_7 
REMARK    3  A    between atoms: C8_8  and  C9_9 
REMARK    4  A    between atoms: C10_10  and  C12_12 
REMARK    5  A    between atoms: C12_12  and  O1_13 
REMARK    6  A    between atoms: C12_12  and  C13_14 
REMARK    7  A    between atoms: C13_14  and  C15_16 
REMARK    8  A    between atoms: C15_16  and  O2_17 
REMARK    9  A    between atoms: C18_20  and  O3_21 
REMARK   10  A    between atoms: C19_22  and  O4_24 
ROOT
HETATM    1  C5  UNL     1      -3.972  48.444 -23.560  1.00  0.00     0.058 C 
HETATM    2  C6  UNL     1      -3.196  48.745 -24.898  1.00  0.00     0.024 C 
HETATM    3  C16 UNL     1      -2.638  50.197 -24.931  1.00  0.00     0.003 C 
HETATM    4  C17 UNL     1      -2.033  50.601 -26.294  1.00  0.00     0.040 C 
HETATM    5  C18 UNL     1      -1.477  52.034 -26.290  1.00  0.00     0.152 C 
HETATM    6  C19 UNL     1      -0.487  52.286 -25.125  1.00  0.00     0.080 C 
HETATM    7  C20 UNL     1      -0.074  53.759 -25.040  1.00  0.00     0.048 C 
HETATM    8  C21 UNL     1      -1.080  51.830 -23.779  1.00  0.00     0.047 C 
HETATM    9  C22 UNL     1      -1.565  50.370 -23.833  1.00  0.00     0.025 C 
HETATM   10  C23 UNL     1      -2.056  49.903 -22.488  1.00  0.00     0.162 A 
HETATM   11  O5  UNL     1      -1.828  48.491 -22.303  1.00  0.00    -0.368 OA
HETATM   12  C24 UNL     1      -3.198  48.915 -22.330  1.00  0.00     0.092 A 
HETATM   13  C25 UNL     1      -3.849  48.743 -20.986  1.00  0.00     0.049 C 
ENDROOT
BRANCH   2  14
HETATM   14  C7  UNL     1      -4.029  48.399 -26.120  1.00  0.00    -0.021 C 
HETATM   15  C8  UNL     1      -3.692  48.747 -27.373  1.00  0.00    -0.003 C 
BRANCH  15  16
HETATM   16  C9  UNL     1      -4.501  48.402 -28.521  1.00  0.00     0.005 C 
HETATM   17  C10 UNL     1      -5.754  47.903 -28.486  1.00  0.00    -0.055 C 
HETATM   18  C11 UNL     1      -6.482  47.616 -27.196  1.00  0.00     0.046 C 
BRANCH  17  19
HETATM   19  C12 UNL     1      -6.474  47.576 -29.786  1.00  0.00     0.152 C 
BRANCH  19  20
HETATM   20  O1  UNL     1      -7.003  48.766 -30.357  1.00  0.00    -0.391 OA
HETATM   21  H17 UNL     1      -7.442  49.257 -29.643  1.00  0.00     0.210 HD
ENDBRANCH  19  20
BRANCH  19  22
HETATM   22  C13 UNL     1      -5.655  46.738 -30.803  1.00  0.00     0.038 C 
HETATM   23  C14 UNL     1      -6.327  45.377 -31.032  1.00  0.00     0.015 C 
BRANCH  22  24
HETATM   24  C15 UNL     1      -5.361  47.409 -32.152  1.00  0.00     0.171 C 
BRANCH  24  25
HETATM   25  O2  UNL     1      -4.556  48.569 -32.021  1.00  0.00    -0.400 OA
HETATM   26  H24 UNL     1      -4.414  48.928 -32.912  1.00  0.00     0.209 HD
ENDBRANCH  24  25
ENDBRANCH  22  24
ENDBRANCH  19  22
ENDBRANCH  17  19
ENDBRANCH  15  16
ENDBRANCH   2  14
BRANCH   1  27
HETATM   27  C3  UNL     1      -5.453  48.895 -23.555  1.00  0.00    -0.080 C 
HETATM   28  C2  UNL     1      -6.432  47.965 -23.519  1.00  0.00    -0.028 C 
HETATM   29  C1  UNL     1      -7.913  48.185 -23.542  1.00  0.00     0.036 C 
HETATM   30  C4  UNL     1      -5.735  50.374 -23.560  1.00  0.00     0.043 C 
ENDBRANCH   1  27
BRANCH   5  31
HETATM   31  O3  UNL     1      -2.561  52.967 -26.276  1.00  0.00    -0.393 OA
HETATM   32  H29 UNL     1      -3.071  52.847 -25.460  1.00  0.00     0.210 HD
ENDBRANCH   5  31
BRANCH   6  33
HETATM   33  O4  UNL     1       0.703  51.515 -25.347  1.00  0.00    -0.388 OA
HETATM   34  H33 UNL     1       1.140  51.860 -26.146  1.00  0.00     0.210 HD
ENDBRANCH   6  33
TORSDOF 10
ENDMDL
MODEL 2
REMARK minimizedAffinity -8.84804153
REMARK  10 active torsions:
REMARK  status: ('A' for Active; 'I' for Inactive)
REMARK    1  A    between atoms: C3_3  and  C5_5 
REMARK    2  A    between atoms: C6_6  and  C7_7 
REMARK    3  A    between atoms: C8_8  and  C9_9 
REMARK    4  A    between atoms: C10_10  and  C12_12 
REMARK    5  A    between atoms: C12_12  and  O1_13 
REMARK    6  A    between atoms: C12_12  and  C13_14 
REMARK    7  A    between atoms: C13_14  and  C15_16 
REMARK    8  A    between atoms: C15_16  and  O2_17 
REMARK    9  A    between atoms: C18_20  and  O3_21 
REMARK   10  A    between atoms: C19_22  and  O4_24 
ROOT
HETATM    1  C5  UNL     1      -4.045  48.613 -23.385  1.00  0.00     0.058 C 
HETATM    2  C6  UNL     1      -3.355  48.826 -24.786  1.00  0.00     0.024 C 
HETATM    3  C16 UNL     1      -2.754  50.255 -24.927  1.00  0.00     0.003 C 
HETATM    4  C17 UNL     1      -2.233  50.574 -26.345  1.00  0.00     0.040 C 
HETATM    5  C18 UNL     1      -1.633  51.985 -26.447  1.00  0.00     0.152 C 
HETATM    6  C19 UNL     1      -0.556  52.255 -25.366  1.00  0.00     0.080 C 
HETATM    7  C20 UNL     1      -0.091  53.715 -25.379  1.00  0.00     0.048 C 
HETATM    8  C21 UNL     1      -1.068  51.882 -23.963  1.00  0.00     0.047 C 
HETATM    9  C22 UNL     1      -1.602  50.440 -23.913  1.00  0.00     0.025 C 
HETATM   10  C23 UNL     1      -2.013  50.051 -22.517  1.00  0.00     0.162 A 
HETATM   11  O5  UNL     1      -1.818  48.643 -22.281  1.00  0.00    -0.368 OA
HETATM   12  C24 UNL     1      -3.172  49.113 -22.235  1.00  0.00     0.092 A 
HETATM   13  C25 UNL     1      -3.734  49.025 -20.843  1.00  0.00     0.049 C 
ENDROOT
BRANCH   2  14
HETATM   14  C7  UNL     1      -4.282  48.454 -25.931  1.00  0.00    -0.021 C 
HETATM   15  C8  UNL     1      -3.886  48.368 -27.210  1.00  0.00    -0.003 C 
BRANCH  15  16
HETATM   16  C9  UNL     1      -4.787  48.008 -28.282  1.00  0.00     0.005 C 
HETATM   17  C10 UNL     1      -6.086  47.669 -28.145  1.00  0.00    -0.055 C 
HETATM   18  C11 UNL     1      -6.774  47.604 -26.803  1.00  0.00     0.046 C 
BRANCH  17  19
HETATM   19  C12 UNL     1      -6.905  47.301 -29.373  1.00  0.00     0.152 C 
BRANCH  19  20
HETATM   20  O1  UNL     1      -8.127  46.692 -28.972  1.00  0.00    -0.391 OA
HETATM   21  H17 UNL     1      -7.910  46.035 -28.291  1.00  0.00     0.210 HD
ENDBRANCH  19  20
BRANCH  19  22
HETATM   22  C13 UNL     1      -7.117  48.448 -30.395  1.00  0.00     0.038 C 
HETATM   23  C14 UNL     1      -6.458  48.093 -31.735  1.00  0.00     0.015 C 
BRANCH  22  24
HETATM   24  C15 UNL     1      -8.569  48.889 -30.627  1.00  0.00     0.171 C 
BRANCH  24  25
HETATM   25  O2  UNL     1      -8.750  50.285 -30.459  1.00  0.00    -0.400 OA
HETATM   26  H24 UNL     1      -9.686  50.480 -30.625  1.00  0.00     0.209 HD
ENDBRANCH  24  25
ENDBRANCH  22  24
ENDBRANCH  19  22
ENDBRANCH  17  19
ENDBRANCH  15  16
ENDBRANCH   2  14
BRANCH   1  27
HETATM   27  C3  UNL     1      -5.507  49.116 -23.301  1.00  0.00    -0.080 C 
HETATM   28  C2  UNL     1      -6.507  48.227 -23.118  1.00  0.00    -0.028 C 
HETATM   29  C1  UNL     1      -7.978  48.498 -23.043  1.00  0.00     0.036 C 
HETATM   30  C4  UNL     1      -5.744  50.600 -23.398  1.00  0.00     0.043 C 
ENDBRANCH   1  27
BRANCH   5  31
HETATM   31  O3  UNL     1      -2.682  52.955 -26.404  1.00  0.00    -0.393 OA
HETATM   32  H29 UNL     1      -3.138  52.891 -25.551  1.00  0.00     0.210 HD
ENDBRANCH   5  31
BRANCH   6  33
HETATM   33  O4  UNL     1       0.590  51.433 -25.632  1.00  0.00    -0.388 OA
HETATM   34  H33 UNL     1       0.981  51.726 -26.474  1.00  0.00     0.210 HD
ENDBRANCH   6  33
TORSDOF 10
ENDMDL
MODEL 3
REMARK minimizedAffinity -8.61591625
REMARK  10 active torsions:
REMARK  status: ('A' for Active; 'I' for Inactive)
REMARK    1  A    between atoms: C3_3  and  C5_5 
REMARK    2  A    between atoms: C6_6  and  C7_7 
REMARK    3  A    between atoms: C8_8  and  C9_9 
REMARK    4  A    between atoms: C10_10  and  C12_12 
REMARK    5  A    between atoms: C12_12  and  O1_13 
REMARK    6  A    between atoms: C12_12  and  C13_14 
REMARK    7  A    between atoms: C13_14  and  C15_16 
REMARK    8  A    between atoms: C15_16  and  O2_17 
REMARK    9  A    between atoms: C18_20  and  O3_21 
REMARK   10  A    between atoms: C19_22  and  O4_24 
ROOT
HETATM    1  C5  UNL     1      -2.318  50.272 -21.891  1.00  0.00     0.058 C 
HETATM    2  C6  UNL     1      -2.036  49.860 -23.387  1.00  0.00     0.024 C 
HETATM    3  C16 UNL     1      -1.776  51.099 -24.291  1.00  0.00     0.003 C 
HETATM    4  C17 UNL     1      -1.681  50.763 -25.795  1.00  0.00     0.040 C 
HETATM    5  C18 UNL     1      -1.408  52.005 -26.659  1.00  0.00     0.152 C 
HETATM    6  C19 UNL     1      -0.178  52.811 -26.172  1.00  0.00     0.080 C 
HETATM    7  C20 UNL     1      -0.023  54.128 -26.940  1.00  0.00     0.048 C 
HETATM    8  C21 UNL     1      -0.258  53.094 -24.661  1.00  0.00     0.047 C 
HETATM    9  C22 UNL     1      -0.474  51.805 -23.849  1.00  0.00     0.025 C 
HETATM   10  C23 UNL     1      -0.456  52.077 -22.367  1.00  0.00     0.162 A 
HETATM   11  O5  UNL     1       0.059  50.951 -21.629  1.00  0.00    -0.368 OA
HETATM   12  C24 UNL     1      -1.310  51.300 -21.381  1.00  0.00     0.092 A 
HETATM   13  C25 UNL     1      -1.495  51.826 -19.985  1.00  0.00     0.049 C 
ENDROOT
BRANCH   2  14
HETATM   14  C7  UNL     1      -3.119  48.943 -23.930  1.00  0.00    -0.021 C 
HETATM   15  C8  UNL     1      -4.068  49.342 -24.791  1.00  0.00    -0.003 C 
BRANCH  15  16
HETATM   16  C9  UNL     1      -5.087  48.449 -25.297  1.00  0.00     0.005 C 
HETATM   17  C10 UNL     1      -6.354  48.355 -24.843  1.00  0.00    -0.055 C 
HETATM   18  C11 UNL     1      -6.875  49.189 -23.698  1.00  0.00     0.046 C 
BRANCH  17  19
HETATM   19  C12 UNL     1      -7.310  47.352 -25.472  1.00  0.00     0.152 C 
BRANCH  19  20
HETATM   20  O1  UNL     1      -7.971  46.611 -24.454  1.00  0.00    -0.391 OA
HETATM   21  H17 UNL     1      -7.295  46.335 -23.814  1.00  0.00     0.210 HD
ENDBRANCH  19  20
BRANCH  19  22
HETATM   22  C13 UNL     1      -8.294  47.942 -26.516  1.00  0.00     0.038 C 
HETATM   23  C14 UNL     1      -8.662  46.876 -27.558  1.00  0.00     0.015 C 
BRANCH  22  24
HETATM   24  C15 UNL     1      -9.569  48.588 -25.955  1.00  0.00     0.171 C 
BRANCH  24  25
HETATM   25  O2  UNL     1      -9.558  50.001 -26.064  1.00  0.00    -0.400 OA
HETATM   26  H24 UNL     1     -10.394  50.329 -25.694  1.00  0.00     0.209 HD
ENDBRANCH  24  25
ENDBRANCH  22  24
ENDBRANCH  19  22
ENDBRANCH  17  19
ENDBRANCH  15  16
ENDBRANCH   2  14
BRANCH   1  27
HETATM   27  C3  UNL     1      -3.786  50.659 -21.592  1.00  0.00    -0.080 C 
HETATM   28  C2  UNL     1      -4.525  49.886 -20.768  1.00  0.00    -0.028 C 
HETATM   29  C1  UNL     1      -5.959  50.063 -20.378  1.00  0.00     0.036 C 
HETATM   30  C4  UNL     1      -4.320  51.919 -22.221  1.00  0.00     0.043 C 
ENDBRANCH   1  27
BRANCH   5  31
HETATM   31  O3  UNL     1      -2.585  52.814 -26.717  1.00  0.00    -0.393 OA
HETATM   32  H29 UNL     1      -2.803  53.120 -25.823  1.00  0.00     0.210 HD
ENDBRANCH   5  31
BRANCH   6  33
HETATM   33  O4  UNL     1       1.009  52.037 -26.397  1.00  0.00    -0.388 OA
HETATM   34  H33 UNL     1       1.123  51.934 -27.358  1.00  0.00     0.210 HD
ENDBRANCH   6  33
TORSDOF 10
ENDMDL
MODEL 4
REMARK minimizedAffinity -8.56509876
REMARK  10 active torsions:
REMARK  status: ('A' for Active; 'I' for Inactive)
REMARK    1  A    between atoms: C3_3  and  C5_5 
REMARK    2  A    between atoms: C6_6  and  C7_7 
REMARK    3  A    between atoms: C8_8  and  C9_9 
REMARK    4  A    between atoms: C10_10  and  C12_12 
REMARK    5  A    between atoms: C12_12  and  O1_13 
REMARK    6  A    between atoms: C12_12  and  C13_14 
REMARK    7  A    between atoms: C13_14  and  C15_16 
REMARK    8  A    between atoms: C15_16  and  O2_17 
REMARK    9  A    between atoms: C18_20  and  O3_21 
REMARK   10  A    between atoms: C19_22  and  O4_24 
ROOT
HETATM    1  C5  UNL     1      -1.874  50.110 -24.802  1.00  0.00     0.058 C 
HETATM    2  C6  UNL     1      -2.340  49.445 -23.451  1.00  0.00     0.024 C 
HETATM    3  C16 UNL     1      -3.888  49.478 -23.291  1.00  0.00     0.003 C 
HETATM    4  C17 UNL     1      -4.381  49.009 -21.905  1.00  0.00     0.040 C 
HETATM    5  C18 UNL     1      -5.913  49.039 -21.785  1.00  0.00     0.152 C 
HETATM    6  C19 UNL     1      -6.616  48.274 -22.934  1.00  0.00     0.080 C 
HETATM    7  C20 UNL     1      -8.137  48.456 -22.888  1.00  0.00     0.048 C 
HETATM    8  C21 UNL     1      -6.079  48.713 -24.308  1.00  0.00     0.047 C 
HETATM    9  C22 UNL     1      -4.545  48.604 -24.383  1.00  0.00     0.025 C 
HETATM   10  C23 UNL     1      -4.035  48.943 -25.759  1.00  0.00     0.162 A 
HETATM   11  O5  UNL     1      -2.838  48.206 -26.076  1.00  0.00    -0.368 OA
HETATM   12  C24 UNL     1      -2.702  49.631 -25.992  1.00  0.00     0.092 A 
HETATM   13  C25 UNL     1      -2.402  50.231 -27.338  1.00  0.00     0.049 C 
ENDROOT
BRANCH   2  14
HETATM   14  C7  UNL     1      -1.605  50.026 -22.256  1.00  0.00    -0.021 C 
HETATM   15  C8  UNL     1      -1.958  51.170 -21.650  1.00  0.00    -0.003 C 
BRANCH  15  16
HETATM   16  C9  UNL     1      -1.244  51.701 -20.510  1.00  0.00     0.005 C 
HETATM   17  C10 UNL     1       0.059  52.051 -20.484  1.00  0.00    -0.055 C 
HETATM   18  C11 UNL     1       0.966  51.906 -21.682  1.00  0.00     0.046 C 
BRANCH  17  19
HETATM   19  C12 UNL     1       0.673  52.585 -19.199  1.00  0.00     0.152 C 
BRANCH  19  20
HETATM   20  O1  UNL     1       0.434  53.983 -19.095  1.00  0.00    -0.391 OA
HETATM   21  H17 UNL     1       0.643  54.375 -19.958  1.00  0.00     0.210 HD
ENDBRANCH  19  20
BRANCH  19  22
HETATM   22  C13 UNL     1       0.283  51.815 -17.910  1.00  0.00     0.038 C 
HETATM   23  C14 UNL     1       0.081  50.326 -18.222  1.00  0.00     0.015 C 
BRANCH  22  24
HETATM   24  C15 UNL     1       1.232  51.974 -16.713  1.00  0.00     0.171 C 
BRANCH  24  25
HETATM   25  O2  UNL     1       1.614  53.322 -16.494  1.00  0.00    -0.400 OA
HETATM   26  H24 UNL     1       2.206  53.336 -15.724  1.00  0.00     0.209 HD
ENDBRANCH  24  25
ENDBRANCH  22  24
ENDBRANCH  19  22
ENDBRANCH  17  19
ENDBRANCH  15  16
ENDBRANCH   2  14
BRANCH   1  27
HETATM   27  C3  UNL     1      -1.723  51.650 -24.746  1.00  0.00    -0.080 C 
HETATM   28  C2  UNL     1      -0.491  52.201 -24.791  1.00  0.00    -0.028 C 
HETATM   29  C1  UNL     1      -0.127  53.651 -24.717  1.00  0.00     0.036 C 
HETATM   30  C4  UNL     1      -2.981  52.475 -24.673  1.00  0.00     0.043 C 
ENDBRANCH   1  27
BRANCH   5  31
HETATM   31  O3  UNL     1      -6.358  50.395 -21.698  1.00  0.00    -0.393 OA
HETATM   32  H29 UNL     1      -6.119  50.859 -22.515  1.00  0.00     0.210 HD
ENDBRANCH   5  31
BRANCH   6  33
HETATM   33  O4  UNL     1      -6.344  46.872 -22.798  1.00  0.00    -0.388 OA
HETATM   34  H33 UNL     1      -6.764  46.562 -21.977  1.00  0.00     0.210 HD
ENDBRANCH   6  33
TORSDOF 10
ENDMDL
MODEL 5
REMARK minimizedAffinity -8.56327057
REMARK  10 active torsions:
REMARK  status: ('A' for Active; 'I' for Inactive)
REMARK    1  A    between atoms: C3_3  and  C5_5 
REMARK    2  A    between atoms: C6_6  and  C7_7 
REMARK    3  A    between atoms: C8_8  and  C9_9 
REMARK    4  A    between atoms: C10_10  and  C12_12 
REMARK    5  A    between atoms: C12_12  and  O1_13 
REMARK    6  A    between atoms: C12_12  and  C13_14 
REMARK    7  A    between atoms: C13_14  and  C15_16 
REMARK    8  A    between atoms: C15_16  and  O2_17 
REMARK    9  A    between atoms: C18_20  and  O3_21 
REMARK   10  A    between atoms: C19_22  and  O4_24 
ROOT
HETATM    1  C5  UNL     1      -2.666  49.561 -21.457  1.00  0.00     0.058 C 
HETATM    2  C6  UNL     1      -2.342  49.359 -22.987  1.00  0.00     0.024 C 
HETATM    3  C16 UNL     1      -1.930  50.693 -23.674  1.00  0.00     0.003 C 
HETATM    4  C17 UNL     1      -1.785  50.584 -25.208  1.00  0.00     0.040 C 
HETATM    5  C18 UNL     1      -1.362  51.913 -25.854  1.00  0.00     0.152 C 
HETATM    6  C19 UNL     1      -0.095  52.518 -25.199  1.00  0.00     0.080 C 
HETATM    7  C20 UNL     1       0.212  53.917 -25.744  1.00  0.00     0.048 C 
HETATM    8  C21 UNL     1      -0.231  52.572 -23.667  1.00  0.00     0.047 C 
HETATM    9  C22 UNL     1      -0.598  51.199 -23.076  1.00  0.00     0.025 C 
HETATM   10  C23 UNL     1      -0.635  51.239 -21.571  1.00  0.00     0.162 A 
HETATM   11  O5  UNL     1      -0.258  49.970 -21.000  1.00  0.00    -0.368 OA
HETATM   12  C24 UNL     1      -1.603  50.402 -20.753  1.00  0.00     0.092 A 
HETATM   13  C25 UNL     1      -1.816  50.723 -19.300  1.00  0.00     0.049 C 
ENDROOT
BRANCH   2  14
HETATM   14  C7  UNL     1      -3.469  48.641 -23.709  1.00  0.00    -0.021 C 
HETATM   15  C8  UNL     1      -4.192  49.193 -24.696  1.00  0.00    -0.003 C 
BRANCH  15  16
HETATM   16  C9  UNL     1      -5.258  48.486 -25.371  1.00  0.00     0.005 C 
HETATM   17  C10 UNL     1      -5.280  48.148 -26.677  1.00  0.00    -0.055 C 
HETATM   18  C11 UNL     1      -4.162  48.496 -27.629  1.00  0.00     0.046 C 
BRANCH  17  19
HETATM   19  C12 UNL     1      -6.484  47.413 -27.247  1.00  0.00     0.152 C 
BRANCH  19  20
HETATM   20  O1  UNL     1      -7.681  48.080 -26.865  1.00  0.00    -0.391 OA
HETATM   21  H17 UNL     1      -7.610  48.279 -25.917  1.00  0.00     0.210 HD
ENDBRANCH  19  20
BRANCH  19  22
HETATM   22  C13 UNL     1      -6.422  47.122 -28.769  1.00  0.00     0.038 C 
HETATM   23  C14 UNL     1      -6.924  45.701 -29.058  1.00  0.00     0.015 C 
BRANCH  22  24
HETATM   24  C15 UNL     1      -7.142  48.127 -29.680  1.00  0.00     0.171 C 
BRANCH  24  25
HETATM   25  O2  UNL     1      -6.243  48.927 -30.429  1.00  0.00    -0.400 OA
HETATM   26  H24 UNL     1      -6.774  49.527 -30.977  1.00  0.00     0.209 HD
ENDBRANCH  24  25
ENDBRANCH  22  24
ENDBRANCH  19  22
ENDBRANCH  17  19
ENDBRANCH  15  16
ENDBRANCH   2  14
BRANCH   1  27
HETATM   27  C3  UNL     1      -4.110  50.033 -21.158  1.00  0.00    -0.080 C 
HETATM   28  C2  UNL     1      -4.974  49.190 -20.551  1.00  0.00    -0.028 C 
HETATM   29  C1  UNL     1      -6.409  49.434 -20.206  1.00  0.00     0.036 C 
HETATM   30  C4  UNL     1      -4.479  51.442 -21.537  1.00  0.00     0.043 C 
ENDBRANCH   1  27
BRANCH   5  31
HETATM   31  O3  UNL     1      -2.461  52.827 -25.830  1.00  0.00    -0.393 OA
HETATM   32  H29 UNL     1      -2.699  53.011 -24.908  1.00  0.00     0.210 HD
ENDBRANCH   5  31
BRANCH   6  33
HETATM   33  O4  UNL     1       1.032  51.681 -25.497  1.00  0.00    -0.388 OA
HETATM   34  H33 UNL     1       1.187  51.716 -26.457  1.00  0.00     0.210 HD
ENDBRANCH   6  33
TORSDOF 10
ENDMDL
MODEL 6
REMARK minimizedAffinity -8.45939732
REMARK  10 active torsions:
REMARK  status: ('A' for Active; 'I' for Inactive)
REMARK    1  A    between atoms: C3_3  and  C5_5 
REMARK    2  A    between atoms: C6_6  and  C7_7 
REMARK    3  A    between atoms: C8_8  and  C9_9 
REMARK    4  A    between atoms: C10_10  and  C12_12 
REMARK    5  A    between atoms: C12_12  and  O1_13 
REMARK    6  A    between atoms: C12_12  and  C13_14 
REMARK    7  A    between atoms: C13_14  and  C15_16 
REMARK    8  A    between atoms: C15_16  and  O2_17 
REMARK    9  A    between atoms: C18_20  and  O3_21 
REMARK   10  A    between atoms: C19_22  and  O4_24 
ROOT
HETATM    1  C5  UNL     1      -2.737  50.875 -23.022  1.00  0.00     0.058 C 
HETATM    2  C6  UNL     1      -1.431  51.750 -23.132  1.00  0.00     0.024 C 
HETATM    3  C16 UNL     1      -0.676  51.502 -24.470  1.00  0.00     0.003 C 
HETATM    4  C17 UNL     1       0.703  52.194 -24.544  1.00  0.00     0.040 C 
HETATM    5  C18 UNL     1       1.416  51.942 -25.883  1.00  0.00     0.152 C 
HETATM    6  C19 UNL     1       0.530  52.294 -27.105  1.00  0.00     0.080 C 
HETATM    7  C20 UNL     1       1.194  51.882 -28.423  1.00  0.00     0.048 C 
HETATM    8  C21 UNL     1      -0.860  51.642 -26.993  1.00  0.00     0.047 C 
HETATM    9  C22 UNL     1      -1.544  51.979 -25.656  1.00  0.00     0.025 C 
HETATM   10  C23 UNL     1      -2.940  51.418 -25.594  1.00  0.00     0.162 A 
HETATM   11  O5  UNL     1      -3.808  52.247 -24.796  1.00  0.00    -0.368 OA
HETATM   12  C24 UNL     1      -3.567  50.922 -24.304  1.00  0.00     0.092 A 
HETATM   13  C25 UNL     1      -4.814  50.083 -24.359  1.00  0.00     0.049 C 
ENDROOT
BRANCH   2  14
HETATM   14  C7  UNL     1      -0.544  51.591 -21.909  1.00  0.00    -0.021 C 
HETATM   15  C8  UNL     1      -0.526  52.459 -20.885  1.00  0.00    -0.003 C 
BRANCH  15  16
HETATM   16  C9  UNL     1       0.325  52.283 -19.729  1.00  0.00     0.005 C 
HETATM   17  C10 UNL     1      -0.077  51.894 -18.502  1.00  0.00    -0.055 C 
HETATM   18  C11 UNL     1      -1.521  51.603 -18.170  1.00  0.00     0.046 C 
BRANCH  17  19
HETATM   19  C12 UNL     1       0.941  51.767 -17.378  1.00  0.00     0.152 C 
BRANCH  19  20
HETATM   20  O1  UNL     1       1.515  53.038 -17.101  1.00  0.00    -0.391 OA
HETATM   21  H17 UNL     1       1.748  53.440 -17.953  1.00  0.00     0.210 HD
ENDBRANCH  19  20
BRANCH  19  22
HETATM   22  C13 UNL     1       0.429  51.051 -16.100  1.00  0.00     0.038 C 
HETATM   23  C14 UNL     1       0.517  49.529 -16.273  1.00  0.00     0.015 C 
BRANCH  22  24
HETATM   24  C15 UNL     1       1.093  51.467 -14.779  1.00  0.00     0.171 C 
BRANCH  24  25
HETATM   25  O2  UNL     1       0.664  52.741 -14.330  1.00  0.00    -0.400 OA
HETATM   26  H24 UNL     1       1.124  52.926 -13.495  1.00  0.00     0.209 HD
ENDBRANCH  24  25
ENDBRANCH  22  24
ENDBRANCH  19  22
ENDBRANCH  17  19
ENDBRANCH  15  16
ENDBRANCH   2  14
BRANCH   1  27
HETATM   27  C3  UNL     1      -2.509  49.436 -22.498  1.00  0.00    -0.080 C 
HETATM   28  C2  UNL     1      -2.608  49.185 -21.175  1.00  0.00    -0.028 C 
HETATM   29  C1  UNL     1      -2.394  47.885 -20.465  1.00  0.00     0.036 C 
HETATM   30  C4  UNL     1      -2.213  48.360 -23.510  1.00  0.00     0.043 C 
ENDBRANCH   1  27
BRANCH   5  31
HETATM   31  O3  UNL     1       1.876  50.590 -25.932  1.00  0.00    -0.393 OA
HETATM   32  H29 UNL     1       1.112  49.994 -25.889  1.00  0.00     0.210 HD
ENDBRANCH   5  31
BRANCH   6  33
HETATM   33  O4  UNL     1       0.332  53.715 -27.146  1.00  0.00    -0.388 OA
HETATM   34  H33 UNL     1       1.194  54.134 -27.314  1.00  0.00     0.210 HD
ENDBRANCH   6  33
TORSDOF 10
ENDMDL
MODEL 7
REMARK minimizedAffinity -8.41807365
REMARK  10 active torsions:
REMARK  status: ('A' for Active; 'I' for Inactive)
REMARK    1  A    between atoms: C3_3  and  C5_5 
REMARK    2  A    between atoms: C6_6  and  C7_7 
REMARK    3  A    between atoms: C8_8  and  C9_9 
REMARK    4  A    between atoms: C10_10  and  C12_12 
REMARK    5  A    between atoms: C12_12  and  O1_13 
REMARK    6  A    between atoms: C12_12  and  C13_14 
REMARK    7  A    between atoms: C13_14  and  C15_16 
REMARK    8  A    between atoms: C15_16  and  O2_17 
REMARK    9  A    between atoms: C18_20  and  O3_21 
REMARK   10  A    between atoms: C19_22  and  O4_24 
ROOT
HETATM    1  C5  UNL     1      -3.331  47.888 -22.047  1.00  0.00     0.058 C 
HETATM    2  C6  UNL     1      -2.090  48.553 -21.339  1.00  0.00     0.024 C 
HETATM    3  C16 UNL     1      -2.504  49.344 -20.064  1.00  0.00     0.003 C 
HETATM    4  C17 UNL     1      -1.354  50.166 -19.442  1.00  0.00     0.040 C 
HETATM    5  C18 UNL     1      -1.791  50.923 -18.177  1.00  0.00     0.152 C 
HETATM    6  C19 UNL     1      -2.467  49.999 -17.133  1.00  0.00     0.080 C 
HETATM    7  C20 UNL     1      -3.041  50.796 -15.958  1.00  0.00     0.048 C 
HETATM    8  C21 UNL     1      -3.575  49.146 -17.777  1.00  0.00     0.047 C 
HETATM    9  C22 UNL     1      -3.060  48.369 -19.002  1.00  0.00     0.025 C 
HETATM   10  C23 UNL     1      -4.123  47.465 -19.568  1.00  0.00     0.162 A 
HETATM   11  O5  UNL     1      -3.550  46.283 -20.162  1.00  0.00    -0.368 OA
HETATM   12  C24 UNL     1      -4.241  47.169 -21.052  1.00  0.00     0.092 A 
HETATM   13  C25 UNL     1      -5.497  46.538 -21.585  1.00  0.00     0.049 C 
ENDROOT
BRANCH   2  14
HETATM   14  C7  UNL     1      -1.265  49.379 -22.311  1.00  0.00    -0.021 C 
HETATM   15  C8  UNL     1      -1.478  50.683 -22.547  1.00  0.00    -0.003 C 
BRANCH  15  16
HETATM   16  C9  UNL     1      -0.676  51.449 -23.474  1.00  0.00     0.005 C 
HETATM   17  C10 UNL     1      -0.804  51.450 -24.818  1.00  0.00    -0.055 C 
HETATM   18  C11 UNL     1      -1.825  50.607 -25.541  1.00  0.00     0.046 C 
BRANCH  17  19
HETATM   19  C12 UNL     1       0.128  52.303 -25.665  1.00  0.00     0.152 C 
BRANCH  19  20
HETATM   20  O1  UNL     1       0.902  53.152 -24.825  1.00  0.00    -0.391 OA
HETATM   21  H17 UNL     1       0.294  53.550 -24.181  1.00  0.00     0.210 HD
ENDBRANCH  19  20
BRANCH  19  22
HETATM   22  C13 UNL     1       0.996  51.521 -26.685  1.00  0.00     0.038 C 
HETATM   23  C14 UNL     1       0.830  52.118 -28.090  1.00  0.00     0.015 C 
BRANCH  22  24
HETATM   24  C15 UNL     1       2.488  51.390 -26.346  1.00  0.00     0.171 C 
BRANCH  24  25
HETATM   25  O2  UNL     1       3.322  51.543 -27.482  1.00  0.00    -0.400 OA
HETATM   26  H24 UNL     1       4.241  51.451 -27.184  1.00  0.00     0.209 HD
ENDBRANCH  24  25
ENDBRANCH  22  24
ENDBRANCH  19  22
ENDBRANCH  17  19
ENDBRANCH  15  16
ENDBRANCH   2  14
BRANCH   1  27
HETATM   27  C3  UNL     1      -4.102  48.821 -23.012  1.00  0.00    -0.080 C 
HETATM   28  C2  UNL     1      -4.702  49.930 -22.528  1.00  0.00    -0.028 C 
HETATM   29  C1  UNL     1      -5.518  50.937 -23.278  1.00  0.00     0.036 C 
HETATM   30  C4  UNL     1      -4.120  48.457 -24.473  1.00  0.00     0.043 C 
ENDBRANCH   1  27
BRANCH   5  31
HETATM   31  O3  UNL     1      -2.634  52.018 -18.543  1.00  0.00    -0.393 OA
HETATM   32  H29 UNL     1      -3.434  51.672 -18.969  1.00  0.00     0.210 HD
ENDBRANCH   5  31
BRANCH   6  33
HETATM   33  O4  UNL     1      -1.487  49.094 -16.604  1.00  0.00    -0.388 OA
HETATM   34  H33 UNL     1      -0.831  49.616 -16.110  1.00  0.00     0.210 HD
ENDBRANCH   6  33
TORSDOF 10
ENDMDL
MODEL 8
REMARK minimizedAffinity -8.14204979
REMARK  10 active torsions:
REMARK  status: ('A' for Active; 'I' for Inactive)
REMARK    1  A    between atoms: C3_3  and  C5_5 
REMARK    2  A    between atoms: C6_6  and  C7_7 
REMARK    3  A    between atoms: C8_8  and  C9_9 
REMARK    4  A    between atoms: C10_10  and  C12_12 
REMARK    5  A    between atoms: C12_12  and  O1_13 
REMARK    6  A    between atoms: C12_12  and  C13_14 
REMARK    7  A    between atoms: C13_14  and  C15_16 
REMARK    8  A    between atoms: C15_16  and  O2_17 
REMARK    9  A    between atoms: C18_20  and  O3_21 
REMARK   10  A    between atoms: C19_22  and  O4_24 
ROOT
HETATM    1  C5  UNL     1      -5.680  45.838 -30.948  1.00  0.00     0.058 C 
HETATM    2  C6  UNL     1      -6.234  46.609 -29.690  1.00  0.00     0.024 C 
HETATM    3  C16 UNL     1      -7.771  46.834 -29.777  1.00  0.00     0.003 C 
HETATM    4  C17 UNL     1      -8.332  47.746 -28.664  1.00  0.00     0.040 C 
HETATM    5  C18 UNL     1      -9.853  47.935 -28.769  1.00  0.00     0.152 C 
HETATM    6  C19 UNL     1     -10.617  46.590 -28.848  1.00  0.00     0.080 C 
HETATM    7  C20 UNL     1     -12.111  46.800 -29.118  1.00  0.00     0.048 C 
HETATM    8  C21 UNL     1     -10.016  45.668 -29.925  1.00  0.00     0.047 C 
HETATM    9  C22 UNL     1      -8.502  45.473 -29.730  1.00  0.00     0.025 C 
HETATM   10  C23 UNL     1      -7.939  44.496 -30.729  1.00  0.00     0.162 A 
HETATM   11  O5  UNL     1      -6.822  43.767 -30.183  1.00  0.00    -0.368 OA
HETATM   12  C24 UNL     1      -6.537  44.623 -31.298  1.00  0.00     0.092 A 
HETATM   13  C25 UNL     1      -6.156  43.826 -32.515  1.00  0.00     0.049 C 
ENDROOT
BRANCH   2  14
HETATM   14  C7  UNL     1      -5.459  47.890 -29.431  1.00  0.00    -0.021 C 
HETATM   15  C8  UNL     1      -4.668  48.077 -28.362  1.00  0.00    -0.003 C 
BRANCH  15  16
HETATM   16  C9  UNL     1      -3.937  49.305 -28.139  1.00  0.00     0.005 C 
HETATM   17  C10 UNL     1      -3.128  49.565 -27.092  1.00  0.00    -0.055 C 
HETATM   18  C11 UNL     1      -2.894  48.577 -25.975  1.00  0.00     0.046 C 
BRANCH  17  19
HETATM   19  C12 UNL     1      -2.434  50.915 -26.990  1.00  0.00     0.152 C 
BRANCH  19  20
HETATM   20  O1  UNL     1      -3.331  51.879 -26.451  1.00  0.00    -0.391 OA
HETATM   21  H17 UNL     1      -4.176  51.777 -26.918  1.00  0.00     0.210 HD
ENDBRANCH  19  20
BRANCH  19  22
HETATM   22  C13 UNL     1      -1.065  50.902 -26.262  1.00  0.00     0.038 C 
HETATM   23  C14 UNL     1       0.068  51.190 -27.257  1.00  0.00     0.015 C 
BRANCH  22  24
HETATM   24  C15 UNL     1      -0.937  51.826 -25.042  1.00  0.00     0.171 C 
BRANCH  24  25
HETATM   25  O2  UNL     1      -1.069  53.197 -25.380  1.00  0.00    -0.400 OA
HETATM   26  H24 UNL     1      -0.981  53.709 -24.560  1.00  0.00     0.209 HD
ENDBRANCH  24  25
ENDBRANCH  22  24
ENDBRANCH  19  22
ENDBRANCH  17  19
ENDBRANCH  15  16
ENDBRANCH   2  14
BRANCH   1  27
HETATM   27  C3  UNL     1      -5.367  46.734 -32.171  1.00  0.00    -0.080 C 
HETATM   28  C2  UNL     1      -4.096  46.837 -32.613  1.00  0.00    -0.028 C 
HETATM   29  C1  UNL     1      -3.580  47.668 -33.747  1.00  0.00     0.036 C 
HETATM   30  C4  UNL     1      -6.521  47.434 -32.839  1.00  0.00     0.043 C 
ENDBRANCH   1  27
BRANCH   5  31
HETATM   31  O3  UNL     1     -10.154  48.782 -29.880  1.00  0.00    -0.393 OA
HETATM   32  H29 UNL     1      -9.854  48.352 -30.697  1.00  0.00     0.210 HD
ENDBRANCH   5  31
BRANCH   6  33
HETATM   33  O4  UNL     1     -10.497  45.909 -27.590  1.00  0.00    -0.388 OA
HETATM   34  H33 UNL     1     -10.960  46.437 -26.917  1.00  0.00     0.210 HD
ENDBRANCH   6  33
TORSDOF 10
ENDMDL
MODEL 9
REMARK minimizedAffinity -8.11776829
REMARK  10 active torsions:
REMARK  status: ('A' for Active; 'I' for Inactive)
REMARK    1  A    between atoms: C3_3  and  C5_5 
REMARK    2  A    between atoms: C6_6  and  C7_7 
REMARK    3  A    between atoms: C8_8  and  C9_9 
REMARK    4  A    between atoms: C10_10  and  C12_12 
REMARK    5  A    between atoms: C12_12  and  O1_13 
REMARK    6  A    between atoms: C12_12  and  C13_14 
REMARK    7  A    between atoms: C13_14  and  C15_16 
REMARK    8  A    between atoms: C15_16  and  O2_17 
REMARK    9  A    between atoms: C18_20  and  O3_21 
REMARK   10  A    between atoms: C19_22  and  O4_24 
ROOT
HETATM    1  C5  UNL     1      -4.541  48.271 -24.067  1.00  0.00     0.058 C 
HETATM    2  C6  UNL     1      -3.773  48.709 -25.371  1.00  0.00     0.024 C 
HETATM    3  C16 UNL     1      -3.097  50.101 -25.207  1.00  0.00     0.003 C 
HETATM    4  C17 UNL     1      -2.492  50.657 -26.515  1.00  0.00     0.040 C 
HETATM    5  C18 UNL     1      -1.819  52.025 -26.316  1.00  0.00     0.152 C 
HETATM    6  C19 UNL     1      -0.786  52.019 -25.162  1.00  0.00     0.080 C 
HETATM    7  C20 UNL     1      -0.251  53.425 -24.873  1.00  0.00     0.048 C 
HETATM    8  C21 UNL     1      -1.385  51.414 -23.879  1.00  0.00     0.047 C 
HETATM    9  C22 UNL     1      -1.989  50.021 -24.133  1.00  0.00     0.025 C 
HETATM   10  C23 UNL     1      -2.487  49.396 -22.856  1.00  0.00     0.162 A 
HETATM   11  O5  UNL     1      -2.374  47.960 -22.892  1.00  0.00    -0.368 OA
HETATM   12  C24 UNL     1      -3.704  48.489 -22.808  1.00  0.00     0.092 A 
HETATM   13  C25 UNL     1      -4.337  48.167 -21.483  1.00  0.00     0.049 C 
ENDROOT
BRANCH   2  14
HETATM   14  C7  UNL     1      -4.659  48.618 -26.602  1.00  0.00    -0.021 C 
HETATM   15  C8  UNL     1      -4.254  48.102 -27.773  1.00  0.00    -0.003 C 
BRANCH  15  16
HETATM   16  C9  UNL     1      -5.118  48.023 -28.930  1.00  0.00     0.005 C 
HETATM   17  C10 UNL     1      -6.311  47.395 -28.986  1.00  0.00    -0.055 C 
HETATM   18  C11 UNL     1      -6.900  46.656 -27.809  1.00  0.00     0.046 C 
BRANCH  17  19
HETATM   19  C12 UNL     1      -7.101  47.388 -30.286  1.00  0.00     0.152 C 
BRANCH  19  20
HETATM   20  O1  UNL     1      -6.508  46.479 -31.206  1.00  0.00    -0.391 OA
HETATM   21  H17 UNL     1      -5.551  46.643 -31.195  1.00  0.00     0.210 HD
ENDBRANCH  19  20
BRANCH  19  22
HETATM   22  C13 UNL     1      -8.628  47.167 -30.130  1.00  0.00     0.038 C 
HETATM   23  C14 UNL     1      -8.900  45.950 -29.234  1.00  0.00     0.015 C 
BRANCH  22  24
HETATM   24  C15 UNL     1      -9.440  48.373 -29.634  1.00  0.00     0.171 C 
BRANCH  24  25
HETATM   25  O2  UNL     1      -8.618  49.416 -29.136  1.00  0.00    -0.400 OA
HETATM   26  H24 UNL     1      -9.203  50.136 -28.849  1.00  0.00     0.209 HD
ENDBRANCH  24  25
ENDBRANCH  22  24
ENDBRANCH  19  22
ENDBRANCH  17  19
ENDBRANCH  15  16
ENDBRANCH   2  14
BRANCH   1  27
HETATM   27  C3  UNL     1      -5.979  48.830 -23.944  1.00  0.00    -0.080 C 
HETATM   28  C2  UNL     1      -7.033  48.007 -24.135  1.00  0.00    -0.028 C 
HETATM   29  C1  UNL     1      -8.489  48.351 -24.096  1.00  0.00     0.036 C 
HETATM   30  C4  UNL     1      -6.137  50.283 -23.582  1.00  0.00     0.043 C 
ENDBRANCH   1  27
BRANCH   5  31
HETATM   31  O3  UNL     1      -2.821  53.027 -26.127  1.00  0.00    -0.393 OA
HETATM   32  H29 UNL     1      -3.322  52.826 -25.321  1.00  0.00     0.210 HD
ENDBRANCH   5  31
BRANCH   6  33
HETATM   33  O4  UNL     1       0.331  51.200 -25.537  1.00  0.00    -0.388 OA
HETATM   34  H33 UNL     1       0.777  51.626 -26.290  1.00  0.00     0.210 HD
ENDBRANCH   6  33
TORSDOF 10
ENDMDL
