MODEL 1
REMARK minimizedAffinity -7.29171133
REMARK  4 active torsions:
REMARK  status: ('A' for Active; 'I' for Inactive)
REMARK    1  A    between atoms: N1_5  and  C5_6 
REMARK    2  A    between atoms: C5_6  and  C6_7 
REMARK    3  A    between atoms: C6_7  and  N2_8 
REMARK    4  A    between atoms: N3_11  and  C9_12 
ROOT
HETATM    1  N2  UNL     1      -0.704  52.305 -22.286  1.00  0.00    -0.331 N 
HETATM    2  C7  UNL     1      -1.878  51.531 -21.982  1.00  0.00     0.148 C 
HETATM    3  C8  UNL     1      -1.855  51.437 -20.465  1.00  0.00     0.154 C 
HETATM    4  N3  UNL     1      -0.477  51.705 -20.108  1.00  0.00    -0.298 N 
HETATM    5  C15 UNL     1       0.202  52.273 -21.212  1.00  0.00     0.325 C 
HETATM    6  O1  UNL     1       1.354  52.666 -21.284  1.00  0.00    -0.247 OA
ENDROOT
BRANCH   1   7
HETATM    7  C6  UNL     1      -0.297  52.607 -23.650  1.00  0.00     0.158 C 
BRANCH   7   8
HETATM    8  C5  UNL     1      -1.421  52.378 -24.676  1.00  0.00     0.292 C 
BRANCH   8   9
HETATM    9  N1  UNL     1      -0.878  52.195 -26.030  1.00  0.00     0.091 N 
HETATM   10  C4  UNL     1       0.373  52.975 -26.193  1.00  0.00     0.283 C 
HETATM   11  C2  UNL     1       1.000  51.736 -26.893  1.00  0.00     0.005 C 
HETATM   12  C1  UNL     1       0.860  51.726 -28.415  1.00  0.00     0.018 C 
HETATM   13  C3  UNL     1       2.425  51.418 -26.456  1.00  0.00     0.018 C 
HETATM   14  C16 UNL     1      -0.099  50.938 -26.136  1.00  0.00     0.283 C 
ENDBRANCH   8   9
ENDBRANCH   7   8
ENDBRANCH   1   7
BRANCH   4  15
HETATM   15  C9  UNL     1       0.036  51.516 -18.797  1.00  0.00     0.040 A 
HETATM   16  C10 UNL     1       0.760  52.542 -18.162  1.00  0.00     0.030 A 
HETATM   17  C11 UNL     1       1.272  52.381 -16.869  1.00  0.00     0.004 A 
HETATM   18  C12 UNL     1       1.067  51.188 -16.184  1.00  0.00     0.024 A 
HETATM   19  C13 UNL     1       0.352  50.165 -16.796  1.00  0.00     0.036 A 
HETATM   20 CL1  UNL     1       0.092  48.689 -15.947  1.00  0.00    -0.084 Cl
HETATM   21  C14 UNL     1      -0.159  50.324 -18.089  1.00  0.00     0.053 A 
ENDBRANCH   4  15
TORSDOF 4
ENDMDL
MODEL 2
REMARK minimizedAffinity -7.09862232
REMARK  4 active torsions:
REMARK  status: ('A' for Active; 'I' for Inactive)
REMARK    1  A    between atoms: N1_5  and  C5_6 
REMARK    2  A    between atoms: C5_6  and  C6_7 
REMARK    3  A    between atoms: C6_7  and  N2_8 
REMARK    4  A    between atoms: N3_11  and  C9_12 
ROOT
HETATM    1  N2  UNL     1      -0.903  52.178 -22.378  1.00  0.00    -0.331 N 
HETATM    2  C7  UNL     1      -2.184  51.553 -22.185  1.00  0.00     0.148 C 
HETATM    3  C8  UNL     1      -2.234  51.311 -20.685  1.00  0.00     0.154 C 
HETATM    4  N3  UNL     1      -0.848  51.344 -20.268  1.00  0.00    -0.298 N 
HETATM    5  C15 UNL     1      -0.054  51.914 -21.291  1.00  0.00     0.325 C 
HETATM    6  O1  UNL     1       1.144  52.144 -21.293  1.00  0.00    -0.247 OA
ENDROOT
BRANCH   1   7
HETATM    7  C6  UNL     1      -0.404  52.549 -23.694  1.00  0.00     0.158 C 
BRANCH   7   8
HETATM    8  C5  UNL     1      -1.490  52.499 -24.784  1.00  0.00     0.292 C 
BRANCH   8   9
HETATM    9  N1  UNL     1      -0.901  52.284 -26.114  1.00  0.00     0.091 N 
HETATM   10  C4  UNL     1       0.381  53.018 -26.235  1.00  0.00     0.283 C 
HETATM   11  C2  UNL     1       0.991  51.751 -26.899  1.00  0.00     0.005 C 
HETATM   12  C1  UNL     1       0.910  51.731 -28.425  1.00  0.00     0.018 C 
HETATM   13  C3  UNL     1       2.386  51.387 -26.404  1.00  0.00     0.018 C 
HETATM   14  C16 UNL     1      -0.164  50.999 -26.179  1.00  0.00     0.283 C 
ENDBRANCH   8   9
ENDBRANCH   7   8
ENDBRANCH   1   7
BRANCH   4  15
HETATM   15  C9  UNL     1      -0.419  50.959 -18.969  1.00  0.00     0.040 A 
HETATM   16  C10 UNL     1      -0.716  49.676 -18.473  1.00  0.00     0.030 A 
HETATM   17  C11 UNL     1      -0.302  49.272 -17.199  1.00  0.00     0.004 A 
HETATM   18  C12 UNL     1       0.421  50.146 -16.395  1.00  0.00     0.024 A 
HETATM   19  C13 UNL     1       0.725  51.418 -16.869  1.00  0.00     0.036 A 
HETATM   20 CL1  UNL     1       1.625  52.499 -15.876  1.00  0.00    -0.084 Cl
HETATM   21  C14 UNL     1       0.310  51.823 -18.143  1.00  0.00     0.053 A 
ENDBRANCH   4  15
TORSDOF 4
ENDMDL
MODEL 3
REMARK minimizedAffinity -6.8052206
REMARK  4 active torsions:
REMARK  status: ('A' for Active; 'I' for Inactive)
REMARK    1  A    between atoms: N1_5  and  C5_6 
REMARK    2  A    between atoms: C5_6  and  C6_7 
REMARK    3  A    between atoms: C6_7  and  N2_8 
REMARK    4  A    between atoms: N3_11  and  C9_12 
ROOT
HETATM    1  N2  UNL     1      -2.656  50.398 -23.821  1.00  0.00    -0.331 N 
HETATM    2  C7  UNL     1      -2.865  49.318 -22.894  1.00  0.00     0.148 C 
HETATM    3  C8  UNL     1      -3.564  48.262 -23.734  1.00  0.00     0.154 C 
HETATM    4  N3  UNL     1      -4.117  48.999 -24.852  1.00  0.00    -0.298 N 
HETATM    5  C15 UNL     1      -3.525  50.282 -24.920  1.00  0.00     0.325 C 
HETATM    6  O1  UNL     1      -3.703  51.167 -25.740  1.00  0.00    -0.247 OA
ENDROOT
BRANCH   1   7
HETATM    7  C6  UNL     1      -2.048  51.660 -23.428  1.00  0.00     0.158 C 
BRANCH   7   8
HETATM    8  C5  UNL     1      -1.491  52.456 -24.622  1.00  0.00     0.292 C 
BRANCH   8   9
HETATM    9  N1  UNL     1      -0.122  52.034 -24.952  1.00  0.00     0.091 N 
HETATM   10  C4  UNL     1      -0.143  51.007 -26.021  1.00  0.00     0.283 C 
HETATM   11  C2  UNL     1       1.031  51.762 -26.707  1.00  0.00     0.005 C 
HETATM   12  C1  UNL     1       2.422  51.264 -26.317  1.00  0.00     0.018 C 
HETATM   13  C3  UNL     1       0.889  51.912 -28.217  1.00  0.00     0.018 C 
HETATM   14  C16 UNL     1       0.527  52.984 -25.888  1.00  0.00     0.283 C 
ENDBRANCH   8   9
ENDBRANCH   7   8
ENDBRANCH   1   7
BRANCH   4  15
HETATM   15  C9  UNL     1      -5.028  48.431 -25.782  1.00  0.00     0.040 A 
HETATM   16  C10 UNL     1      -6.286  47.967 -25.352  1.00  0.00     0.030 A 
HETATM   17  C11 UNL     1      -7.202  47.406 -26.250  1.00  0.00     0.004 A 
HETATM   18  C12 UNL     1      -6.877  47.299 -27.597  1.00  0.00     0.024 A 
HETATM   19  C13 UNL     1      -5.639  47.753 -28.039  1.00  0.00     0.036 A 
HETATM   20 CL1  UNL     1      -5.238  47.626 -29.709  1.00  0.00    -0.084 Cl
HETATM   21  C14 UNL     1      -4.722  48.313 -27.143  1.00  0.00     0.053 A 
ENDBRANCH   4  15
TORSDOF 4
ENDMDL
MODEL 4
REMARK minimizedAffinity -6.75086164
REMARK  4 active torsions:
REMARK  status: ('A' for Active; 'I' for Inactive)
REMARK    1  A    between atoms: N1_5  and  C5_6 
REMARK    2  A    between atoms: C5_6  and  C6_7 
REMARK    3  A    between atoms: C6_7  and  N2_8 
REMARK    4  A    between atoms: N3_11  and  C9_12 
ROOT
HETATM    1  N2  UNL     1       4.500  65.667 -36.234  1.00  0.00    -0.331 N 
HETATM    2  C7  UNL     1       3.698  65.402 -35.070  1.00  0.00     0.148 C 
HETATM    3  C8  UNL     1       4.537  64.411 -34.282  1.00  0.00     0.154 C 
HETATM    4  N3  UNL     1       5.442  63.845 -35.261  1.00  0.00    -0.298 N 
HETATM    5  C15 UNL     1       5.443  64.643 -36.429  1.00  0.00     0.325 C 
HETATM    6  O1  UNL     1       6.101  64.512 -37.447  1.00  0.00    -0.247 OA
ENDROOT
BRANCH   1   7
HETATM    7  C6  UNL     1       4.057  66.543 -37.307  1.00  0.00     0.158 C 
BRANCH   7   8
HETATM    8  C5  UNL     1       2.548  66.432 -37.590  1.00  0.00     0.292 C 
BRANCH   8   9
HETATM    9  N1  UNL     1       2.250  66.689 -39.006  1.00  0.00     0.091 N 
HETATM   10  C4  UNL     1       0.823  66.404 -39.292  1.00  0.00     0.283 C 
HETATM   11  C2  UNL     1       0.771  67.725 -40.111  1.00  0.00     0.005 C 
HETATM   12  C1  UNL     1       1.056  67.561 -41.603  1.00  0.00     0.018 C 
HETATM   13  C3  UNL     1      -0.473  68.572 -39.865  1.00  0.00     0.018 C 
HETATM   14  C16 UNL     1       2.004  68.131 -39.256  1.00  0.00     0.283 C 
ENDBRANCH   8   9
ENDBRANCH   7   8
ENDBRANCH   1   7
BRANCH   4  15
HETATM   15  C9  UNL     1       6.270  62.722 -34.995  1.00  0.00     0.040 A 
HETATM   16  C10 UNL     1       5.734  61.421 -35.022  1.00  0.00     0.030 A 
HETATM   17  C11 UNL     1       6.531  60.298 -34.767  1.00  0.00     0.004 A 
HETATM   18  C12 UNL     1       7.881  60.456 -34.479  1.00  0.00     0.024 A 
HETATM   19  C13 UNL     1       8.428  61.735 -34.448  1.00  0.00     0.036 A 
HETATM   20 CL1  UNL     1      10.102  61.932 -34.097  1.00  0.00    -0.084 Cl
HETATM   21  C14 UNL     1       7.633  62.858 -34.703  1.00  0.00     0.053 A 
ENDBRANCH   4  15
TORSDOF 4
ENDMDL
MODEL 5
REMARK minimizedAffinity -6.67633629
REMARK  4 active torsions:
REMARK  status: ('A' for Active; 'I' for Inactive)
REMARK    1  A    between atoms: N1_5  and  C5_6 
REMARK    2  A    between atoms: C5_6  and  C6_7 
REMARK    3  A    between atoms: C6_7  and  N2_8 
REMARK    4  A    between atoms: N3_11  and  C9_12 
ROOT
HETATM    1  N2  UNL     1      -2.727  50.638 -23.822  1.00  0.00    -0.331 N 
HETATM    2  C7  UNL     1      -2.284  49.338 -23.392  1.00  0.00     0.148 C 
HETATM    3  C8  UNL     1      -1.683  49.605 -22.023  1.00  0.00     0.154 C 
HETATM    4  N3  UNL     1      -1.391  51.024 -22.028  1.00  0.00    -0.298 N 
HETATM    5  C15 UNL     1      -2.067  51.648 -23.102  1.00  0.00     0.325 C 
HETATM    6  O1  UNL     1      -2.098  52.828 -23.406  1.00  0.00    -0.247 OA
ENDROOT
BRANCH   1   7
HETATM    7  C6  UNL     1      -3.334  50.867 -25.124  1.00  0.00     0.158 C 
BRANCH   7   8
HETATM    8  C5  UNL     1      -2.893  52.193 -25.767  1.00  0.00     0.292 C 
BRANCH   8   9
HETATM    9  N1  UNL     1      -1.890  51.969 -26.818  1.00  0.00     0.091 N 
HETATM   10  C4  UNL     1      -0.778  52.941 -26.684  1.00  0.00     0.283 C 
HETATM   11  C2  UNL     1       0.214  51.768 -26.928  1.00  0.00     0.005 C 
HETATM   12  C1  UNL     1       0.621  51.572 -28.389  1.00  0.00     0.018 C 
HETATM   13  C3  UNL     1       1.424  51.761 -26.001  1.00  0.00     0.018 C 
HETATM   14  C16 UNL     1      -0.963  50.869 -26.457  1.00  0.00     0.283 C 
ENDBRANCH   8   9
ENDBRANCH   7   8
ENDBRANCH   1   7
BRANCH   4  15
HETATM   15  C9  UNL     1      -0.629  51.663 -21.013  1.00  0.00     0.040 A 
HETATM   16  C10 UNL     1       0.194  52.760 -21.326  1.00  0.00     0.030 A 
HETATM   17  C11 UNL     1       0.952  53.408 -20.343  1.00  0.00     0.004 A 
HETATM   18  C12 UNL     1       0.900  52.970 -19.025  1.00  0.00     0.024 A 
HETATM   19  C13 UNL     1       0.091  51.887 -18.698  1.00  0.00     0.036 A 
HETATM   20 CL1  UNL     1       0.021  51.346 -17.064  1.00  0.00    -0.084 Cl
HETATM   21  C14 UNL     1      -0.666  51.238 -19.679  1.00  0.00     0.053 A 
ENDBRANCH   4  15
TORSDOF 4
ENDMDL
MODEL 6
REMARK minimizedAffinity -6.62972069
REMARK  4 active torsions:
REMARK  status: ('A' for Active; 'I' for Inactive)
REMARK    1  A    between atoms: N1_5  and  C5_6 
REMARK    2  A    between atoms: C5_6  and  C6_7 
REMARK    3  A    between atoms: C6_7  and  N2_8 
REMARK    4  A    between atoms: N3_11  and  C9_12 
ROOT
HETATM    1  N2  UNL     1       0.907  53.315 -21.094  1.00  0.00    -0.331 N 
HETATM    2  C7  UNL     1       1.530  54.396 -21.809  1.00  0.00     0.148 C 
HETATM    3  C8  UNL     1       1.079  54.176 -23.243  1.00  0.00     0.154 C 
HETATM    4  N3  UNL     1       0.692  52.781 -23.290  1.00  0.00    -0.298 N 
HETATM    5  C15 UNL     1       0.549  52.281 -21.974  1.00  0.00     0.325 C 
HETATM    6  O1  UNL     1       0.199  51.171 -21.610  1.00  0.00    -0.247 OA
ENDROOT
BRANCH   1   7
HETATM    7  C6  UNL     1       1.107  53.102 -19.669  1.00  0.00     0.158 C 
BRANCH   7   8
HETATM    8  C5  UNL     1      -0.179  52.673 -18.939  1.00  0.00     0.292 C 
BRANCH   8   9
HETATM    9  N1  UNL     1      -0.014  51.361 -18.296  1.00  0.00     0.091 N 
HETATM   10  C4  UNL     1       0.835  51.483 -17.087  1.00  0.00     0.283 C 
HETATM   11  C2  UNL     1      -0.176  50.567 -16.341  1.00  0.00     0.005 C 
HETATM   12  C1  UNL     1       0.166  49.078 -16.377  1.00  0.00     0.018 C 
HETATM   13  C3  UNL     1      -0.527  51.030 -14.932  1.00  0.00     0.018 C 
HETATM   14  C16 UNL     1      -1.177  51.028 -17.437  1.00  0.00     0.283 C 
ENDBRANCH   8   9
ENDBRANCH   7   8
ENDBRANCH   1   7
BRANCH   4  15
HETATM   15  C9  UNL     1       0.398  52.097 -24.499  1.00  0.00     0.040 A 
HETATM   16  C10 UNL     1       1.335  52.073 -25.549  1.00  0.00     0.030 A 
HETATM   17  C11 UNL     1       1.070  51.403 -26.749  1.00  0.00     0.004 A 
HETATM   18  C12 UNL     1      -0.140  50.741 -26.922  1.00  0.00     0.024 A 
HETATM   19  C13 UNL     1      -1.078  50.754 -25.895  1.00  0.00     0.036 A 
HETATM   20 CL1  UNL     1      -2.576  49.931 -26.106  1.00  0.00    -0.084 Cl
HETATM   21  C14 UNL     1      -0.815  51.424 -24.695  1.00  0.00     0.053 A 
ENDBRANCH   4  15
TORSDOF 4
ENDMDL
MODEL 7
REMARK minimizedAffinity -6.60090208
REMARK  4 active torsions:
REMARK  status: ('A' for Active; 'I' for Inactive)
REMARK    1  A    between atoms: N1_5  and  C5_6 
REMARK    2  A    between atoms: C5_6  and  C6_7 
REMARK    3  A    between atoms: C6_7  and  N2_8 
REMARK    4  A    between atoms: N3_11  and  C9_12 
ROOT
HETATM    1  N2  UNL     1      -3.160  51.358 -24.761  1.00  0.00    -0.331 N 
HETATM    2  C7  UNL     1      -3.211  49.978 -24.356  1.00  0.00     0.148 C 
HETATM    3  C8  UNL     1      -2.934  50.038 -22.863  1.00  0.00     0.154 C 
HETATM    4  N3  UNL     1      -2.278  51.315 -22.669  1.00  0.00    -0.298 N 
HETATM    5  C15 UNL     1      -2.459  52.125 -23.815  1.00  0.00     0.325 C 
HETATM    6  O1  UNL     1      -2.090  53.271 -24.009  1.00  0.00    -0.247 OA
ENDROOT
BRANCH   1   7
HETATM    7  C6  UNL     1      -3.325  51.774 -26.145  1.00  0.00     0.158 C 
BRANCH   7   8
HETATM    8  C5  UNL     1      -2.864  50.706 -27.153  1.00  0.00     0.292 C 
BRANCH   8   9
HETATM    9  N1  UNL     1      -1.528  51.014 -27.682  1.00  0.00     0.091 N 
HETATM   10  C4  UNL     1      -1.147  52.406 -27.344  1.00  0.00     0.283 C 
HETATM   11  C2  UNL     1       0.263  51.878 -26.954  1.00  0.00     0.005 C 
HETATM   12  C1  UNL     1       1.292  51.919 -28.083  1.00  0.00     0.018 C 
HETATM   13  C3  UNL     1       0.821  52.461 -25.661  1.00  0.00     0.018 C 
HETATM   14  C16 UNL     1      -0.459  50.511 -26.784  1.00  0.00     0.283 C 
ENDBRANCH   8   9
ENDBRANCH   7   8
ENDBRANCH   1   7
BRANCH   4  15
HETATM   15  C9  UNL     1      -1.660  51.691 -21.447  1.00  0.00     0.040 A 
HETATM   16  C10 UNL     1      -2.229  51.317 -20.216  1.00  0.00     0.030 A 
HETATM   17  C11 UNL     1      -1.637  51.673 -18.999  1.00  0.00     0.004 A 
HETATM   18  C12 UNL     1      -0.459  52.411 -18.990  1.00  0.00     0.024 A 
HETATM   19  C13 UNL     1       0.119  52.789 -20.197  1.00  0.00     0.036 A 
HETATM   20 CL1  UNL     1       1.581  53.699 -20.188  1.00  0.00    -0.084 Cl
HETATM   21  C14 UNL     1      -0.473  52.435 -21.414  1.00  0.00     0.053 A 
ENDBRANCH   4  15
TORSDOF 4
ENDMDL
MODEL 8
REMARK minimizedAffinity -6.46679974
REMARK  4 active torsions:
REMARK  status: ('A' for Active; 'I' for Inactive)
REMARK    1  A    between atoms: N1_5  and  C5_6 
REMARK    2  A    between atoms: C5_6  and  C6_7 
REMARK    3  A    between atoms: C6_7  and  N2_8 
REMARK    4  A    between atoms: N3_11  and  C9_12 
ROOT
HETATM    1  N2  UNL     1      -2.549  50.612 -22.425  1.00  0.00    -0.331 N 
HETATM    2  C7  UNL     1      -3.330  49.782 -23.302  1.00  0.00     0.148 C 
HETATM    3  C8  UNL     1      -2.557  49.826 -24.610  1.00  0.00     0.154 C 
HETATM    4  N3  UNL     1      -1.743  51.019 -24.508  1.00  0.00    -0.298 N 
HETATM    5  C15 UNL     1      -1.711  51.463 -23.165  1.00  0.00     0.325 C 
HETATM    6  O1  UNL     1      -1.104  52.405 -22.683  1.00  0.00    -0.247 OA
ENDROOT
BRANCH   1   7
HETATM    7  C6  UNL     1      -2.948  50.896 -21.055  1.00  0.00     0.158 C 
BRANCH   7   8
HETATM    8  C5  UNL     1      -2.605  49.756 -20.080  1.00  0.00     0.292 C 
BRANCH   8   9
HETATM    9  N1  UNL     1      -1.677  50.210 -19.034  1.00  0.00     0.091 N 
HETATM   10  C4  UNL     1      -0.324  50.421 -19.602  1.00  0.00     0.283 C 
HETATM   11  C2  UNL     1      -0.245  51.751 -18.800  1.00  0.00     0.005 C 
HETATM   12  C1  UNL     1       0.402  51.626 -17.421  1.00  0.00     0.018 C 
HETATM   13  C3  UNL     1       0.323  52.928 -19.585  1.00  0.00     0.018 C 
HETATM   14  C16 UNL     1      -1.798  51.669 -18.797  1.00  0.00     0.283 C 
ENDBRANCH   8   9
ENDBRANCH   7   8
ENDBRANCH   1   7
BRANCH   4  15
HETATM   15  C9  UNL     1      -1.012  51.556 -25.601  1.00  0.00     0.040 A 
HETATM   16  C10 UNL     1      -1.651  52.371 -26.553  1.00  0.00     0.030 A 
HETATM   17  C11 UNL     1      -0.951  52.913 -27.638  1.00  0.00     0.004 A 
HETATM   18  C12 UNL     1       0.405  52.651 -27.789  1.00  0.00     0.024 A 
HETATM   19  C13 UNL     1       1.054  51.849 -26.856  1.00  0.00     0.036 A 
HETATM   20 CL1  UNL     1       2.736  51.528 -27.040  1.00  0.00    -0.084 Cl
HETATM   21  C14 UNL     1       0.356  51.305 -25.773  1.00  0.00     0.053 A 
ENDBRANCH   4  15
TORSDOF 4
ENDMDL
MODEL 9
REMARK minimizedAffinity -6.32005119
REMARK  4 active torsions:
REMARK  status: ('A' for Active; 'I' for Inactive)
REMARK    1  A    between atoms: N1_5  and  C5_6 
REMARK    2  A    between atoms: C5_6  and  C6_7 
REMARK    3  A    between atoms: C6_7  and  N2_8 
REMARK    4  A    between atoms: N3_11  and  C9_12 
ROOT
HETATM    1  N2  UNL     1      -0.679  51.809 -21.499  1.00  0.00    -0.331 N 
HETATM    2  C7  UNL     1      -1.801  50.943 -21.743  1.00  0.00     0.148 C 
HETATM    3  C8  UNL     1      -1.569  50.458 -23.164  1.00  0.00     0.154 C 
HETATM    4  N3  UNL     1      -0.673  51.440 -23.739  1.00  0.00    -0.298 N 
HETATM    5  C15 UNL     1      -0.105  52.228 -22.711  1.00  0.00     0.325 C 
HETATM    6  O1  UNL     1       0.719  53.123 -22.798  1.00  0.00    -0.247 OA
ENDROOT
BRANCH   1   7
HETATM    7  C6  UNL     1      -0.513  52.543 -20.254  1.00  0.00     0.158 C 
BRANCH   7   8
HETATM    8  C5  UNL     1       0.362  51.800 -19.230  1.00  0.00     0.292 C 
BRANCH   8   9
HETATM    9  N1  UNL     1      -0.361  51.582 -17.968  1.00  0.00     0.091 N 
HETATM   10  C4  UNL     1      -0.863  50.189 -17.896  1.00  0.00     0.283 C 
HETATM   11  C2  UNL     1      -0.371  50.137 -16.422  1.00  0.00     0.005 C 
HETATM   12  C1  UNL     1      -1.425  50.523 -15.385  1.00  0.00     0.018 C 
HETATM   13  C3  UNL     1       0.347  48.848 -16.041  1.00  0.00     0.018 C 
HETATM   14  C16 UNL     1       0.571  51.296 -16.851  1.00  0.00     0.283 C 
ENDBRANCH   8   9
ENDBRANCH   7   8
ENDBRANCH   1   7
BRANCH   4  15
HETATM   15  C9  UNL     1      -0.357  51.486 -25.123  1.00  0.00     0.040 A 
HETATM   16  C10 UNL     1      -1.380  51.452 -26.088  1.00  0.00     0.030 A 
HETATM   17  C11 UNL     1      -1.094  51.500 -27.458  1.00  0.00     0.004 A 
HETATM   18  C12 UNL     1       0.225  51.583 -27.888  1.00  0.00     0.024 A 
HETATM   19  C13 UNL     1       1.249  51.617 -26.948  1.00  0.00     0.036 A 
HETATM   20 CL1  UNL     1       2.884  51.725 -27.481  1.00  0.00    -0.084 Cl
HETATM   21  C14 UNL     1       0.965  51.569 -25.580  1.00  0.00     0.053 A 
ENDBRANCH   4  15
TORSDOF 4
ENDMDL
