MODEL 1
REMARK minimizedAffinity -11.4701004
REMARK CNNscore 0.396970659
REMARK CNNaffinity 7.66871119
REMARK  10 active torsions:
REMARK  status: ('A' for Active; 'I' for Inactive)
REMARK    1  A    between atoms: O1_2  and  C2_3 
REMARK    2  A    between atoms: C4_5  and  O2_6 
REMARK    3  A    between atoms: O2_6  and  C5_7 
REMARK    4  A    between atoms: C8_10  and  C9_11 
REMARK    5  A    between atoms: N1_12  and  C10_14 
REMARK    6  A    between atoms: C10_14  and  C11_15 
REMARK    7  A    between atoms: C21_27  and  C22_28 
REMARK    8  A    between atoms: C28_36  and  O5_37 
REMARK    9  A    between atoms: C32_41  and  O6_42 
REMARK   10  A    between atoms: C36_47  and  O8_48 
ROOT
HETATM    1  C5  UNL     1      -5.236   6.348  14.898  1.00  0.00     0.127 C 
HETATM    2  C6  UNL     1      -5.620   7.704  14.325  1.00  0.00     0.033 C 
HETATM    3  C7  UNL     1      -7.016   7.783  13.708  1.00  0.00     0.021 C 
HETATM    4  C8  UNL     1      -8.046   6.710  14.191  1.00  0.00     0.026 C 
HETATM    5  C16 UNL     1      -9.504   7.322  14.019  1.00  0.00     0.009 C 
HETATM    6  C17 UNL     1     -10.495   6.524  13.153  1.00  0.00     0.007 C 
HETATM    7  C18 UNL     1     -11.777   7.327  12.904  1.00  0.00     0.013 C 
HETATM    8  C19 UNL     1     -12.508   7.753  14.206  1.00  0.00    -0.005 C 
HETATM    9  C20 UNL     1     -13.204   6.525  14.824  1.00  0.00     0.019 C 
HETATM   10  C21 UNL     1     -13.528   8.908  13.951  1.00  0.00     0.028 C 
HETATM   11  C26 UNL     1     -12.633  10.164  13.863  1.00  0.00     0.013 C 
HETATM   12  C27 UNL     1     -11.377   9.877  14.698  1.00  0.00     0.040 C 
HETATM   13  C28 UNL     1     -11.521   8.430  15.207  1.00  0.00     0.070 C 
HETATM   14  C29 UNL     1     -10.188   7.657  15.371  1.00  0.00     0.026 C 
HETATM   15  C30 UNL     1      -9.197   8.358  16.307  1.00  0.00     0.011 C 
HETATM   16  C31 UNL     1      -7.974   7.494  16.640  1.00  0.00     0.039 C 
HETATM   17  C32 UNL     1      -7.729   6.316  15.663  1.00  0.00     0.073 C 
HETATM   18  C33 UNL     1      -6.297   5.760  15.838  1.00  0.00     0.071 C 
ENDROOT
BRANCH   1  19
HETATM   19  O2  UNL     1      -4.022   6.546  15.631  1.00  0.00    -0.356 OA
BRANCH  19  20
HETATM   20  C4  UNL     1      -3.146   7.526  15.068  1.00  0.00     0.263 C 
HETATM   21  C3  UNL     1      -2.416   8.166  16.244  1.00  0.00     0.095 C 
HETATM   22  C2  UNL     1      -1.484   9.288  15.794  1.00  0.00     0.156 C 
HETATM   23  C36 UNL     1      -1.164   9.179  14.293  1.00  0.00     0.175 C 
HETATM   24  C34 UNL     1      -1.070   7.713  13.831  1.00  0.00     0.151 C 
HETATM   25  O7  UNL     1      -2.227   6.931  14.155  1.00  0.00    -0.354 OA
HETATM   26  C35 UNL     1       0.161   6.972  14.356  1.00  0.00     0.042 C 
BRANCH  22  27
HETATM   27  O1  UNL     1      -0.239   9.266  16.527  1.00  0.00    -0.388 OA
HETATM   28  C1  UNL     1      -0.100  10.358  17.430  1.00  0.00     0.202 C 
ENDBRANCH  22  27
BRANCH  23  29
HETATM   29  O8  UNL     1       0.006   9.936  13.978  1.00  0.00    -0.390 OA
HETATM   30  H50 UNL     1       0.633   9.752  14.706  1.00  0.00     0.210 HD
ENDBRANCH  23  29
ENDBRANCH  19  20
ENDBRANCH   1  19
BRANCH  17  31
HETATM   31  O6  UNL     1      -8.620   5.253  16.065  1.00  0.00    -0.389 OA
HETATM   32  H42 UNL     1      -8.413   5.026  16.991  1.00  0.00     0.210 HD
ENDBRANCH  17  31
BRANCH   4  33
HETATM   33  C9  UNL     1      -7.921   5.421  13.360  1.00  0.00     0.069 C 
HETATM   34  N1  UNL     1      -7.967   4.253  13.900  1.00  0.00    -0.397 N 
ATOM     35  H1  UNL     1      -8.086   4.120  14.904  1.00  0.00     0.159 HD
BRANCH  34  36
HETATM   36  C10 UNL     1      -7.836   3.131  12.970  1.00  0.00     0.158 C 
BRANCH  36  37
HETATM   37  C11 UNL     1      -6.433   3.014  12.449  1.00  0.00    -0.025 A 
HETATM   38  C12 UNL     1      -5.430   3.907  12.833  1.00  0.00     0.011 A 
HETATM   39  C13 UNL     1      -4.138   3.743  12.346  1.00  0.00     0.018 A 
HETATM   40  C14 UNL     1      -3.886   2.681  11.492  1.00  0.00     0.087 A 
HETATM   41  N2  UNL     1      -4.825   1.792  11.104  1.00  0.00    -0.375 N 
HETATM   42  C15 UNL     1      -6.071   1.972  11.600  1.00  0.00     0.096 A 
ATOM     43  H2  UNL     1      -4.607   1.024  10.470  1.00  0.00     0.164 HD
ENDBRANCH  36  37
ENDBRANCH  34  36
ENDBRANCH   4  33
BRANCH  13  44
HETATM   44  O5  UNL     1     -12.125   8.485  16.512  1.00  0.00    -0.389 OA
HETATM   45  H36 UNL     1     -12.752   9.226  16.550  1.00  0.00     0.210 HD
ENDBRANCH  13  44
BRANCH  10  46
HETATM   46  C22 UNL     1     -14.507   8.732  12.822  1.00  0.00    -0.045 A 
HETATM   47  C23 UNL     1     -15.211   9.655  12.164  1.00  0.00     0.087 A 
HETATM   48  C24 UNL     1     -16.058   8.958  11.199  1.00  0.00     0.283 A 
HETATM   49  O3  UNL     1     -16.804   9.503  10.411  1.00  0.00    -0.260 OA
HETATM   50  O4  UNL     1     -15.872   7.620  11.332  1.00  0.00    -0.314 OA
HETATM   51  C25 UNL     1     -14.883   7.378  12.333  1.00  0.00     0.213 A 
ENDBRANCH  10  46
TORSDOF 10
ENDMDL
MODEL 2
REMARK minimizedAffinity -9.37487698
REMARK CNNscore 0.360137641
REMARK CNNaffinity 7.00043821
REMARK  10 active torsions:
REMARK  status: ('A' for Active; 'I' for Inactive)
REMARK    1  A    between atoms: O1_2  and  C2_3 
REMARK    2  A    between atoms: C4_5  and  O2_6 
REMARK    3  A    between atoms: O2_6  and  C5_7 
REMARK    4  A    between atoms: C8_10  and  C9_11 
REMARK    5  A    between atoms: N1_12  and  C10_14 
REMARK    6  A    between atoms: C10_14  and  C11_15 
REMARK    7  A    between atoms: C21_27  and  C22_28 
REMARK    8  A    between atoms: C28_36  and  O5_37 
REMARK    9  A    between atoms: C32_41  and  O6_42 
REMARK   10  A    between atoms: C36_47  and  O8_48 
ROOT
HETATM    1  C5  UNL     1      -2.965   5.996  13.866  1.00  0.00     0.127 C 
HETATM    2  C6  UNL     1      -3.384   6.107  15.325  1.00  0.00     0.033 C 
HETATM    3  C7  UNL     1      -2.728   7.241  16.110  1.00  0.00     0.021 C 
HETATM    4  C8  UNL     1      -2.165   8.431  15.266  1.00  0.00     0.026 C 
HETATM    5  C16 UNL     1      -2.173   9.729  16.185  1.00  0.00     0.009 C 
HETATM    6  C17 UNL     1      -0.829  10.455  16.376  1.00  0.00     0.007 C 
HETATM    7  C18 UNL     1      -0.943  11.551  17.441  1.00  0.00     0.013 C 
HETATM    8  C19 UNL     1      -2.027  12.617  17.126  1.00  0.00    -0.005 C 
HETATM    9  C20 UNL     1      -1.521  13.538  16.000  1.00  0.00     0.019 C 
HETATM   10  C21 UNL     1      -2.420  13.440  18.394  1.00  0.00     0.028 C 
HETATM   11  C26 UNL     1      -3.365  12.488  19.161  1.00  0.00     0.013 C 
HETATM   12  C27 UNL     1      -4.013  11.566  18.120  1.00  0.00     0.040 C 
HETATM   13  C28 UNL     1      -3.386  11.943  16.764  1.00  0.00     0.070 C 
HETATM   14  C29 UNL     1      -3.241  10.771  15.760  1.00  0.00     0.026 C 
HETATM   15  C30 UNL     1      -4.571  10.073  15.453  1.00  0.00     0.011 C 
HETATM   16  C31 UNL     1      -4.466   9.062  14.304  1.00  0.00     0.039 C 
HETATM   17  C32 UNL     1      -3.022   8.601  13.978  1.00  0.00     0.073 C 
HETATM   18  C33 UNL     1      -3.049   7.325  13.104  1.00  0.00     0.071 C 
ENDROOT
BRANCH   1  19
HETATM   19  O2  UNL     1      -3.855   5.053  13.259  1.00  0.00    -0.356 OA
BRANCH  19  20
HETATM   20  C4  UNL     1      -5.221   5.471  13.221  1.00  0.00     0.263 C 
HETATM   21  C3  UNL     1      -6.006   4.296  12.646  1.00  0.00     0.095 C 
HETATM   22  C2  UNL     1      -7.488   4.625  12.485  1.00  0.00     0.156 C 
HETATM   23  C36 UNL     1      -7.889   5.834  13.350  1.00  0.00     0.175 C 
HETATM   24  C34 UNL     1      -7.115   5.868  14.681  1.00  0.00     0.151 C 
HETATM   25  O7  UNL     1      -5.691   5.815  14.522  1.00  0.00    -0.354 OA
HETATM   26  C35 UNL     1      -7.519   4.769  15.666  1.00  0.00     0.042 C 
BRANCH  22  27
HETATM   27  O1  UNL     1      -8.321   3.505  12.856  1.00  0.00    -0.388 OA
HETATM   28  C1  UNL     1      -7.637   2.257  12.812  1.00  0.00     0.202 C 
ENDBRANCH  22  27
BRANCH  23  29
HETATM   29  O8  UNL     1      -9.305   5.867  13.531  1.00  0.00    -0.390 OA
HETATM   30  H50 UNL     1      -9.564   4.940  13.700  1.00  0.00     0.210 HD
ENDBRANCH  23  29
ENDBRANCH  19  20
ENDBRANCH   1  19
BRANCH  17  31
HETATM   31  O6  UNL     1      -2.434   9.633  13.157  1.00  0.00    -0.389 OA
HETATM   32  H42 UNL     1      -2.989   9.732  12.360  1.00  0.00     0.210 HD
ENDBRANCH  17  31
BRANCH   4  33
HETATM   33  C9  UNL     1      -0.730   8.135  14.795  1.00  0.00     0.069 C 
HETATM   34  N1  UNL     1      -0.016   7.202  15.322  1.00  0.00    -0.397 N 
ATOM     35  H1  UNL     1      -0.362   6.612  16.079  1.00  0.00     0.159 HD
BRANCH  34  36
HETATM   36  C10 UNL     1       1.325   7.049  14.758  1.00  0.00     0.158 C 
BRANCH  36  37
HETATM   37  C11 UNL     1       1.272   6.481  13.369  1.00  0.00    -0.025 A 
HETATM   38  C12 UNL     1       0.516   5.346  13.069  1.00  0.00     0.011 A 
HETATM   39  C13 UNL     1       0.475   4.871  11.762  1.00  0.00     0.018 A 
HETATM   40  C14 UNL     1       1.189   5.555  10.791  1.00  0.00     0.087 A 
HETATM   41  N2  UNL     1       1.924   6.660  11.039  1.00  0.00    -0.375 N 
HETATM   42  C15 UNL     1       1.938   7.103  12.318  1.00  0.00     0.096 A 
ATOM     43  H2  UNL     1       2.442   7.137  10.301  1.00  0.00     0.164 HD
ENDBRANCH  36  37
ENDBRANCH  34  36
ENDBRANCH   4  33
BRANCH  13  44
HETATM   44  O5  UNL     1      -4.249  12.911  16.140  1.00  0.00    -0.389 OA
HETATM   45  H36 UNL     1      -4.652  13.475  16.820  1.00  0.00     0.210 HD
ENDBRANCH  13  44
BRANCH  10  46
HETATM   46  C22 UNL     1      -1.304  14.038  19.206  1.00  0.00    -0.045 A 
HETATM   47  C23 UNL     1      -0.041  13.625  19.335  1.00  0.00     0.087 A 
HETATM   48  C24 UNL     1       0.619  14.519  20.285  1.00  0.00     0.283 A 
HETATM   49  O3  UNL     1       1.788  14.447  20.606  1.00  0.00    -0.260 OA
HETATM   50  O4  UNL     1      -0.283  15.427  20.738  1.00  0.00    -0.314 OA
HETATM   51  C25 UNL     1      -1.536  15.211  20.091  1.00  0.00     0.213 A 
ENDBRANCH  10  46
TORSDOF 10
ENDMDL
MODEL 3
REMARK minimizedAffinity -10.2606726
REMARK CNNscore 0.344350368
REMARK CNNaffinity 7.23463964
REMARK  10 active torsions:
REMARK  status: ('A' for Active; 'I' for Inactive)
REMARK    1  A    between atoms: O1_2  and  C2_3 
REMARK    2  A    between atoms: C4_5  and  O2_6 
REMARK    3  A    between atoms: O2_6  and  C5_7 
REMARK    4  A    between atoms: C8_10  and  C9_11 
REMARK    5  A    between atoms: N1_12  and  C10_14 
REMARK    6  A    between atoms: C10_14  and  C11_15 
REMARK    7  A    between atoms: C21_27  and  C22_28 
REMARK    8  A    between atoms: C28_36  and  O5_37 
REMARK    9  A    between atoms: C32_41  and  O6_42 
REMARK   10  A    between atoms: C36_47  and  O8_48 
ROOT
HETATM    1  C5  UNL     1      -1.238   6.516  12.067  1.00  0.00     0.127 C 
HETATM    2  C6  UNL     1      -1.100   8.013  11.829  1.00  0.00     0.033 C 
HETATM    3  C7  UNL     1      -1.898   8.903  12.780  1.00  0.00     0.021 C 
HETATM    4  C8  UNL     1      -2.299   8.266  14.150  1.00  0.00     0.026 C 
HETATM    5  C16 UNL     1      -2.470   9.443  15.205  1.00  0.00     0.009 C 
HETATM    6  C17 UNL     1      -3.831   9.546  15.919  1.00  0.00     0.007 C 
HETATM    7  C18 UNL     1      -3.924  10.836  16.740  1.00  0.00     0.013 C 
HETATM    8  C19 UNL     1      -2.806  10.979  17.808  1.00  0.00    -0.005 C 
HETATM    9  C20 UNL     1      -3.098  10.021  18.979  1.00  0.00     0.019 C 
HETATM   10  C21 UNL     1      -2.661  12.451  18.308  1.00  0.00     0.028 C 
HETATM   11  C26 UNL     1      -1.872  13.140  17.173  1.00  0.00     0.013 C 
HETATM   12  C27 UNL     1      -1.035  12.051  16.486  1.00  0.00     0.040 C 
HETATM   13  C28 UNL     1      -1.399  10.727  17.183  1.00  0.00     0.070 C 
HETATM   14  C29 UNL     1      -1.347   9.472  16.275  1.00  0.00     0.026 C 
HETATM   15  C30 UNL     1       0.020   9.263  15.615  1.00  0.00     0.011 C 
HETATM   16  C31 UNL     1       0.138   7.913  14.895  1.00  0.00     0.039 C 
HETATM   17  C32 UNL     1      -1.217   7.231  14.575  1.00  0.00     0.073 C 
HETATM   18  C33 UNL     1      -1.020   6.108  13.530  1.00  0.00     0.071 C 
ENDROOT
BRANCH   1  19
HETATM   19  O2  UNL     1      -0.244   5.882  11.253  1.00  0.00    -0.356 OA
BRANCH  19  20
HETATM   20  C4  UNL     1       0.891   6.701  10.963  1.00  0.00     0.263 C 
HETATM   21  C3  UNL     1       2.090   5.759  10.917  1.00  0.00     0.095 C 
HETATM   22  C2  UNL     1       3.396   6.511  10.678  1.00  0.00     0.156 C 
HETATM   23  C36 UNL     1       3.136   7.910  10.090  1.00  0.00     0.175 C 
HETATM   24  C34 UNL     1       1.926   7.915   9.138  1.00  0.00     0.151 C 
HETATM   25  O7  UNL     1       0.728   7.386   9.724  1.00  0.00    -0.354 OA
HETATM   26  C35 UNL     1       2.167   7.181   7.818  1.00  0.00     0.042 C 
BRANCH  22  27
HETATM   27  O1  UNL     1       4.262   5.792   9.772  1.00  0.00    -0.388 OA
HETATM   28  C1  UNL     1       3.823   4.462   9.513  1.00  0.00     0.202 C 
ENDBRANCH  22  27
BRANCH  23  29
HETATM   29  O8  UNL     1       4.322   8.422   9.481  1.00  0.00    -0.390 OA
HETATM   30  H50 UNL     1       4.708   7.666   8.995  1.00  0.00     0.210 HD
ENDBRANCH  23  29
ENDBRANCH  19  20
ENDBRANCH   1  19
BRANCH  17  31
HETATM   31  O6  UNL     1      -1.647   6.574  15.787  1.00  0.00    -0.389 OA
HETATM   32  H42 UNL     1      -0.953   5.938  16.043  1.00  0.00     0.210 HD
ENDBRANCH  17  31
BRANCH   4  33
HETATM   33  C9  UNL     1      -3.619   7.485  14.023  1.00  0.00     0.069 C 
HETATM   34  N1  UNL     1      -3.652   6.198  13.999  1.00  0.00    -0.397 N 
ATOM     35  H1  UNL     1      -2.808   5.629  14.061  1.00  0.00     0.159 HD
BRANCH  34  36
HETATM   36  C10 UNL     1      -4.987   5.611  13.877  1.00  0.00     0.158 C 
BRANCH  36  37
HETATM   37  C11 UNL     1      -4.972   4.399  12.991  1.00  0.00    -0.025 A 
HETATM   38  C12 UNL     1      -3.776   3.820  12.559  1.00  0.00     0.011 A 
HETATM   39  C13 UNL     1      -3.811   2.681  11.762  1.00  0.00     0.018 A 
HETATM   40  C14 UNL     1      -5.046   2.149  11.428  1.00  0.00     0.087 A 
HETATM   41  N2  UNL     1      -6.222   2.673  11.831  1.00  0.00    -0.375 N 
HETATM   42  C15 UNL     1      -6.157   3.777  12.612  1.00  0.00     0.096 A 
ATOM     43  H2  UNL     1      -7.115   2.259  11.562  1.00  0.00     0.164 HD
ENDBRANCH  36  37
ENDBRANCH  34  36
ENDBRANCH   4  33
BRANCH  13  44
HETATM   44  O5  UNL     1      -0.440  10.510  18.235  1.00  0.00    -0.389 OA
HETATM   45  H36 UNL     1      -0.175  11.364  18.615  1.00  0.00     0.210 HD
ENDBRANCH  13  44
BRANCH  10  46
HETATM   46  C22 UNL     1      -3.913  13.160  18.748  1.00  0.00    -0.045 A 
HETATM   47  C23 UNL     1      -4.700  12.909  19.797  1.00  0.00     0.087 A 
HETATM   48  C24 UNL     1      -5.818  13.848  19.743  1.00  0.00     0.283 A 
HETATM   49  O3  UNL     1      -6.706  13.917  20.568  1.00  0.00    -0.260 OA
HETATM   50  O4  UNL     1      -5.697  14.617  18.630  1.00  0.00    -0.314 OA
HETATM   51  C25 UNL     1      -4.499  14.263  17.940  1.00  0.00     0.213 A 
ENDBRANCH  10  46
TORSDOF 10
ENDMDL
MODEL 4
REMARK minimizedAffinity -8.20296192
REMARK CNNscore 0.328002274
REMARK CNNaffinity 6.19822264
REMARK  10 active torsions:
REMARK  status: ('A' for Active; 'I' for Inactive)
REMARK    1  A    between atoms: O1_2  and  C2_3 
REMARK    2  A    between atoms: C4_5  and  O2_6 
REMARK    3  A    between atoms: O2_6  and  C5_7 
REMARK    4  A    between atoms: C8_10  and  C9_11 
REMARK    5  A    between atoms: N1_12  and  C10_14 
REMARK    6  A    between atoms: C10_14  and  C11_15 
REMARK    7  A    between atoms: C21_27  and  C22_28 
REMARK    8  A    between atoms: C28_36  and  O5_37 
REMARK    9  A    between atoms: C32_41  and  O6_42 
REMARK   10  A    between atoms: C36_47  and  O8_48 
ROOT
HETATM    1  C5  UNL     1     -10.025  -6.548  -3.636  1.00  0.00     0.127 C 
HETATM    2  C6  UNL     1      -8.652  -6.156  -3.109  1.00  0.00     0.033 C 
HETATM    3  C7  UNL     1      -8.188  -6.912  -1.865  1.00  0.00     0.021 C 
HETATM    4  C8  UNL     1      -8.866  -8.296  -1.604  1.00  0.00     0.026 C 
HETATM    5  C16 UNL     1      -7.850  -9.187  -0.765  1.00  0.00     0.009 C 
HETATM    6  C17 UNL     1      -8.357  -9.739   0.580  1.00  0.00     0.007 C 
HETATM    7  C18 UNL     1      -7.218 -10.394   1.370  1.00  0.00     0.013 C 
HETATM    8  C19 UNL     1      -6.514 -11.549   0.607  1.00  0.00    -0.005 C 
HETATM    9  C20 UNL     1      -7.434 -12.785   0.596  1.00  0.00     0.019 C 
HETATM   10  C21 UNL     1      -5.120 -11.890   1.223  1.00  0.00     0.028 C 
HETATM   11  C26 UNL     1      -4.204 -10.772   0.679  1.00  0.00     0.013 C 
HETATM   12  C27 UNL     1      -4.811 -10.304  -0.651  1.00  0.00     0.040 C 
HETATM   13  C28 UNL     1      -6.113 -11.106  -0.834  1.00  0.00     0.070 C 
HETATM   14  C29 UNL     1      -7.245 -10.358  -1.583  1.00  0.00     0.026 C 
HETATM   15  C30 UNL     1      -6.826  -9.871  -2.975  1.00  0.00     0.011 C 
HETATM   16  C31 UNL     1      -8.000  -9.326  -3.798  1.00  0.00     0.039 C 
HETATM   17  C32 UNL     1      -9.252  -8.947  -2.965  1.00  0.00     0.073 C 
HETATM   18  C33 UNL     1     -10.206  -8.062  -3.800  1.00  0.00     0.071 C 
ENDROOT
BRANCH   1  19
HETATM   19  O2  UNL     1     -10.164  -5.919  -4.914  1.00  0.00    -0.356 OA
BRANCH  19  20
HETATM   20  C4  UNL     1      -9.940  -4.507  -4.905  1.00  0.00     0.263 C 
HETATM   21  C3  UNL     1      -9.617  -4.122  -6.345  1.00  0.00     0.095 C 
HETATM   22  C2  UNL     1      -9.288  -2.637  -6.477  1.00  0.00     0.156 C 
HETATM   23  C36 UNL     1      -9.809  -1.840  -5.268  1.00  0.00     0.175 C 
HETATM   24  C34 UNL     1     -11.139  -2.407  -4.737  1.00  0.00     0.151 C 
HETATM   25  O7  UNL     1     -11.088  -3.807  -4.431  1.00  0.00    -0.354 OA
HETATM   26  C35 UNL     1     -12.332  -2.172  -5.666  1.00  0.00     0.042 C 
BRANCH  22  27
HETATM   27  O1  UNL     1      -9.865  -2.073  -7.675  1.00  0.00    -0.388 OA
HETATM   28  C1  UNL     1      -8.933  -1.321  -8.447  1.00  0.00     0.202 C 
ENDBRANCH  22  27
BRANCH  23  29
HETATM   29  O8  UNL     1      -9.887  -0.450  -5.585  1.00  0.00    -0.390 OA
HETATM   30  H50 UNL     1     -10.258  -0.413  -6.490  1.00  0.00     0.210 HD
ENDBRANCH  23  29
ENDBRANCH  19  20
ENDBRANCH   1  19
BRANCH  17  31
HETATM   31  O6  UNL     1      -9.968 -10.175  -2.711  1.00  0.00    -0.389 OA
HETATM   32  H42 UNL     1     -10.193 -10.571  -3.573  1.00  0.00     0.210 HD
ENDBRANCH  17  31
BRANCH   4  33
HETATM   33  C9  UNL     1     -10.178  -8.122  -0.819  1.00  0.00     0.069 C 
HETATM   34  N1  UNL     1     -10.317  -7.220   0.089  1.00  0.00    -0.397 N 
ATOM     35  H1  UNL     1      -9.566  -6.575   0.337  1.00  0.00     0.159 HD
BRANCH  34  36
HETATM   36  C10 UNL     1     -11.628  -7.186   0.738  1.00  0.00     0.158 C 
BRANCH  36  37
HETATM   37  C11 UNL     1     -11.714  -6.068   1.736  1.00  0.00    -0.025 A 
HETATM   38  C12 UNL     1     -12.277  -6.255   3.001  1.00  0.00     0.011 A 
HETATM   39  C13 UNL     1     -12.311  -5.197   3.903  1.00  0.00     0.018 A 
HETATM   40  C14 UNL     1     -11.771  -3.982   3.513  1.00  0.00     0.087 A 
HETATM   41  N2  UNL     1     -11.211  -3.764   2.304  1.00  0.00    -0.375 N 
HETATM   42  C15 UNL     1     -11.185  -4.814   1.450  1.00  0.00     0.096 A 
ATOM     43  H2  UNL     1     -10.827  -2.854   2.047  1.00  0.00     0.164 HD
ENDBRANCH  36  37
ENDBRANCH  34  36
ENDBRANCH   4  33
BRANCH  13  44
HETATM   44  O5  UNL     1      -5.801 -12.269  -1.622  1.00  0.00    -0.389 OA
HETATM   45  H36 UNL     1      -4.903 -12.575  -1.412  1.00  0.00     0.210 HD
ENDBRANCH  13  44
BRANCH  10  46
HETATM   46  C22 UNL     1      -5.055 -12.114   2.709  1.00  0.00    -0.045 A 
HETATM   47  C23 UNL     1      -5.535 -13.129   3.431  1.00  0.00     0.087 A 
HETATM   48  C24 UNL     1      -5.261 -12.839   4.837  1.00  0.00     0.283 A 
HETATM   49  O3  UNL     1      -5.536 -13.574   5.763  1.00  0.00    -0.260 OA
HETATM   50  O4  UNL     1      -4.656 -11.626   4.928  1.00  0.00    -0.314 OA
HETATM   51  C25 UNL     1      -4.465 -11.094   3.618  1.00  0.00     0.213 A 
ENDBRANCH  10  46
TORSDOF 10
ENDMDL
MODEL 5
REMARK minimizedAffinity -8.35042191
REMARK CNNscore 0.202021599
REMARK CNNaffinity 6.40168524
REMARK  10 active torsions:
REMARK  status: ('A' for Active; 'I' for Inactive)
REMARK    1  A    between atoms: O1_2  and  C2_3 
REMARK    2  A    between atoms: C4_5  and  O2_6 
REMARK    3  A    between atoms: O2_6  and  C5_7 
REMARK    4  A    between atoms: C8_10  and  C9_11 
REMARK    5  A    between atoms: N1_12  and  C10_14 
REMARK    6  A    between atoms: C10_14  and  C11_15 
REMARK    7  A    between atoms: C21_27  and  C22_28 
REMARK    8  A    between atoms: C28_36  and  O5_37 
REMARK    9  A    between atoms: C32_41  and  O6_42 
REMARK   10  A    between atoms: C36_47  and  O8_48 
ROOT
HETATM    1  C5  UNL     1      -1.036  12.555  18.681  1.00  0.00     0.127 C 
HETATM    2  C6  UNL     1      -1.200  11.122  19.167  1.00  0.00     0.033 C 
HETATM    3  C7  UNL     1      -2.258  10.298  18.433  1.00  0.00     0.021 C 
HETATM    4  C8  UNL     1      -2.641  10.788  16.999  1.00  0.00     0.026 C 
HETATM    5  C16 UNL     1      -3.161   9.530  16.176  1.00  0.00     0.009 C 
HETATM    6  C17 UNL     1      -4.574   9.630  15.571  1.00  0.00     0.007 C 
HETATM    7  C18 UNL     1      -5.020   8.282  14.994  1.00  0.00     0.013 C 
HETATM    8  C19 UNL     1      -4.066   7.724  13.903  1.00  0.00    -0.005 C 
HETATM    9  C20 UNL     1      -4.256   8.528  12.603  1.00  0.00     0.019 C 
HETATM   10  C21 UNL     1      -4.289   6.198  13.659  1.00  0.00     0.028 C 
HETATM   11  C26 UNL     1      -3.561   5.534  14.849  1.00  0.00     0.013 C 
HETATM   12  C27 UNL     1      -2.449   6.497  15.287  1.00  0.00     0.040 C 
HETATM   13  C28 UNL     1      -2.584   7.744  14.392  1.00  0.00     0.070 C 
HETATM   14  C29 UNL     1      -2.178   9.080  15.064  1.00  0.00     0.026 C 
HETATM   15  C30 UNL     1      -0.741   9.073  15.596  1.00  0.00     0.011 C 
HETATM   16  C31 UNL     1      -0.268  10.456  16.063  1.00  0.00     0.039 C 
HETATM   17  C32 UNL     1      -1.408  11.471  16.338  1.00  0.00     0.073 C 
HETATM   18  C33 UNL     1      -0.876  12.668  17.159  1.00  0.00     0.071 C 
ENDROOT
BRANCH   1  19
HETATM   19  O2  UNL     1       0.143  13.065  19.313  1.00  0.00    -0.356 OA
BRANCH  19  20
HETATM   20  C4  UNL     1       1.010  12.060  19.845  1.00  0.00     0.263 C 
HETATM   21  C3  UNL     1       2.138  11.896  18.831  1.00  0.00     0.095 C 
HETATM   22  C2  UNL     1       3.115  10.797  19.239  1.00  0.00     0.156 C 
HETATM   23  C36 UNL     1       2.995  10.472  20.739  1.00  0.00     0.175 C 
HETATM   24  C34 UNL     1       2.676  11.725  21.574  1.00  0.00     0.151 C 
HETATM   25  O7  UNL     1       1.518  12.440  21.121  1.00  0.00    -0.354 OA
HETATM   26  C35 UNL     1       3.833  12.721  21.673  1.00  0.00     0.042 C 
BRANCH  22  27
HETATM   27  O1  UNL     1       4.482  11.177  18.965  1.00  0.00    -0.388 OA
HETATM   28  C1  UNL     1       4.591  12.242  18.026  1.00  0.00     0.202 C 
ENDBRANCH  22  27
BRANCH  23  29
HETATM   29  O8  UNL     1       4.163   9.786  21.193  1.00  0.00    -0.390 OA
HETATM   30  H50 UNL     1       4.914  10.251  20.773  1.00  0.00     0.210 HD
ENDBRANCH  23  29
ENDBRANCH  19  20
ENDBRANCH   1  19
BRANCH  17  31
HETATM   31  O6  UNL     1      -1.801  12.009  15.058  1.00  0.00    -0.389 OA
HETATM   32  H42 UNL     1      -1.014  12.424  14.656  1.00  0.00     0.210 HD
ENDBRANCH  17  31
BRANCH   4  33
HETATM   33  C9  UNL     1      -3.745  11.859  17.065  1.00  0.00     0.069 C 
HETATM   34  N1  UNL     1      -4.165  12.473  16.014  1.00  0.00    -0.397 N 
ATOM     35  H1  UNL     1      -3.790  12.284  15.085  1.00  0.00     0.159 HD
BRANCH  34  36
HETATM   36  C10 UNL     1      -5.221  13.460  16.249  1.00  0.00     0.158 C 
BRANCH  36  37
HETATM   37  C11 UNL     1      -5.039  14.671  15.381  1.00  0.00    -0.025 A 
HETATM   38  C12 UNL     1      -5.877  15.783  15.489  1.00  0.00     0.011 A 
HETATM   39  C13 UNL     1      -5.654  16.894  14.683  1.00  0.00     0.018 A 
HETATM   40  C14 UNL     1      -4.591  16.861  13.796  1.00  0.00     0.087 A 
HETATM   41  N2  UNL     1      -3.754  15.809  13.667  1.00  0.00    -0.375 N 
HETATM   42  C15 UNL     1      -3.991  14.746  14.470  1.00  0.00     0.096 A 
ATOM     43  H2  UNL     1      -2.983  15.815  13.000  1.00  0.00     0.164 HD
ENDBRANCH  36  37
ENDBRANCH  34  36
ENDBRANCH   4  33
BRANCH  13  44
HETATM   44  O5  UNL     1      -1.707   7.569  13.265  1.00  0.00    -0.389 OA
HETATM   45  H36 UNL     1      -1.668   6.629  13.025  1.00  0.00     0.210 HD
ENDBRANCH  13  44
BRANCH  10  46
HETATM   46  C22 UNL     1      -5.700   5.733  13.423  1.00  0.00    -0.045 A 
HETATM   47  C23 UNL     1      -6.845   6.402  13.574  1.00  0.00     0.087 A 
HETATM   48  C24 UNL     1      -7.937   5.480  13.270  1.00  0.00     0.283 A 
HETATM   49  O3  UNL     1      -9.115   5.775  13.278  1.00  0.00    -0.260 OA
HETATM   50  O4  UNL     1      -7.419   4.258  12.984  1.00  0.00    -0.314 OA
HETATM   51  C25 UNL     1      -5.994   4.326  13.038  1.00  0.00     0.213 A 
ENDBRANCH  10  46
TORSDOF 10
ENDMDL
MODEL 6
REMARK minimizedAffinity -9.23015308
REMARK CNNscore 0.183924869
REMARK CNNaffinity 7.2726531
REMARK  10 active torsions:
REMARK  status: ('A' for Active; 'I' for Inactive)
REMARK    1  A    between atoms: O1_2  and  C2_3 
REMARK    2  A    between atoms: C4_5  and  O2_6 
REMARK    3  A    between atoms: O2_6  and  C5_7 
REMARK    4  A    between atoms: C8_10  and  C9_11 
REMARK    5  A    between atoms: N1_12  and  C10_14 
REMARK    6  A    between atoms: C10_14  and  C11_15 
REMARK    7  A    between atoms: C21_27  and  C22_28 
REMARK    8  A    between atoms: C28_36  and  O5_37 
REMARK    9  A    between atoms: C32_41  and  O6_42 
REMARK   10  A    between atoms: C36_47  and  O8_48 
ROOT
HETATM    1  C5  UNL     1      -7.883   7.272  16.019  1.00  0.00     0.127 C 
HETATM    2  C6  UNL     1      -6.744   6.611  16.782  1.00  0.00     0.033 C 
HETATM    3  C7  UNL     1      -5.514   6.258  15.947  1.00  0.00     0.021 C 
HETATM    4  C8  UNL     1      -5.331   7.057  14.616  1.00  0.00     0.026 C 
HETATM    5  C16 UNL     1      -3.779   7.082  14.270  1.00  0.00     0.009 C 
HETATM    6  C17 UNL     1      -3.363   6.524  12.897  1.00  0.00     0.007 C 
HETATM    7  C18 UNL     1      -1.838   6.417  12.787  1.00  0.00     0.013 C 
HETATM    8  C19 UNL     1      -1.100   7.766  13.004  1.00  0.00    -0.005 C 
HETATM    9  C20 UNL     1      -1.290   8.654  11.759  1.00  0.00     0.019 C 
HETATM   10  C21 UNL     1       0.415   7.558  13.321  1.00  0.00     0.028 C 
HETATM   11  C26 UNL     1       0.416   7.146  14.810  1.00  0.00     0.013 C 
HETATM   12  C27 UNL     1      -0.837   7.764  15.446  1.00  0.00     0.040 C 
HETATM   13  C28 UNL     1      -1.593   8.471  14.305  1.00  0.00     0.070 C 
HETATM   14  C29 UNL     1      -3.137   8.483  14.449  1.00  0.00     0.026 C 
HETATM   15  C30 UNL     1      -3.614   9.122  15.758  1.00  0.00     0.011 C 
HETATM   16  C31 UNL     1      -5.133   9.330  15.805  1.00  0.00     0.039 C 
HETATM   17  C32 UNL     1      -5.933   8.483  14.781  1.00  0.00     0.073 C 
HETATM   18  C33 UNL     1      -7.432   8.459  15.158  1.00  0.00     0.071 C 
ENDROOT
BRANCH   1  19
HETATM   19  O2  UNL     1      -8.815   7.735  17.003  1.00  0.00    -0.356 OA
BRANCH  19  20
HETATM   20  C4  UNL     1     -10.130   7.982  16.499  1.00  0.00     0.263 C 
HETATM   21  C3  UNL     1     -10.140   9.437  16.040  1.00  0.00     0.095 C 
HETATM   22  C2  UNL     1     -11.514   9.864  15.533  1.00  0.00     0.156 C 
HETATM   23  C36 UNL     1     -12.383   8.644  15.177  1.00  0.00     0.175 C 
HETATM   24  C34 UNL     1     -11.543   7.494  14.592  1.00  0.00     0.151 C 
HETATM   25  O7  UNL     1     -10.443   7.101  15.423  1.00  0.00    -0.354 OA
HETATM   26  C35 UNL     1     -10.997   7.772  13.190  1.00  0.00     0.042 C 
BRANCH  22  27
HETATM   27  O1  UNL     1     -11.408  10.703  14.362  1.00  0.00    -0.388 OA
HETATM   28  C1  UNL     1     -11.454  12.095  14.662  1.00  0.00     0.202 C 
ENDBRANCH  22  27
BRANCH  23  29
HETATM   29  O8  UNL     1     -13.461   9.033  14.325  1.00  0.00    -0.390 OA
HETATM   30  H50 UNL     1     -13.067   9.655  13.681  1.00  0.00     0.210 HD
ENDBRANCH  23  29
ENDBRANCH  19  20
ENDBRANCH   1  19
BRANCH  17  31
HETATM   31  O6  UNL     1      -5.852   9.176  13.517  1.00  0.00    -0.389 OA
HETATM   32  H42 UNL     1      -6.224  10.069  13.643  1.00  0.00     0.210 HD
ENDBRANCH  17  31
BRANCH   4  33
HETATM   33  C9  UNL     1      -6.110   6.390  13.468  1.00  0.00     0.069 C 
HETATM   34  N1  UNL     1      -6.776   5.302  13.636  1.00  0.00    -0.397 N 
ATOM     35  H1  UNL     1      -6.823   4.824  14.537  1.00  0.00     0.159 HD
BRANCH  34  36
HETATM   36  C10 UNL     1      -7.462   4.800  12.445  1.00  0.00     0.158 C 
BRANCH  36  37
HETATM   37  C11 UNL     1      -6.877   3.496  11.986  1.00  0.00    -0.025 A 
HETATM   38  C12 UNL     1      -5.735   3.445  11.183  1.00  0.00     0.011 A 
HETATM   39  C13 UNL     1      -5.213   2.213  10.805  1.00  0.00     0.018 A 
HETATM   40  C14 UNL     1      -5.847   1.065  11.251  1.00  0.00     0.087 A 
HETATM   41  N2  UNL     1      -6.947   1.071  12.034  1.00  0.00    -0.375 N 
HETATM   42  C15 UNL     1      -7.428   2.284  12.392  1.00  0.00     0.096 A 
ATOM     43  H2  UNL     1      -7.392   0.206  12.340  1.00  0.00     0.164 HD
ENDBRANCH  36  37
ENDBRANCH  34  36
ENDBRANCH   4  33
BRANCH  13  44
HETATM   44  O5  UNL     1      -1.174   9.847  14.292  1.00  0.00    -0.389 OA
HETATM   45  H36 UNL     1      -0.239   9.906  14.553  1.00  0.00     0.210 HD
ENDBRANCH  13  44
BRANCH  10  46
HETATM   46  C22 UNL     1       1.199   6.663  12.402  1.00  0.00    -0.045 A 
HETATM   47  C23 UNL     1       0.911   5.430  11.977  1.00  0.00     0.087 A 
HETATM   48  C24 UNL     1       2.026   4.979  11.147  1.00  0.00     0.283 A 
HETATM   49  O3  UNL     1       2.075   3.911  10.573  1.00  0.00    -0.260 OA
HETATM   50  O4  UNL     1       2.983   5.943  11.129  1.00  0.00    -0.314 OA
HETATM   51  C25 UNL     1       2.536   7.066  11.888  1.00  0.00     0.213 A 
ENDBRANCH  10  46
TORSDOF 10
ENDMDL
MODEL 7
REMARK minimizedAffinity -7.92437458
REMARK CNNscore 0.182128698
REMARK CNNaffinity 6.21777725
REMARK  10 active torsions:
REMARK  status: ('A' for Active; 'I' for Inactive)
REMARK    1  A    between atoms: O1_2  and  C2_3 
REMARK    2  A    between atoms: C4_5  and  O2_6 
REMARK    3  A    between atoms: O2_6  and  C5_7 
REMARK    4  A    between atoms: C8_10  and  C9_11 
REMARK    5  A    between atoms: N1_12  and  C10_14 
REMARK    6  A    between atoms: C10_14  and  C11_15 
REMARK    7  A    between atoms: C21_27  and  C22_28 
REMARK    8  A    between atoms: C28_36  and  O5_37 
REMARK    9  A    between atoms: C32_41  and  O6_42 
REMARK   10  A    between atoms: C36_47  and  O8_48 
ROOT
HETATM    1  C5  UNL     1      -2.985  11.526  17.197  1.00  0.00     0.127 C 
HETATM    2  C6  UNL     1      -3.706  10.963  15.980  1.00  0.00     0.033 C 
HETATM    3  C7  UNL     1      -2.803  10.522  14.830  1.00  0.00     0.021 C 
HETATM    4  C8  UNL     1      -1.321  10.191  15.203  1.00  0.00     0.026 C 
HETATM    5  C16 UNL     1      -0.768   9.152  14.133  1.00  0.00     0.009 C 
HETATM    6  C17 UNL     1       0.502   9.558  13.362  1.00  0.00     0.007 C 
HETATM    7  C18 UNL     1       0.795   8.567  12.229  1.00  0.00     0.013 C 
HETATM    8  C19 UNL     1       0.970   7.102  12.711  1.00  0.00    -0.005 C 
HETATM    9  C20 UNL     1       2.335   6.957  13.410  1.00  0.00     0.019 C 
HETATM   10  C21 UNL     1       0.827   6.081  11.537  1.00  0.00     0.028 C 
HETATM   11  C26 UNL     1      -0.700   5.988  11.327  1.00  0.00     0.013 C 
HETATM   12  C27 UNL     1      -1.359   6.321  12.673  1.00  0.00     0.040 C 
HETATM   13  C28 UNL     1      -0.210   6.672  13.637  1.00  0.00     0.070 C 
HETATM   14  C29 UNL     1      -0.559   7.729  14.715  1.00  0.00     0.026 C 
HETATM   15  C30 UNL     1      -1.758   7.330  15.583  1.00  0.00     0.011 C 
HETATM   16  C31 UNL     1      -1.968   8.265  16.782  1.00  0.00     0.039 C 
HETATM   17  C32 UNL     1      -1.265   9.641  16.659  1.00  0.00     0.073 C 
HETATM   18  C33 UNL     1      -1.841  10.634  17.695  1.00  0.00     0.071 C 
ENDROOT
BRANCH   1  19
HETATM   19  O2  UNL     1      -3.968  11.646  18.231  1.00  0.00    -0.356 OA
BRANCH  19  20
HETATM   20  C4  UNL     1      -4.330  12.992  18.548  1.00  0.00     0.263 C 
HETATM   21  C3  UNL     1      -4.880  12.957  19.971  1.00  0.00     0.095 C 
HETATM   22  C2  UNL     1      -5.371  14.329  20.425  1.00  0.00     0.156 C 
HETATM   23  C36 UNL     1      -4.776  15.452  19.556  1.00  0.00     0.175 C 
HETATM   24  C34 UNL     1      -3.337  15.131  19.111  1.00  0.00     0.151 C 
HETATM   25  O7  UNL     1      -3.205  13.863  18.453  1.00  0.00    -0.354 OA
HETATM   26  C35 UNL     1      -2.308  15.181  20.243  1.00  0.00     0.042 C 
BRANCH  22  27
HETATM   27  O1  UNL     1      -5.020  14.586  21.802  1.00  0.00    -0.388 OA
HETATM   28  C1  UNL     1      -6.045  14.222  22.721  1.00  0.00     0.202 C 
ENDBRANCH  22  27
BRANCH  23  29
HETATM   29  O8  UNL     1      -4.881  16.708  20.227  1.00  0.00    -0.390 OA
HETATM   30  H50 UNL     1      -4.640  16.524  21.156  1.00  0.00     0.210 HD
ENDBRANCH  23  29
ENDBRANCH  19  20
ENDBRANCH   1  19
BRANCH  17  31
HETATM   31  O6  UNL     1       0.115   9.436  17.029  1.00  0.00    -0.389 OA
HETATM   32  H42 UNL     1       0.129   9.083  17.939  1.00  0.00     0.210 HD
ENDBRANCH  17  31
BRANCH   4  33
HETATM   33  C9  UNL     1      -0.456  11.464  15.188  1.00  0.00     0.069 C 
HETATM   34  N1  UNL     1      -0.826  12.533  14.574  1.00  0.00    -0.397 N 
ATOM     35  H1  UNL     1      -1.708  12.593  14.064  1.00  0.00     0.159 HD
BRANCH  34  36
HETATM   36  C10 UNL     1       0.109  13.656  14.659  1.00  0.00     0.158 C 
BRANCH  36  37
HETATM   37  C11 UNL     1      -0.217  14.717  13.647  1.00  0.00    -0.025 A 
HETATM   38  C12 UNL     1       0.781  15.362  12.913  1.00  0.00     0.011 A 
HETATM   39  C13 UNL     1       0.430  16.319  11.967  1.00  0.00     0.018 A 
HETATM   40  C14 UNL     1      -0.915  16.596  11.778  1.00  0.00     0.087 A 
HETATM   41  N2  UNL     1      -1.908  15.989  12.461  1.00  0.00    -0.375 N 
HETATM   42  C15 UNL     1      -1.537  15.057  13.370  1.00  0.00     0.096 A 
ATOM     43  H2  UNL     1      -2.889  16.220  12.301  1.00  0.00     0.164 HD
ENDBRANCH  36  37
ENDBRANCH  34  36
ENDBRANCH   4  33
BRANCH  13  44
HETATM   44  O5  UNL     1       0.149   5.471  14.343  1.00  0.00    -0.389 OA
HETATM   45  H36 UNL     1       0.037   4.703  13.759  1.00  0.00     0.210 HD
ENDBRANCH  13  44
BRANCH  10  46
HETATM   46  C22 UNL     1       1.638   6.335  10.296  1.00  0.00    -0.045 A 
HETATM   47  C23 UNL     1       1.330   7.069   9.224  1.00  0.00     0.087 A 
HETATM   48  C24 UNL     1       2.433   6.942   8.273  1.00  0.00     0.283 A 
HETATM   49  O3  UNL     1       2.493   7.510   7.201  1.00  0.00    -0.260 OA
HETATM   50  O4  UNL     1       3.363   6.095   8.784  1.00  0.00    -0.314 OA
HETATM   51  C25 UNL     1       2.951   5.670  10.083  1.00  0.00     0.213 A 
ENDBRANCH  10  46
TORSDOF 10
ENDMDL
MODEL 8
REMARK minimizedAffinity -9.5579443
REMARK CNNscore 0.177769601
REMARK CNNaffinity 7.06532049
REMARK  10 active torsions:
REMARK  status: ('A' for Active; 'I' for Inactive)
REMARK    1  A    between atoms: O1_2  and  C2_3 
REMARK    2  A    between atoms: C4_5  and  O2_6 
REMARK    3  A    between atoms: O2_6  and  C5_7 
REMARK    4  A    between atoms: C8_10  and  C9_11 
REMARK    5  A    between atoms: N1_12  and  C10_14 
REMARK    6  A    between atoms: C10_14  and  C11_15 
REMARK    7  A    between atoms: C21_27  and  C22_28 
REMARK    8  A    between atoms: C28_36  and  O5_37 
REMARK    9  A    between atoms: C32_41  and  O6_42 
REMARK   10  A    between atoms: C36_47  and  O8_48 
ROOT
HETATM    1  C5  UNL     1      -1.081   5.613  12.384  1.00  0.00     0.127 C 
HETATM    2  C6  UNL     1      -0.669   7.012  11.948  1.00  0.00     0.033 C 
HETATM    3  C7  UNL     1      -1.477   8.154  12.562  1.00  0.00     0.021 C 
HETATM    4  C8  UNL     1      -2.216   7.835  13.902  1.00  0.00     0.026 C 
HETATM    5  C16 UNL     1      -2.389   9.199  14.701  1.00  0.00     0.009 C 
HETATM    6  C17 UNL     1      -3.823   9.599  15.094  1.00  0.00     0.007 C 
HETATM    7  C18 UNL     1      -3.860  11.020  15.665  1.00  0.00     0.013 C 
HETATM    8  C19 UNL     1      -2.947  11.219  16.905  1.00  0.00    -0.005 C 
HETATM    9  C20 UNL     1      -3.594  10.537  18.126  1.00  0.00     0.019 C 
HETATM   10  C21 UNL     1      -2.666  12.729  17.187  1.00  0.00     0.028 C 
HETATM   11  C26 UNL     1      -1.585  13.093  16.145  1.00  0.00     0.013 C 
HETATM   12  C27 UNL     1      -0.819  11.802  15.825  1.00  0.00     0.040 C 
HETATM   13  C28 UNL     1      -1.507  10.684  16.631  1.00  0.00     0.070 C 
HETATM   14  C29 UNL     1      -1.489   9.286  15.962  1.00  0.00     0.026 C 
HETATM   15  C30 UNL     1      -0.074   8.792  15.640  1.00  0.00     0.011 C 
HETATM   16  C31 UNL     1      -0.041   7.328  15.180  1.00  0.00     0.039 C 
HETATM   17  C32 UNL     1      -1.405   6.771  14.698  1.00  0.00     0.073 C 
HETATM   18  C33 UNL     1      -1.201   5.459  13.905  1.00  0.00     0.071 C 
ENDROOT
BRANCH   1  19
HETATM   19  O2  UNL     1      -0.069   4.723  11.902  1.00  0.00    -0.356 OA
BRANCH  19  20
HETATM   20  C4  UNL     1       1.101   5.375  11.403  1.00  0.00     0.263 C 
HETATM   21  C3  UNL     1       0.636   6.241  10.236  1.00  0.00     0.095 C 
HETATM   22  C2  UNL     1       1.802   6.954   9.556  1.00  0.00     0.156 C 
HETATM   23  C36 UNL     1       3.039   7.000  10.472  1.00  0.00     0.175 C 
HETATM   24  C34 UNL     1       2.649   7.157  11.953  1.00  0.00     0.151 C 
HETATM   25  O7  UNL     1       1.721   6.165  12.414  1.00  0.00    -0.354 OA
HETATM   26  C35 UNL     1       2.081   8.533  12.307  1.00  0.00     0.042 C 
BRANCH  22  27
HETATM   27  O1  UNL     1       1.454   8.308   9.193  1.00  0.00    -0.388 OA
HETATM   28  C1  UNL     1       0.114   8.439   8.730  1.00  0.00     0.202 C 
ENDBRANCH  22  27
BRANCH  23  29
HETATM   29  O8  UNL     1       3.948   8.009  10.028  1.00  0.00    -0.390 OA
HETATM   30  H50 UNL     1       3.387   8.775   9.794  1.00  0.00     0.210 HD
ENDBRANCH  23  29
ENDBRANCH  19  20
ENDBRANCH   1  19
BRANCH  17  31
HETATM   31  O6  UNL     1      -2.146   6.408  15.883  1.00  0.00    -0.389 OA
HETATM   32  H42 UNL     1      -1.619   5.749  16.373  1.00  0.00     0.210 HD
ENDBRANCH  17  31
BRANCH   4  33
HETATM   33  C9  UNL     1      -3.597   7.213  13.629  1.00  0.00     0.069 C 
HETATM   34  N1  UNL     1      -3.950   6.084  14.137  1.00  0.00    -0.397 N 
ATOM     35  H1  UNL     1      -3.335   5.542  14.744  1.00  0.00     0.159 HD
BRANCH  34  36
HETATM   36  C10 UNL     1      -5.296   5.634  13.781  1.00  0.00     0.158 C 
BRANCH  36  37
HETATM   37  C11 UNL     1      -5.253   4.389  12.945  1.00  0.00    -0.025 A 
HETATM   38  C12 UNL     1      -4.044   3.813  12.547  1.00  0.00     0.011 A 
HETATM   39  C13 UNL     1      -4.053   2.643  11.795  1.00  0.00     0.018 A 
HETATM   40  C14 UNL     1      -5.276   2.078  11.470  1.00  0.00     0.087 A 
HETATM   41  N2  UNL     1      -6.465   2.599  11.843  1.00  0.00    -0.375 N 
HETATM   42  C15 UNL     1      -6.424   3.733  12.580  1.00  0.00     0.096 A 
ATOM     43  H2  UNL     1      -7.348   2.160  11.582  1.00  0.00     0.164 HD
ENDBRANCH  36  37
ENDBRANCH  34  36
ENDBRANCH   4  33
BRANCH  13  44
HETATM   44  O5  UNL     1      -0.802  10.549  17.879  1.00  0.00    -0.389 OA
HETATM   45  H36 UNL     1      -0.479  11.419  18.166  1.00  0.00     0.210 HD
ENDBRANCH  13  44
BRANCH  10  46
HETATM   46  C22 UNL     1      -3.850  13.656  17.242  1.00  0.00    -0.045 A 
HETATM   47  C23 UNL     1      -4.765  13.799  18.204  1.00  0.00     0.087 A 
HETATM   48  C24 UNL     1      -5.736  14.788  17.743  1.00  0.00     0.283 A 
HETATM   49  O3  UNL     1      -6.686  15.181  18.390  1.00  0.00    -0.260 OA
HETATM   50  O4  UNL     1      -5.402  15.186  16.488  1.00  0.00    -0.314 OA
HETATM   51  C25 UNL     1      -4.199  14.530  16.090  1.00  0.00     0.213 A 
ENDBRANCH  10  46
TORSDOF 10
ENDMDL
MODEL 9
REMARK minimizedAffinity -9.93195534
REMARK CNNscore 0.170548826
REMARK CNNaffinity 6.6325984
REMARK  10 active torsions:
REMARK  status: ('A' for Active; 'I' for Inactive)
REMARK    1  A    between atoms: O1_2  and  C2_3 
REMARK    2  A    between atoms: C4_5  and  O2_6 
REMARK    3  A    between atoms: O2_6  and  C5_7 
REMARK    4  A    between atoms: C8_10  and  C9_11 
REMARK    5  A    between atoms: N1_12  and  C10_14 
REMARK    6  A    between atoms: C10_14  and  C11_15 
REMARK    7  A    between atoms: C21_27  and  C22_28 
REMARK    8  A    between atoms: C28_36  and  O5_37 
REMARK    9  A    between atoms: C32_41  and  O6_42 
REMARK   10  A    between atoms: C36_47  and  O8_48 
ROOT
HETATM    1  C5  UNL     1      -0.906   6.087  12.228  1.00  0.00     0.127 C 
HETATM    2  C6  UNL     1      -1.099   7.536  11.805  1.00  0.00     0.033 C 
HETATM    3  C7  UNL     1      -1.958   8.383  12.742  1.00  0.00     0.021 C 
HETATM    4  C8  UNL     1      -2.078   7.875  14.216  1.00  0.00     0.026 C 
HETATM    5  C16 UNL     1      -2.374   9.134  15.143  1.00  0.00     0.009 C 
HETATM    6  C17 UNL     1      -3.646   9.076  16.010  1.00  0.00     0.007 C 
HETATM    7  C18 UNL     1      -3.913  10.426  16.683  1.00  0.00     0.013 C 
HETATM    8  C19 UNL     1      -2.742  10.921  17.576  1.00  0.00    -0.005 C 
HETATM    9  C20 UNL     1      -2.712  10.095  18.876  1.00  0.00     0.019 C 
HETATM   10  C21 UNL     1      -2.847  12.449  17.882  1.00  0.00     0.028 C 
HETATM   11  C26 UNL     1      -2.336  13.111  16.583  1.00  0.00     0.013 C 
HETATM   12  C27 UNL     1      -1.372  12.115  15.923  1.00  0.00     0.040 C 
HETATM   13  C28 UNL     1      -1.386  10.854  16.808  1.00  0.00     0.070 C 
HETATM   14  C29 UNL     1      -1.176   9.518  16.050  1.00  0.00     0.026 C 
HETATM   15  C30 UNL     1       0.130   9.481  15.249  1.00  0.00     0.011 C 
HETATM   16  C31 UNL     1       0.444   8.091  14.678  1.00  0.00     0.039 C 
HETATM   17  C32 UNL     1      -0.771   7.130  14.614  1.00  0.00     0.073 C 
HETATM   18  C33 UNL     1      -0.461   5.932  13.687  1.00  0.00     0.071 C 
ENDROOT
BRANCH   1  19
HETATM   19  O2  UNL     1       0.105   5.545  11.371  1.00  0.00    -0.356 OA
BRANCH  19  20
HETATM   20  C4  UNL     1       1.030   6.511  10.866  1.00  0.00     0.263 C 
HETATM   21  C3  UNL     1       2.418   6.000  11.237  1.00  0.00     0.095 C 
HETATM   22  C2  UNL     1       3.515   6.973  10.813  1.00  0.00     0.156 C 
HETATM   23  C36 UNL     1       3.008   7.953   9.739  1.00  0.00     0.175 C 
HETATM   24  C34 UNL     1       2.001   7.286   8.785  1.00  0.00     0.151 C 
HETATM   25  O7  UNL     1       0.897   6.661   9.454  1.00  0.00    -0.354 OA
HETATM   26  C35 UNL     1       2.624   6.254   7.842  1.00  0.00     0.042 C 
BRANCH  22  27
HETATM   27  O1  UNL     1       4.665   6.276  10.285  1.00  0.00    -0.388 OA
HETATM   28  C1  UNL     1       5.799   6.330  11.145  1.00  0.00     0.202 C 
ENDBRANCH  22  27
BRANCH  23  29
HETATM   29  O8  UNL     1       4.109   8.551   9.054  1.00  0.00    -0.390 OA
HETATM   30  H50 UNL     1       4.743   7.822   8.901  1.00  0.00     0.210 HD
ENDBRANCH  23  29
ENDBRANCH  19  20
ENDBRANCH   1  19
BRANCH  17  31
HETATM   31  O6  UNL     1      -0.931   6.577  15.939  1.00  0.00    -0.389 OA
HETATM   32  H42 UNL     1      -0.101   6.123  16.174  1.00  0.00     0.210 HD
ENDBRANCH  17  31
BRANCH   4  33
HETATM   33  C9  UNL     1      -3.219   6.851  14.350  1.00  0.00     0.069 C 
HETATM   34  N1  UNL     1      -4.149   6.746  13.466  1.00  0.00    -0.397 N 
ATOM     35  H1  UNL     1      -4.181   7.335  12.634  1.00  0.00     0.159 HD
BRANCH  34  36
HETATM   36  C10 UNL     1      -5.157   5.720  13.741  1.00  0.00     0.158 C 
BRANCH  36  37
HETATM   37  C11 UNL     1      -6.252   6.251  14.619  1.00  0.00    -0.025 A 
HETATM   38  C12 UNL     1      -7.451   6.732  14.088  1.00  0.00     0.011 A 
HETATM   39  C13 UNL     1      -8.449   7.188  14.942  1.00  0.00     0.018 A 
HETATM   40  C14 UNL     1      -8.218   7.144  16.307  1.00  0.00     0.087 A 
HETATM   41  N2  UNL     1      -7.077   6.680  16.860  1.00  0.00    -0.375 N 
HETATM   42  C15 UNL     1      -6.127   6.235  16.004  1.00  0.00     0.096 A 
ATOM     43  H2  UNL     1      -6.937   6.666  17.870  1.00  0.00     0.164 HD
ENDBRANCH  36  37
ENDBRANCH  34  36
ENDBRANCH   4  33
BRANCH  13  44
HETATM   44  O5  UNL     1      -0.300  10.967  17.746  1.00  0.00    -0.389 OA
HETATM   45  H36 UNL     1      -0.174  11.900  17.988  1.00  0.00     0.210 HD
ENDBRANCH  13  44
BRANCH  10  46
HETATM   46  C22 UNL     1      -4.165  12.964  18.395  1.00  0.00    -0.045 A 
HETATM   47  C23 UNL     1      -4.671  12.903  19.629  1.00  0.00     0.087 A 
HETATM   48  C24 UNL     1      -6.006  13.496  19.586  1.00  0.00     0.283 A 
HETATM   49  O3  UNL     1      -6.734  13.633  20.547  1.00  0.00    -0.260 OA
HETATM   50  O4  UNL     1      -6.287  13.863  18.309  1.00  0.00    -0.314 OA
HETATM   51  C25 UNL     1      -5.162  13.579  17.478  1.00  0.00     0.213 A 
ENDBRANCH  10  46
TORSDOF 10
ENDMDL
