MODEL 1
REMARK minimizedAffinity -8.01758957
REMARK  18 active torsions:
REMARK  status: ('A' for Active; 'I' for Inactive)
REMARK    1  A    between atoms: C4_4  and  C5_5 
REMARK    2  A    between atoms: C5_5  and  C6_6 
REMARK    3  A    between atoms: C6_6  and  C7_7 
REMARK    4  A    between atoms: C9_9  and  C10_10 
REMARK    5  A    between atoms: C10_10  and  O1_11 
REMARK    6  A    between atoms: C10_10  and  C11_12 
REMARK    7  A    between atoms: C11_12  and  C12_13 
REMARK    8  A    between atoms: C14_15  and  C15_16 
REMARK    9  A    between atoms: C15_16  and  C16_17 
REMARK   10  A    between atoms: C16_17  and  C17_18 
REMARK   11  A    between atoms: C17_18  and  C18_19 
REMARK   12  A    between atoms: C18_19  and  O2_20 
REMARK   13  A    between atoms: C19_21  and  C20_22 
REMARK   14  A    between atoms: C20_22  and  C21_23 
REMARK   15  A    between atoms: C21_23  and  C22_24 
REMARK   16  A    between atoms: C22_24  and  O3_25 
REMARK   17  A    between atoms: C24_27  and  C26_29 
REMARK   18  A    between atoms: C29_33  and  O5_35 
ROOT
HETATM    1  C17 UNL     1      -1.148   6.640  13.203  1.00  0.00     0.019 C 
HETATM    2  C19 UNL     1      -0.491   6.330  11.765  1.00  0.00     0.029 C 
HETATM    3  C23 UNL     1       0.888   6.989  11.572  1.00  0.00    -0.066 C 
HETATM    4  C24 UNL     1       1.327   7.639  10.459  1.00  0.00    -0.021 C 
HETATM    5  C25 UNL     1       2.690   8.273  10.326  1.00  0.00     0.052 C 
HETATM    6  C27 UNL     1       1.698   6.987  12.846  1.00  0.00     0.038 C 
HETATM    7  C28 UNL     1       1.020   7.843  13.921  1.00  0.00     0.042 C 
HETATM    8  C29 UNL     1      -0.523   7.975  13.791  1.00  0.00     0.065 C 
HETATM    9  C30 UNL     1      -0.879   9.254  13.012  1.00  0.00     0.047 C 
ENDROOT
BRANCH   1  10
HETATM   10  C16 UNL     1      -2.727   6.703  13.119  1.00  0.00     0.019 C 
BRANCH  10  11
HETATM   11  C15 UNL     1      -3.414   8.066  12.922  1.00  0.00     0.028 C 
BRANCH  11  12
HETATM   12  C14 UNL     1      -4.826   8.036  13.444  1.00  0.00    -0.024 C 
HETATM   13  C12 UNL     1      -5.308   8.583  14.579  1.00  0.00    -0.085 C 
HETATM   14  C13 UNL     1      -4.478   9.307  15.605  1.00  0.00     0.043 C 
BRANCH  13  15
HETATM   15  C11 UNL     1      -6.794   8.479  14.905  1.00  0.00     0.069 C 
BRANCH  15  16
HETATM   16  C10 UNL     1      -7.115   7.568  16.110  1.00  0.00     0.145 C 
BRANCH  16  17
HETATM   17  C9  UNL     1      -7.011   6.115  15.730  1.00  0.00     0.007 C 
HETATM   18  C7  UNL     1      -7.560   5.491  14.667  1.00  0.00    -0.085 C 
HETATM   19  C8  UNL     1      -8.464   6.181  13.675  1.00  0.00     0.043 C 
BRANCH  18  20
HETATM   20  C6  UNL     1      -7.354   4.013  14.349  1.00  0.00     0.037 C 
BRANCH  20  21
HETATM   21  C5  UNL     1      -8.071   3.391  13.138  1.00  0.00     0.031 C 
BRANCH  21  22
HETATM   22  C4  UNL     1      -7.303   2.246  12.527  1.00  0.00    -0.024 C 
HETATM   23  C2  UNL     1      -6.195   2.302  11.761  1.00  0.00    -0.091 C 
HETATM   24  C1  UNL     1      -5.461   3.555  11.373  1.00  0.00     0.042 C 
HETATM   25  C3  UNL     1      -5.573   1.036  11.227  1.00  0.00     0.042 C 
ENDBRANCH  21  22
ENDBRANCH  20  21
ENDBRANCH  18  20
ENDBRANCH  16  17
BRANCH  16  26
HETATM   26  O1  UNL     1      -8.452   7.759  16.579  1.00  0.00    -0.391 OA
HETATM   27  H17 UNL     1      -8.926   8.307  15.930  1.00  0.00     0.210 HD
ENDBRANCH  16  26
ENDBRANCH  15  16
ENDBRANCH  13  15
ENDBRANCH  11  12
ENDBRANCH  10  11
ENDBRANCH   1  10
BRANCH   1  28
HETATM   28  C18 UNL     1      -0.865   5.475  14.235  1.00  0.00     0.177 C 
BRANCH  28  29
HETATM   29  O2  UNL     1      -0.918   5.913  15.590  1.00  0.00    -0.400 OA
HETATM   30  H30 UNL     1      -0.307   6.679  15.656  1.00  0.00     0.209 HD
ENDBRANCH  28  29
ENDBRANCH   1  28
BRANCH   2  31
HETATM   31  C20 UNL     1      -0.489   4.809  11.440  1.00  0.00     0.012 C 
BRANCH  31  32
HETATM   32  C21 UNL     1      -1.798   4.202  10.928  1.00  0.00     0.027 C 
BRANCH  32  33
HETATM   33  C22 UNL     1      -1.922   2.702  11.155  1.00  0.00     0.164 C 
BRANCH  33  34
HETATM   34  O3  UNL     1      -1.593   2.042   9.940  1.00  0.00    -0.401 OA
HETATM   35  H38 UNL     1      -1.679   1.085  10.096  1.00  0.00     0.209 HD
ENDBRANCH  33  34
ENDBRANCH  32  33
ENDBRANCH  31  32
ENDBRANCH   2  31
BRANCH   8  36
HETATM   36  O5  UNL     1      -0.994   8.198  15.138  1.00  0.00    -0.389 OA
HETATM   37  H50 UNL     1      -1.872   8.619  15.094  1.00  0.00     0.210 HD
ENDBRANCH   8  36
BRANCH   4  38
HETATM   38  C26 UNL     1       0.481   7.819   9.232  1.00  0.00     0.265 C 
HETATM   39  O4  UNL     1      -0.174   8.834   9.020  1.00  0.00    -0.302 OA
ENDBRANCH   4  38
TORSDOF 18
ENDMDL
MODEL 2
REMARK minimizedAffinity -7.8881402
REMARK  18 active torsions:
REMARK  status: ('A' for Active; 'I' for Inactive)
REMARK    1  A    between atoms: C4_4  and  C5_5 
REMARK    2  A    between atoms: C5_5  and  C6_6 
REMARK    3  A    between atoms: C6_6  and  C7_7 
REMARK    4  A    between atoms: C9_9  and  C10_10 
REMARK    5  A    between atoms: C10_10  and  O1_11 
REMARK    6  A    between atoms: C10_10  and  C11_12 
REMARK    7  A    between atoms: C11_12  and  C12_13 
REMARK    8  A    between atoms: C14_15  and  C15_16 
REMARK    9  A    between atoms: C15_16  and  C16_17 
REMARK   10  A    between atoms: C16_17  and  C17_18 
REMARK   11  A    between atoms: C17_18  and  C18_19 
REMARK   12  A    between atoms: C18_19  and  O2_20 
REMARK   13  A    between atoms: C19_21  and  C20_22 
REMARK   14  A    between atoms: C20_22  and  C21_23 
REMARK   15  A    between atoms: C21_23  and  C22_24 
REMARK   16  A    between atoms: C22_24  and  O3_25 
REMARK   17  A    between atoms: C24_27  and  C26_29 
REMARK   18  A    between atoms: C29_33  and  O5_35 
ROOT
HETATM    1  C17 UNL     1       1.461   7.359  12.084  1.00  0.00     0.019 C 
HETATM    2  C19 UNL     1       2.737   6.810  11.268  1.00  0.00     0.029 C 
HETATM    3  C23 UNL     1       2.545   6.854   9.739  1.00  0.00    -0.066 C 
HETATM    4  C24 UNL     1       2.879   5.877   8.853  1.00  0.00    -0.021 C 
HETATM    5  C25 UNL     1       2.664   5.971   7.362  1.00  0.00     0.052 C 
HETATM    6  C27 UNL     1       1.772   8.075   9.302  1.00  0.00     0.038 C 
HETATM    7  C28 UNL     1       0.345   8.041   9.858  1.00  0.00     0.042 C 
HETATM    8  C29 UNL     1       0.164   7.239  11.177  1.00  0.00     0.065 C 
HETATM    9  C30 UNL     1      -0.274   5.798  10.862  1.00  0.00     0.047 C 
ENDROOT
BRANCH   1  10
HETATM   10  C16 UNL     1       1.294   6.615  13.471  1.00  0.00     0.019 C 
BRANCH  10  11
HETATM   11  C15 UNL     1       0.268   5.476  13.592  1.00  0.00     0.028 C 
BRANCH  11  12
HETATM   12  C14 UNL     1      -0.899   5.894  14.448  1.00  0.00    -0.024 C 
HETATM   13  C12 UNL     1      -2.192   5.530  14.330  1.00  0.00    -0.085 C 
HETATM   14  C13 UNL     1      -2.742   4.647  13.243  1.00  0.00     0.043 C 
BRANCH  13  15
HETATM   15  C11 UNL     1      -3.221   6.032  15.338  1.00  0.00     0.069 C 
BRANCH  15  16
HETATM   16  C10 UNL     1      -4.150   7.140  14.795  1.00  0.00     0.145 C 
BRANCH  16  17
HETATM   17  C9  UNL     1      -5.503   6.583  14.438  1.00  0.00     0.007 C 
HETATM   18  C7  UNL     1      -6.704   7.189  14.535  1.00  0.00    -0.085 C 
HETATM   19  C8  UNL     1      -6.893   8.573  15.106  1.00  0.00     0.043 C 
BRANCH  18  20
HETATM   20  C6  UNL     1      -8.018   6.544  14.102  1.00  0.00     0.037 C 
BRANCH  20  21
HETATM   21  C5  UNL     1      -8.095   5.815  12.749  1.00  0.00     0.031 C 
BRANCH  21  22
HETATM   22  C4  UNL     1      -8.144   4.315  12.894  1.00  0.00    -0.024 C 
HETATM   23  C2  UNL     1      -7.190   3.416  12.580  1.00  0.00    -0.091 C 
HETATM   24  C1  UNL     1      -5.829   3.740  12.031  1.00  0.00     0.042 C 
HETATM   25  C3  UNL     1      -7.434   1.942  12.787  1.00  0.00     0.042 C 
ENDBRANCH  21  22
ENDBRANCH  20  21
ENDBRANCH  18  20
ENDBRANCH  16  17
BRANCH  16  26
HETATM   26  O1  UNL     1      -3.635   7.723  13.595  1.00  0.00    -0.391 OA
HETATM   27  H17 UNL     1      -2.888   7.179  13.290  1.00  0.00     0.210 HD
ENDBRANCH  16  26
ENDBRANCH  15  16
ENDBRANCH  13  15
ENDBRANCH  11  12
ENDBRANCH  10  11
ENDBRANCH   1  10
BRANCH   1  28
HETATM   28  C18 UNL     1       1.636   8.880  12.483  1.00  0.00     0.177 C 
BRANCH  28  29
HETATM   29  O2  UNL     1       0.583   9.357  13.315  1.00  0.00    -0.400 OA
HETATM   30  H30 UNL     1      -0.254   9.148  12.847  1.00  0.00     0.209 HD
ENDBRANCH  28  29
ENDBRANCH   1  28
BRANCH   2  31
HETATM   31  C20 UNL     1       4.060   7.480  11.734  1.00  0.00     0.012 C 
BRANCH  31  32
HETATM   32  C21 UNL     1       5.181   7.610  10.700  1.00  0.00     0.027 C 
BRANCH  32  33
HETATM   33  C22 UNL     1       6.449   6.844  11.052  1.00  0.00     0.164 C 
BRANCH  33  34
HETATM   34  O3  UNL     1       6.073   5.656  11.735  1.00  0.00    -0.401 OA
HETATM   35  H38 UNL     1       6.890   5.178  11.958  1.00  0.00     0.209 HD
ENDBRANCH  33  34
ENDBRANCH  32  33
ENDBRANCH  31  32
ENDBRANCH   2  31
BRANCH   8  36
HETATM   36  O5  UNL     1      -0.965   7.853  11.835  1.00  0.00    -0.389 OA
HETATM   37  H50 UNL     1      -1.341   7.214  12.469  1.00  0.00     0.210 HD
ENDBRANCH   8  36
BRANCH   4  38
HETATM   38  C26 UNL     1       3.488   4.569   9.269  1.00  0.00     0.265 C 
HETATM   39  O4  UNL     1       4.698   4.406   9.382  1.00  0.00    -0.302 OA
ENDBRANCH   4  38
TORSDOF 18
ENDMDL
MODEL 3
REMARK minimizedAffinity -7.84053564
REMARK  18 active torsions:
REMARK  status: ('A' for Active; 'I' for Inactive)
REMARK    1  A    between atoms: C4_4  and  C5_5 
REMARK    2  A    between atoms: C5_5  and  C6_6 
REMARK    3  A    between atoms: C6_6  and  C7_7 
REMARK    4  A    between atoms: C9_9  and  C10_10 
REMARK    5  A    between atoms: C10_10  and  O1_11 
REMARK    6  A    between atoms: C10_10  and  C11_12 
REMARK    7  A    between atoms: C11_12  and  C12_13 
REMARK    8  A    between atoms: C14_15  and  C15_16 
REMARK    9  A    between atoms: C15_16  and  C16_17 
REMARK   10  A    between atoms: C16_17  and  C17_18 
REMARK   11  A    between atoms: C17_18  and  C18_19 
REMARK   12  A    between atoms: C18_19  and  O2_20 
REMARK   13  A    between atoms: C19_21  and  C20_22 
REMARK   14  A    between atoms: C20_22  and  C21_23 
REMARK   15  A    between atoms: C21_23  and  C22_24 
REMARK   16  A    between atoms: C22_24  and  O3_25 
REMARK   17  A    between atoms: C24_27  and  C26_29 
REMARK   18  A    between atoms: C29_33  and  O5_35 
ROOT
HETATM    1  C17 UNL     1      -0.866   6.095  12.998  1.00  0.00     0.019 C 
HETATM    2  C19 UNL     1       0.131   5.600  11.833  1.00  0.00     0.029 C 
HETATM    3  C23 UNL     1       1.450   6.396  11.783  1.00  0.00    -0.066 C 
HETATM    4  C24 UNL     1       2.070   6.866  10.667  1.00  0.00    -0.021 C 
HETATM    5  C25 UNL     1       3.362   7.647  10.676  1.00  0.00     0.052 C 
HETATM    6  C27 UNL     1       1.940   6.762  13.163  1.00  0.00     0.038 C 
HETATM    7  C28 UNL     1       0.956   7.711  13.855  1.00  0.00     0.042 C 
HETATM    8  C29 UNL     1      -0.521   7.595  13.384  1.00  0.00     0.065 C 
HETATM    9  C30 UNL     1      -0.806   8.630  12.281  1.00  0.00     0.047 C 
ENDROOT
BRANCH   1  10
HETATM   10  C16 UNL     1      -2.382   5.916  12.580  1.00  0.00     0.019 C 
BRANCH  10  11
HETATM   11  C15 UNL     1      -3.298   5.032  13.443  1.00  0.00     0.028 C 
BRANCH  11  12
HETATM   12  C14 UNL     1      -4.593   4.744  12.730  1.00  0.00    -0.024 C 
HETATM   13  C12 UNL     1      -5.003   3.583  12.180  1.00  0.00    -0.085 C 
HETATM   14  C13 UNL     1      -4.184   2.321  12.124  1.00  0.00     0.043 C 
BRANCH  13  15
HETATM   15  C11 UNL     1      -6.384   3.486  11.540  1.00  0.00     0.069 C 
BRANCH  15  16
HETATM   16  C10 UNL     1      -7.515   3.129  12.529  1.00  0.00     0.145 C 
BRANCH  16  17
HETATM   17  C9  UNL     1      -7.284   3.777  13.869  1.00  0.00     0.007 C 
HETATM   18  C7  UNL     1      -7.795   4.937  14.332  1.00  0.00    -0.085 C 
HETATM   19  C8  UNL     1      -8.676   5.843  13.508  1.00  0.00     0.043 C 
BRANCH  18  20
HETATM   20  C6  UNL     1      -7.529   5.484  15.732  1.00  0.00     0.037 C 
BRANCH  20  21
HETATM   21  C5  UNL     1      -6.799   6.829  15.893  1.00  0.00     0.031 C 
BRANCH  21  22
HETATM   22  C4  UNL     1      -6.065   7.250  14.645  1.00  0.00    -0.024 C 
HETATM   23  C2  UNL     1      -5.193   8.266  14.494  1.00  0.00    -0.091 C 
HETATM   24  C1  UNL     1      -4.738   9.198  15.582  1.00  0.00     0.042 C 
HETATM   25  C3  UNL     1      -4.566   8.540  13.150  1.00  0.00     0.042 C 
ENDBRANCH  21  22
ENDBRANCH  20  21
ENDBRANCH  18  20
ENDBRANCH  16  17
BRANCH  16  26
HETATM   26  O1  UNL     1      -7.579   1.723  12.777  1.00  0.00    -0.391 OA
HETATM   27  H17 UNL     1      -6.786   1.310  12.393  1.00  0.00     0.210 HD
ENDBRANCH  16  26
ENDBRANCH  15  16
ENDBRANCH  13  15
ENDBRANCH  11  12
ENDBRANCH  10  11
ENDBRANCH   1  10
BRANCH   1  28
HETATM   28  C18 UNL     1      -0.720   5.211  14.302  1.00  0.00     0.177 C 
BRANCH  28  29
HETATM   29  O2  UNL     1      -0.769   5.982  15.499  1.00  0.00    -0.400 OA
HETATM   30  H30 UNL     1      -0.092   6.686  15.402  1.00  0.00     0.209 HD
ENDBRANCH  28  29
ENDBRANCH   1  28
BRANCH   2  31
HETATM   31  C20 UNL     1       0.350   4.061  11.867  1.00  0.00     0.012 C 
BRANCH  31  32
HETATM   32  C21 UNL     1      -0.797   3.180  11.365  1.00  0.00     0.027 C 
BRANCH  32  33
HETATM   33  C22 UNL     1      -0.384   1.758  11.012  1.00  0.00     0.164 C 
BRANCH  33  34
HETATM   34  O3  UNL     1      -1.002   1.411   9.781  1.00  0.00    -0.401 OA
HETATM   35  H38 UNL     1      -0.735   0.500   9.568  1.00  0.00     0.209 HD
ENDBRANCH  33  34
ENDBRANCH  32  33
ENDBRANCH  31  32
ENDBRANCH   2  31
BRANCH   8  36
HETATM   36  O5  UNL     1      -1.308   8.013  14.521  1.00  0.00    -0.389 OA
HETATM   37  H50 UNL     1      -2.189   8.289  14.204  1.00  0.00     0.210 HD
ENDBRANCH   8  36
BRANCH   4  38
HETATM   38  C26 UNL     1       1.517   6.677   9.284  1.00  0.00     0.265 C 
HETATM   39  O4  UNL     1       2.121   6.070   8.405  1.00  0.00    -0.302 OA
ENDBRANCH   4  38
TORSDOF 18
ENDMDL
MODEL 4
REMARK minimizedAffinity -7.75505733
REMARK  18 active torsions:
REMARK  status: ('A' for Active; 'I' for Inactive)
REMARK    1  A    between atoms: C4_4  and  C5_5 
REMARK    2  A    between atoms: C5_5  and  C6_6 
REMARK    3  A    between atoms: C6_6  and  C7_7 
REMARK    4  A    between atoms: C9_9  and  C10_10 
REMARK    5  A    between atoms: C10_10  and  O1_11 
REMARK    6  A    between atoms: C10_10  and  C11_12 
REMARK    7  A    between atoms: C11_12  and  C12_13 
REMARK    8  A    between atoms: C14_15  and  C15_16 
REMARK    9  A    between atoms: C15_16  and  C16_17 
REMARK   10  A    between atoms: C16_17  and  C17_18 
REMARK   11  A    between atoms: C17_18  and  C18_19 
REMARK   12  A    between atoms: C18_19  and  O2_20 
REMARK   13  A    between atoms: C19_21  and  C20_22 
REMARK   14  A    between atoms: C20_22  and  C21_23 
REMARK   15  A    between atoms: C21_23  and  C22_24 
REMARK   16  A    between atoms: C22_24  and  O3_25 
REMARK   17  A    between atoms: C24_27  and  C26_29 
REMARK   18  A    between atoms: C29_33  and  O5_35 
ROOT
HETATM    1  C17 UNL     1      -1.810   6.628  13.680  1.00  0.00     0.019 C 
HETATM    2  C19 UNL     1      -0.399   6.533  12.909  1.00  0.00     0.029 C 
HETATM    3  C23 UNL     1       0.583   7.654  13.299  1.00  0.00    -0.066 C 
HETATM    4  C24 UNL     1       1.363   8.378  12.450  1.00  0.00    -0.021 C 
HETATM    5  C25 UNL     1       2.307   9.472  12.886  1.00  0.00     0.052 C 
HETATM    6  C27 UNL     1       0.487   8.006  14.764  1.00  0.00     0.038 C 
HETATM    7  C28 UNL     1      -0.893   8.585  15.093  1.00  0.00     0.042 C 
HETATM    8  C29 UNL     1      -2.048   8.122  14.161  1.00  0.00     0.065 C 
HETATM    9  C30 UNL     1      -2.252   9.142  13.027  1.00  0.00     0.047 C 
ENDROOT
BRANCH   1  10
HETATM   10  C16 UNL     1      -3.000   6.090  12.785  1.00  0.00     0.019 C 
BRANCH  10  11
HETATM   11  C15 UNL     1      -3.072   4.589  12.458  1.00  0.00     0.028 C 
BRANCH  11  12
HETATM   12  C14 UNL     1      -4.427   4.028  12.801  1.00  0.00    -0.024 C 
HETATM   13  C12 UNL     1      -5.326   3.454  11.976  1.00  0.00    -0.085 C 
HETATM   14  C13 UNL     1      -5.159   3.312  10.487  1.00  0.00     0.043 C 
BRANCH  13  15
HETATM   15  C11 UNL     1      -6.633   2.903  12.536  1.00  0.00     0.069 C 
BRANCH  15  16
HETATM   16  C10 UNL     1      -7.655   3.989  12.940  1.00  0.00     0.145 C 
BRANCH  16  17
HETATM   17  C9  UNL     1      -7.388   4.490  14.334  1.00  0.00     0.007 C 
HETATM   18  C7  UNL     1      -6.931   5.702  14.710  1.00  0.00    -0.085 C 
HETATM   19  C8  UNL     1      -6.538   6.781  13.731  1.00  0.00     0.043 C 
BRANCH  18  20
HETATM   20  C6  UNL     1      -6.736   6.124  16.164  1.00  0.00     0.037 C 
BRANCH  20  21
HETATM   21  C5  UNL     1      -7.703   7.143  16.793  1.00  0.00     0.031 C 
BRANCH  21  22
HETATM   22  C4  UNL     1      -9.063   7.139  16.142  1.00  0.00    -0.024 C 
HETATM   23  C2  UNL     1      -9.685   8.152  15.507  1.00  0.00    -0.091 C 
HETATM   24  C1  UNL     1      -9.118   9.526  15.286  1.00  0.00     0.042 C 
HETATM   25  C3  UNL     1     -11.063   7.955  14.926  1.00  0.00     0.042 C 
ENDBRANCH  21  22
ENDBRANCH  20  21
ENDBRANCH  18  20
ENDBRANCH  16  17
BRANCH  16  26
HETATM   26  O1  UNL     1      -8.991   3.481  12.952  1.00  0.00    -0.391 OA
HETATM   27  H17 UNL     1      -8.949   2.513  12.863  1.00  0.00     0.210 HD
ENDBRANCH  16  26
ENDBRANCH  15  16
ENDBRANCH  13  15
ENDBRANCH  11  12
ENDBRANCH  10  11
ENDBRANCH   1  10
BRANCH   1  28
HETATM   28  C18 UNL     1      -1.839   5.696  14.958  1.00  0.00     0.177 C 
BRANCH  28  29
HETATM   29  O2  UNL     1      -3.094   5.723  15.633  1.00  0.00    -0.400 OA
HETATM   30  H30 UNL     1      -3.292   6.668  15.809  1.00  0.00     0.209 HD
ENDBRANCH  28  29
ENDBRANCH   1  28
BRANCH   2  31
HETATM   31  C20 UNL     1       0.226   5.113  13.012  1.00  0.00     0.012 C 
BRANCH  31  32
HETATM   32  C21 UNL     1       0.545   4.393  11.699  1.00  0.00     0.027 C 
BRANCH  32  33
HETATM   33  C22 UNL     1      -0.318   3.168  11.432  1.00  0.00     0.164 C 
BRANCH  33  34
HETATM   34  O3  UNL     1       0.526   2.122  10.974  1.00  0.00    -0.401 OA
HETATM   35  H38 UNL     1      -0.037   1.346  10.803  1.00  0.00     0.209 HD
ENDBRANCH  33  34
ENDBRANCH  32  33
ENDBRANCH  31  32
ENDBRANCH   2  31
BRANCH   8  36
HETATM   36  O5  UNL     1      -3.238   8.203  14.974  1.00  0.00    -0.389 OA
HETATM   37  H50 UNL     1      -4.014   8.262  14.386  1.00  0.00     0.210 HD
ENDBRANCH   8  36
BRANCH   4  38
HETATM   38  C26 UNL     1       1.355   8.180  10.962  1.00  0.00     0.265 C 
HETATM   39  O4  UNL     1       2.221   7.544  10.372  1.00  0.00    -0.302 OA
ENDBRANCH   4  38
TORSDOF 18
ENDMDL
MODEL 5
REMARK minimizedAffinity -7.74746418
REMARK  18 active torsions:
REMARK  status: ('A' for Active; 'I' for Inactive)
REMARK    1  A    between atoms: C4_4  and  C5_5 
REMARK    2  A    between atoms: C5_5  and  C6_6 
REMARK    3  A    between atoms: C6_6  and  C7_7 
REMARK    4  A    between atoms: C9_9  and  C10_10 
REMARK    5  A    between atoms: C10_10  and  O1_11 
REMARK    6  A    between atoms: C10_10  and  C11_12 
REMARK    7  A    between atoms: C11_12  and  C12_13 
REMARK    8  A    between atoms: C14_15  and  C15_16 
REMARK    9  A    between atoms: C15_16  and  C16_17 
REMARK   10  A    between atoms: C16_17  and  C17_18 
REMARK   11  A    between atoms: C17_18  and  C18_19 
REMARK   12  A    between atoms: C18_19  and  O2_20 
REMARK   13  A    between atoms: C19_21  and  C20_22 
REMARK   14  A    between atoms: C20_22  and  C21_23 
REMARK   15  A    between atoms: C21_23  and  C22_24 
REMARK   16  A    between atoms: C22_24  and  O3_25 
REMARK   17  A    between atoms: C24_27  and  C26_29 
REMARK   18  A    between atoms: C29_33  and  O5_35 
ROOT
HETATM    1  C17 UNL     1      -1.761   6.341  13.309  1.00  0.00     0.019 C 
HETATM    2  C19 UNL     1      -0.823   6.012  12.042  1.00  0.00     0.029 C 
HETATM    3  C23 UNL     1       0.455   6.872  11.993  1.00  0.00    -0.066 C 
HETATM    4  C24 UNL     1       0.981   7.479  10.894  1.00  0.00    -0.021 C 
HETATM    5  C25 UNL     1       2.237   8.316  10.904  1.00  0.00     0.052 C 
HETATM    6  C27 UNL     1       1.019   7.125  13.371  1.00  0.00     0.038 C 
HETATM    7  C28 UNL     1       0.043   7.952  14.213  1.00  0.00     0.042 C 
HETATM    8  C29 UNL     1      -1.455   7.811  13.824  1.00  0.00     0.065 C 
HETATM    9  C30 UNL     1      -1.855   8.934  12.850  1.00  0.00     0.047 C 
ENDROOT
BRANCH   1  10
HETATM   10  C16 UNL     1      -3.293   6.132  12.969  1.00  0.00     0.019 C 
BRANCH  10  11
HETATM   11  C15 UNL     1      -3.917   4.738  13.150  1.00  0.00     0.028 C 
BRANCH  11  12
HETATM   12  C14 UNL     1      -5.420   4.810  13.090  1.00  0.00    -0.024 C 
HETATM   13  C12 UNL     1      -6.269   3.993  12.434  1.00  0.00    -0.085 C 
HETATM   14  C13 UNL     1      -5.852   2.843  11.557  1.00  0.00     0.043 C 
BRANCH  13  15
HETATM   15  C11 UNL     1      -7.775   4.212  12.541  1.00  0.00     0.069 C 
BRANCH  15  16
HETATM   16  C10 UNL     1      -8.212   5.685  12.380  1.00  0.00     0.145 C 
BRANCH  16  17
HETATM   17  C9  UNL     1      -9.040   6.133  13.556  1.00  0.00     0.007 C 
HETATM   18  C7  UNL     1      -8.681   6.957  14.562  1.00  0.00    -0.085 C 
HETATM   19  C8  UNL     1      -7.297   7.539  14.704  1.00  0.00     0.043 C 
BRANCH  18  20
HETATM   20  C6  UNL     1      -9.620   7.382  15.687  1.00  0.00     0.037 C 
BRANCH  20  21
HETATM   21  C5  UNL     1     -10.746   8.389  15.395  1.00  0.00     0.031 C 
BRANCH  21  22
HETATM   22  C4  UNL     1     -11.951   7.749  14.750  1.00  0.00    -0.024 C 
HETATM   23  C2  UNL     1     -12.368   7.857  13.473  1.00  0.00    -0.091 C 
HETATM   24  C1  UNL     1     -11.679   8.640  12.391  1.00  0.00     0.042 C 
HETATM   25  C3  UNL     1     -13.616   7.145  13.016  1.00  0.00     0.042 C 
ENDBRANCH  21  22
ENDBRANCH  20  21
ENDBRANCH  18  20
ENDBRANCH  16  17
BRANCH  16  26
HETATM   26  O1  UNL     1      -9.032   5.873  11.225  1.00  0.00    -0.391 OA
HETATM   27  H17 UNL     1      -9.274   4.996  10.879  1.00  0.00     0.210 HD
ENDBRANCH  16  26
ENDBRANCH  15  16
ENDBRANCH  13  15
ENDBRANCH  11  12
ENDBRANCH  10  11
ENDBRANCH   1  10
BRANCH   1  28
HETATM   28  C18 UNL     1      -1.494   5.342  14.507  1.00  0.00     0.177 C 
BRANCH  28  29
HETATM   29  O2  UNL     1      -2.413   5.511  15.582  1.00  0.00    -0.400 OA
HETATM   30  H30 UNL     1      -2.382   6.461  15.825  1.00  0.00     0.209 HD
ENDBRANCH  28  29
ENDBRANCH   1  28
BRANCH   2  31
HETATM   31  C20 UNL     1      -0.537   4.490  11.908  1.00  0.00     0.012 C 
BRANCH  31  32
HETATM   32  C21 UNL     1      -1.481   3.677  11.017  1.00  0.00     0.027 C 
BRANCH  32  33
HETATM   33  C22 UNL     1      -1.291   2.170  11.116  1.00  0.00     0.164 C 
BRANCH  33  34
HETATM   34  O3  UNL     1       0.096   1.889  10.984  1.00  0.00    -0.401 OA
HETATM   35  H38 UNL     1       0.204   0.924  11.045  1.00  0.00     0.209 HD
ENDBRANCH  33  34
ENDBRANCH  32  33
ENDBRANCH  31  32
ENDBRANCH   2  31
BRANCH   8  36
HETATM   36  O5  UNL     1      -2.184   8.077  15.042  1.00  0.00    -0.389 OA
HETATM   37  H50 UNL     1      -3.094   8.340  14.810  1.00  0.00     0.210 HD
ENDBRANCH   8  36
BRANCH   4  38
HETATM   38  C26 UNL     1       0.348   7.399   9.535  1.00  0.00     0.265 C 
HETATM   39  O4  UNL     1       0.903   7.806   8.520  1.00  0.00    -0.302 OA
ENDBRANCH   4  38
TORSDOF 18
ENDMDL
MODEL 6
REMARK minimizedAffinity -7.60744095
REMARK  18 active torsions:
REMARK  status: ('A' for Active; 'I' for Inactive)
REMARK    1  A    between atoms: C4_4  and  C5_5 
REMARK    2  A    between atoms: C5_5  and  C6_6 
REMARK    3  A    between atoms: C6_6  and  C7_7 
REMARK    4  A    between atoms: C9_9  and  C10_10 
REMARK    5  A    between atoms: C10_10  and  O1_11 
REMARK    6  A    between atoms: C10_10  and  C11_12 
REMARK    7  A    between atoms: C11_12  and  C12_13 
REMARK    8  A    between atoms: C14_15  and  C15_16 
REMARK    9  A    between atoms: C15_16  and  C16_17 
REMARK   10  A    between atoms: C16_17  and  C17_18 
REMARK   11  A    between atoms: C17_18  and  C18_19 
REMARK   12  A    between atoms: C18_19  and  O2_20 
REMARK   13  A    between atoms: C19_21  and  C20_22 
REMARK   14  A    between atoms: C20_22  and  C21_23 
REMARK   15  A    between atoms: C21_23  and  C22_24 
REMARK   16  A    between atoms: C22_24  and  O3_25 
REMARK   17  A    between atoms: C24_27  and  C26_29 
REMARK   18  A    between atoms: C29_33  and  O5_35 
ROOT
HETATM    1  C17 UNL     1       2.029   7.435  11.530  1.00  0.00     0.019 C 
HETATM    2  C19 UNL     1       3.229   6.655  10.791  1.00  0.00     0.029 C 
HETATM    3  C23 UNL     1       2.993   6.467   9.280  1.00  0.00    -0.066 C 
HETATM    4  C24 UNL     1       3.218   5.335   8.560  1.00  0.00    -0.021 C 
HETATM    5  C25 UNL     1       2.964   5.204   7.078  1.00  0.00     0.052 C 
HETATM    6  C27 UNL     1       2.308   7.663   8.663  1.00  0.00     0.038 C 
HETATM    7  C28 UNL     1       0.901   7.842   9.243  1.00  0.00     0.042 C 
HETATM    8  C29 UNL     1       0.698   7.281  10.679  1.00  0.00     0.065 C 
HETATM    9  C30 UNL     1       0.134   5.851  10.612  1.00  0.00     0.047 C 
ENDROOT
BRANCH   1  10
HETATM   10  C16 UNL     1       1.846   6.943  13.023  1.00  0.00     0.019 C 
BRANCH  10  11
HETATM   11  C15 UNL     1       0.775   5.885  13.338  1.00  0.00     0.028 C 
BRANCH  11  12
HETATM   12  C14 UNL     1      -0.497   6.535  13.817  1.00  0.00    -0.024 C 
HETATM   13  C12 UNL     1      -0.706   7.217  14.961  1.00  0.00    -0.085 C 
HETATM   14  C13 UNL     1       0.322   7.417  16.043  1.00  0.00     0.043 C 
BRANCH  13  15
HETATM   15  C11 UNL     1      -2.068   7.842  15.240  1.00  0.00     0.069 C 
BRANCH  15  16
HETATM   16  C10 UNL     1      -3.119   6.850  15.785  1.00  0.00     0.145 C 
BRANCH  16  17
HETATM   17  C9  UNL     1      -3.441   5.790  14.765  1.00  0.00     0.007 C 
HETATM   18  C7  UNL     1      -4.014   5.947  13.554  1.00  0.00    -0.085 C 
HETATM   19  C8  UNL     1      -4.505   7.276  13.033  1.00  0.00     0.043 C 
BRANCH  18  20
HETATM   20  C6  UNL     1      -4.256   4.803  12.573  1.00  0.00     0.037 C 
BRANCH  20  21
HETATM   21  C5  UNL     1      -5.440   3.847  12.803  1.00  0.00     0.031 C 
BRANCH  21  22
HETATM   22  C4  UNL     1      -6.777   4.501  12.559  1.00  0.00    -0.024 C 
HETATM   23  C2  UNL     1      -7.618   5.038  13.465  1.00  0.00    -0.091 C 
HETATM   24  C1  UNL     1      -7.374   5.121  14.945  1.00  0.00     0.042 C 
HETATM   25  C3  UNL     1      -8.928   5.641  13.024  1.00  0.00     0.042 C 
ENDBRANCH  21  22
ENDBRANCH  20  21
ENDBRANCH  18  20
ENDBRANCH  16  17
BRANCH  16  26
HETATM   26  O1  UNL     1      -4.357   7.500  16.083  1.00  0.00    -0.391 OA
HETATM   27  H17 UNL     1      -4.322   8.402  15.721  1.00  0.00     0.210 HD
ENDBRANCH  16  26
ENDBRANCH  15  16
ENDBRANCH  13  15
ENDBRANCH  11  12
ENDBRANCH  10  11
ENDBRANCH   1  10
BRANCH   1  28
HETATM   28  C18 UNL     1       2.339   8.980  11.671  1.00  0.00     0.177 C 
BRANCH  28  29
HETATM   29  O2  UNL     1       1.528   9.619  12.652  1.00  0.00    -0.400 OA
HETATM   30  H30 UNL     1       0.598   9.406  12.422  1.00  0.00     0.209 HD
ENDBRANCH  28  29
ENDBRANCH   1  28
BRANCH   2  31
HETATM   31  C20 UNL     1       4.616   7.276  11.118  1.00  0.00     0.012 C 
BRANCH  31  32
HETATM   32  C21 UNL     1       5.012   7.367  12.594  1.00  0.00     0.027 C 
BRANCH  32  33
HETATM   33  C22 UNL     1       6.438   6.922  12.887  1.00  0.00     0.164 C 
BRANCH  33  34
HETATM   34  O3  UNL     1       6.484   6.431  14.220  1.00  0.00    -0.401 OA
HETATM   35  H38 UNL     1       7.400   6.154  14.397  1.00  0.00     0.209 HD
ENDBRANCH  33  34
ENDBRANCH  32  33
ENDBRANCH  31  32
ENDBRANCH   2  31
BRANCH   8  36
HETATM   36  O5  UNL     1      -0.356   8.088  11.248  1.00  0.00    -0.389 OA
HETATM   37  H50 UNL     1      -0.762   7.594  11.985  1.00  0.00     0.210 HD
ENDBRANCH   8  36
BRANCH   4  38
HETATM   38  C26 UNL     1       3.731   4.064   9.174  1.00  0.00     0.265 C 
HETATM   39  O4  UNL     1       4.874   3.655   8.996  1.00  0.00    -0.302 OA
ENDBRANCH   4  38
TORSDOF 18
ENDMDL
MODEL 7
REMARK minimizedAffinity -7.59272051
REMARK  18 active torsions:
REMARK  status: ('A' for Active; 'I' for Inactive)
REMARK    1  A    between atoms: C4_4  and  C5_5 
REMARK    2  A    between atoms: C5_5  and  C6_6 
REMARK    3  A    between atoms: C6_6  and  C7_7 
REMARK    4  A    between atoms: C9_9  and  C10_10 
REMARK    5  A    between atoms: C10_10  and  O1_11 
REMARK    6  A    between atoms: C10_10  and  C11_12 
REMARK    7  A    between atoms: C11_12  and  C12_13 
REMARK    8  A    between atoms: C14_15  and  C15_16 
REMARK    9  A    between atoms: C15_16  and  C16_17 
REMARK   10  A    between atoms: C16_17  and  C17_18 
REMARK   11  A    between atoms: C17_18  and  C18_19 
REMARK   12  A    between atoms: C18_19  and  O2_20 
REMARK   13  A    between atoms: C19_21  and  C20_22 
REMARK   14  A    between atoms: C20_22  and  C21_23 
REMARK   15  A    between atoms: C21_23  and  C22_24 
REMARK   16  A    between atoms: C22_24  and  O3_25 
REMARK   17  A    between atoms: C24_27  and  C26_29 
REMARK   18  A    between atoms: C29_33  and  O5_35 
ROOT
HETATM    1  C17 UNL     1       0.577   6.401  11.425  1.00  0.00     0.019 C 
HETATM    2  C19 UNL     1       1.518   6.096  10.154  1.00  0.00     0.029 C 
HETATM    3  C23 UNL     1       2.343   7.317   9.703  1.00  0.00    -0.066 C 
HETATM    4  C24 UNL     1       2.539   7.733   8.422  1.00  0.00    -0.021 C 
HETATM    5  C25 UNL     1       3.355   8.943   8.036  1.00  0.00     0.052 C 
HETATM    6  C27 UNL     1       2.812   8.146  10.875  1.00  0.00     0.038 C 
HETATM    7  C28 UNL     1       1.620   8.754  11.621  1.00  0.00     0.042 C 
HETATM    8  C29 UNL     1       0.289   7.959  11.507  1.00  0.00     0.065 C 
HETATM    9  C30 UNL     1      -0.564   8.521  10.355  1.00  0.00     0.047 C 
ENDROOT
BRANCH   1  10
HETATM   10  C16 UNL     1      -0.755   5.546  11.380  1.00  0.00     0.019 C 
BRANCH  10  11
HETATM   11  C15 UNL     1      -1.880   5.858  12.382  1.00  0.00     0.028 C 
BRANCH  11  12
HETATM   12  C14 UNL     1      -2.928   4.776  12.367  1.00  0.00    -0.024 C 
HETATM   13  C12 UNL     1      -4.066   4.707  13.087  1.00  0.00    -0.085 C 
HETATM   14  C13 UNL     1      -4.490   5.712  14.124  1.00  0.00     0.043 C 
BRANCH  13  15
HETATM   15  C11 UNL     1      -5.026   3.539  12.887  1.00  0.00     0.069 C 
BRANCH  15  16
HETATM   16  C10 UNL     1      -6.400   3.942  12.307  1.00  0.00     0.145 C 
BRANCH  16  17
HETATM   17  C9  UNL     1      -7.123   4.879  13.237  1.00  0.00     0.007 C 
HETATM   18  C7  UNL     1      -8.144   5.713  12.950  1.00  0.00    -0.085 C 
HETATM   19  C8  UNL     1      -8.706   5.890  11.561  1.00  0.00     0.043 C 
BRANCH  18  20
HETATM   20  C6  UNL     1      -8.838   6.594  13.986  1.00  0.00     0.037 C 
BRANCH  20  21
HETATM   21  C5  UNL     1     -10.375   6.661  14.015  1.00  0.00     0.031 C 
BRANCH  21  22
HETATM   22  C4  UNL     1     -10.903   8.066  13.868  1.00  0.00    -0.024 C 
HETATM   23  C2  UNL     1     -10.572   9.159  14.585  1.00  0.00    -0.091 C 
HETATM   24  C1  UNL     1      -9.557   9.204  15.693  1.00  0.00     0.042 C 
HETATM   25  C3  UNL     1     -11.224  10.487  14.294  1.00  0.00     0.042 C 
ENDBRANCH  21  22
ENDBRANCH  20  21
ENDBRANCH  18  20
ENDBRANCH  16  17
BRANCH  16  26
HETATM   26  O1  UNL     1      -7.258   2.811  12.140  1.00  0.00    -0.391 OA
HETATM   27  H17 UNL     1      -6.846   2.049  12.584  1.00  0.00     0.210 HD
ENDBRANCH  16  26
ENDBRANCH  15  16
ENDBRANCH  13  15
ENDBRANCH  11  12
ENDBRANCH  10  11
ENDBRANCH   1  10
BRANCH   1  28
HETATM   28  C18 UNL     1       1.268   5.962  12.780  1.00  0.00     0.177 C 
BRANCH  28  29
HETATM   29  O2  UNL     1       1.441   7.047  13.687  1.00  0.00    -0.400 OA
HETATM   30  H30 UNL     1       1.916   7.748  13.191  1.00  0.00     0.209 HD
ENDBRANCH  28  29
ENDBRANCH   1  28
BRANCH   2  31
HETATM   31  C20 UNL     1       2.383   4.820  10.362  1.00  0.00     0.012 C 
BRANCH  31  32
HETATM   32  C21 UNL     1       3.822   4.858   9.839  1.00  0.00     0.027 C 
BRANCH  32  33
HETATM   33  C22 UNL     1       4.189   3.691   8.934  1.00  0.00     0.164 C 
BRANCH  33  34
HETATM   34  O3  UNL     1       3.462   3.824   7.721  1.00  0.00    -0.401 OA
HETATM   35  H38 UNL     1       3.701   3.071   7.153  1.00  0.00     0.209 HD
ENDBRANCH  33  34
ENDBRANCH  32  33
ENDBRANCH  31  32
ENDBRANCH   2  31
BRANCH   8  36
HETATM   36  O5  UNL     1      -0.436   8.272  12.715  1.00  0.00    -0.389 OA
HETATM   37  H50 UNL     1      -1.384   8.098  12.563  1.00  0.00     0.210 HD
ENDBRANCH   8  36
BRANCH   4  38
HETATM   38  C26 UNL     1       1.938   7.036   7.236  1.00  0.00     0.265 C 
HETATM   39  O4  UNL     1       1.795   7.583   6.147  1.00  0.00    -0.302 OA
ENDBRANCH   4  38
TORSDOF 18
ENDMDL
MODEL 8
REMARK minimizedAffinity -7.51986408
REMARK  18 active torsions:
REMARK  status: ('A' for Active; 'I' for Inactive)
REMARK    1  A    between atoms: C4_4  and  C5_5 
REMARK    2  A    between atoms: C5_5  and  C6_6 
REMARK    3  A    between atoms: C6_6  and  C7_7 
REMARK    4  A    between atoms: C9_9  and  C10_10 
REMARK    5  A    between atoms: C10_10  and  O1_11 
REMARK    6  A    between atoms: C10_10  and  C11_12 
REMARK    7  A    between atoms: C11_12  and  C12_13 
REMARK    8  A    between atoms: C14_15  and  C15_16 
REMARK    9  A    between atoms: C15_16  and  C16_17 
REMARK   10  A    between atoms: C16_17  and  C17_18 
REMARK   11  A    between atoms: C17_18  and  C18_19 
REMARK   12  A    between atoms: C18_19  and  O2_20 
REMARK   13  A    between atoms: C19_21  and  C20_22 
REMARK   14  A    between atoms: C20_22  and  C21_23 
REMARK   15  A    between atoms: C21_23  and  C22_24 
REMARK   16  A    between atoms: C22_24  and  O3_25 
REMARK   17  A    between atoms: C24_27  and  C26_29 
REMARK   18  A    between atoms: C29_33  and  O5_35 
ROOT
HETATM    1  C17 UNL     1      -0.298   6.832  13.186  1.00  0.00     0.019 C 
HETATM    2  C19 UNL     1      -0.480   6.499  11.620  1.00  0.00     0.029 C 
HETATM    3  C23 UNL     1       0.853   6.459  10.849  1.00  0.00    -0.066 C 
HETATM    4  C24 UNL     1       1.099   7.006   9.627  1.00  0.00    -0.021 C 
HETATM    5  C25 UNL     1       2.429   6.941   8.917  1.00  0.00     0.052 C 
HETATM    6  C27 UNL     1       1.966   5.862  11.676  1.00  0.00     0.038 C 
HETATM    7  C28 UNL     1       2.265   6.740  12.896  1.00  0.00     0.042 C 
HETATM    8  C29 UNL     1       1.074   7.598  13.405  1.00  0.00     0.065 C 
HETATM    9  C30 UNL     1       1.135   9.006  12.787  1.00  0.00     0.047 C 
ENDROOT
BRANCH   1  10
HETATM   10  C16 UNL     1      -1.535   7.639  13.756  1.00  0.00     0.019 C 
BRANCH  10  11
HETATM   11  C15 UNL     1      -2.556   8.239  12.775  1.00  0.00     0.028 C 
BRANCH  11  12
HETATM   12  C14 UNL     1      -3.873   8.494  13.459  1.00  0.00    -0.024 C 
HETATM   13  C12 UNL     1      -4.832   7.603  13.782  1.00  0.00    -0.085 C 
HETATM   14  C13 UNL     1      -4.787   6.134  13.456  1.00  0.00     0.043 C 
BRANCH  13  15
HETATM   15  C11 UNL     1      -6.084   8.064  14.522  1.00  0.00     0.069 C 
BRANCH  15  16
HETATM   16  C10 UNL     1      -6.867   6.923  15.209  1.00  0.00     0.145 C 
BRANCH  16  17
HETATM   17  C9  UNL     1      -8.352   7.112  15.041  1.00  0.00     0.007 C 
HETATM   18  C7  UNL     1      -9.146   6.637  14.060  1.00  0.00    -0.085 C 
HETATM   19  C8  UNL     1      -8.628   5.851  12.880  1.00  0.00     0.043 C 
BRANCH  18  20
HETATM   20  C6  UNL     1     -10.656   6.853  14.009  1.00  0.00     0.037 C 
BRANCH  20  21
HETATM   21  C5  UNL     1     -11.305   7.367  12.712  1.00  0.00     0.031 C 
BRANCH  21  22
HETATM   22  C4  UNL     1     -12.668   7.970  12.939  1.00  0.00    -0.024 C 
HETATM   23  C2  UNL     1     -13.747   7.400  13.511  1.00  0.00    -0.091 C 
HETATM   24  C1  UNL     1     -13.802   6.010  14.082  1.00  0.00     0.042 C 
HETATM   25  C3  UNL     1     -15.038   8.168  13.637  1.00  0.00     0.042 C 
ENDBRANCH  21  22
ENDBRANCH  20  21
ENDBRANCH  18  20
ENDBRANCH  16  17
BRANCH  16  26
HETATM   26  O1  UNL     1      -6.630   6.891  16.618  1.00  0.00    -0.391 OA
HETATM   27  H17 UNL     1      -6.151   7.701  16.864  1.00  0.00     0.210 HD
ENDBRANCH  16  26
ENDBRANCH  15  16
ENDBRANCH  13  15
ENDBRANCH  11  12
ENDBRANCH  10  11
ENDBRANCH   1  10
BRANCH   1  28
HETATM   28  C18 UNL     1      -0.264   5.514  14.060  1.00  0.00     0.177 C 
BRANCH  28  29
HETATM   29  O2  UNL     1      -0.683   5.732  15.404  1.00  0.00    -0.400 OA
HETATM   30  H30 UNL     1      -0.132   6.468  15.748  1.00  0.00     0.209 HD
ENDBRANCH  28  29
ENDBRANCH   1  28
BRANCH   2  31
HETATM   31  C20 UNL     1      -1.355   5.234  11.390  1.00  0.00     0.012 C 
BRANCH  31  32
HETATM   32  C21 UNL     1      -0.635   3.883  11.364  1.00  0.00     0.027 C 
BRANCH  32  33
HETATM   33  C22 UNL     1      -1.553   2.691  11.134  1.00  0.00     0.164 C 
BRANCH  33  34
HETATM   34  O3  UNL     1      -2.182   2.853   9.870  1.00  0.00    -0.401 OA
HETATM   35  H38 UNL     1      -2.768   2.088   9.736  1.00  0.00     0.209 HD
ENDBRANCH  33  34
ENDBRANCH  32  33
ENDBRANCH  31  32
ENDBRANCH   2  31
BRANCH   8  36
HETATM   36  O5  UNL     1       1.324   7.783  14.816  1.00  0.00    -0.389 OA
HETATM   37  H50 UNL     1       0.829   8.567  15.119  1.00  0.00     0.210 HD
ENDBRANCH   8  36
BRANCH   4  38
HETATM   38  C26 UNL     1       0.064   7.766   8.849  1.00  0.00     0.265 C 
HETATM   39  O4  UNL     1      -0.097   8.976   8.963  1.00  0.00    -0.302 OA
ENDBRANCH   4  38
TORSDOF 18
ENDMDL
MODEL 9
REMARK minimizedAffinity -7.49751902
REMARK  18 active torsions:
REMARK  status: ('A' for Active; 'I' for Inactive)
REMARK    1  A    between atoms: C4_4  and  C5_5 
REMARK    2  A    between atoms: C5_5  and  C6_6 
REMARK    3  A    between atoms: C6_6  and  C7_7 
REMARK    4  A    between atoms: C9_9  and  C10_10 
REMARK    5  A    between atoms: C10_10  and  O1_11 
REMARK    6  A    between atoms: C10_10  and  C11_12 
REMARK    7  A    between atoms: C11_12  and  C12_13 
REMARK    8  A    between atoms: C14_15  and  C15_16 
REMARK    9  A    between atoms: C15_16  and  C16_17 
REMARK   10  A    between atoms: C16_17  and  C17_18 
REMARK   11  A    between atoms: C17_18  and  C18_19 
REMARK   12  A    between atoms: C18_19  and  O2_20 
REMARK   13  A    between atoms: C19_21  and  C20_22 
REMARK   14  A    between atoms: C20_22  and  C21_23 
REMARK   15  A    between atoms: C21_23  and  C22_24 
REMARK   16  A    between atoms: C22_24  and  O3_25 
REMARK   17  A    between atoms: C24_27  and  C26_29 
REMARK   18  A    between atoms: C29_33  and  O5_35 
ROOT
HETATM    1  C17 UNL     1       0.767   6.968  12.412  1.00  0.00     0.019 C 
HETATM    2  C19 UNL     1      -0.410   7.959  11.937  1.00  0.00     0.029 C 
HETATM    3  C23 UNL     1      -0.804   8.993  13.010  1.00  0.00    -0.066 C 
HETATM    4  C24 UNL     1      -2.068   9.358  13.357  1.00  0.00    -0.021 C 
HETATM    5  C25 UNL     1      -2.398  10.375  14.422  1.00  0.00     0.052 C 
HETATM    6  C27 UNL     1       0.393   9.478  13.793  1.00  0.00     0.038 C 
HETATM    7  C28 UNL     1       1.021   8.330  14.590  1.00  0.00     0.042 C 
HETATM    8  C29 UNL     1       0.800   6.910  13.997  1.00  0.00     0.065 C 
HETATM    9  C30 UNL     1      -0.431   6.252  14.647  1.00  0.00     0.047 C 
ENDROOT
BRANCH   1  10
HETATM   10  C16 UNL     1       0.616   5.532  11.762  1.00  0.00     0.019 C 
BRANCH  10  11
HETATM   11  C15 UNL     1      -0.266   4.483  12.460  1.00  0.00     0.028 C 
BRANCH  11  12
HETATM   12  C14 UNL     1      -1.376   4.024  11.551  1.00  0.00    -0.024 C 
HETATM   13  C12 UNL     1      -2.687   4.334  11.612  1.00  0.00    -0.085 C 
HETATM   14  C13 UNL     1      -3.320   5.189  12.677  1.00  0.00     0.043 C 
BRANCH  13  15
HETATM   15  C11 UNL     1      -3.648   3.797  10.557  1.00  0.00     0.069 C 
BRANCH  15  16
HETATM   16  C10 UNL     1      -4.704   2.813  11.108  1.00  0.00     0.145 C 
BRANCH  16  17
HETATM   17  C9  UNL     1      -5.738   3.535  11.930  1.00  0.00     0.007 C 
HETATM   18  C7  UNL     1      -6.802   3.014  12.575  1.00  0.00    -0.085 C 
HETATM   19  C8  UNL     1      -7.176   1.554  12.515  1.00  0.00     0.043 C 
BRANCH  18  20
HETATM   20  C6  UNL     1      -7.769   3.837  13.422  1.00  0.00     0.037 C 
BRANCH  20  21
HETATM   21  C5  UNL     1      -8.120   5.272  12.992  1.00  0.00     0.031 C 
BRANCH  21  22
HETATM   22  C4  UNL     1      -7.351   6.318  13.760  1.00  0.00    -0.024 C 
HETATM   23  C2  UNL     1      -7.680   6.902  14.930  1.00  0.00    -0.091 C 
HETATM   24  C1  UNL     1      -8.905   6.598  15.746  1.00  0.00     0.042 C 
HETATM   25  C3  UNL     1      -6.779   7.946  15.540  1.00  0.00     0.042 C 
ENDBRANCH  21  22
ENDBRANCH  20  21
ENDBRANCH  18  20
ENDBRANCH  16  17
BRANCH  16  26
HETATM   26  O1  UNL     1      -4.120   1.838  11.976  1.00  0.00    -0.391 OA
HETATM   27  H17 UNL     1      -3.204   2.108  12.162  1.00  0.00     0.210 HD
ENDBRANCH  16  26
ENDBRANCH  15  16
ENDBRANCH  13  15
ENDBRANCH  11  12
ENDBRANCH  10  11
ENDBRANCH   1  10
BRANCH   1  28
HETATM   28  C18 UNL     1       2.184   7.467  11.914  1.00  0.00     0.177 C 
BRANCH  28  29
HETATM   29  O2  UNL     1       3.163   6.431  11.908  1.00  0.00    -0.400 OA
HETATM   30  H30 UNL     1       3.157   6.041  12.808  1.00  0.00     0.209 HD
ENDBRANCH  28  29
ENDBRANCH   1  28
BRANCH   2  31
HETATM   31  C20 UNL     1      -0.108   8.603  10.554  1.00  0.00     0.012 C 
BRANCH  31  32
HETATM   32  C21 UNL     1       0.435   7.682   9.458  1.00  0.00     0.027 C 
BRANCH  32  33
HETATM   33  C22 UNL     1       1.013   8.415   8.255  1.00  0.00     0.164 C 
BRANCH  33  34
HETATM   34  O3  UNL     1       1.109   7.493   7.179  1.00  0.00    -0.401 OA
HETATM   35  H38 UNL     1       1.482   7.971   6.418  1.00  0.00     0.209 HD
ENDBRANCH  33  34
ENDBRANCH  32  33
ENDBRANCH  31  32
ENDBRANCH   2  31
BRANCH   8  36
HETATM   36  O5  UNL     1       1.935   6.138  14.447  1.00  0.00    -0.389 OA
HETATM   37  H50 UNL     1       1.701   5.192  14.410  1.00  0.00     0.210 HD
ENDBRANCH   8  36
BRANCH   4  38
HETATM   38  C26 UNL     1      -3.293   8.764  12.724  1.00  0.00     0.265 C 
HETATM   39  O4  UNL     1      -4.308   8.501  13.360  1.00  0.00    -0.302 OA
ENDBRANCH   4  38
TORSDOF 18
ENDMDL
