MODEL 1
REMARK minimizedAffinity -9.21275997
REMARK  5 active torsions:
REMARK  status: ('A' for Active; 'I' for Inactive)
REMARK    1  A    between atoms: C2_2  and  C4_4 
REMARK    2  A    between atoms: C7_7  and  C8_8 
REMARK    3  A    between atoms: C8_8  and  O2_10 
REMARK    4  A    between atoms: C11_13  and  C12_14 
REMARK    5  A    between atoms: C12_14  and  O4_16 
ROOT
HETATM    1  C4  UNL     1       2.418   7.995   8.921  1.00  0.00     0.019 C 
HETATM    2  C5  UNL     1       3.240   6.702   8.988  1.00  0.00     0.011 C 
HETATM    3  C6  UNL     1       4.114   6.810  10.241  1.00  0.00     0.021 C 
HETATM    4  C7  UNL     1       3.677   8.082  10.996  1.00  0.00     0.050 C 
HETATM    5  C9  UNL     1       3.600   7.845  12.513  1.00  0.00     0.022 C 
HETATM    6  C10 UNL     1       2.455   6.968  13.049  1.00  0.00     0.023 C 
HETATM    7  C11 UNL     1       1.147   6.847  12.177  1.00  0.00     0.057 C 
HETATM    8  C13 UNL     1       1.117   8.175  11.353  1.00  0.00     0.011 C 
HETATM    9  C14 UNL     1      -0.268   8.504  10.845  1.00  0.00     0.007 C 
HETATM   10  C15 UNL     1      -1.206   8.779  12.017  1.00  0.00     0.006 C 
HETATM   11  C16 UNL     1      -0.931   8.019  13.363  1.00  0.00     0.003 C 
HETATM   12  C17 UNL     1      -2.274   7.955  14.242  1.00  0.00    -0.035 C 
HETATM   13  C18 UNL     1      -1.908   7.590  15.704  1.00  0.00     0.016 C 
HETATM   14  C19 UNL     1      -2.969   9.353  14.298  1.00  0.00     0.017 C 
HETATM   15  C20 UNL     1      -4.332   9.345  14.983  1.00  0.00     0.080 C 
HETATM   16  C21 UNL     1      -5.252   8.305  14.387  1.00  0.00     0.135 C 
HETATM   17  O5  UNL     1      -6.424   8.600  14.136  1.00  0.00    -0.297 OA
HETATM   18  C22 UNL     1      -4.709   6.873  14.213  1.00  0.00     0.017 C 
HETATM   19  C23 UNL     1      -4.779   6.162  15.571  1.00  0.00     0.023 C 
HETATM   20  C24 UNL     1      -5.670   6.117  13.259  1.00  0.00     0.023 C 
HETATM   21  C25 UNL     1      -3.282   6.957  13.565  1.00  0.00     0.009 C 
HETATM   22  C26 UNL     1      -2.627   5.594  13.272  1.00  0.00     0.007 C 
HETATM   23  C27 UNL     1      -1.314   5.711  12.469  1.00  0.00     0.011 C 
HETATM   24  C28 UNL     1      -0.216   6.629  13.107  1.00  0.00    -0.022 C 
HETATM   25  C29 UNL     1       0.232   5.887  14.403  1.00  0.00     0.017 C 
HETATM   26  C30 UNL     1       2.307   8.495  10.390  1.00  0.00     0.018 C 
ENDROOT
BRANCH   4  27
HETATM   27  C8  UNL     1       4.698   9.215  10.775  1.00  0.00     0.149 C 
HETATM   28  O1  UNL     1       5.183   9.559   9.705  1.00  0.00    -0.649 OA
BRANCH  27  29
HETATM   29  O2  UNL     1       5.088   9.843  11.904  1.00  0.00    -0.776 OA
HETATM   30  H11 UNL     1       5.728  10.514  11.585  1.00  0.00     0.167 HD
ENDBRANCH  27  29
ENDBRANCH   4  27
BRANCH   1  31
HETATM   31  C2  UNL     1       1.213   8.063   8.003  1.00  0.00    -0.088 C 
HETATM   32  C1  UNL     1       0.003   8.536   8.348  1.00  0.00     0.014 C 
HETATM   33  C3  UNL     1       1.395   7.424   6.646  1.00  0.00     0.043 C 
ENDBRANCH   1  31
BRANCH   7  34
HETATM   34  C12 UNL     1       1.286   5.576  11.334  1.00  0.00     0.149 C 
HETATM   35  O3  UNL     1       0.667   5.303  10.317  1.00  0.00    -0.649 OA
BRANCH  34  36
HETATM   36  O4  UNL     1       2.260   4.746  11.735  1.00  0.00    -0.776 OA
HETATM   37  H16 UNL     1       2.259   4.039  11.057  1.00  0.00     0.167 HD
ENDBRANCH  34  36
ENDBRANCH   7  34
TORSDOF 5
ENDMDL
MODEL 2
REMARK minimizedAffinity -8.21266747
REMARK  5 active torsions:
REMARK  status: ('A' for Active; 'I' for Inactive)
REMARK    1  A    between atoms: C2_2  and  C4_4 
REMARK    2  A    between atoms: C7_7  and  C8_8 
REMARK    3  A    between atoms: C8_8  and  O2_10 
REMARK    4  A    between atoms: C11_13  and  C12_14 
REMARK    5  A    between atoms: C12_14  and  O4_16 
ROOT
HETATM    1  C4  UNL     1      -0.585   5.458  11.315  1.00  0.00     0.019 C 
HETATM    2  C5  UNL     1       0.685   4.733  11.782  1.00  0.00     0.011 C 
HETATM    3  C6  UNL     1       1.864   5.615  11.360  1.00  0.00     0.021 C 
HETATM    4  C7  UNL     1       1.279   6.930  10.807  1.00  0.00     0.050 C 
HETATM    5  C9  UNL     1       2.071   8.154  11.293  1.00  0.00     0.022 C 
HETATM    6  C10 UNL     1       1.939   8.557  12.772  1.00  0.00     0.023 C 
HETATM    7  C11 UNL     1       0.635   8.119  13.543  1.00  0.00     0.057 C 
HETATM    8  C13 UNL     1      -0.443   7.988  12.421  1.00  0.00     0.011 C 
HETATM    9  C14 UNL     1      -1.851   8.076  12.963  1.00  0.00     0.007 C 
HETATM   10  C15 UNL     1      -2.101   9.462  13.551  1.00  0.00     0.006 C 
HETATM   11  C16 UNL     1      -0.877  10.219  14.180  1.00  0.00     0.003 C 
HETATM   12  C17 UNL     1      -1.393  11.320  15.229  1.00  0.00    -0.035 C 
HETATM   13  C18 UNL     1      -0.244  12.319  15.523  1.00  0.00     0.016 C 
HETATM   14  C19 UNL     1      -2.563  12.160  14.625  1.00  0.00     0.017 C 
HETATM   15  C20 UNL     1      -3.213  13.124  15.612  1.00  0.00     0.080 C 
HETATM   16  C21 UNL     1      -3.647  12.421  16.878  1.00  0.00     0.135 C 
HETATM   17  O5  UNL     1      -4.760  12.657  17.355  1.00  0.00    -0.297 OA
HETATM   18  C22 UNL     1      -2.626  11.508  17.584  1.00  0.00     0.017 C 
HETATM   19  C23 UNL     1      -1.669  12.390  18.397  1.00  0.00     0.023 C 
HETATM   20  C24 UNL     1      -3.402  10.631  18.600  1.00  0.00     0.023 C 
HETATM   21  C25 UNL     1      -1.948  10.590  16.505  1.00  0.00     0.009 C 
HETATM   22  C26 UNL     1      -0.939   9.572  17.068  1.00  0.00     0.007 C 
HETATM   23  C27 UNL     1      -0.435   8.567  16.011  1.00  0.00     0.011 C 
HETATM   24  C28 UNL     1       0.207   9.204  14.732  1.00  0.00    -0.022 C 
HETATM   25  C29 UNL     1       1.523   9.877  15.228  1.00  0.00     0.017 C 
HETATM   26  C30 UNL     1      -0.207   6.966  11.260  1.00  0.00     0.018 C 
ENDROOT
BRANCH   4  27
HETATM   27  C8  UNL     1       1.346   6.942   9.268  1.00  0.00     0.149 C 
HETATM   28  O1  UNL     1       0.766   7.719   8.519  1.00  0.00    -0.649 OA
BRANCH  27  29
HETATM   29  O2  UNL     1       2.108   5.964   8.733  1.00  0.00    -0.776 OA
HETATM   30  H11 UNL     1       2.033   6.116   7.767  1.00  0.00     0.167 HD
ENDBRANCH  27  29
ENDBRANCH   4  27
BRANCH   1  31
HETATM   31  C2  UNL     1      -1.930   5.032  11.871  1.00  0.00    -0.088 C 
HETATM   32  C1  UNL     1      -2.285   5.088  13.167  1.00  0.00     0.014 C 
HETATM   33  C3  UNL     1      -2.866   4.385  10.877  1.00  0.00     0.043 C 
ENDBRANCH   1  31
BRANCH   7  34
HETATM   34  C12 UNL     1       0.963   6.811  14.270  1.00  0.00     0.149 C 
HETATM   35  O3  UNL     1       0.170   5.948  14.614  1.00  0.00    -0.649 OA
BRANCH  34  36
HETATM   36  O4  UNL     1       2.272   6.586  14.449  1.00  0.00    -0.776 OA
HETATM   37  H16 UNL     1       2.305   5.694  14.851  1.00  0.00     0.167 HD
ENDBRANCH  34  36
ENDBRANCH   7  34
TORSDOF 5
ENDMDL
MODEL 3
REMARK minimizedAffinity -7.79657745
REMARK  5 active torsions:
REMARK  status: ('A' for Active; 'I' for Inactive)
REMARK    1  A    between atoms: C2_2  and  C4_4 
REMARK    2  A    between atoms: C7_7  and  C8_8 
REMARK    3  A    between atoms: C8_8  and  O2_10 
REMARK    4  A    between atoms: C11_13  and  C12_14 
REMARK    5  A    between atoms: C12_14  and  O4_16 
ROOT
HETATM    1  C4  UNL     1       0.797   6.357  10.060  1.00  0.00     0.019 C 
HETATM    2  C5  UNL     1      -0.428   7.097  10.613  1.00  0.00     0.011 C 
HETATM    3  C6  UNL     1      -0.716   6.487  11.988  1.00  0.00     0.021 C 
HETATM    4  C7  UNL     1       0.438   5.516  12.310  1.00  0.00     0.050 C 
HETATM    5  C9  UNL     1       0.891   5.637  13.775  1.00  0.00     0.022 C 
HETATM    6  C10 UNL     1       1.658   6.905  14.190  1.00  0.00     0.023 C 
HETATM    7  C11 UNL     1       2.431   7.701  13.070  1.00  0.00     0.057 C 
HETATM    8  C13 UNL     1       2.757   6.618  11.992  1.00  0.00     0.011 C 
HETATM    9  C14 UNL     1       3.904   7.026  11.096  1.00  0.00     0.007 C 
HETATM   10  C15 UNL     1       5.192   7.133  11.909  1.00  0.00     0.006 C 
HETATM   11  C16 UNL     1       5.070   7.561  13.415  1.00  0.00     0.003 C 
HETATM   12  C17 UNL     1       6.461   8.181  13.924  1.00  0.00    -0.035 C 
HETATM   13  C18 UNL     1       6.467   8.209  15.475  1.00  0.00     0.016 C 
HETATM   14  C19 UNL     1       7.662   7.279  13.496  1.00  0.00     0.017 C 
HETATM   15  C20 UNL     1       9.031   7.875  13.806  1.00  0.00     0.080 C 
HETATM   16  C21 UNL     1       9.174   9.271  13.245  1.00  0.00     0.135 C 
HETATM   17  O5  UNL     1      10.209   9.587  12.653  1.00  0.00    -0.297 OA
HETATM   18  C22 UNL     1       8.049  10.284  13.533  1.00  0.00     0.017 C 
HETATM   19  C23 UNL     1       8.242  10.831  14.953  1.00  0.00     0.023 C 
HETATM   20  C24 UNL     1       8.231  11.479  12.562  1.00  0.00     0.023 C 
HETATM   21  C25 UNL     1       6.669   9.588  13.257  1.00  0.00     0.009 C 
HETATM   22  C26 UNL     1       5.440  10.497  13.444  1.00  0.00     0.007 C 
HETATM   23  C27 UNL     1       4.121   9.839  12.987  1.00  0.00     0.011 C 
HETATM   24  C28 UNL     1       3.790   8.462  13.658  1.00  0.00    -0.022 C 
HETATM   25  C29 UNL     1       3.513   8.795  15.155  1.00  0.00     0.017 C 
HETATM   26  C30 UNL     1       1.577   5.852  11.308  1.00  0.00     0.018 C 
ENDROOT
BRANCH   4  27
HETATM   27  C8  UNL     1      -0.013   4.058  12.105  1.00  0.00     0.149 C 
HETATM   28  O1  UNL     1      -0.829   3.446  12.783  1.00  0.00    -0.649 OA
BRANCH  27  29
HETATM   29  O2  UNL     1       0.599   3.422  11.084  1.00  0.00    -0.776 OA
HETATM   30  H11 UNL     1       0.205   2.524  11.103  1.00  0.00     0.167 HD
ENDBRANCH  27  29
ENDBRANCH   4  27
BRANCH   1  31
HETATM   31  C2  UNL     1       1.549   6.942   8.880  1.00  0.00    -0.088 C 
HETATM   32  C1  UNL     1       2.827   6.669   8.564  1.00  0.00     0.014 C 
HETATM   33  C3  UNL     1       0.808   8.004   8.102  1.00  0.00     0.043 C 
ENDBRANCH   1  31
BRANCH   7  34
HETATM   34  C12 UNL     1       1.500   8.818  12.590  1.00  0.00     0.149 C 
HETATM   35  O3  UNL     1       0.566   9.306  13.207  1.00  0.00    -0.649 OA
BRANCH  34  36
HETATM   36  O4  UNL     1       1.834   9.351  11.406  1.00  0.00    -0.776 OA
HETATM   37  H16 UNL     1       1.194  10.084  11.289  1.00  0.00     0.167 HD
ENDBRANCH  34  36
ENDBRANCH   7  34
TORSDOF 5
ENDMDL
MODEL 4
REMARK minimizedAffinity -7.77117014
REMARK  5 active torsions:
REMARK  status: ('A' for Active; 'I' for Inactive)
REMARK    1  A    between atoms: C2_2  and  C4_4 
REMARK    2  A    between atoms: C7_7  and  C8_8 
REMARK    3  A    between atoms: C8_8  and  O2_10 
REMARK    4  A    between atoms: C11_13  and  C12_14 
REMARK    5  A    between atoms: C12_14  and  O4_16 
ROOT
HETATM    1  C4  UNL     1       2.860   8.348  11.122  1.00  0.00     0.019 C 
HETATM    2  C5  UNL     1       3.905   7.594  11.954  1.00  0.00     0.011 C 
HETATM    3  C6  UNL     1       4.126   8.422  13.223  1.00  0.00     0.021 C 
HETATM    4  C7  UNL     1       3.088   9.563  13.213  1.00  0.00     0.050 C 
HETATM    5  C9  UNL     1       2.469   9.781  14.603  1.00  0.00     0.022 C 
HETATM    6  C10 UNL     1       1.495   8.714  15.134  1.00  0.00     0.023 C 
HETATM    7  C11 UNL     1       0.744   7.811  14.083  1.00  0.00     0.057 C 
HETATM    8  C13 UNL     1       0.687   8.694  12.796  1.00  0.00     0.011 C 
HETATM    9  C14 UNL     1      -0.403   8.255  11.845  1.00  0.00     0.007 C 
HETATM   10  C15 UNL     1      -1.772   8.456  12.488  1.00  0.00     0.006 C 
HETATM   11  C16 UNL     1      -1.871   8.317  14.049  1.00  0.00     0.003 C 
HETATM   12  C17 UNL     1      -3.381   7.972  14.475  1.00  0.00    -0.035 C 
HETATM   13  C18 UNL     1      -3.556   8.246  15.991  1.00  0.00     0.016 C 
HETATM   14  C19 UNL     1      -4.394   8.906  13.739  1.00  0.00     0.017 C 
HETATM   15  C20 UNL     1      -5.858   8.542  13.969  1.00  0.00     0.080 C 
HETATM   16  C21 UNL     1      -6.130   7.089  13.653  1.00  0.00     0.135 C 
HETATM   17  O5  UNL     1      -7.129   6.785  12.997  1.00  0.00    -0.297 OA
HETATM   18  C22 UNL     1      -5.192   6.029  14.262  1.00  0.00     0.017 C 
HETATM   19  C23 UNL     1      -5.609   5.794  15.719  1.00  0.00     0.023 C 
HETATM   20  C24 UNL     1      -5.432   4.697  13.505  1.00  0.00     0.023 C 
HETATM   21  C25 UNL     1      -3.708   6.495  14.049  1.00  0.00     0.009 C 
HETATM   22  C26 UNL     1      -2.643   5.505  14.554  1.00  0.00     0.007 C 
HETATM   23  C27 UNL     1      -1.205   5.906  14.163  1.00  0.00     0.011 C 
HETATM   24  C28 UNL     1      -0.762   7.339  14.615  1.00  0.00    -0.022 C 
HETATM   25  C29 UNL     1      -0.695   7.274  16.171  1.00  0.00     0.017 C 
HETATM   26  C30 UNL     1       2.027   9.172  12.146  1.00  0.00     0.018 C 
ENDROOT
BRANCH   4  27
HETATM   27  C8  UNL     1       3.754  10.892  12.811  1.00  0.00     0.149 C 
HETATM   28  O1  UNL     1       4.917  11.046  12.456  1.00  0.00    -0.649 OA
BRANCH  27  29
HETATM   29  O2  UNL     1       2.948  11.971  12.900  1.00  0.00    -0.776 OA
HETATM   30  H11 UNL     1       3.525  12.713  12.620  1.00  0.00     0.167 HD
ENDBRANCH  27  29
ENDBRANCH   4  27
BRANCH   1  31
HETATM   31  C2  UNL     1       2.165   7.636   9.978  1.00  0.00    -0.088 C 
HETATM   32  C1  UNL     1       1.478   6.485  10.085  1.00  0.00     0.014 C 
HETATM   33  C3  UNL     1       2.394   8.232   8.608  1.00  0.00     0.043 C 
ENDBRANCH   1  31
BRANCH   7  34
HETATM   34  C12 UNL     1       1.559   6.522  13.937  1.00  0.00     0.149 C 
HETATM   35  O3  UNL     1       1.585   5.780  12.967  1.00  0.00    -0.649 OA
BRANCH  34  36
HETATM   36  O4  UNL     1       2.382   6.264  14.964  1.00  0.00    -0.776 OA
HETATM   37  H16 UNL     1       2.869   5.463  14.678  1.00  0.00     0.167 HD
ENDBRANCH  34  36
ENDBRANCH   7  34
TORSDOF 5
ENDMDL
MODEL 5
REMARK minimizedAffinity -7.61253643
REMARK  5 active torsions:
REMARK  status: ('A' for Active; 'I' for Inactive)
REMARK    1  A    between atoms: C2_2  and  C4_4 
REMARK    2  A    between atoms: C7_7  and  C8_8 
REMARK    3  A    between atoms: C8_8  and  O2_10 
REMARK    4  A    between atoms: C11_13  and  C12_14 
REMARK    5  A    between atoms: C12_14  and  O4_16 
ROOT
HETATM    1  C4  UNL     1       6.143   8.796  11.724  1.00  0.00     0.019 C 
HETATM    2  C5  UNL     1       7.059   8.768  12.954  1.00  0.00     0.011 C 
HETATM    3  C6  UNL     1       6.942  10.146  13.611  1.00  0.00     0.021 C 
HETATM    4  C7  UNL     1       5.832  10.916  12.868  1.00  0.00     0.050 C 
HETATM    5  C9  UNL     1       4.926  11.688  13.841  1.00  0.00     0.022 C 
HETATM    6  C10 UNL     1       3.962  10.877  14.726  1.00  0.00     0.023 C 
HETATM    7  C11 UNL     1       3.524   9.448  14.224  1.00  0.00     0.057 C 
HETATM    8  C13 UNL     1       3.652   9.536  12.670  1.00  0.00     0.011 C 
HETATM    9  C14 UNL     1       2.822   8.488  11.965  1.00  0.00     0.007 C 
HETATM   10  C15 UNL     1       1.338   8.733  12.224  1.00  0.00     0.006 C 
HETATM   11  C16 UNL     1       0.936   9.384  13.595  1.00  0.00     0.003 C 
HETATM   12  C17 UNL     1      -0.592   9.032  13.942  1.00  0.00    -0.035 C 
HETATM   13  C18 UNL     1      -1.096   9.995  15.048  1.00  0.00     0.016 C 
HETATM   14  C19 UNL     1      -1.513   9.266  12.702  1.00  0.00     0.017 C 
HETATM   15  C20 UNL     1      -2.954   8.809  12.900  1.00  0.00     0.080 C 
HETATM   16  C21 UNL     1      -3.027   7.373  13.367  1.00  0.00     0.135 C 
HETATM   17  O5  UNL     1      -3.841   6.604  12.849  1.00  0.00    -0.297 OA
HETATM   18  C22 UNL     1      -2.143   6.954  14.558  1.00  0.00     0.017 C 
HETATM   19  C23 UNL     1      -2.826   7.413  15.853  1.00  0.00     0.023 C 
HETATM   20  C24 UNL     1      -2.105   5.404  14.594  1.00  0.00     0.023 C 
HETATM   21  C25 UNL     1      -0.694   7.510  14.322  1.00  0.00     0.009 C 
HETATM   22  C26 UNL     1       0.330   7.122  15.405  1.00  0.00     0.007 C 
HETATM   23  C27 UNL     1       1.776   7.525  15.049  1.00  0.00     0.011 C 
HETATM   24  C28 UNL     1       1.989   9.044  14.728  1.00  0.00    -0.022 C 
HETATM   25  C29 UNL     1       1.743   9.784  16.078  1.00  0.00     0.017 C 
HETATM   26  C30 UNL     1       5.049   9.857  12.043  1.00  0.00     0.018 C 
ENDROOT
BRANCH   4  27
HETATM   27  C8  UNL     1       6.446  11.958  11.914  1.00  0.00     0.149 C 
HETATM   28  O1  UNL     1       7.572  11.930  11.433  1.00  0.00    -0.649 OA
BRANCH  27  29
HETATM   29  O2  UNL     1       5.637  13.000  11.629  1.00  0.00    -0.776 OA
HETATM   30  H11 UNL     1       6.180  13.555  11.028  1.00  0.00     0.167 HD
ENDBRANCH  27  29
ENDBRANCH   4  27
BRANCH   1  31
HETATM   31  C2  UNL     1       5.761   7.492  11.051  1.00  0.00    -0.088 C 
HETATM   32  C1  UNL     1       4.847   7.363  10.073  1.00  0.00     0.014 C 
HETATM   33  C3  UNL     1       6.388   6.250  11.641  1.00  0.00     0.043 C 
ENDBRANCH   1  31
BRANCH   7  34
HETATM   34  C12 UNL     1       4.462   8.434  14.886  1.00  0.00     0.149 C 
HETATM   35  O3  UNL     1       5.083   8.584  15.926  1.00  0.00    -0.649 OA
BRANCH  34  36
HETATM   36  O4  UNL     1       4.508   7.240  14.278  1.00  0.00    -0.776 OA
HETATM   37  H16 UNL     1       5.083   6.702  14.862  1.00  0.00     0.167 HD
ENDBRANCH  34  36
ENDBRANCH   7  34
TORSDOF 5
ENDMDL
MODEL 6
REMARK minimizedAffinity -7.54266977
REMARK  5 active torsions:
REMARK  status: ('A' for Active; 'I' for Inactive)
REMARK    1  A    between atoms: C2_2  and  C4_4 
REMARK    2  A    between atoms: C7_7  and  C8_8 
REMARK    3  A    between atoms: C8_8  and  O2_10 
REMARK    4  A    between atoms: C11_13  and  C12_14 
REMARK    5  A    between atoms: C12_14  and  O4_16 
ROOT
HETATM    1  C4  UNL     1       7.502  12.103  14.861  1.00  0.00     0.019 C 
HETATM    2  C5  UNL     1       8.899  11.481  14.739  1.00  0.00     0.011 C 
HETATM    3  C6  UNL     1       8.888  10.222  15.611  1.00  0.00     0.021 C 
HETATM    4  C7  UNL     1       7.441  10.016  16.101  1.00  0.00     0.050 C 
HETATM    5  C9  UNL     1       7.023   8.538  16.036  1.00  0.00     0.022 C 
HETATM    6  C10 UNL     1       6.789   7.915  14.649  1.00  0.00     0.023 C 
HETATM    7  C11 UNL     1       6.415   8.880  13.459  1.00  0.00     0.057 C 
HETATM    8  C13 UNL     1       5.733  10.098  14.160  1.00  0.00     0.011 C 
HETATM    9  C14 UNL     1       4.858  10.889  13.214  1.00  0.00     0.007 C 
HETATM   10  C15 UNL     1       3.686  10.033  12.744  1.00  0.00     0.006 C 
HETATM   11  C16 UNL     1       3.916   8.484  12.626  1.00  0.00     0.003 C 
HETATM   12  C17 UNL     1       2.854   7.847  11.604  1.00  0.00    -0.035 C 
HETATM   13  C18 UNL     1       2.811   6.310  11.808  1.00  0.00     0.016 C 
HETATM   14  C19 UNL     1       1.412   8.370  11.901  1.00  0.00     0.017 C 
HETATM   15  C20 UNL     1       0.367   7.935  10.879  1.00  0.00     0.080 C 
HETATM   16  C21 UNL     1       0.788   8.276   9.467  1.00  0.00     0.135 C 
HETATM   17  O5  UNL     1      -0.027   8.784   8.693  1.00  0.00    -0.297 OA
HETATM   18  C22 UNL     1       2.207   7.872   9.019  1.00  0.00     0.017 C 
HETATM   19  C23 UNL     1       2.194   6.381   8.659  1.00  0.00     0.023 C 
HETATM   20  C24 UNL     1       2.527   8.647   7.715  1.00  0.00     0.023 C 
HETATM   21  C25 UNL     1       3.222   8.289  10.142  1.00  0.00     0.009 C 
HETATM   22  C26 UNL     1       4.699   8.004   9.813  1.00  0.00     0.007 C 
HETATM   23  C27 UNL     1       5.678   8.593  10.850  1.00  0.00     0.011 C 
HETATM   24  C28 UNL     1       5.435   8.145  12.332  1.00  0.00    -0.022 C 
HETATM   25  C29 UNL     1       5.771   6.624  12.359  1.00  0.00     0.017 C 
HETATM   26  C30 UNL     1       6.549  10.924  15.208  1.00  0.00     0.018 C 
ENDROOT
BRANCH   4  27
HETATM   27  C8  UNL     1       7.304  10.451  17.572  1.00  0.00     0.149 C 
HETATM   28  O1  UNL     1       8.161  10.355  18.443  1.00  0.00    -0.649 OA
BRANCH  27  29
HETATM   29  O2  UNL     1       6.095  10.956  17.896  1.00  0.00    -0.776 OA
HETATM   30  H11 UNL     1       6.182  11.168  18.850  1.00  0.00     0.167 HD
ENDBRANCH  27  29
ENDBRANCH   4  27
BRANCH   1  31
HETATM   31  C2  UNL     1       7.069  13.160  13.862  1.00  0.00    -0.088 C 
HETATM   32  C1  UNL     1       7.632  13.365  12.659  1.00  0.00     0.014 C 
HETATM   33  C3  UNL     1       6.004  14.114  14.350  1.00  0.00     0.043 C 
ENDBRANCH   1  31
BRANCH   7  34
HETATM   34  C12 UNL     1       7.718   9.213  12.726  1.00  0.00     0.149 C 
HETATM   35  O3  UNL     1       7.928  10.182  12.014  1.00  0.00    -0.649 OA
BRANCH  34  36
HETATM   36  O4  UNL     1       8.735   8.380  12.991  1.00  0.00    -0.776 OA
HETATM   37  H16 UNL     1       9.493   8.774  12.511  1.00  0.00     0.167 HD
ENDBRANCH  34  36
ENDBRANCH   7  34
TORSDOF 5
ENDMDL
MODEL 7
REMARK minimizedAffinity -7.36395454
REMARK  5 active torsions:
REMARK  status: ('A' for Active; 'I' for Inactive)
REMARK    1  A    between atoms: C2_2  and  C4_4 
REMARK    2  A    between atoms: C7_7  and  C8_8 
REMARK    3  A    between atoms: C8_8  and  O2_10 
REMARK    4  A    between atoms: C11_13  and  C12_14 
REMARK    5  A    between atoms: C12_14  and  O4_16 
ROOT
HETATM    1  C4  UNL     1      12.400  -4.660   4.682  1.00  0.00     0.019 C 
HETATM    2  C5  UNL     1      12.765  -4.802   3.198  1.00  0.00     0.011 C 
HETATM    3  C6  UNL     1      13.708  -3.640   2.872  1.00  0.00     0.021 C 
HETATM    4  C7  UNL     1      14.030  -2.924   4.200  1.00  0.00     0.050 C 
HETATM    5  C9  UNL     1      15.517  -2.547   4.297  1.00  0.00     0.022 C 
HETATM    6  C10 UNL     1      16.536  -3.682   4.502  1.00  0.00     0.023 C 
HETATM    7  C11 UNL     1      16.030  -5.019   5.165  1.00  0.00     0.057 C 
HETATM    8  C13 UNL     1      14.810  -4.574   6.034  1.00  0.00     0.011 C 
HETATM    9  C14 UNL     1      14.491  -5.566   7.128  1.00  0.00     0.007 C 
HETATM   10  C15 UNL     1      15.644  -5.637   8.125  1.00  0.00     0.006 C 
HETATM   11  C16 UNL     1      17.094  -5.378   7.581  1.00  0.00     0.003 C 
HETATM   12  C17 UNL     1      18.176  -6.049   8.560  1.00  0.00    -0.035 C 
HETATM   13  C18 UNL     1      19.574  -5.450   8.259  1.00  0.00     0.016 C 
HETATM   14  C19 UNL     1      17.863  -5.708  10.052  1.00  0.00     0.017 C 
HETATM   15  C20 UNL     1      18.752  -6.433  11.057  1.00  0.00     0.080 C 
HETATM   16  C21 UNL     1      18.750  -7.927  10.831  1.00  0.00     0.135 C 
HETATM   17  O5  UNL     1      18.638  -8.690  11.794  1.00  0.00    -0.297 OA
HETATM   18  C22 UNL     1      18.997  -8.442   9.399  1.00  0.00     0.017 C 
HETATM   19  C23 UNL     1      20.505  -8.398   9.123  1.00  0.00     0.023 C 
HETATM   20  C24 UNL     1      18.574  -9.933   9.355  1.00  0.00     0.023 C 
HETATM   21  C25 UNL     1      18.103  -7.612   8.411  1.00  0.00     0.009 C 
HETATM   22  C26 UNL     1      18.194  -8.050   6.937  1.00  0.00     0.007 C 
HETATM   23  C27 UNL     1      17.168  -7.342   6.027  1.00  0.00     0.011 C 
HETATM   24  C28 UNL     1      17.218  -5.776   6.052  1.00  0.00    -0.022 C 
HETATM   25  C29 UNL     1      18.582  -5.401   5.399  1.00  0.00     0.017 C 
HETATM   26  C30 UNL     1      13.589  -3.894   5.331  1.00  0.00     0.018 C 
ENDROOT
BRANCH   4  27
HETATM   27  C8  UNL     1      13.232  -1.611   4.310  1.00  0.00     0.149 C 
HETATM   28  O1  UNL     1      13.643  -0.544   4.748  1.00  0.00    -0.649 OA
BRANCH  27  29
HETATM   29  O2  UNL     1      11.950  -1.699   3.895  1.00  0.00    -0.776 OA
HETATM   30  H11 UNL     1      11.599  -0.795   4.039  1.00  0.00     0.167 HD
ENDBRANCH  27  29
ENDBRANCH   4  27
BRANCH   1  31
HETATM   31  C2  UNL     1      11.765  -5.831   5.407  1.00  0.00    -0.088 C 
HETATM   32  C1  UNL     1      11.027  -5.740   6.527  1.00  0.00     0.014 C 
HETATM   33  C3  UNL     1      12.119  -7.196   4.866  1.00  0.00     0.043 C 
ENDBRANCH   1  31
BRANCH   7  34
HETATM   34  C12 UNL     1      15.683  -5.981   4.025  1.00  0.00     0.149 C 
HETATM   35  O3  UNL     1      16.053  -5.902   2.864  1.00  0.00    -0.649 OA
BRANCH  34  36
HETATM   36  O4  UNL     1      14.974  -7.056   4.399  1.00  0.00    -0.776 OA
HETATM   37  H16 UNL     1      14.906  -7.590   3.580  1.00  0.00     0.167 HD
ENDBRANCH  34  36
ENDBRANCH   7  34
TORSDOF 5
ENDMDL
MODEL 8
REMARK minimizedAffinity -7.35035467
REMARK  5 active torsions:
REMARK  status: ('A' for Active; 'I' for Inactive)
REMARK    1  A    between atoms: C2_2  and  C4_4 
REMARK    2  A    between atoms: C7_7  and  C8_8 
REMARK    3  A    between atoms: C8_8  and  O2_10 
REMARK    4  A    between atoms: C11_13  and  C12_14 
REMARK    5  A    between atoms: C12_14  and  O4_16 
ROOT
HETATM    1  C4  UNL     1       2.613  11.843  20.655  1.00  0.00     0.019 C 
HETATM    2  C5  UNL     1       2.312  12.692  21.897  1.00  0.00     0.011 C 
HETATM    3  C6  UNL     1       2.911  11.939  23.089  1.00  0.00     0.021 C 
HETATM    4  C7  UNL     1       3.708  10.746  22.525  1.00  0.00     0.050 C 
HETATM    5  C9  UNL     1       5.049  10.562  23.253  1.00  0.00     0.022 C 
HETATM    6  C10 UNL     1       6.156  11.600  22.997  1.00  0.00     0.023 C 
HETATM    7  C11 UNL     1       6.111  12.410  21.646  1.00  0.00     0.057 C 
HETATM    8  C13 UNL     1       5.352  11.464  20.661  1.00  0.00     0.011 C 
HETATM    9  C14 UNL     1       5.629  11.799  19.214  1.00  0.00     0.007 C 
HETATM   10  C15 UNL     1       7.102  11.556  18.892  1.00  0.00     0.006 C 
HETATM   11  C16 UNL     1       8.143  11.764  20.049  1.00  0.00     0.003 C 
HETATM   12  C17 UNL     1       9.599  12.049  19.432  1.00  0.00    -0.035 C 
HETATM   13  C18 UNL     1      10.668  11.840  20.535  1.00  0.00     0.016 C 
HETATM   14  C19 UNL     1       9.932  11.029  18.297  1.00  0.00     0.017 C 
HETATM   15  C20 UNL     1      11.230  11.324  17.554  1.00  0.00     0.080 C 
HETATM   16  C21 UNL     1      11.268  12.744  17.035  1.00  0.00     0.135 C 
HETATM   17  O5  UNL     1      11.654  12.962  15.884  1.00  0.00    -0.297 OA
HETATM   18  C22 UNL     1      10.917  13.881  18.014  1.00  0.00     0.017 C 
HETATM   19  C23 UNL     1      12.147  14.164  18.887  1.00  0.00     0.023 C 
HETATM   20  C24 UNL     1      10.655  15.160  17.178  1.00  0.00     0.023 C 
HETATM   21  C25 UNL     1       9.611  13.484  18.791  1.00  0.00     0.009 C 
HETATM   22  C26 UNL     1       9.096  14.553  19.773  1.00  0.00     0.007 C 
HETATM   23  C27 UNL     1       7.718  14.211  20.377  1.00  0.00     0.011 C 
HETATM   24  C28 UNL     1       7.630  12.827  21.105  1.00  0.00    -0.022 C 
HETATM   25  C29 UNL     1       8.537  12.971  22.365  1.00  0.00     0.017 C 
HETATM   26  C30 UNL     1       3.890  11.027  21.007  1.00  0.00     0.018 C 
ENDROOT
BRANCH   4  27
HETATM   27  C8  UNL     1       2.919   9.436  22.712  1.00  0.00     0.149 C 
HETATM   28  O1  UNL     1       2.735   8.841  23.767  1.00  0.00    -0.649 OA
BRANCH  27  29
HETATM   29  O2  UNL     1       2.424   8.913  21.571  1.00  0.00    -0.776 OA
HETATM   30  H11 UNL     1       1.968   8.097  21.869  1.00  0.00     0.167 HD
ENDBRANCH  27  29
ENDBRANCH   4  27
BRANCH   1  31
HETATM   31  C2  UNL     1       2.464  12.462  19.278  1.00  0.00    -0.088 C 
HETATM   32  C1  UNL     1       2.396  13.781  19.025  1.00  0.00     0.014 C 
HETATM   33  C3  UNL     1       2.253  11.483  18.147  1.00  0.00     0.043 C 
ENDBRANCH   1  31
BRANCH   7  34
HETATM   34  C12 UNL     1       5.395  13.732  21.940  1.00  0.00     0.149 C 
HETATM   35  O3  UNL     1       5.252  14.258  23.032  1.00  0.00    -0.649 OA
BRANCH  34  36
HETATM   36  O4  UNL     1       4.976  14.393  20.851  1.00  0.00    -0.776 OA
HETATM   37  H16 UNL     1       4.617  15.231  21.208  1.00  0.00     0.167 HD
ENDBRANCH  34  36
ENDBRANCH   7  34
TORSDOF 5
ENDMDL
MODEL 9
REMARK minimizedAffinity -7.15398121
REMARK  5 active torsions:
REMARK  status: ('A' for Active; 'I' for Inactive)
REMARK    1  A    between atoms: C2_2  and  C4_4 
REMARK    2  A    between atoms: C7_7  and  C8_8 
REMARK    3  A    between atoms: C8_8  and  O2_10 
REMARK    4  A    between atoms: C11_13  and  C12_14 
REMARK    5  A    between atoms: C12_14  and  O4_16 
ROOT
HETATM    1  C4  UNL     1      -2.482   6.769  13.198  1.00  0.00     0.019 C 
HETATM    2  C5  UNL     1      -1.831   5.586  13.926  1.00  0.00     0.011 C 
HETATM    3  C6  UNL     1      -0.366   5.559  13.482  1.00  0.00     0.021 C 
HETATM    4  C7  UNL     1      -0.120   6.824  12.635  1.00  0.00     0.050 C 
HETATM    5  C9  UNL     1       1.229   7.481  12.972  1.00  0.00     0.022 C 
HETATM    6  C10 UNL     1       1.363   8.195  14.328  1.00  0.00     0.023 C 
HETATM    7  C11 UNL     1       0.048   8.723  15.019  1.00  0.00     0.057 C 
HETATM    8  C13 UNL     1      -0.932   8.970  13.828  1.00  0.00     0.011 C 
HETATM    9  C14 UNL     1      -2.042   9.932  14.187  1.00  0.00     0.007 C 
HETATM   10  C15 UNL     1      -1.464  11.314  14.479  1.00  0.00     0.006 C 
HETATM   11  C16 UNL     1      -0.019  11.386  15.089  1.00  0.00     0.003 C 
HETATM   12  C17 UNL     1       0.185  12.783  15.855  1.00  0.00    -0.035 C 
HETATM   13  C18 UNL     1       1.700  13.020  16.084  1.00  0.00     0.016 C 
HETATM   14  C19 UNL     1      -0.320  13.975  14.982  1.00  0.00     0.017 C 
HETATM   15  C20 UNL     1      -0.306  15.322  15.697  1.00  0.00     0.080 C 
HETATM   16  C21 UNL     1      -1.044  15.264  17.015  1.00  0.00     0.135 C 
HETATM   17  O5  UNL     1      -1.827  16.169  17.316  1.00  0.00    -0.297 OA
HETATM   18  C22 UNL     1      -0.702  14.117  17.985  1.00  0.00     0.017 C 
HETATM   19  C23 UNL     1       0.595  14.477  18.722  1.00  0.00     0.023 C 
HETATM   20  C24 UNL     1      -1.823  14.052  19.053  1.00  0.00     0.023 C 
HETATM   21  C25 UNL     1      -0.669  12.772  17.174  1.00  0.00     0.009 C 
HETATM   22  C26 UNL     1      -0.397  11.515  18.022  1.00  0.00     0.007 C 
HETATM   23  C27 UNL     1      -0.556  10.201  17.229  1.00  0.00     0.011 C 
HETATM   24  C28 UNL     1       0.317  10.089  15.933  1.00  0.00    -0.022 C 
HETATM   25  C29 UNL     1       1.790  10.015  16.439  1.00  0.00     0.017 C 
HETATM   26  C30 UNL     1      -1.324   7.767  12.908  1.00  0.00     0.018 C 
ENDROOT
BRANCH   4  27
HETATM   27  C8  UNL     1      -0.076   6.468  11.137  1.00  0.00     0.149 C 
HETATM   28  O1  UNL     1      -0.076   7.257  10.200  1.00  0.00    -0.649 OA
BRANCH  27  29
HETATM   29  O2  UNL     1      -0.067   5.143  10.877  1.00  0.00    -0.776 OA
HETATM   30  H11 UNL     1      -0.047   5.101   9.897  1.00  0.00     0.167 HD
ENDBRANCH  27  29
ENDBRANCH   4  27
BRANCH   1  31
HETATM   31  C2  UNL     1      -3.827   7.284  13.671  1.00  0.00    -0.088 C 
HETATM   32  C1  UNL     1      -4.490   6.839  14.753  1.00  0.00     0.014 C 
HETATM   33  C3  UNL     1      -4.495   8.285  12.757  1.00  0.00     0.043 C 
ENDBRANCH   1  31
BRANCH   7  34
HETATM   34  C12 UNL     1      -0.405   7.643  16.005  1.00  0.00     0.149 C 
HETATM   35  O3  UNL     1      -1.542   7.452  16.409  1.00  0.00    -0.649 OA
BRANCH  34  36
HETATM   36  O4  UNL     1       0.557   6.782  16.369  1.00  0.00    -0.776 OA
HETATM   37  H16 UNL     1       0.088   6.129  16.929  1.00  0.00     0.167 HD
ENDBRANCH  34  36
ENDBRANCH   7  34
TORSDOF 5
ENDMDL
