MODEL 1
REMARK minimizedAffinity -8.44581127
REMARK CNNscore 0.752133489
REMARK CNNaffinity 6.68061829
REMARK  9 active torsions:
REMARK  status: ('A' for Active; 'I' for Inactive)
REMARK    1  A    between atoms: C2_2  and  C30_35 
REMARK    2  A    between atoms: C3_3  and  C4_4 
REMARK    3  A    between atoms: C4_4  and  O1_5 
REMARK    4  A    between atoms: C4_4  and  C5_6 
REMARK    5  A    between atoms: C5_6  and  C6_7 
REMARK    6  A    between atoms: C6_7  and  C8_9 
REMARK    7  A    between atoms: C10_11  and  O2_12 
REMARK    8  A    between atoms: C29_33  and  O5_34 
REMARK    9  A    between atoms: C30_35  and  O7_37 
ROOT
HETATM    1  C8  UNL     1      -1.464   9.756  16.263  1.00  0.00     0.001 C 
HETATM    2  C9  UNL     1      -0.161   9.519  17.078  1.00  0.00     0.038 C 
HETATM    3  C10 UNL     1       0.848   8.860  16.116  1.00  0.00     0.132 C 
HETATM    4  C11 UNL     1       0.318   9.218  14.699  1.00  0.00     0.017 C 
HETATM    5  C12 UNL     1       0.733  10.696  14.390  1.00  0.00     0.023 C 
HETATM    6  C13 UNL     1       0.766   8.435  13.459  1.00  0.00    -0.029 C 
HETATM    7  C14 UNL     1       0.015   8.444  12.323  1.00  0.00     0.002 C 
HETATM    8  C15 UNL     1      -1.387   9.036  12.390  1.00  0.00     0.157 C 
HETATM    9  O3  UNL     1      -2.097   9.110  11.387  1.00  0.00    -0.293 OA
HETATM   10  C16 UNL     1      -1.955   9.553  13.706  1.00  0.00     0.094 C 
HETATM   11  C17 UNL     1      -1.220   8.991  14.922  1.00  0.00    -0.019 C 
HETATM   12  C18 UNL     1      -1.600   7.489  15.061  1.00  0.00     0.017 C 
HETATM   13  C19 UNL     1       0.517   7.837  10.979  1.00  0.00    -0.008 C 
HETATM   14  C20 UNL     1      -0.166   6.456  10.876  1.00  0.00     0.021 C 
HETATM   15  C21 UNL     1       0.147   8.699   9.736  1.00  0.00     0.022 C 
HETATM   16  C22 UNL     1       0.760   8.214   8.430  1.00  0.00     0.080 C 
HETATM   17  C23 UNL     1       2.259   8.129   8.521  1.00  0.00     0.135 C 
HETATM   18  O4  UNL     1       2.958   8.593   7.617  1.00  0.00    -0.297 OA
HETATM   19  C24 UNL     1       2.851   7.361   9.709  1.00  0.00     0.018 C 
HETATM   20  C25 UNL     1       2.804   5.861   9.388  1.00  0.00     0.023 C 
HETATM   21  C26 UNL     1       4.348   7.754   9.818  1.00  0.00     0.023 C 
HETATM   22  C27 UNL     1       2.100   7.796  11.015  1.00  0.00     0.016 C 
HETATM   23  C28 UNL     1       2.572   7.049  12.266  1.00  0.00     0.043 C 
HETATM   24  C29 UNL     1       2.114   7.759  13.540  1.00  0.00     0.149 C 
ENDROOT
BRANCH   1  25
HETATM   25  C6  UNL     1      -2.768   9.593  17.103  1.00  0.00    -0.011 C 
HETATM   26  C7  UNL     1      -4.082   9.928  16.385  1.00  0.00     0.010 C 
BRANCH  25  27
HETATM   27  C5  UNL     1      -2.655  10.326  18.464  1.00  0.00     0.040 C 
BRANCH  27  28
HETATM   28  C4  UNL     1      -2.746  11.858  18.375  1.00  0.00     0.142 C 
BRANCH  28  29
HETATM   29  C3  UNL     1      -3.836  12.389  19.269  1.00  0.00     0.018 C 
HETATM   30  C2  UNL     1      -4.906  13.148  18.951  1.00  0.00     0.010 C 
HETATM   31  C1  UNL     1      -5.207  13.703  17.588  1.00  0.00     0.055 C 
BRANCH  30  32
HETATM   32  C30 UNL     1      -5.898  13.524  19.994  1.00  0.00     0.171 C 
HETATM   33  O6  UNL     1      -7.109  13.484  19.864  1.00  0.00    -0.646 OA
BRANCH  32  34
HETATM   34  O7  UNL     1      -5.345  13.942  21.145  1.00  0.00    -0.773 OA
HETATM   35  H44 UNL     1      -6.120  14.160  21.702  1.00  0.00     0.167 HD
ENDBRANCH  32  34
ENDBRANCH  30  32
ENDBRANCH  28  29
BRANCH  28  36
HETATM   36  O1  UNL     1      -1.503  12.458  18.701  1.00  0.00    -0.392 OA
HETATM   37  H6  UNL     1      -1.632  13.421  18.658  1.00  0.00     0.210 HD
ENDBRANCH  28  36
ENDBRANCH  27  28
ENDBRANCH  25  27
ENDBRANCH   1  25
BRANCH   3  38
HETATM   38  O2  UNL     1       2.162   9.342  16.364  1.00  0.00    -0.394 OA
HETATM   39  H17 UNL     1       2.360   9.163  17.300  1.00  0.00     0.210 HD
ENDBRANCH   3  38
BRANCH  24  40
HETATM   40  O5  UNL     1       2.063   6.760  14.553  1.00  0.00    -0.391 OA
HETATM   41  H43 UNL     1       2.974   6.645  14.872  1.00  0.00     0.210 HD
ENDBRANCH  24  40
TORSDOF 9
ENDMDL
MODEL 2
REMARK minimizedAffinity -9.59764099
REMARK CNNscore 0.637823164
REMARK CNNaffinity 6.5938983
REMARK  9 active torsions:
REMARK  status: ('A' for Active; 'I' for Inactive)
REMARK    1  A    between atoms: C2_2  and  C30_35 
REMARK    2  A    between atoms: C3_3  and  C4_4 
REMARK    3  A    between atoms: C4_4  and  O1_5 
REMARK    4  A    between atoms: C4_4  and  C5_6 
REMARK    5  A    between atoms: C5_6  and  C6_7 
REMARK    6  A    between atoms: C6_7  and  C8_9 
REMARK    7  A    between atoms: C10_11  and  O2_12 
REMARK    8  A    between atoms: C29_33  and  O5_34 
REMARK    9  A    between atoms: C30_35  and  O7_37 
ROOT
HETATM    1  C8  UNL     1      -6.465   7.152  15.069  1.00  0.00     0.001 C 
HETATM    2  C9  UNL     1      -6.209   8.615  15.529  1.00  0.00     0.038 C 
HETATM    3  C10 UNL     1      -4.722   8.913  15.246  1.00  0.00     0.132 C 
HETATM    4  C11 UNL     1      -4.314   7.857  14.180  1.00  0.00     0.017 C 
HETATM    5  C12 UNL     1      -4.850   8.346  12.791  1.00  0.00     0.023 C 
HETATM    6  C13 UNL     1      -2.843   7.518  13.917  1.00  0.00    -0.029 C 
HETATM    7  C14 UNL     1      -2.496   6.338  13.332  1.00  0.00     0.002 C 
HETATM    8  C15 UNL     1      -3.570   5.268  13.173  1.00  0.00     0.157 C 
HETATM    9  O3  UNL     1      -3.327   4.199  12.614  1.00  0.00    -0.293 OA
HETATM   10  C16 UNL     1      -4.979   5.491  13.707  1.00  0.00     0.094 C 
HETATM   11  C17 UNL     1      -5.037   6.592  14.765  1.00  0.00    -0.019 C 
HETATM   12  C18 UNL     1      -4.366   6.050  16.059  1.00  0.00     0.017 C 
HETATM   13  C19 UNL     1      -1.044   6.028  12.860  1.00  0.00    -0.008 C 
HETATM   14  C20 UNL     1      -0.440   5.134  13.964  1.00  0.00     0.021 C 
HETATM   15  C21 UNL     1      -0.984   5.286  11.493  1.00  0.00     0.022 C 
HETATM   16  C22 UNL     1       0.421   5.113  10.933  1.00  0.00     0.080 C 
HETATM   17  C23 UNL     1       1.125   6.434  10.788  1.00  0.00     0.135 C 
HETATM   18  O4  UNL     1       1.727   6.700   9.746  1.00  0.00    -0.297 OA
HETATM   19  C24 UNL     1       1.145   7.359  12.011  1.00  0.00     0.018 C 
HETATM   20  C25 UNL     1       2.260   6.890  12.956  1.00  0.00     0.023 C 
HETATM   21  C26 UNL     1       1.539   8.776  11.516  1.00  0.00     0.023 C 
HETATM   22  C27 UNL     1      -0.293   7.405  12.633  1.00  0.00     0.016 C 
HETATM   23  C28 UNL     1      -0.382   8.260  13.900  1.00  0.00     0.043 C 
HETATM   24  C29 UNL     1      -1.834   8.594  14.242  1.00  0.00     0.149 C 
ENDROOT
BRANCH   1  25
HETATM   25  C6  UNL     1      -7.501   6.390  15.950  1.00  0.00    -0.011 C 
HETATM   26  C7  UNL     1      -7.635   4.884  15.688  1.00  0.00     0.010 C 
BRANCH  25  27
HETATM   27  C5  UNL     1      -8.880   7.099  15.938  1.00  0.00     0.040 C 
BRANCH  27  28
HETATM   28  C4  UNL     1      -9.784   6.718  14.754  1.00  0.00     0.142 C 
BRANCH  28  29
HETATM   29  C3  UNL     1     -10.332   7.945  14.075  1.00  0.00     0.018 C 
HETATM   30  C2  UNL     1     -11.523   8.121  13.462  1.00  0.00     0.010 C 
HETATM   31  C1  UNL     1     -12.565   7.058  13.263  1.00  0.00     0.055 C 
BRANCH  30  32
HETATM   32  C30 UNL     1     -11.888   9.446  12.894  1.00  0.00     0.171 C 
HETATM   33  O6  UNL     1     -12.638   9.629  11.950  1.00  0.00    -0.646 OA
BRANCH  32  34
HETATM   34  O7  UNL     1     -11.298  10.484  13.512  1.00  0.00    -0.773 OA
HETATM   35  H44 UNL     1     -11.627  11.260  13.014  1.00  0.00     0.167 HD
ENDBRANCH  32  34
ENDBRANCH  30  32
ENDBRANCH  28  29
BRANCH  28  36
HETATM   36  O1  UNL     1      -9.083   5.910  13.823  1.00  0.00    -0.392 OA
HETATM   37  H6  UNL     1      -9.693   5.729  13.087  1.00  0.00     0.210 HD
ENDBRANCH  28  36
ENDBRANCH  27  28
ENDBRANCH  25  27
ENDBRANCH   1  25
BRANCH   3  38
HETATM   38  O2  UNL     1      -4.557  10.254  14.803  1.00  0.00    -0.394 OA
HETATM   39  H17 UNL     1      -4.934  10.830  15.490  1.00  0.00     0.210 HD
ENDBRANCH   3  38
BRANCH  24  40
HETATM   40  O5  UNL     1      -1.865   8.839  15.644  1.00  0.00    -0.391 OA
HETATM   41  H43 UNL     1      -1.561   9.754  15.770  1.00  0.00     0.210 HD
ENDBRANCH  24  40
TORSDOF 9
ENDMDL
MODEL 3
REMARK minimizedAffinity -8.63582611
REMARK CNNscore 0.609031022
REMARK CNNaffinity 6.37995195
REMARK  9 active torsions:
REMARK  status: ('A' for Active; 'I' for Inactive)
REMARK    1  A    between atoms: C2_2  and  C30_35 
REMARK    2  A    between atoms: C3_3  and  C4_4 
REMARK    3  A    between atoms: C4_4  and  O1_5 
REMARK    4  A    between atoms: C4_4  and  C5_6 
REMARK    5  A    between atoms: C5_6  and  C6_7 
REMARK    6  A    between atoms: C6_7  and  C8_9 
REMARK    7  A    between atoms: C10_11  and  O2_12 
REMARK    8  A    between atoms: C29_33  and  O5_34 
REMARK    9  A    between atoms: C30_35  and  O7_37 
ROOT
HETATM    1  C8  UNL     1       7.271  10.826  14.961  1.00  0.00     0.001 C 
HETATM    2  C9  UNL     1       8.368  10.810  13.860  1.00  0.00     0.038 C 
HETATM    3  C10 UNL     1       7.760  10.089  12.640  1.00  0.00     0.132 C 
HETATM    4  C11 UNL     1       6.224  10.190  12.861  1.00  0.00     0.017 C 
HETATM    5  C12 UNL     1       5.773  11.632  12.445  1.00  0.00     0.023 C 
HETATM    6  C13 UNL     1       5.250   9.265  12.122  1.00  0.00    -0.029 C 
HETATM    7  C14 UNL     1       3.996   9.048  12.606  1.00  0.00     0.002 C 
HETATM    8  C15 UNL     1       3.670   9.540  14.011  1.00  0.00     0.157 C 
HETATM    9  O3  UNL     1       2.542   9.411  14.486  1.00  0.00    -0.293 OA
HETATM   10  C16 UNL     1       4.736  10.206  14.872  1.00  0.00     0.094 C 
HETATM   11  C17 UNL     1       6.153   9.888  14.400  1.00  0.00    -0.019 C 
HETATM   12  C18 UNL     1       6.452   8.401  14.742  1.00  0.00     0.017 C 
HETATM   13  C19 UNL     1       2.903   8.285  11.799  1.00  0.00    -0.008 C 
HETATM   14  C20 UNL     1       2.885   6.858  12.390  1.00  0.00     0.021 C 
HETATM   15  C21 UNL     1       1.488   8.921  11.922  1.00  0.00     0.022 C 
HETATM   16  C22 UNL     1       0.436   8.291  11.020  1.00  0.00     0.080 C 
HETATM   17  C23 UNL     1       0.852   8.330   9.575  1.00  0.00     0.135 C 
HETATM   18  O4  UNL     1       0.052   8.703   8.714  1.00  0.00    -0.297 OA
HETATM   19  C24 UNL     1       2.246   7.794   9.228  1.00  0.00     0.018 C 
HETATM   20  C25 UNL     1       2.170   6.263   9.145  1.00  0.00     0.023 C 
HETATM   21  C26 UNL     1       2.602   8.306   7.807  1.00  0.00     0.023 C 
HETATM   22  C27 UNL     1       3.278   8.365  10.262  1.00  0.00     0.016 C 
HETATM   23  C28 UNL     1       4.703   7.850  10.047  1.00  0.00     0.043 C 
HETATM   24  C29 UNL     1       5.721   8.708  10.800  1.00  0.00     0.149 C 
ENDROOT
BRANCH   1  25
HETATM   25  C6  UNL     1       7.833  10.697  16.410  1.00  0.00    -0.011 C 
HETATM   26  C7  UNL     1       7.012  11.370  17.517  1.00  0.00     0.010 C 
BRANCH  25  27
HETATM   27  C5  UNL     1       9.326  11.109  16.472  1.00  0.00     0.040 C 
BRANCH  27  28
HETATM   28  C4  UNL     1      10.223  10.144  17.264  1.00  0.00     0.142 C 
BRANCH  28  29
HETATM   29  C3  UNL     1      10.614  10.734  18.593  1.00  0.00     0.018 C 
HETATM   30  C2  UNL     1      11.668  11.520  18.901  1.00  0.00     0.010 C 
HETATM   31  C1  UNL     1      12.757  11.928  17.950  1.00  0.00     0.055 C 
BRANCH  30  32
HETATM   32  C30 UNL     1      11.840  12.040  20.283  1.00  0.00     0.171 C 
HETATM   33  O6  UNL     1      10.964  12.546  20.962  1.00  0.00    -0.646 OA
BRANCH  32  34
HETATM   34  O7  UNL     1      13.093  11.922  20.756  1.00  0.00    -0.773 OA
HETATM   35  H44 UNL     1      13.035  12.319  21.649  1.00  0.00     0.167 HD
ENDBRANCH  32  34
ENDBRANCH  30  32
ENDBRANCH  28  29
BRANCH  28  36
HETATM   36  O1  UNL     1       9.580   8.893  17.449  1.00  0.00    -0.392 OA
HETATM   37  H6  UNL     1      10.178   8.341  17.979  1.00  0.00     0.210 HD
ENDBRANCH  28  36
ENDBRANCH  27  28
ENDBRANCH  25  27
ENDBRANCH   1  25
BRANCH   3  38
HETATM   38  O2  UNL     1       8.196  10.697  11.431  1.00  0.00    -0.394 OA
HETATM   39  H17 UNL     1       9.170  10.676  11.436  1.00  0.00     0.210 HD
ENDBRANCH   3  38
BRANCH  24  40
HETATM   40  O5  UNL     1       6.849   7.872  11.033  1.00  0.00    -0.391 OA
HETATM   41  H43 UNL     1       7.366   7.872  10.210  1.00  0.00     0.210 HD
ENDBRANCH  24  40
TORSDOF 9
ENDMDL
MODEL 4
REMARK minimizedAffinity -7.75803852
REMARK CNNscore 0.60136658
REMARK CNNaffinity 6.26346636
REMARK  9 active torsions:
REMARK  status: ('A' for Active; 'I' for Inactive)
REMARK    1  A    between atoms: C2_2  and  C30_35 
REMARK    2  A    between atoms: C3_3  and  C4_4 
REMARK    3  A    between atoms: C4_4  and  O1_5 
REMARK    4  A    between atoms: C4_4  and  C5_6 
REMARK    5  A    between atoms: C5_6  and  C6_7 
REMARK    6  A    between atoms: C6_7  and  C8_9 
REMARK    7  A    between atoms: C10_11  and  O2_12 
REMARK    8  A    between atoms: C29_33  and  O5_34 
REMARK    9  A    between atoms: C30_35  and  O7_37 
ROOT
HETATM    1  C8  UNL     1       1.602  11.905  18.405  1.00  0.00     0.001 C 
HETATM    2  C9  UNL     1       0.598  13.049  18.722  1.00  0.00     0.038 C 
HETATM    3  C10 UNL     1      -0.699  12.723  17.954  1.00  0.00     0.132 C 
HETATM    4  C11 UNL     1      -0.605  11.198  17.668  1.00  0.00     0.017 C 
HETATM    5  C12 UNL     1      -0.994  10.439  18.983  1.00  0.00     0.023 C 
HETATM    6  C13 UNL     1      -1.462  10.535  16.584  1.00  0.00    -0.029 C 
HETATM    7  C14 UNL     1      -1.095   9.341  16.042  1.00  0.00     0.002 C 
HETATM    8  C15 UNL     1       0.297   8.805  16.352  1.00  0.00     0.157 C 
HETATM    9  O3  UNL     1       0.669   7.712  15.926  1.00  0.00    -0.293 OA
HETATM   10  C16 UNL     1       1.273   9.612  17.200  1.00  0.00     0.094 C 
HETATM   11  C17 UNL     1       0.908  11.094  17.263  1.00  0.00    -0.019 C 
HETATM   12  C18 UNL     1       1.210  11.722  15.873  1.00  0.00     0.017 C 
HETATM   13  C19 UNL     1      -2.024   8.529  15.091  1.00  0.00    -0.008 C 
HETATM   14  C20 UNL     1      -1.500   8.818  13.667  1.00  0.00     0.021 C 
HETATM   15  C21 UNL     1      -1.994   6.996  15.358  1.00  0.00     0.022 C 
HETATM   16  C22 UNL     1      -3.008   6.197  14.552  1.00  0.00     0.080 C 
HETATM   17  C23 UNL     1      -4.409   6.692  14.780  1.00  0.00     0.135 C 
HETATM   18  O4  UNL     1      -5.318   5.889  15.002  1.00  0.00    -0.297 OA
HETATM   19  C24 UNL     1      -4.660   8.197  14.618  1.00  0.00     0.018 C 
HETATM   20  C25 UNL     1      -4.816   8.504  13.122  1.00  0.00     0.023 C 
HETATM   21  C26 UNL     1      -6.023   8.517  15.289  1.00  0.00     0.023 C 
HETATM   22  C27 UNL     1      -3.519   8.981  15.354  1.00  0.00     0.016 C 
HETATM   23  C28 UNL     1      -3.635  10.501  15.212  1.00  0.00     0.043 C 
HETATM   24  C29 UNL     1      -2.763  11.221  16.241  1.00  0.00     0.149 C 
ENDROOT
BRANCH   1  25
HETATM   25  C6  UNL     1       3.086  12.377  18.325  1.00  0.00    -0.011 C 
HETATM   26  C7  UNL     1       4.047  11.463  17.553  1.00  0.00     0.010 C 
BRANCH  25  27
HETATM   27  C5  UNL     1       3.638  12.737  19.728  1.00  0.00     0.040 C 
BRANCH  27  28
HETATM   28  C4  UNL     1       4.462  11.623  20.395  1.00  0.00     0.142 C 
BRANCH  28  29
HETATM   29  C3  UNL     1       3.567  10.562  20.976  1.00  0.00     0.018 C 
HETATM   30  C2  UNL     1       3.629   9.960  22.185  1.00  0.00     0.010 C 
HETATM   31  C1  UNL     1       4.695  10.190  23.218  1.00  0.00     0.055 C 
BRANCH  30  32
HETATM   32  C30 UNL     1       2.602   8.961  22.581  1.00  0.00     0.171 C 
HETATM   33  O6  UNL     1       1.922   8.303  21.813  1.00  0.00    -0.646 OA
BRANCH  32  34
HETATM   34  O7  UNL     1       2.454   8.832  23.911  1.00  0.00    -0.773 OA
HETATM   35  H44 UNL     1       1.744   8.163  23.995  1.00  0.00     0.167 HD
ENDBRANCH  32  34
ENDBRANCH  30  32
ENDBRANCH  28  29
BRANCH  28  36
HETATM   36  O1  UNL     1       5.375  11.049  19.474  1.00  0.00    -0.392 OA
HETATM   37  H6  UNL     1       5.842  10.336  19.942  1.00  0.00     0.210 HD
ENDBRANCH  28  36
ENDBRANCH  27  28
ENDBRANCH  25  27
ENDBRANCH   1  25
BRANCH   3  38
HETATM   38  O2  UNL     1      -1.839  13.083  18.724  1.00  0.00    -0.394 OA
HETATM   39  H17 UNL     1      -1.753  14.029  18.936  1.00  0.00     0.210 HD
ENDBRANCH   3  38
BRANCH  24  40
HETATM   40  O5  UNL     1      -2.472  12.500  15.688  1.00  0.00    -0.391 OA
HETATM   41  H43 UNL     1      -3.248  13.059  15.864  1.00  0.00     0.210 HD
ENDBRANCH  24  40
TORSDOF 9
ENDMDL
MODEL 5
REMARK minimizedAffinity -7.60039711
REMARK CNNscore 0.598241925
REMARK CNNaffinity 6.1289444
REMARK  9 active torsions:
REMARK  status: ('A' for Active; 'I' for Inactive)
REMARK    1  A    between atoms: C2_2  and  C30_35 
REMARK    2  A    between atoms: C3_3  and  C4_4 
REMARK    3  A    between atoms: C4_4  and  O1_5 
REMARK    4  A    between atoms: C4_4  and  C5_6 
REMARK    5  A    between atoms: C5_6  and  C6_7 
REMARK    6  A    between atoms: C6_7  and  C8_9 
REMARK    7  A    between atoms: C10_11  and  O2_12 
REMARK    8  A    between atoms: C29_33  and  O5_34 
REMARK    9  A    between atoms: C30_35  and  O7_37 
ROOT
HETATM    1  C8  UNL     1      -9.648   7.409  14.066  1.00  0.00     0.001 C 
HETATM    2  C9  UNL     1     -10.981   6.615  13.963  1.00  0.00     0.038 C 
HETATM    3  C10 UNL     1     -12.030   7.406  14.770  1.00  0.00     0.132 C 
HETATM    4  C11 UNL     1     -11.445   8.844  14.857  1.00  0.00     0.017 C 
HETATM    5  C12 UNL     1     -11.717   9.555  13.487  1.00  0.00     0.023 C 
HETATM    6  C13 UNL     1     -11.943   9.845  15.905  1.00  0.00    -0.029 C 
HETATM    7  C14 UNL     1     -11.174  10.910  16.268  1.00  0.00     0.002 C 
HETATM    8  C15 UNL     1      -9.725  10.946  15.800  1.00  0.00     0.157 C 
HETATM    9  O3  UNL     1      -8.995  11.902  16.061  1.00  0.00    -0.293 OA
HETATM   10  C16 UNL     1      -9.135   9.795  14.995  1.00  0.00     0.094 C 
HETATM   11  C17 UNL     1      -9.939   8.505  15.142  1.00  0.00    -0.019 C 
HETATM   12  C18 UNL     1      -9.702   7.952  16.576  1.00  0.00     0.017 C 
HETATM   13  C19 UNL     1     -11.707  12.062  17.172  1.00  0.00    -0.008 C 
HETATM   14  C20 UNL     1     -11.153  11.762  18.582  1.00  0.00     0.021 C 
HETATM   15  C21 UNL     1     -11.238  13.473  16.714  1.00  0.00     0.022 C 
HETATM   16  C22 UNL     1     -11.871  14.625  17.481  1.00  0.00     0.080 C 
HETATM   17  C23 UNL     1     -13.373  14.577  17.412  1.00  0.00     0.135 C 
HETATM   18  O4  UNL     1     -14.010  15.600  17.154  1.00  0.00    -0.297 OA
HETATM   19  C24 UNL     1     -14.053  13.252  17.777  1.00  0.00     0.018 C 
HETATM   20  C25 UNL     1     -14.139  13.156  19.306  1.00  0.00     0.023 C 
HETATM   21  C26 UNL     1     -15.509  13.314  17.245  1.00  0.00     0.023 C 
HETATM   22  C27 UNL     1     -13.288  12.080  17.069  1.00  0.00     0.016 C 
HETATM   23  C28 UNL     1     -13.847  10.696  17.406  1.00  0.00     0.043 C 
HETATM   24  C29 UNL     1     -13.348   9.641  16.418  1.00  0.00     0.149 C 
ENDROOT
BRANCH   1  25
HETATM   25  C6  UNL     1      -8.379   6.504  14.104  1.00  0.00    -0.011 C 
HETATM   26  C7  UNL     1      -7.040   7.222  14.318  1.00  0.00     0.010 C 
BRANCH  25  27
HETATM   27  C5  UNL     1      -8.331   5.553  12.881  1.00  0.00     0.040 C 
BRANCH  27  28
HETATM   28  C4  UNL     1      -7.774   4.151  13.182  1.00  0.00     0.142 C 
BRANCH  28  29
HETATM   29  C3  UNL     1      -6.342   4.029  12.735  1.00  0.00     0.018 C 
HETATM   30  C2  UNL     1      -5.742   3.026  12.057  1.00  0.00     0.010 C 
HETATM   31  C1  UNL     1      -6.396   1.736  11.652  1.00  0.00     0.055 C 
BRANCH  30  32
HETATM   32  C30 UNL     1      -4.311   3.132  11.667  1.00  0.00     0.171 C 
HETATM   33  O6  UNL     1      -3.374   3.234  12.439  1.00  0.00    -0.646 OA
BRANCH  32  34
HETATM   34  O7  UNL     1      -4.108   3.122  10.339  1.00  0.00    -0.773 OA
HETATM   35  H44 UNL     1      -3.136   3.214  10.258  1.00  0.00     0.167 HD
ENDBRANCH  32  34
ENDBRANCH  30  32
ENDBRANCH  28  29
BRANCH  28  36
HETATM   36  O1  UNL     1      -7.888   3.850  14.564  1.00  0.00    -0.392 OA
HETATM   37  H6  UNL     1      -7.494   2.971  14.697  1.00  0.00     0.210 HD
ENDBRANCH  28  36
ENDBRANCH  27  28
ENDBRANCH  25  27
ENDBRANCH   1  25
BRANCH   3  38
HETATM   38  O2  UNL     1     -13.298   7.351  14.130  1.00  0.00    -0.394 OA
HETATM   39  H17 UNL     1     -13.528   6.410  14.032  1.00  0.00     0.210 HD
ENDBRANCH   3  38
BRANCH  24  40
HETATM   40  O5  UNL     1     -13.406   8.396  17.106  1.00  0.00    -0.391 OA
HETATM   41  H43 UNL     1     -14.329   8.096  17.053  1.00  0.00     0.210 HD
ENDBRANCH  24  40
TORSDOF 9
ENDMDL
MODEL 6
REMARK minimizedAffinity -8.25281048
REMARK CNNscore 0.476535857
REMARK CNNaffinity 6.41341782
REMARK  9 active torsions:
REMARK  status: ('A' for Active; 'I' for Inactive)
REMARK    1  A    between atoms: C2_2  and  C30_35 
REMARK    2  A    between atoms: C3_3  and  C4_4 
REMARK    3  A    between atoms: C4_4  and  O1_5 
REMARK    4  A    between atoms: C4_4  and  C5_6 
REMARK    5  A    between atoms: C5_6  and  C6_7 
REMARK    6  A    between atoms: C6_7  and  C8_9 
REMARK    7  A    between atoms: C10_11  and  O2_12 
REMARK    8  A    between atoms: C29_33  and  O5_34 
REMARK    9  A    between atoms: C30_35  and  O7_37 
ROOT
HETATM    1  C8  UNL     1       7.920   9.650  14.920  1.00  0.00     0.001 C 
HETATM    2  C9  UNL     1       6.969  10.446  15.856  1.00  0.00     0.038 C 
HETATM    3  C10 UNL     1       5.555  10.332  15.250  1.00  0.00     0.132 C 
HETATM    4  C11 UNL     1       5.631   9.081  14.330  1.00  0.00     0.017 C 
HETATM    5  C12 UNL     1       5.526   7.810  15.240  1.00  0.00     0.023 C 
HETATM    6  C13 UNL     1       4.595   8.840  13.227  1.00  0.00    -0.029 C 
HETATM    7  C14 UNL     1       4.879   8.024  12.174  1.00  0.00     0.002 C 
HETATM    8  C15 UNL     1       6.318   7.559  11.990  1.00  0.00     0.157 C 
HETATM    9  O3  UNL     1       6.628   6.787  11.083  1.00  0.00    -0.293 OA
HETATM   10  C16 UNL     1       7.420   8.040  12.925  1.00  0.00     0.094 C 
HETATM   11  C17 UNL     1       7.038   9.316  13.674  1.00  0.00    -0.019 C 
HETATM   12  C18 UNL     1       7.046  10.491  12.655  1.00  0.00     0.017 C 
HETATM   13  C19 UNL     1       3.803   7.585  11.136  1.00  0.00    -0.008 C 
HETATM   14  C20 UNL     1       4.031   8.491   9.907  1.00  0.00     0.021 C 
HETATM   15  C21 UNL     1       3.924   6.091  10.715  1.00  0.00     0.022 C 
HETATM   16  C22 UNL     1       2.793   5.595   9.826  1.00  0.00     0.080 C 
HETATM   17  C23 UNL     1       1.451   5.800  10.473  1.00  0.00     0.135 C 
HETATM   18  O4  UNL     1       0.624   4.885  10.480  1.00  0.00    -0.297 OA
HETATM   19  C24 UNL     1       1.134   7.201  11.013  1.00  0.00     0.018 C 
HETATM   20  C25 UNL     1       0.682   8.081   9.840  1.00  0.00     0.023 C 
HETATM   21  C26 UNL     1      -0.078   7.067  11.972  1.00  0.00     0.023 C 
HETATM   22  C27 UNL     1       2.377   7.726  11.812  1.00  0.00     0.016 C 
HETATM   23  C28 UNL     1       2.197   9.146  12.354  1.00  0.00     0.043 C 
HETATM   24  C29 UNL     1       3.235   9.464  13.430  1.00  0.00     0.149 C 
ENDROOT
BRANCH   1  25
HETATM   25  C6  UNL     1       9.348  10.267  14.803  1.00  0.00    -0.011 C 
HETATM   26  C7  UNL     1      10.452   9.330  14.298  1.00  0.00     0.010 C 
BRANCH  25  27
HETATM   27  C5  UNL     1       9.759  10.985  16.114  1.00  0.00     0.040 C 
BRANCH  27  28
HETATM   28  C4  UNL     1      10.436  10.078  17.154  1.00  0.00     0.142 C 
BRANCH  28  29
HETATM   29  C3  UNL     1      10.821  10.857  18.383  1.00  0.00     0.018 C 
HETATM   30  C2  UNL     1      10.032  11.364  19.355  1.00  0.00     0.010 C 
HETATM   31  C1  UNL     1       8.531  11.309  19.375  1.00  0.00     0.055 C 
BRANCH  30  32
HETATM   32  C30 UNL     1      10.631  12.067  20.521  1.00  0.00     0.171 C 
HETATM   33  O6  UNL     1      11.758  12.528  20.565  1.00  0.00    -0.646 OA
BRANCH  32  34
HETATM   34  O7  UNL     1       9.812  12.155  21.582  1.00  0.00    -0.773 OA
HETATM   35  H44 UNL     1      10.356  12.619  22.250  1.00  0.00     0.167 HD
ENDBRANCH  32  34
ENDBRANCH  30  32
ENDBRANCH  28  29
BRANCH  28  36
HETATM   36  O1  UNL     1       9.592   8.992  17.503  1.00  0.00    -0.392 OA
HETATM   37  H6  UNL     1      10.058   8.476  18.182  1.00  0.00     0.210 HD
ENDBRANCH  28  36
ENDBRANCH  27  28
ENDBRANCH  25  27
ENDBRANCH   1  25
BRANCH   3  38
HETATM   38  O2  UNL     1       4.579  10.218  16.278  1.00  0.00    -0.394 OA
HETATM   39  H17 UNL     1       4.681  10.994  16.856  1.00  0.00     0.210 HD
ENDBRANCH   3  38
BRANCH  24  40
HETATM   40  O5  UNL     1       3.379  10.880  13.435  1.00  0.00    -0.391 OA
HETATM   41  H43 UNL     1       2.639  11.230  13.960  1.00  0.00     0.210 HD
ENDBRANCH  24  40
TORSDOF 9
ENDMDL
MODEL 7
REMARK minimizedAffinity -7.81562185
REMARK CNNscore 0.388908267
REMARK CNNaffinity 5.99176025
REMARK  9 active torsions:
REMARK  status: ('A' for Active; 'I' for Inactive)
REMARK    1  A    between atoms: C2_2  and  C30_35 
REMARK    2  A    between atoms: C3_3  and  C4_4 
REMARK    3  A    between atoms: C4_4  and  O1_5 
REMARK    4  A    between atoms: C4_4  and  C5_6 
REMARK    5  A    between atoms: C5_6  and  C6_7 
REMARK    6  A    between atoms: C6_7  and  C8_9 
REMARK    7  A    between atoms: C10_11  and  O2_12 
REMARK    8  A    between atoms: C29_33  and  O5_34 
REMARK    9  A    between atoms: C30_35  and  O7_37 
ROOT
HETATM    1  C8  UNL     1     -14.535  -5.209  10.003  1.00  0.00     0.001 C 
HETATM    2  C9  UNL     1     -14.239  -3.765   9.508  1.00  0.00     0.038 C 
HETATM    3  C10 UNL     1     -14.790  -2.808  10.584  1.00  0.00     0.132 C 
HETATM    4  C11 UNL     1     -14.892  -3.685  11.864  1.00  0.00     0.017 C 
HETATM    5  C12 UNL     1     -13.454  -3.813  12.474  1.00  0.00     0.023 C 
HETATM    6  C13 UNL     1     -15.767  -3.265  13.050  1.00  0.00    -0.029 C 
HETATM    7  C14 UNL     1     -16.198  -4.188  13.955  1.00  0.00     0.002 C 
HETATM    8  C15 UNL     1     -16.003  -5.663  13.631  1.00  0.00     0.157 C 
HETATM    9  O3  UNL     1     -16.333  -6.541  14.429  1.00  0.00    -0.293 OA
HETATM   10  C16 UNL     1     -15.393  -6.097  12.304  1.00  0.00     0.094 C 
HETATM   11  C17 UNL     1     -15.470  -5.005  11.239  1.00  0.00    -0.019 C 
HETATM   12  C18 UNL     1     -16.954  -4.869  10.797  1.00  0.00     0.017 C 
HETATM   13  C19 UNL     1     -16.915  -3.793  15.281  1.00  0.00    -0.008 C 
HETATM   14  C20 UNL     1     -18.419  -4.024  15.014  1.00  0.00     0.021 C 
HETATM   15  C21 UNL     1     -16.465  -4.643  16.504  1.00  0.00     0.022 C 
HETATM   16  C22 UNL     1     -17.030  -4.175  17.838  1.00  0.00     0.080 C 
HETATM   17  C23 UNL     1     -16.690  -2.735  18.107  1.00  0.00     0.135 C 
HETATM   18  O4  UNL     1     -16.255  -2.401  19.212  1.00  0.00    -0.297 OA
HETATM   19  C24 UNL     1     -17.005  -1.717  17.004  1.00  0.00     0.018 C 
HETATM   20  C25 UNL     1     -18.495  -1.360  17.085  1.00  0.00     0.023 C 
HETATM   21  C26 UNL     1     -16.212  -0.422  17.324  1.00  0.00     0.023 C 
HETATM   22  C27 UNL     1     -16.523  -2.298  15.629  1.00  0.00     0.016 C 
HETATM   23  C28 UNL     1     -16.838  -1.387  14.440  1.00  0.00     0.043 C 
HETATM   24  C29 UNL     1     -16.026  -1.786  13.207  1.00  0.00     0.149 C 
ENDROOT
BRANCH   1  25
HETATM   25  C6  UNL     1     -14.861  -6.211   8.854  1.00  0.00    -0.011 C 
HETATM   26  C7  UNL     1     -14.398  -7.659   9.066  1.00  0.00     0.010 C 
BRANCH  25  27
HETATM   27  C5  UNL     1     -14.405  -5.658   7.479  1.00  0.00     0.040 C 
BRANCH  27  28
HETATM   28  C4  UNL     1     -13.249  -6.436   6.829  1.00  0.00     0.142 C 
BRANCH  28  29
HETATM   29  C3  UNL     1     -12.920  -5.879   5.469  1.00  0.00     0.018 C 
HETATM   30  C2  UNL     1     -12.230  -6.450   4.457  1.00  0.00     0.010 C 
HETATM   31  C1  UNL     1     -11.561  -7.793   4.509  1.00  0.00     0.055 C 
BRANCH  30  32
HETATM   32  C30 UNL     1     -12.062  -5.735   3.164  1.00  0.00     0.171 C 
HETATM   33  O6  UNL     1     -11.199  -5.966   2.336  1.00  0.00    -0.646 OA
BRANCH  32  34
HETATM   34  O7  UNL     1     -12.962  -4.758   2.963  1.00  0.00    -0.773 OA
HETATM   35  H44 UNL     1     -12.703  -4.388   2.094  1.00  0.00     0.167 HD
ENDBRANCH  32  34
ENDBRANCH  30  32
ENDBRANCH  28  29
BRANCH  28  36
HETATM   36  O1  UNL     1     -12.100  -6.421   7.660  1.00  0.00    -0.392 OA
HETATM   37  H6  UNL     1     -11.398  -6.897   7.185  1.00  0.00     0.210 HD
ENDBRANCH  28  36
ENDBRANCH  27  28
ENDBRANCH  25  27
ENDBRANCH   1  25
BRANCH   3  38
HETATM   38  O2  UNL     1     -13.932  -1.684  10.739  1.00  0.00    -0.394 OA
HETATM   39  H17 UNL     1     -13.852  -1.264   9.865  1.00  0.00     0.210 HD
ENDBRANCH   3  38
BRANCH  24  40
HETATM   40  O5  UNL     1     -16.767  -1.331  12.080  1.00  0.00    -0.391 OA
HETATM   41  H43 UNL     1     -16.565  -0.385  11.982  1.00  0.00     0.210 HD
ENDBRANCH  24  40
TORSDOF 9
ENDMDL
MODEL 8
REMARK minimizedAffinity -8.85351276
REMARK CNNscore 0.38029775
REMARK CNNaffinity 6.3663125
REMARK  9 active torsions:
REMARK  status: ('A' for Active; 'I' for Inactive)
REMARK    1  A    between atoms: C2_2  and  C30_35 
REMARK    2  A    between atoms: C3_3  and  C4_4 
REMARK    3  A    between atoms: C4_4  and  O1_5 
REMARK    4  A    between atoms: C4_4  and  C5_6 
REMARK    5  A    between atoms: C5_6  and  C6_7 
REMARK    6  A    between atoms: C6_7  and  C8_9 
REMARK    7  A    between atoms: C10_11  and  O2_12 
REMARK    8  A    between atoms: C29_33  and  O5_34 
REMARK    9  A    between atoms: C30_35  and  O7_37 
ROOT
HETATM    1  C8  UNL     1      -1.012   9.818  15.110  1.00  0.00     0.001 C 
HETATM    2  C9  UNL     1      -0.017   8.855  14.402  1.00  0.00     0.038 C 
HETATM    3  C10 UNL     1      -0.820   7.598  14.013  1.00  0.00     0.132 C 
HETATM    4  C11 UNL     1      -2.301   8.072  14.015  1.00  0.00     0.017 C 
HETATM    5  C12 UNL     1      -2.556   8.852  12.680  1.00  0.00     0.023 C 
HETATM    6  C13 UNL     1      -3.458   7.069  14.090  1.00  0.00    -0.029 C 
HETATM    7  C14 UNL     1      -4.690   7.462  14.518  1.00  0.00     0.002 C 
HETATM    8  C15 UNL     1      -4.829   8.842  15.148  1.00  0.00     0.157 C 
HETATM    9  O3  UNL     1      -5.924   9.269  15.514  1.00  0.00    -0.293 OA
HETATM   10  C16 UNL     1      -3.611   9.736  15.347  1.00  0.00     0.094 C 
HETATM   11  C17 UNL     1      -2.299   8.955  15.313  1.00  0.00    -0.019 C 
HETATM   12  C18 UNL     1      -2.206   8.116  16.619  1.00  0.00     0.017 C 
HETATM   13  C19 UNL     1      -5.945   6.544  14.425  1.00  0.00    -0.008 C 
HETATM   14  C20 UNL     1      -6.136   5.971  15.846  1.00  0.00     0.021 C 
HETATM   15  C21 UNL     1      -7.233   7.300  13.987  1.00  0.00     0.022 C 
HETATM   16  C22 UNL     1      -8.435   6.400  13.735  1.00  0.00     0.080 C 
HETATM   17  C23 UNL     1      -8.130   5.345  12.707  1.00  0.00     0.135 C 
HETATM   18  O4  UNL     1      -8.927   5.129  11.791  1.00  0.00    -0.297 OA
HETATM   19  C24 UNL     1      -6.864   4.504  12.914  1.00  0.00     0.018 C 
HETATM   20  C25 UNL     1      -7.179   3.397  13.929  1.00  0.00     0.023 C 
HETATM   21  C26 UNL     1      -6.544   3.805  11.567  1.00  0.00     0.023 C 
HETATM   22  C27 UNL     1      -5.682   5.459  13.300  1.00  0.00     0.016 C 
HETATM   23  C28 UNL     1      -4.372   4.720  13.588  1.00  0.00     0.043 C 
HETATM   24  C29 UNL     1      -3.181   5.679  13.571  1.00  0.00     0.149 C 
ENDROOT
BRANCH   1  25
HETATM   25  C6  UNL     1      -0.366  10.654  16.257  1.00  0.00    -0.011 C 
HETATM   26  C7  UNL     1      -0.693  12.153  16.269  1.00  0.00     0.010 C 
BRANCH  25  27
HETATM   27  C5  UNL     1       1.160  10.399  16.349  1.00  0.00     0.040 C 
BRANCH  27  28
HETATM   28  C4  UNL     1       1.930  11.428  17.193  1.00  0.00     0.142 C 
BRANCH  28  29
HETATM   29  C3  UNL     1       2.489  10.795  18.440  1.00  0.00     0.018 C 
HETATM   30  C2  UNL     1       1.897  10.603  19.639  1.00  0.00     0.010 C 
HETATM   31  C1  UNL     1       0.517  11.065  20.012  1.00  0.00     0.055 C 
BRANCH  30  32
HETATM   32  C30 UNL     1       2.622   9.904  20.733  1.00  0.00     0.171 C 
HETATM   33  O6  UNL     1       2.114   9.166  21.558  1.00  0.00    -0.646 OA
BRANCH  32  34
HETATM   34  O7  UNL     1       3.941  10.161  20.761  1.00  0.00    -0.773 OA
HETATM   35  H44 UNL     1       4.254   9.646  21.533  1.00  0.00     0.167 HD
ENDBRANCH  32  34
ENDBRANCH  30  32
ENDBRANCH  28  29
BRANCH  28  36
HETATM   36  O1  UNL     1       2.969  12.027  16.435  1.00  0.00    -0.392 OA
HETATM   37  H6  UNL     1       3.436  12.640  17.027  1.00  0.00     0.210 HD
ENDBRANCH  28  36
ENDBRANCH  27  28
ENDBRANCH  25  27
ENDBRANCH   1  25
BRANCH   3  38
HETATM   38  O2  UNL     1      -0.389   7.100  12.752  1.00  0.00    -0.394 OA
HETATM   39  H17 UNL     1       0.566   6.931  12.824  1.00  0.00     0.210 HD
ENDBRANCH   3  38
BRANCH  24  40
HETATM   40  O5  UNL     1      -2.179   5.079  14.387  1.00  0.00    -0.391 OA
HETATM   41  H43 UNL     1      -1.732   4.418  13.832  1.00  0.00     0.210 HD
ENDBRANCH  24  40
TORSDOF 9
ENDMDL
MODEL 9
REMARK minimizedAffinity -8.56201935
REMARK CNNscore 0.367066741
REMARK CNNaffinity 5.9617691
REMARK  9 active torsions:
REMARK  status: ('A' for Active; 'I' for Inactive)
REMARK    1  A    between atoms: C2_2  and  C30_35 
REMARK    2  A    between atoms: C3_3  and  C4_4 
REMARK    3  A    between atoms: C4_4  and  O1_5 
REMARK    4  A    between atoms: C4_4  and  C5_6 
REMARK    5  A    between atoms: C5_6  and  C6_7 
REMARK    6  A    between atoms: C6_7  and  C8_9 
REMARK    7  A    between atoms: C10_11  and  O2_12 
REMARK    8  A    between atoms: C29_33  and  O5_34 
REMARK    9  A    between atoms: C30_35  and  O7_37 
ROOT
HETATM    1  C8  UNL     1       7.014   8.364  14.387  1.00  0.00     0.001 C 
HETATM    2  C9  UNL     1       8.063   8.246  13.245  1.00  0.00     0.038 C 
HETATM    3  C10 UNL     1       9.260   9.129  13.652  1.00  0.00     0.132 C 
HETATM    4  C11 UNL     1       9.113   9.290  15.191  1.00  0.00     0.017 C 
HETATM    5  C12 UNL     1       9.640   7.976  15.863  1.00  0.00     0.023 C 
HETATM    6  C13 UNL     1       9.834  10.412  15.947  1.00  0.00    -0.029 C 
HETATM    7  C14 UNL     1       9.392  10.821  17.169  1.00  0.00     0.002 C 
HETATM    8  C15 UNL     1       8.037  10.318  17.651  1.00  0.00     0.157 C 
HETATM    9  O3  UNL     1       7.604  10.619  18.764  1.00  0.00    -0.293 OA
HETATM   10  C16 UNL     1       7.174   9.428  16.766  1.00  0.00     0.094 C 
HETATM   11  C17 UNL     1       7.563   9.514  15.292  1.00  0.00    -0.019 C 
HETATM   12  C18 UNL     1       7.113  10.904  14.758  1.00  0.00     0.017 C 
HETATM   13  C19 UNL     1      10.196  11.809  18.066  1.00  0.00    -0.008 C 
HETATM   14  C20 UNL     1       9.517  13.182  17.867  1.00  0.00     0.021 C 
HETATM   15  C21 UNL     1      10.176  11.429  19.575  1.00  0.00     0.022 C 
HETATM   16  C22 UNL     1      11.081  12.284  20.451  1.00  0.00     0.080 C 
HETATM   17  C23 UNL     1      12.506  12.251  19.970  1.00  0.00     0.135 C 
HETATM   18  O4  UNL     1      13.424  12.074  20.775  1.00  0.00    -0.297 OA
HETATM   19  C24 UNL     1      12.757  12.550  18.487  1.00  0.00     0.018 C 
HETATM   20  C25 UNL     1      12.745  14.072  18.290  1.00  0.00     0.023 C 
HETATM   21  C26 UNL     1      14.190  12.061  18.149  1.00  0.00     0.023 C 
HETATM   22  C27 UNL     1      11.717  11.749  17.628  1.00  0.00     0.016 C 
HETATM   23  C28 UNL     1      11.836  12.013  16.125  1.00  0.00     0.043 C 
HETATM   24  C29 UNL     1      11.096  10.948  15.316  1.00  0.00     0.149 C 
ENDROOT
BRANCH   1  25
HETATM   25  C6  UNL     1       5.537   8.311  13.890  1.00  0.00    -0.011 C 
HETATM   26  C7  UNL     1       4.455   8.332  14.978  1.00  0.00     0.010 C 
BRANCH  25  27
HETATM   27  C5  UNL     1       5.322   7.147  12.889  1.00  0.00     0.040 C 
BRANCH  27  28
HETATM   28  C4  UNL     1       4.590   7.544  11.596  1.00  0.00     0.142 C 
BRANCH  28  29
HETATM   29  C3  UNL     1       4.210   6.327  10.794  1.00  0.00     0.018 C 
HETATM   30  C2  UNL     1       3.584   6.254   9.599  1.00  0.00     0.010 C 
HETATM   31  C1  UNL     1       3.053   7.424   8.822  1.00  0.00     0.055 C 
BRANCH  30  32
HETATM   32  C30 UNL     1       3.348   4.935   8.954  1.00  0.00     0.171 C 
HETATM   33  O6  UNL     1       3.402   4.715   7.756  1.00  0.00    -0.646 OA
BRANCH  32  34
HETATM   34  O7  UNL     1       3.044   3.953   9.819  1.00  0.00    -0.773 OA
HETATM   35  H44 UNL     1       2.906   3.176   9.240  1.00  0.00     0.167 HD
ENDBRANCH  32  34
ENDBRANCH  30  32
ENDBRANCH  28  29
BRANCH  28  36
HETATM   36  O1  UNL     1       3.441   8.324  11.884  1.00  0.00    -0.392 OA
HETATM   37  H6  UNL     1       3.007   8.516  11.036  1.00  0.00     0.210 HD
ENDBRANCH  28  36
ENDBRANCH  27  28
ENDBRANCH  25  27
ENDBRANCH   1  25
BRANCH   3  38
HETATM   38  O2  UNL     1      10.485   8.520  13.263  1.00  0.00    -0.394 OA
HETATM   39  H17 UNL     1      10.435   8.369  12.302  1.00  0.00     0.210 HD
ENDBRANCH   3  38
BRANCH  24  40
HETATM   40  O5  UNL     1      10.761  11.558  14.073  1.00  0.00    -0.391 OA
HETATM   41  H43 UNL     1      11.559  11.511  13.520  1.00  0.00     0.210 HD
ENDBRANCH  24  40
TORSDOF 9
ENDMDL
