MODEL 1
REMARK minimizedAffinity -7.76520348
REMARK CNNscore 0.579024374
REMARK CNNaffinity 7.33900595
REMARK  12 active torsions:
REMARK  status: ('A' for Active; 'I' for Inactive)
REMARK    1  A    between atoms: C2_2  and  C3_3 
REMARK    2  A    between atoms: C2_2  and  C10_14 
REMARK    3  A    between atoms: C3_3  and  O1_4 
REMARK    4  A    between atoms: C3_3  and  C4_5 
REMARK    5  A    between atoms: C4_5  and  C5_6 
REMARK    6  A    between atoms: C5_6  and  O2_7 
REMARK    7  A    between atoms: C5_6  and  C6_8 
REMARK    8  A    between atoms: C5_6  and  C7_10 
REMARK    9  A    between atoms: C6_8  and  O3_9 
REMARK   10  A    between atoms: C7_10  and  O4_13 
REMARK   11  A    between atoms: C19_23  and  C20_24 
REMARK   12  A    between atoms: C20_24  and  O5_25 
ROOT
HETATM    1  C10 UNL     1      -7.614   6.153  14.587  1.00  0.00     0.001 C 
HETATM    2  C11 UNL     1      -8.258   5.675  13.248  1.00  0.00     0.007 C 
HETATM    3  C12 UNL     1      -7.106   5.367  12.275  1.00  0.00     0.011 C 
HETATM    4  C13 UNL     1      -5.860   5.229  13.172  1.00  0.00    -0.032 C 
HETATM    5  C14 UNL     1      -5.934   3.790  13.794  1.00  0.00     0.016 C 
HETATM    6  C15 UNL     1      -4.497   5.449  12.428  1.00  0.00     0.004 C 
HETATM    7  C16 UNL     1      -3.987   4.178  11.721  1.00  0.00     0.007 C 
HETATM    8  C17 UNL     1      -2.706   4.353  10.900  1.00  0.00     0.007 C 
HETATM    9  C18 UNL     1      -1.845   5.565  11.294  1.00  0.00     0.008 C 
HETATM   10  C19 UNL     1      -0.384   5.408  10.820  1.00  0.00     0.083 C 
HETATM   11  C21 UNL     1       0.367   4.429  11.711  1.00  0.00     0.133 C 
HETATM   12  O6  UNL     1       1.373   3.835  11.316  1.00  0.00    -0.297 OA
HETATM   13  C22 UNL     1      -0.164   4.177  13.100  1.00  0.00     0.079 C 
HETATM   14  C23 UNL     1      -0.809   5.434  13.651  1.00  0.00     0.018 C 
HETATM   15  C24 UNL     1      -1.969   5.884  12.787  1.00  0.00    -0.027 A 
HETATM   16  C25 UNL     1      -2.595   7.220  13.076  1.00  0.00     0.021 A 
HETATM   17  C26 UNL     1      -3.393   5.965  13.390  1.00  0.00    -0.027 A 
HETATM   18  C27 UNL     1      -3.671   5.769  14.876  1.00  0.00     0.011 C 
HETATM   19  C28 UNL     1      -5.075   6.221  15.346  1.00  0.00     0.011 C 
HETATM   20  C29 UNL     1      -6.108   6.384  14.209  1.00  0.00    -0.032 C 
HETATM   21  C30 UNL     1      -5.955   7.806  13.611  1.00  0.00     0.016 C 
ENDROOT
BRANCH   1  22
HETATM   22  C2  UNL     1      -8.476   7.221  15.358  1.00  0.00     0.015 C 
HETATM   23  C1  UNL     1      -8.145   7.356  16.857  1.00  0.00     0.013 C 
BRANCH  22  24
HETATM   24  C3  UNL     1     -10.012   7.064  15.133  1.00  0.00     0.125 C 
BRANCH  24  25
HETATM   25  O1  UNL     1     -10.331   6.325  13.967  1.00  0.00    -0.395 OA
HETATM   26  H6  UNL     1      -9.632   5.682  13.767  1.00  0.00     0.210 HD
ENDBRANCH  24  25
BRANCH  24  27
HETATM   27  C4  UNL     1     -10.861   8.347  15.115  1.00  0.00     0.075 C 
BRANCH  27  28
HETATM   28  C5  UNL     1     -12.408   8.332  14.914  1.00  0.00     0.111 C 
BRANCH  28  29
HETATM   29  O2  UNL     1     -12.764   6.939  15.268  1.00  0.00    -0.384 OA
HETATM   30  H9  UNL     1     -12.670   6.902  16.242  1.00  0.00     0.210 HD
ENDBRANCH  28  29
BRANCH  28  31
HETATM   31  C6  UNL     1     -13.174   9.204  15.934  1.00  0.00     0.205 C 
BRANCH  31  32
HETATM   32  O3  UNL     1     -13.443   8.429  17.108  1.00  0.00    -0.398 OA
HETATM   33  H12 UNL     1     -14.024   8.972  17.669  1.00  0.00     0.209 HD
ENDBRANCH  31  32
ENDBRANCH  28  31
BRANCH  28  34
HETATM   34  C7  UNL     1     -12.979   8.512  13.458  1.00  0.00     0.084 C 
HETATM   35  C8  UNL     1     -13.645   7.251  12.893  1.00  0.00     0.049 C 
HETATM   36  C9  UNL     1     -12.028   9.128  12.426  1.00  0.00     0.049 C 
BRANCH  34  37
HETATM   37  O4  UNL     1     -14.056   9.482  13.559  1.00  0.00    -0.387 OA
HETATM   38  H19 UNL     1     -14.510   9.243  14.398  1.00  0.00     0.210 HD
ENDBRANCH  34  37
ENDBRANCH  28  34
ENDBRANCH  27  28
ENDBRANCH  24  27
ENDBRANCH  22  24
ENDBRANCH   1  22
BRANCH  10  39
HETATM   39  C20 UNL     1       0.374   6.741  10.805  1.00  0.00     0.176 C 
BRANCH  39  40
HETATM   40  O5  UNL     1       0.058   7.450   9.610  1.00  0.00    -0.400 OA
HETATM   41  H37 UNL     1       0.781   8.075   9.435  1.00  0.00     0.209 HD
ENDBRANCH  39  40
ENDBRANCH  10  39
TORSDOF 12
ENDMDL
MODEL 2
REMARK minimizedAffinity -8.35792446
REMARK CNNscore 0.420342803
REMARK CNNaffinity 6.83619881
REMARK  12 active torsions:
REMARK  status: ('A' for Active; 'I' for Inactive)
REMARK    1  A    between atoms: C2_2  and  C3_3 
REMARK    2  A    between atoms: C2_2  and  C10_14 
REMARK    3  A    between atoms: C3_3  and  O1_4 
REMARK    4  A    between atoms: C3_3  and  C4_5 
REMARK    5  A    between atoms: C4_5  and  C5_6 
REMARK    6  A    between atoms: C5_6  and  O2_7 
REMARK    7  A    between atoms: C5_6  and  C6_8 
REMARK    8  A    between atoms: C5_6  and  C7_10 
REMARK    9  A    between atoms: C6_8  and  O3_9 
REMARK   10  A    between atoms: C7_10  and  O4_13 
REMARK   11  A    between atoms: C19_23  and  C20_24 
REMARK   12  A    between atoms: C20_24  and  O5_25 
ROOT
HETATM    1  C10 UNL     1       0.193   7.692  12.877  1.00  0.00     0.001 C 
HETATM    2  C11 UNL     1      -0.233   8.870  11.945  1.00  0.00     0.007 C 
HETATM    3  C12 UNL     1      -1.771   8.926  11.960  1.00  0.00     0.011 C 
HETATM    4  C13 UNL     1      -2.183   8.119  13.207  1.00  0.00    -0.032 C 
HETATM    5  C14 UNL     1      -1.975   9.080  14.429  1.00  0.00     0.016 C 
HETATM    6  C15 UNL     1      -3.651   7.567  13.169  1.00  0.00     0.004 C 
HETATM    7  C16 UNL     1      -4.693   8.602  13.637  1.00  0.00     0.007 C 
HETATM    8  C17 UNL     1      -6.153   8.155  13.535  1.00  0.00     0.007 C 
HETATM    9  C18 UNL     1      -6.362   6.631  13.490  1.00  0.00     0.008 C 
HETATM   10  C19 UNL     1      -7.798   6.237  13.898  1.00  0.00     0.083 C 
HETATM   11  C21 UNL     1      -7.975   6.341  15.406  1.00  0.00     0.133 C 
HETATM   12  O6  UNL     1      -9.087   6.484  15.919  1.00  0.00    -0.297 OA
HETATM   13  C22 UNL     1      -6.743   6.287  16.274  1.00  0.00     0.079 C 
HETATM   14  C23 UNL     1      -5.698   5.385  15.647  1.00  0.00     0.018 C 
HETATM   15  C24 UNL     1      -5.280   5.890  14.280  1.00  0.00    -0.027 A 
HETATM   16  C25 UNL     1      -4.401   5.010  13.437  1.00  0.00     0.021 A 
HETATM   17  C26 UNL     1      -3.804   6.280  14.022  1.00  0.00    -0.027 A 
HETATM   18  C27 UNL     1      -2.695   6.026  15.037  1.00  0.00     0.011 C 
HETATM   19  C28 UNL     1      -1.256   6.157  14.482  1.00  0.00     0.011 C 
HETATM   20  C29 UNL     1      -1.153   6.931  13.149  1.00  0.00    -0.032 C 
HETATM   21  C30 UNL     1      -1.408   5.937  11.987  1.00  0.00     0.016 C 
ENDROOT
BRANCH   1  22
HETATM   22  C2  UNL     1       1.510   6.964  12.415  1.00  0.00     0.015 C 
HETATM   23  C1  UNL     1       1.293   5.566  11.808  1.00  0.00     0.013 C 
BRANCH  22  24
HETATM   24  C3  UNL     1       2.625   6.937  13.506  1.00  0.00     0.125 C 
BRANCH  24  25
HETATM   25  O1  UNL     1       2.176   6.426  14.749  1.00  0.00    -0.395 OA
HETATM   26  H6  UNL     1       1.458   5.786  14.616  1.00  0.00     0.210 HD
ENDBRANCH  24  25
BRANCH  24  27
HETATM   27  C4  UNL     1       3.372   8.252  13.790  1.00  0.00     0.075 C 
BRANCH  27  28
HETATM   28  C5  UNL     1       4.799   8.293  14.418  1.00  0.00     0.111 C 
BRANCH  28  29
HETATM   29  O2  UNL     1       4.656   7.410  15.597  1.00  0.00    -0.384 OA
HETATM   30  H9  UNL     1       4.608   6.506  15.222  1.00  0.00     0.210 HD
ENDBRANCH  28  29
BRANCH  28  31
HETATM   31  C6  UNL     1       5.880   7.614  13.548  1.00  0.00     0.205 C 
BRANCH  31  32
HETATM   32  O3  UNL     1       6.324   6.417  14.198  1.00  0.00    -0.398 OA
HETATM   33  H12 UNL     1       7.080   6.087  13.682  1.00  0.00     0.209 HD
ENDBRANCH  31  32
ENDBRANCH  28  31
BRANCH  28  34
HETATM   34  C7  UNL     1       5.317   9.652  15.022  1.00  0.00     0.084 C 
HETATM   35  C8  UNL     1       4.774  10.895  14.306  1.00  0.00     0.049 C 
HETATM   36  C9  UNL     1       6.830   9.770  15.234  1.00  0.00     0.049 C 
BRANCH  34  37
HETATM   37  O4  UNL     1       4.772   9.735  16.367  1.00  0.00    -0.387 OA
HETATM   38  H19 UNL     1       3.858   9.385  16.272  1.00  0.00     0.210 HD
ENDBRANCH  34  37
ENDBRANCH  28  34
ENDBRANCH  27  28
ENDBRANCH  24  27
ENDBRANCH  22  24
ENDBRANCH   1  22
BRANCH  10  39
HETATM   39  C20 UNL     1      -8.165   4.815  13.456  1.00  0.00     0.176 C 
BRANCH  39  40
HETATM   40  O5  UNL     1      -7.727   4.611  12.115  1.00  0.00    -0.400 OA
HETATM   41  H37 UNL     1      -8.259   3.893  11.735  1.00  0.00     0.209 HD
ENDBRANCH  39  40
ENDBRANCH  10  39
TORSDOF 12
ENDMDL
MODEL 3
REMARK minimizedAffinity -7.07588816
REMARK CNNscore 0.389221936
REMARK CNNaffinity 5.41374063
REMARK  12 active torsions:
REMARK  status: ('A' for Active; 'I' for Inactive)
REMARK    1  A    between atoms: C2_2  and  C3_3 
REMARK    2  A    between atoms: C2_2  and  C10_14 
REMARK    3  A    between atoms: C3_3  and  O1_4 
REMARK    4  A    between atoms: C3_3  and  C4_5 
REMARK    5  A    between atoms: C4_5  and  C5_6 
REMARK    6  A    between atoms: C5_6  and  O2_7 
REMARK    7  A    between atoms: C5_6  and  C6_8 
REMARK    8  A    between atoms: C5_6  and  C7_10 
REMARK    9  A    between atoms: C6_8  and  O3_9 
REMARK   10  A    between atoms: C7_10  and  O4_13 
REMARK   11  A    between atoms: C19_23  and  C20_24 
REMARK   12  A    between atoms: C20_24  and  O5_25 
ROOT
HETATM    1  C10 UNL     1      -6.679 -10.330  10.137  1.00  0.00     0.001 C 
HETATM    2  C11 UNL     1      -5.798 -11.131  11.147  1.00  0.00     0.007 C 
HETATM    3  C12 UNL     1      -6.604 -11.258  12.452  1.00  0.00     0.011 C 
HETATM    4  C13 UNL     1      -8.059 -10.950  12.047  1.00  0.00    -0.032 C 
HETATM    5  C14 UNL     1      -8.610 -12.264  11.389  1.00  0.00     0.016 C 
HETATM    6  C15 UNL     1      -8.979 -10.486  13.229  1.00  0.00     0.004 C 
HETATM    7  C16 UNL     1      -9.572 -11.664  14.027  1.00  0.00     0.007 C 
HETATM    8  C17 UNL     1     -10.405 -11.275  15.250  1.00  0.00     0.007 C 
HETATM    9  C18 UNL     1     -10.961  -9.841  15.226  1.00  0.00     0.008 C 
HETATM   10  C19 UNL     1     -12.166  -9.677  16.178  1.00  0.00     0.083 C 
HETATM   11  C21 UNL     1     -13.415 -10.303  15.574  1.00  0.00     0.133 C 
HETATM   12  O6  UNL     1     -14.361 -10.665  16.277  1.00  0.00    -0.297 OA
HETATM   13  C22 UNL     1     -13.465 -10.498  14.080  1.00  0.00     0.079 C 
HETATM   14  C23 UNL     1     -12.703  -9.389  13.381  1.00  0.00     0.018 C 
HETATM   15  C24 UNL     1     -11.246  -9.371  13.797  1.00  0.00    -0.027 A 
HETATM   16  C25 UNL     1     -10.394  -8.216  13.352  1.00  0.00     0.021 A 
HETATM   17  C26 UNL     1     -10.139  -9.581  12.735  1.00  0.00    -0.027 A 
HETATM   18  C27 UNL     1     -10.433  -9.644  11.240  1.00  0.00     0.011 C 
HETATM   19  C28 UNL     1      -9.193  -9.511  10.322  1.00  0.00     0.011 C 
HETATM   20  C29 UNL     1      -7.844  -9.771  11.028  1.00  0.00    -0.032 C 
HETATM   21  C30 UNL     1      -7.377  -8.449  11.690  1.00  0.00     0.016 C 
ENDROOT
BRANCH   1  22
HETATM   22  C2  UNL     1      -5.849  -9.429   9.149  1.00  0.00     0.015 C 
HETATM   23  C1  UNL     1      -6.679  -8.751   8.044  1.00  0.00     0.013 C 
BRANCH  22  24
HETATM   24  C3  UNL     1      -4.596 -10.145   8.553  1.00  0.00     0.125 C 
BRANCH  24  25
HETATM   25  O1  UNL     1      -3.383  -9.743   9.164  1.00  0.00    -0.395 OA
HETATM   26  H6  UNL     1      -3.534  -9.479  10.086  1.00  0.00     0.210 HD
ENDBRANCH  24  25
BRANCH  24  27
HETATM   27  C4  UNL     1      -4.395 -10.071   7.030  1.00  0.00     0.075 C 
BRANCH  27  28
HETATM   28  C5  UNL     1      -3.245 -10.825   6.294  1.00  0.00     0.111 C 
BRANCH  28  29
HETATM   29  O2  UNL     1      -2.057 -10.011   6.635  1.00  0.00    -0.384 OA
HETATM   30  H9  UNL     1      -1.883 -10.215   7.577  1.00  0.00     0.210 HD
ENDBRANCH  28  29
BRANCH  28  31
HETATM   31  C6  UNL     1      -2.946 -12.223   6.880  1.00  0.00     0.205 C 
BRANCH  31  32
HETATM   32  O3  UNL     1      -1.527 -12.424   6.914  1.00  0.00    -0.398 OA
HETATM   33  H12 UNL     1      -1.388 -13.351   7.175  1.00  0.00     0.209 HD
ENDBRANCH  31  32
ENDBRANCH  28  31
BRANCH  28  34
HETATM   34  C7  UNL     1      -3.249 -10.850   4.719  1.00  0.00     0.084 C 
HETATM   35  C8  UNL     1      -2.940  -9.492   4.077  1.00  0.00     0.049 C 
HETATM   36  C9  UNL     1      -4.469 -11.497   4.052  1.00  0.00     0.049 C 
BRANCH  34  37
HETATM   37  O4  UNL     1      -2.144 -11.706   4.321  1.00  0.00    -0.387 OA
HETATM   38  H19 UNL     1      -1.428 -11.474   4.955  1.00  0.00     0.210 HD
ENDBRANCH  34  37
ENDBRANCH  28  34
ENDBRANCH  27  28
ENDBRANCH  24  27
ENDBRANCH  22  24
ENDBRANCH   1  22
BRANCH  10  39
HETATM   39  C20 UNL     1     -12.460  -8.208  16.504  1.00  0.00     0.176 C 
BRANCH  39  40
HETATM   40  O5  UNL     1     -13.327  -8.140  17.632  1.00  0.00    -0.400 OA
HETATM   41  H37 UNL     1     -13.784  -7.282  17.604  1.00  0.00     0.209 HD
ENDBRANCH  39  40
ENDBRANCH  10  39
TORSDOF 12
ENDMDL
MODEL 4
REMARK minimizedAffinity -7.96702385
REMARK CNNscore 0.356588066
REMARK CNNaffinity 6.14122725
REMARK  12 active torsions:
REMARK  status: ('A' for Active; 'I' for Inactive)
REMARK    1  A    between atoms: C2_2  and  C3_3 
REMARK    2  A    between atoms: C2_2  and  C10_14 
REMARK    3  A    between atoms: C3_3  and  O1_4 
REMARK    4  A    between atoms: C3_3  and  C4_5 
REMARK    5  A    between atoms: C4_5  and  C5_6 
REMARK    6  A    between atoms: C5_6  and  O2_7 
REMARK    7  A    between atoms: C5_6  and  C6_8 
REMARK    8  A    between atoms: C5_6  and  C7_10 
REMARK    9  A    between atoms: C6_8  and  O3_9 
REMARK   10  A    between atoms: C7_10  and  O4_13 
REMARK   11  A    between atoms: C19_23  and  C20_24 
REMARK   12  A    between atoms: C20_24  and  O5_25 
ROOT
HETATM    1  C10 UNL     1       3.892   7.544  10.471  1.00  0.00     0.001 C 
HETATM    2  C11 UNL     1       3.914   6.062   9.979  1.00  0.00     0.007 C 
HETATM    3  C12 UNL     1       2.613   5.402  10.469  1.00  0.00     0.011 C 
HETATM    4  C13 UNL     1       1.682   6.579  10.821  1.00  0.00    -0.032 C 
HETATM    5  C14 UNL     1       1.099   7.089   9.457  1.00  0.00     0.016 C 
HETATM    6  C15 UNL     1       0.531   6.220  11.825  1.00  0.00     0.004 C 
HETATM    7  C16 UNL     1      -0.700   5.604  11.130  1.00  0.00     0.007 C 
HETATM    8  C17 UNL     1      -1.821   5.147  12.067  1.00  0.00     0.007 C 
HETATM    9  C18 UNL     1      -1.813   5.808  13.456  1.00  0.00     0.008 C 
HETATM   10  C19 UNL     1      -3.194   5.715  14.143  1.00  0.00     0.083 C 
HETATM   11  C21 UNL     1      -4.163   6.719  13.535  1.00  0.00     0.133 C 
HETATM   12  O6  UNL     1      -5.384   6.564  13.608  1.00  0.00    -0.297 OA
HETATM   13  C22 UNL     1      -3.592   7.912  12.810  1.00  0.00     0.079 C 
HETATM   14  C23 UNL     1      -2.288   8.341  13.451  1.00  0.00     0.018 C 
HETATM   15  C24 UNL     1      -1.256   7.232  13.401  1.00  0.00    -0.027 A 
HETATM   16  C25 UNL     1       0.025   7.418  14.165  1.00  0.00     0.021 A 
HETATM   17  C26 UNL     1       0.078   7.456  12.647  1.00  0.00    -0.027 A 
HETATM   18  C27 UNL     1       0.487   8.810  12.079  1.00  0.00     0.011 C 
HETATM   19  C28 UNL     1       1.976   8.928  11.673  1.00  0.00     0.011 C 
HETATM   20  C29 UNL     1       2.699   7.575  11.491  1.00  0.00    -0.032 C 
HETATM   21  C30 UNL     1       3.213   7.107  12.877  1.00  0.00     0.016 C 
ENDROOT
BRANCH   1  22
HETATM   22  C2  UNL     1       5.317   8.121  10.805  1.00  0.00     0.015 C 
HETATM   23  C1  UNL     1       6.410   7.056  11.016  1.00  0.00     0.013 C 
BRANCH  22  24
HETATM   24  C3  UNL     1       5.314   9.162  11.967  1.00  0.00     0.125 C 
BRANCH  24  25
HETATM   25  O1  UNL     1       5.074  10.487  11.526  1.00  0.00    -0.395 OA
HETATM   26  H6  UNL     1       4.526  10.488  10.725  1.00  0.00     0.210 HD
ENDBRANCH  24  25
BRANCH  24  27
HETATM   27  C4  UNL     1       6.543   9.197  12.892  1.00  0.00     0.075 C 
BRANCH  27  28
HETATM   28  C5  UNL     1       6.492   8.733  14.380  1.00  0.00     0.111 C 
BRANCH  28  29
HETATM   29  O2  UNL     1       5.245   9.363  14.870  1.00  0.00    -0.384 OA
HETATM   30  H9  UNL     1       4.528   8.842  14.454  1.00  0.00     0.210 HD
ENDBRANCH  28  29
BRANCH  28  31
HETATM   31  C6  UNL     1       6.258   7.215  14.548  1.00  0.00     0.205 C 
BRANCH  31  32
HETATM   32  O3  UNL     1       5.347   6.997  15.632  1.00  0.00    -0.398 OA
HETATM   33  H12 UNL     1       5.320   6.036  15.780  1.00  0.00     0.209 HD
ENDBRANCH  31  32
ENDBRANCH  28  31
BRANCH  28  34
HETATM   34  C7  UNL     1       7.598   9.259  15.371  1.00  0.00     0.084 C 
HETATM   35  C8  UNL     1       7.754  10.784  15.371  1.00  0.00     0.049 C 
HETATM   36  C9  UNL     1       8.967   8.576  15.285  1.00  0.00     0.049 C 
BRANCH  34  37
HETATM   37  O4  UNL     1       7.133   8.936  16.709  1.00  0.00    -0.387 OA
HETATM   38  H19 UNL     1       6.167   9.119  16.674  1.00  0.00     0.210 HD
ENDBRANCH  34  37
ENDBRANCH  28  34
ENDBRANCH  27  28
ENDBRANCH  24  27
ENDBRANCH  22  24
ENDBRANCH   1  22
BRANCH  10  39
HETATM   39  C20 UNL     1      -3.115   5.959  15.655  1.00  0.00     0.176 C 
BRANCH  39  40
HETATM   40  O5  UNL     1      -4.257   6.701  16.072  1.00  0.00    -0.400 OA
HETATM   41  H37 UNL     1      -4.032   7.151  16.904  1.00  0.00     0.209 HD
ENDBRANCH  39  40
ENDBRANCH  10  39
TORSDOF 12
ENDMDL
MODEL 5
REMARK minimizedAffinity -7.28062677
REMARK CNNscore 0.343474478
REMARK CNNaffinity 5.58762884
REMARK  12 active torsions:
REMARK  status: ('A' for Active; 'I' for Inactive)
REMARK    1  A    between atoms: C2_2  and  C3_3 
REMARK    2  A    between atoms: C2_2  and  C10_14 
REMARK    3  A    between atoms: C3_3  and  O1_4 
REMARK    4  A    between atoms: C3_3  and  C4_5 
REMARK    5  A    between atoms: C4_5  and  C5_6 
REMARK    6  A    between atoms: C5_6  and  O2_7 
REMARK    7  A    between atoms: C5_6  and  C6_8 
REMARK    8  A    between atoms: C5_6  and  C7_10 
REMARK    9  A    between atoms: C6_8  and  O3_9 
REMARK   10  A    between atoms: C7_10  and  O4_13 
REMARK   11  A    between atoms: C19_23  and  C20_24 
REMARK   12  A    between atoms: C20_24  and  O5_25 
ROOT
HETATM    1  C10 UNL     1      -6.129  -9.879   9.282  1.00  0.00     0.001 C 
HETATM    2  C11 UNL     1      -5.103  -9.611  10.428  1.00  0.00     0.007 C 
HETATM    3  C12 UNL     1      -5.891  -9.604  11.750  1.00  0.00     0.011 C 
HETATM    4  C13 UNL     1      -7.226 -10.300  11.416  1.00  0.00    -0.032 C 
HETATM    5  C14 UNL     1      -6.921 -11.839  11.419  1.00  0.00     0.016 C 
HETATM    6  C15 UNL     1      -8.401  -9.959  12.397  1.00  0.00     0.004 C 
HETATM    7  C16 UNL     1      -8.395 -10.833  13.667  1.00  0.00     0.007 C 
HETATM    8  C17 UNL     1      -9.463 -10.486  14.707  1.00  0.00     0.007 C 
HETATM    9  C18 UNL     1     -10.674  -9.712  14.159  1.00  0.00     0.008 C 
HETATM   10  C19 UNL     1     -11.903  -9.837  15.085  1.00  0.00     0.083 C 
HETATM   11  C21 UNL     1     -12.552 -11.206  14.932  1.00  0.00     0.133 C 
HETATM   12  O6  UNL     1     -13.257 -11.690  15.820  1.00  0.00    -0.297 OA
HETATM   13  C22 UNL     1     -12.294 -11.979  13.663  1.00  0.00     0.079 C 
HETATM   14  C23 UNL     1     -12.134 -11.029  12.492  1.00  0.00     0.018 C 
HETATM   15  C24 UNL     1     -10.969 -10.083  12.703  1.00  0.00    -0.027 A 
HETATM   16  C25 UNL     1     -10.790  -8.949  11.734  1.00  0.00     0.021 A 
HETATM   17  C26 UNL     1      -9.784 -10.087  11.706  1.00  0.00    -0.027 A 
HETATM   18  C27 UNL     1      -9.801 -10.890  10.410  1.00  0.00     0.011 C 
HETATM   19  C28 UNL     1      -8.701 -10.509   9.388  1.00  0.00     0.011 C 
HETATM   20  C29 UNL     1      -7.521  -9.713   9.987  1.00  0.00    -0.032 C 
HETATM   21  C30 UNL     1      -7.901  -8.210   9.995  1.00  0.00     0.016 C 
ENDROOT
BRANCH   1  22
HETATM   22  C2  UNL     1      -5.764  -9.165   7.928  1.00  0.00     0.015 C 
HETATM   23  C1  UNL     1      -6.840  -9.276   6.831  1.00  0.00     0.013 C 
BRANCH  22  24
HETATM   24  C3  UNL     1      -4.357  -9.552   7.376  1.00  0.00     0.125 C 
BRANCH  24  25
HETATM   25  O1  UNL     1      -3.887  -8.664   6.376  1.00  0.00    -0.395 OA
HETATM   26  H6  UNL     1      -4.249  -7.774   6.512  1.00  0.00     0.210 HD
ENDBRANCH  24  25
BRANCH  24  27
HETATM   27  C4  UNL     1      -4.171 -10.985   6.848  1.00  0.00     0.075 C 
BRANCH  27  28
HETATM   28  C5  UNL     1      -2.916 -11.428   6.035  1.00  0.00     0.111 C 
BRANCH  28  29
HETATM   29  O2  UNL     1      -1.885 -10.468   6.488  1.00  0.00    -0.384 OA
HETATM   30  H9  UNL     1      -1.667 -10.754   7.399  1.00  0.00     0.210 HD
ENDBRANCH  28  29
BRANCH  28  31
HETATM   31  C6  UNL     1      -2.369 -12.814   6.445  1.00  0.00     0.205 C 
BRANCH  31  32
HETATM   32  O3  UNL     1      -1.003 -12.678   6.855  1.00  0.00    -0.398 OA
HETATM   33  H12 UNL     1      -0.665 -13.581   6.989  1.00  0.00     0.209 HD
ENDBRANCH  31  32
ENDBRANCH  28  31
BRANCH  28  34
HETATM   34  C7  UNL     1      -2.933 -11.256   4.469  1.00  0.00     0.084 C 
HETATM   35  C8  UNL     1      -4.332 -11.014   3.889  1.00  0.00     0.049 C 
HETATM   36  C9  UNL     1      -2.191 -12.324   3.660  1.00  0.00     0.049 C 
BRANCH  34  37
HETATM   37  O4  UNL     1      -2.200 -10.034   4.185  1.00  0.00    -0.387 OA
HETATM   38  H19 UNL     1      -2.482  -9.419   4.898  1.00  0.00     0.210 HD
ENDBRANCH  34  37
ENDBRANCH  28  34
ENDBRANCH  27  28
ENDBRANCH  24  27
ENDBRANCH  22  24
ENDBRANCH   1  22
BRANCH  10  39
HETATM   39  C20 UNL     1     -12.957  -8.758  14.812  1.00  0.00     0.176 C 
BRANCH  39  40
HETATM   40  O5  UNL     1     -12.311  -7.500  14.643  1.00  0.00    -0.400 OA
HETATM   41  H37 UNL     1     -12.961  -6.803  14.834  1.00  0.00     0.209 HD
ENDBRANCH  39  40
ENDBRANCH  10  39
TORSDOF 12
ENDMDL
MODEL 6
REMARK minimizedAffinity -8.60787582
REMARK CNNscore 0.29525438
REMARK CNNaffinity 6.7806344
REMARK  12 active torsions:
REMARK  status: ('A' for Active; 'I' for Inactive)
REMARK    1  A    between atoms: C2_2  and  C3_3 
REMARK    2  A    between atoms: C2_2  and  C10_14 
REMARK    3  A    between atoms: C3_3  and  O1_4 
REMARK    4  A    between atoms: C3_3  and  C4_5 
REMARK    5  A    between atoms: C4_5  and  C5_6 
REMARK    6  A    between atoms: C5_6  and  O2_7 
REMARK    7  A    between atoms: C5_6  and  C6_8 
REMARK    8  A    between atoms: C5_6  and  C7_10 
REMARK    9  A    between atoms: C6_8  and  O3_9 
REMARK   10  A    between atoms: C7_10  and  O4_13 
REMARK   11  A    between atoms: C19_23  and  C20_24 
REMARK   12  A    between atoms: C20_24  and  O5_25 
ROOT
HETATM    1  C10 UNL     1       0.347   7.374  12.376  1.00  0.00     0.001 C 
HETATM    2  C11 UNL     1      -0.047   8.694  11.641  1.00  0.00     0.007 C 
HETATM    3  C12 UNL     1      -1.571   8.855  11.785  1.00  0.00     0.011 C 
HETATM    4  C13 UNL     1      -1.959   7.917  12.945  1.00  0.00    -0.032 C 
HETATM    5  C14 UNL     1      -1.592   8.687  14.262  1.00  0.00     0.016 C 
HETATM    6  C15 UNL     1      -3.465   7.479  12.951  1.00  0.00     0.004 C 
HETATM    7  C16 UNL     1      -4.387   8.512  13.630  1.00  0.00     0.007 C 
HETATM    8  C17 UNL     1      -5.881   8.185  13.587  1.00  0.00     0.007 C 
HETATM    9  C18 UNL     1      -6.214   6.700  13.361  1.00  0.00     0.008 C 
HETATM   10  C19 UNL     1      -7.645   6.356  13.826  1.00  0.00     0.083 C 
HETATM   11  C21 UNL     1      -7.709   6.266  15.345  1.00  0.00     0.133 C 
HETATM   12  O6  UNL     1      -8.768   6.416  15.957  1.00  0.00    -0.297 OA
HETATM   13  C22 UNL     1      -6.428   6.010  16.098  1.00  0.00     0.079 C 
HETATM   14  C23 UNL     1      -5.504   5.130  15.279  1.00  0.00     0.018 C 
HETATM   15  C24 UNL     1      -5.143   5.785  13.961  1.00  0.00    -0.027 A 
HETATM   16  C25 UNL     1      -4.396   4.969  12.943  1.00  0.00     0.021 A 
HETATM   17  C26 UNL     1      -3.661   6.102  13.639  1.00  0.00    -0.027 A 
HETATM   18  C27 UNL     1      -2.509   5.636  14.522  1.00  0.00     0.011 C 
HETATM   19  C28 UNL     1      -1.105   5.741  13.877  1.00  0.00     0.011 C 
HETATM   20  C29 UNL     1      -1.033   6.680  12.652  1.00  0.00    -0.032 C 
HETATM   21  C30 UNL     1      -1.446   5.873  11.394  1.00  0.00     0.016 C 
ENDROOT
BRANCH   1  22
HETATM   22  C2  UNL     1       1.567   6.626  11.721  1.00  0.00     0.015 C 
HETATM   23  C1  UNL     1       1.376   5.107  11.554  1.00  0.00     0.013 C 
BRANCH  22  24
HETATM   24  C3  UNL     1       2.935   6.950  12.397  1.00  0.00     0.125 C 
BRANCH  24  25
HETATM   25  O1  UNL     1       2.835   7.134  13.798  1.00  0.00    -0.395 OA
HETATM   26  H6  UNL     1       2.102   6.611  14.160  1.00  0.00     0.210 HD
ENDBRANCH  24  25
BRANCH  24  27
HETATM   27  C4  UNL     1       3.744   8.130  11.831  1.00  0.00     0.075 C 
BRANCH  27  28
HETATM   28  C5  UNL     1       4.957   7.939  10.870  1.00  0.00     0.111 C 
BRANCH  28  29
HETATM   29  O2  UNL     1       4.451   6.931   9.912  1.00  0.00    -0.384 OA
HETATM   30  H9  UNL     1       3.809   7.421   9.358  1.00  0.00     0.210 HD
ENDBRANCH  28  29
BRANCH  28  31
HETATM   31  C6  UNL     1       5.267   9.182  10.007  1.00  0.00     0.205 C 
BRANCH  31  32
HETATM   32  O3  UNL     1       5.593  10.281  10.867  1.00  0.00    -0.398 OA
HETATM   33  H12 UNL     1       5.664  11.065  10.295  1.00  0.00     0.209 HD
ENDBRANCH  31  32
ENDBRANCH  28  31
BRANCH  28  34
HETATM   34  C7  UNL     1       6.275   7.291  11.442  1.00  0.00     0.084 C 
HETATM   35  C8  UNL     1       6.440   5.809  11.086  1.00  0.00     0.049 C 
HETATM   36  C9  UNL     1       6.556   7.524  12.930  1.00  0.00     0.049 C 
BRANCH  34  37
HETATM   37  O4  UNL     1       7.380   7.956  10.772  1.00  0.00    -0.387 OA
HETATM   38  H19 UNL     1       7.067   8.056   9.845  1.00  0.00     0.210 HD
ENDBRANCH  34  37
ENDBRANCH  28  34
ENDBRANCH  27  28
ENDBRANCH  24  27
ENDBRANCH  22  24
ENDBRANCH   1  22
BRANCH  10  39
HETATM   39  C20 UNL     1      -8.153   5.036  13.233  1.00  0.00     0.176 C 
BRANCH  39  40
HETATM   40  O5  UNL     1      -8.213   4.050  14.260  1.00  0.00    -0.400 OA
HETATM   41  H37 UNL     1      -8.174   3.176  13.835  1.00  0.00     0.209 HD
ENDBRANCH  39  40
ENDBRANCH  10  39
TORSDOF 12
ENDMDL
MODEL 7
REMARK minimizedAffinity -7.23652601
REMARK CNNscore 0.292192996
REMARK CNNaffinity 5.48242331
REMARK  12 active torsions:
REMARK  status: ('A' for Active; 'I' for Inactive)
REMARK    1  A    between atoms: C2_2  and  C3_3 
REMARK    2  A    between atoms: C2_2  and  C10_14 
REMARK    3  A    between atoms: C3_3  and  O1_4 
REMARK    4  A    between atoms: C3_3  and  C4_5 
REMARK    5  A    between atoms: C4_5  and  C5_6 
REMARK    6  A    between atoms: C5_6  and  O2_7 
REMARK    7  A    between atoms: C5_6  and  C6_8 
REMARK    8  A    between atoms: C5_6  and  C7_10 
REMARK    9  A    between atoms: C6_8  and  O3_9 
REMARK   10  A    between atoms: C7_10  and  O4_13 
REMARK   11  A    between atoms: C19_23  and  C20_24 
REMARK   12  A    between atoms: C20_24  and  O5_25 
ROOT
HETATM    1  C10 UNL     1       5.848   8.746  13.041  1.00  0.00     0.001 C 
HETATM    2  C11 UNL     1       6.722   9.152  11.812  1.00  0.00     0.007 C 
HETATM    3  C12 UNL     1       7.933   9.932  12.354  1.00  0.00     0.011 C 
HETATM    4  C13 UNL     1       7.987   9.582  13.854  1.00  0.00    -0.032 C 
HETATM    5  C14 UNL     1       8.657   8.165  13.941  1.00  0.00     0.016 C 
HETATM    6  C15 UNL     1       8.759  10.623  14.737  1.00  0.00     0.004 C 
HETATM    7  C16 UNL     1      10.283  10.390  14.745  1.00  0.00     0.007 C 
HETATM    8  C17 UNL     1      11.101  11.430  15.515  1.00  0.00     0.007 C 
HETATM    9  C18 UNL     1      10.312  12.225  16.569  1.00  0.00     0.008 C 
HETATM   10  C19 UNL     1      11.242  12.856  17.627  1.00  0.00     0.083 C 
HETATM   11  C21 UNL     1      11.730  11.800  18.610  1.00  0.00     0.133 C 
HETATM   12  O6  UNL     1      12.766  11.953  19.261  1.00  0.00    -0.297 OA
HETATM   13  C22 UNL     1      10.923  10.535  18.756  1.00  0.00     0.079 C 
HETATM   14  C23 UNL     1       9.449  10.826  18.555  1.00  0.00     0.018 C 
HETATM   15  C24 UNL     1       9.180  11.390  17.174  1.00  0.00    -0.027 A 
HETATM   16  C25 UNL     1       7.804  11.917  16.878  1.00  0.00     0.021 A 
HETATM   17  C26 UNL     1       8.245  10.630  16.201  1.00  0.00    -0.027 A 
HETATM   18  C27 UNL     1       7.436   9.407  16.621  1.00  0.00     0.011 C 
HETATM   19  C28 UNL     1       6.313   8.995  15.639  1.00  0.00     0.011 C 
HETATM   20  C29 UNL     1       6.457   9.586  14.219  1.00  0.00    -0.032 C 
HETATM   21  C30 UNL     1       5.816  10.997  14.210  1.00  0.00     0.016 C 
ENDROOT
BRANCH   1  22
HETATM   22  C2  UNL     1       4.306   8.698  12.732  1.00  0.00     0.015 C 
HETATM   23  C1  UNL     1       3.398   8.758  13.975  1.00  0.00     0.013 C 
BRANCH  22  24
HETATM   24  C3  UNL     1       3.893   7.524  11.790  1.00  0.00     0.125 C 
BRANCH  24  25
HETATM   25  O1  UNL     1       4.781   6.421  11.853  1.00  0.00    -0.395 OA
HETATM   26  H6  UNL     1       5.193   6.363  12.730  1.00  0.00     0.210 HD
ENDBRANCH  24  25
BRANCH  24  27
HETATM   27  C4  UNL     1       3.668   7.852  10.304  1.00  0.00     0.075 C 
BRANCH  27  28
HETATM   28  C5  UNL     1       2.666   7.062   9.408  1.00  0.00     0.111 C 
BRANCH  28  29
HETATM   29  O2  UNL     1       3.503   5.958   8.886  1.00  0.00    -0.384 OA
HETATM   30  H9  UNL     1       3.628   5.362   9.653  1.00  0.00     0.210 HD
ENDBRANCH  28  29
BRANCH  28  31
HETATM   31  C6  UNL     1       1.542   6.360  10.204  1.00  0.00     0.205 C 
BRANCH  31  32
HETATM   32  O3  UNL     1       2.087   5.832  11.419  1.00  0.00    -0.398 OA
HETATM   33  H12 UNL     1       1.382   5.301  11.829  1.00  0.00     0.209 HD
ENDBRANCH  31  32
ENDBRANCH  28  31
BRANCH  28  34
HETATM   34  C7  UNL     1       2.104   7.758   8.112  1.00  0.00     0.084 C 
HETATM   35  C8  UNL     1       0.754   8.455   8.319  1.00  0.00     0.049 C 
HETATM   36  C9  UNL     1       2.082   6.906   6.838  1.00  0.00     0.049 C 
BRANCH  34  37
HETATM   37  O4  UNL     1       3.028   8.833   7.793  1.00  0.00    -0.387 OA
HETATM   38  H19 UNL     1       3.262   9.210   8.671  1.00  0.00     0.210 HD
ENDBRANCH  34  37
ENDBRANCH  28  34
ENDBRANCH  27  28
ENDBRANCH  24  27
ENDBRANCH  22  24
ENDBRANCH   1  22
BRANCH  10  39
HETATM   39  C20 UNL     1      10.559  13.982  18.413  1.00  0.00     0.176 C 
BRANCH  39  40
HETATM   40  O5  UNL     1      10.914  13.880  19.789  1.00  0.00    -0.400 OA
HETATM   41  H37 UNL     1      10.227  14.331  20.307  1.00  0.00     0.209 HD
ENDBRANCH  39  40
ENDBRANCH  10  39
TORSDOF 12
ENDMDL
MODEL 8
REMARK minimizedAffinity -7.3467679
REMARK CNNscore 0.283158779
REMARK CNNaffinity 5.54275084
REMARK  12 active torsions:
REMARK  status: ('A' for Active; 'I' for Inactive)
REMARK    1  A    between atoms: C2_2  and  C3_3 
REMARK    2  A    between atoms: C2_2  and  C10_14 
REMARK    3  A    between atoms: C3_3  and  O1_4 
REMARK    4  A    between atoms: C3_3  and  C4_5 
REMARK    5  A    between atoms: C4_5  and  C5_6 
REMARK    6  A    between atoms: C5_6  and  O2_7 
REMARK    7  A    between atoms: C5_6  and  C6_8 
REMARK    8  A    between atoms: C5_6  and  C7_10 
REMARK    9  A    between atoms: C6_8  and  O3_9 
REMARK   10  A    between atoms: C7_10  and  O4_13 
REMARK   11  A    between atoms: C19_23  and  C20_24 
REMARK   12  A    between atoms: C20_24  and  O5_25 
ROOT
HETATM    1  C10 UNL     1       6.940   9.082  12.162  1.00  0.00     0.001 C 
HETATM    2  C11 UNL     1       6.534  10.494  11.632  1.00  0.00     0.007 C 
HETATM    3  C12 UNL     1       6.919  11.514  12.718  1.00  0.00     0.011 C 
HETATM    4  C13 UNL     1       7.921  10.768  13.621  1.00  0.00    -0.032 C 
HETATM    5  C14 UNL     1       9.296  10.812  12.865  1.00  0.00     0.016 C 
HETATM    6  C15 UNL     1       8.057  11.358  15.068  1.00  0.00     0.004 C 
HETATM    7  C16 UNL     1       9.044  12.540  15.144  1.00  0.00     0.007 C 
HETATM    8  C17 UNL     1       9.151  13.219  16.512  1.00  0.00     0.007 C 
HETATM    9  C18 UNL     1       8.696  12.355  17.701  1.00  0.00     0.008 C 
HETATM   10  C19 UNL     1       9.284  12.861  19.036  1.00  0.00     0.083 C 
HETATM   11  C21 UNL     1      10.751  12.473  19.156  1.00  0.00     0.133 C 
HETATM   12  O6  UNL     1      11.524  13.089  19.893  1.00  0.00    -0.297 OA
HETATM   13  C22 UNL     1      11.253  11.316  18.328  1.00  0.00     0.079 C 
HETATM   14  C23 UNL     1      10.158  10.282  18.154  1.00  0.00     0.018 C 
HETATM   15  C24 UNL     1       8.952  10.867  17.448  1.00  0.00    -0.027 A 
HETATM   16  C25 UNL     1       7.703  10.036  17.369  1.00  0.00     0.021 A 
HETATM   17  C26 UNL     1       8.491  10.276  16.093  1.00  0.00    -0.027 A 
HETATM   18  C27 UNL     1       9.097   9.010  15.497  1.00  0.00     0.011 C 
HETATM   19  C28 UNL     1       8.292   8.383  14.333  1.00  0.00     0.011 C 
HETATM   20  C29 UNL     1       7.270   9.337  13.675  1.00  0.00    -0.032 C 
HETATM   21  C30 UNL     1       5.953   9.279  14.490  1.00  0.00     0.016 C 
ENDROOT
BRANCH   1  22
HETATM   22  C2  UNL     1       5.989   7.926  11.676  1.00  0.00     0.015 C 
HETATM   23  C1  UNL     1       6.670   6.554  11.519  1.00  0.00     0.013 C 
BRANCH  22  24
HETATM   24  C3  UNL     1       5.160   8.292  10.406  1.00  0.00     0.125 C 
BRANCH  24  25
HETATM   25  O1  UNL     1       5.461   9.579   9.895  1.00  0.00    -0.395 OA
HETATM   26  H6  UNL     1       6.380   9.820  10.096  1.00  0.00     0.210 HD
ENDBRANCH  24  25
BRANCH  24  27
HETATM   27  C4  UNL     1       3.628   8.178  10.501  1.00  0.00     0.075 C 
BRANCH  27  28
HETATM   28  C5  UNL     1       2.802   7.176   9.639  1.00  0.00     0.111 C 
BRANCH  28  29
HETATM   29  O2  UNL     1       3.817   6.169   9.255  1.00  0.00    -0.384 OA
HETATM   30  H9  UNL     1       3.983   5.664  10.077  1.00  0.00     0.210 HD
ENDBRANCH  28  29
BRANCH  28  31
HETATM   31  C6  UNL     1       1.748   6.385  10.446  1.00  0.00     0.205 C 
BRANCH  31  32
HETATM   32  O3  UNL     1       1.979   4.981  10.272  1.00  0.00    -0.398 OA
HETATM   33  H12 UNL     1       1.231   4.525  10.694  1.00  0.00     0.209 HD
ENDBRANCH  31  32
ENDBRANCH  28  31
BRANCH  28  34
HETATM   34  C7  UNL     1       2.218   7.671   8.261  1.00  0.00     0.084 C 
HETATM   35  C8  UNL     1       0.830   8.313   8.371  1.00  0.00     0.049 C 
HETATM   36  C9  UNL     1       2.258   6.665   7.106  1.00  0.00     0.049 C 
BRANCH  34  37
HETATM   37  O4  UNL     1       3.087   8.747   7.813  1.00  0.00    -0.387 OA
HETATM   38  H19 UNL     1       3.289   9.244   8.638  1.00  0.00     0.210 HD
ENDBRANCH  34  37
ENDBRANCH  28  34
ENDBRANCH  27  28
ENDBRANCH  24  27
ENDBRANCH  22  24
ENDBRANCH   1  22
BRANCH  10  39
HETATM   39  C20 UNL     1       8.528  12.317  20.254  1.00  0.00     0.176 C 
BRANCH  39  40
HETATM   40  O5  UNL     1       8.944  13.021  21.420  1.00  0.00    -0.400 OA
HETATM   41  H37 UNL     1       8.758  12.457  22.190  1.00  0.00     0.209 HD
ENDBRANCH  39  40
ENDBRANCH  10  39
TORSDOF 12
ENDMDL
MODEL 9
REMARK minimizedAffinity -6.53925943
REMARK CNNscore 0.268174827
REMARK CNNaffinity 5.51787949
REMARK  12 active torsions:
REMARK  status: ('A' for Active; 'I' for Inactive)
REMARK    1  A    between atoms: C2_2  and  C3_3 
REMARK    2  A    between atoms: C2_2  and  C10_14 
REMARK    3  A    between atoms: C3_3  and  O1_4 
REMARK    4  A    between atoms: C3_3  and  C4_5 
REMARK    5  A    between atoms: C4_5  and  C5_6 
REMARK    6  A    between atoms: C5_6  and  O2_7 
REMARK    7  A    between atoms: C5_6  and  C6_8 
REMARK    8  A    between atoms: C5_6  and  C7_10 
REMARK    9  A    between atoms: C6_8  and  O3_9 
REMARK   10  A    between atoms: C7_10  and  O4_13 
REMARK   11  A    between atoms: C19_23  and  C20_24 
REMARK   12  A    between atoms: C20_24  and  O5_25 
ROOT
HETATM    1  C10 UNL     1      -4.432 -10.784   5.558  1.00  0.00     0.001 C 
HETATM    2  C11 UNL     1      -5.054 -12.151   5.984  1.00  0.00     0.007 C 
HETATM    3  C12 UNL     1      -5.574 -12.831   4.705  1.00  0.00     0.011 C 
HETATM    4  C13 UNL     1      -4.863 -12.097   3.551  1.00  0.00    -0.032 C 
HETATM    5  C14 UNL     1      -3.418 -12.704   3.480  1.00  0.00     0.016 C 
HETATM    6  C15 UNL     1      -5.587 -12.208   2.165  1.00  0.00     0.004 C 
HETATM    7  C16 UNL     1      -5.234 -13.502   1.405  1.00  0.00     0.007 C 
HETATM    8  C17 UNL     1      -5.981 -13.713   0.086  1.00  0.00     0.007 C 
HETATM    9  C18 UNL     1      -6.555 -12.432  -0.545  1.00  0.00     0.008 C 
HETATM   10  C19 UNL     1      -6.827 -12.610  -2.055  1.00  0.00     0.083 C 
HETATM   11  C21 UNL     1      -5.526 -12.562  -2.843  1.00  0.00     0.133 C 
HETATM   12  O6  UNL     1      -5.427 -13.076  -3.960  1.00  0.00    -0.297 OA
HETATM   13  C22 UNL     1      -4.334 -11.885  -2.213  1.00  0.00     0.079 C 
HETATM   14  C23 UNL     1      -4.787 -10.732  -1.339  1.00  0.00     0.018 C 
HETATM   15  C24 UNL     1      -5.693 -11.209  -0.222  1.00  0.00    -0.027 A 
HETATM   16  C25 UNL     1      -6.390 -10.175   0.618  1.00  0.00     0.021 A 
HETATM   17  C26 UNL     1      -5.276 -10.990   1.254  1.00  0.00    -0.027 A 
HETATM   18  C27 UNL     1      -4.060 -10.163   1.652  1.00  0.00     0.011 C 
HETATM   19  C28 UNL     1      -3.996  -9.769   3.148  1.00  0.00     0.011 C 
HETATM   20  C29 UNL     1      -4.904 -10.613   4.071  1.00  0.00    -0.032 C 
HETATM   21  C30 UNL     1      -6.322  -9.986   4.064  1.00  0.00     0.016 C 
ENDROOT
BRANCH   1  22
HETATM   22  C2  UNL     1      -4.590  -9.653   6.641  1.00  0.00     0.015 C 
HETATM   23  C1  UNL     1      -3.318  -9.365   7.461  1.00  0.00     0.013 C 
BRANCH  22  24
HETATM   24  C3  UNL     1      -5.828  -9.846   7.571  1.00  0.00     0.125 C 
BRANCH  24  25
HETATM   25  O1  UNL     1      -6.792 -10.736   7.037  1.00  0.00    -0.395 OA
HETATM   26  H6  UNL     1      -6.369 -11.397   6.465  1.00  0.00     0.210 HD
ENDBRANCH  24  25
BRANCH  24  27
HETATM   27  C4  UNL     1      -6.571  -8.582   8.036  1.00  0.00     0.075 C 
BRANCH  27  28
HETATM   28  C5  UNL     1      -7.526  -8.570   9.268  1.00  0.00     0.111 C 
BRANCH  28  29
HETATM   29  O2  UNL     1      -7.528  -7.143   9.659  1.00  0.00    -0.384 OA
HETATM   30  H9  UNL     1      -8.060  -6.700   8.966  1.00  0.00     0.210 HD
ENDBRANCH  28  29
BRANCH  28  31
HETATM   31  C6  UNL     1      -8.998  -8.883   8.915  1.00  0.00     0.205 C 
BRANCH  31  32
HETATM   32  O3  UNL     1      -9.718  -7.653   8.770  1.00  0.00    -0.398 OA
HETATM   33  H12 UNL     1     -10.655  -7.894   8.667  1.00  0.00     0.209 HD
ENDBRANCH  31  32
ENDBRANCH  28  31
BRANCH  28  34
HETATM   34  C7  UNL     1      -7.076  -9.322  10.577  1.00  0.00     0.084 C 
HETATM   35  C8  UNL     1      -5.632  -9.023  10.996  1.00  0.00     0.049 C 
HETATM   36  C9  UNL     1      -7.351 -10.829  10.625  1.00  0.00     0.049 C 
BRANCH  34  37
HETATM   37  O4  UNL     1      -7.890  -8.787  11.656  1.00  0.00    -0.387 OA
HETATM   38  H19 UNL     1      -7.942  -7.825  11.457  1.00  0.00     0.210 HD
ENDBRANCH  34  37
ENDBRANCH  28  34
ENDBRANCH  27  28
ENDBRANCH  24  27
ENDBRANCH  22  24
ENDBRANCH   1  22
BRANCH  10  39
HETATM   39  C20 UNL     1      -7.778 -11.542  -2.609  1.00  0.00     0.176 C 
BRANCH  39  40
HETATM   40  O5  UNL     1      -7.306 -11.103  -3.880  1.00  0.00    -0.400 OA
HETATM   41  H37 UNL     1      -7.672 -10.218  -4.044  1.00  0.00     0.209 HD
ENDBRANCH  39  40
ENDBRANCH  10  39
TORSDOF 12
ENDMDL
