MODEL 1
REMARK minimizedAffinity -7.53612518
REMARK CNNscore 0.331487834
REMARK CNNaffinity 6.46150446
REMARK  8 active torsions:
REMARK  status: ('A' for Active; 'I' for Inactive)
REMARK    1  A    between atoms: C12_14  and  C13_15 
REMARK    2  A    between atoms: C13_15  and  C15_17 
REMARK    3  A    between atoms: C15_17  and  C16_18 
REMARK    4  A    between atoms: C16_18  and  C17_20 
REMARK    5  A    between atoms: C26_29  and  C27_30 
REMARK    6  A    between atoms: C27_30  and  C28_31 
REMARK    7  A    between atoms: C28_31  and  C29_32 
REMARK    8  A    between atoms: C29_32  and  O5_34 
ROOT
HETATM    1  C1  UNL     1      -2.620   3.539  10.463  1.00  0.00     0.025 C 
HETATM    2  C2  UNL     1      -3.261   3.940  11.567  1.00  0.00     0.015 C 
HETATM    3  C3  UNL     1      -4.726   3.789  11.703  1.00  0.00     0.289 C 
HETATM    4  O1  UNL     1      -5.469   3.204  10.937  1.00  0.00    -0.260 OA
HETATM    5  O2  UNL     1      -5.103   4.408  12.852  1.00  0.00    -0.311 OA
HETATM    6  C4  UNL     1      -4.007   5.162  13.406  1.00  0.00     0.142 C 
HETATM    7  C5  UNL     1      -4.259   6.636  13.123  1.00  0.00     0.039 C 
HETATM    8  C6  UNL     1      -3.101   7.589  13.462  1.00  0.00     0.006 C 
HETATM    9  C7  UNL     1      -1.717   7.051  13.021  1.00  0.00    -0.027 A 
HETATM   10  C8  UNL     1      -0.522   7.937  13.431  1.00  0.00     0.011 C 
HETATM   11  C9  UNL     1      -0.590   8.540  14.843  1.00  0.00     0.011 C 
HETATM   12  C10 UNL     1      -1.948   9.212  15.097  1.00  0.00    -0.032 C 
HETATM   13  C11 UNL     1      -2.102  10.396  14.100  1.00  0.00     0.016 C 
HETATM   14  C12 UNL     1      -2.229   9.725  16.545  1.00  0.00    -0.002 C 
HETATM   15  C21 UNL     1      -3.781   9.659  16.653  1.00  0.00     0.006 C 
HETATM   16  C22 UNL     1      -4.288   8.832  15.454  1.00  0.00     0.011 C 
HETATM   17  C23 UNL     1      -3.048   8.082  14.943  1.00  0.00    -0.032 C 
HETATM   18  C24 UNL     1      -2.836   6.860  15.894  1.00  0.00     0.016 C 
HETATM   19  C25 UNL     1      -1.605   6.576  11.592  1.00  0.00     0.022 A 
HETATM   20  C26 UNL     1      -1.543   5.533  12.697  1.00  0.00    -0.021 A 
HETATM   21  C30 UNL     1      -2.735   4.574  12.813  1.00  0.00     0.063 C 
ENDROOT
BRANCH  14  22
HETATM   22  C13 UNL     1      -1.614  11.032  17.132  1.00  0.00    -0.007 C 
HETATM   23  C14 UNL     1      -0.096  11.057  17.365  1.00  0.00     0.011 C 
BRANCH  22  24
HETATM   24  C15 UNL     1      -2.354  11.482  18.407  1.00  0.00     0.087 C 
BRANCH  24  25
HETATM   25  C16 UNL     1      -3.353  12.605  18.166  1.00  0.00     0.149 C 
HETATM   26  O3  UNL     1      -3.267  13.381  17.219  1.00  0.00    -0.293 OA
BRANCH  25  27
HETATM   27  C17 UNL     1      -4.499  12.667  19.124  1.00  0.00     0.052 C 
HETATM   28  C18 UNL     1      -4.690  13.614  20.062  1.00  0.00    -0.084 C 
HETATM   29  C19 UNL     1      -5.918  13.587  20.933  1.00  0.00     0.043 C 
HETATM   30  C20 UNL     1      -3.751  14.754  20.352  1.00  0.00     0.043 C 
ENDBRANCH  25  27
ENDBRANCH  24  25
ENDBRANCH  22  24
ENDBRANCH  14  22
BRANCH  20  31
HETATM   31  C27 UNL     1      -0.208   4.864  13.069  1.00  0.00     0.021 C 
BRANCH  31  32
HETATM   32  C28 UNL     1       0.573   4.261  11.903  1.00  0.00     0.111 C 
BRANCH  32  33
HETATM   33  C29 UNL     1       1.501   5.274  11.289  1.00  0.00     0.139 C 
HETATM   34  O4  UNL     1       1.750   5.430  10.106  1.00  0.00    -0.650 OA
BRANCH  33  35
HETATM   35  O5  UNL     1       2.102   6.036  12.224  1.00  0.00    -0.776 OA
HETATM   36  H41 UNL     1       2.680   6.639  11.711  1.00  0.00     0.167 HD
ENDBRANCH  33  35
ENDBRANCH  32  33
ENDBRANCH  31  32
ENDBRANCH  20  31
TORSDOF 8
ENDMDL
MODEL 2
REMARK minimizedAffinity -6.8912468
REMARK CNNscore 0.311662197
REMARK CNNaffinity 6.65182877
REMARK  8 active torsions:
REMARK  status: ('A' for Active; 'I' for Inactive)
REMARK    1  A    between atoms: C12_14  and  C13_15 
REMARK    2  A    between atoms: C13_15  and  C15_17 
REMARK    3  A    between atoms: C15_17  and  C16_18 
REMARK    4  A    between atoms: C16_18  and  C17_20 
REMARK    5  A    between atoms: C26_29  and  C27_30 
REMARK    6  A    between atoms: C27_30  and  C28_31 
REMARK    7  A    between atoms: C28_31  and  C29_32 
REMARK    8  A    between atoms: C29_32  and  O5_34 
ROOT
HETATM    1  C1  UNL     1      -3.786   4.481  12.111  1.00  0.00     0.025 C 
HETATM    2  C2  UNL     1      -5.037   4.241  12.521  1.00  0.00     0.015 C 
HETATM    3  C3  UNL     1      -5.952   3.381  11.739  1.00  0.00     0.289 C 
HETATM    4  O1  UNL     1      -5.665   2.722  10.758  1.00  0.00    -0.260 OA
HETATM    5  O2  UNL     1      -7.177   3.440  12.322  1.00  0.00    -0.311 OA
HETATM    6  C4  UNL     1      -7.209   4.462  13.338  1.00  0.00     0.142 C 
HETATM    7  C5  UNL     1      -7.972   5.655  12.781  1.00  0.00     0.039 C 
HETATM    8  C6  UNL     1      -7.945   6.927  13.643  1.00  0.00     0.006 C 
HETATM    9  C7  UNL     1      -6.544   7.243  14.223  1.00  0.00    -0.027 A 
HETATM   10  C8  UNL     1      -6.499   8.459  15.171  1.00  0.00     0.011 C 
HETATM   11  C9  UNL     1      -7.676   8.587  16.151  1.00  0.00     0.011 C 
HETATM   12  C10 UNL     1      -9.023   8.443  15.426  1.00  0.00    -0.032 C 
HETATM   13  C11 UNL     1      -9.159   9.614  14.412  1.00  0.00     0.016 C 
HETATM   14  C12 UNL     1     -10.307   8.384  16.313  1.00  0.00    -0.002 C 
HETATM   15  C21 UNL     1     -11.304   7.561  15.444  1.00  0.00     0.006 C 
HETATM   16  C22 UNL     1     -10.493   6.918  14.302  1.00  0.00     0.011 C 
HETATM   17  C23 UNL     1      -9.029   7.003  14.765  1.00  0.00    -0.032 C 
HETATM   18  C24 UNL     1      -8.810   5.839  15.783  1.00  0.00     0.016 C 
HETATM   19  C25 UNL     1      -5.397   7.248  13.241  1.00  0.00     0.022 A 
HETATM   20  C26 UNL     1      -5.453   6.126  14.265  1.00  0.00    -0.021 A 
HETATM   21  C30 UNL     1      -5.763   4.719  13.735  1.00  0.00     0.063 C 
ENDROOT
BRANCH  14  22
HETATM   22  C13 UNL     1     -10.947   9.635  16.989  1.00  0.00    -0.007 C 
HETATM   23  C14 UNL     1     -10.342  11.007  16.656  1.00  0.00     0.011 C 
BRANCH  22  24
HETATM   24  C15 UNL     1     -11.055   9.459  18.516  1.00  0.00     0.087 C 
BRANCH  24  25
HETATM   25  C16 UNL     1     -11.814  10.583  19.207  1.00  0.00     0.149 C 
HETATM   26  O3  UNL     1     -13.021  10.755  19.067  1.00  0.00    -0.293 OA
BRANCH  25  27
HETATM   27  C17 UNL     1     -11.006  11.435  20.132  1.00  0.00     0.052 C 
HETATM   28  C18 UNL     1     -10.712  11.143  21.414  1.00  0.00    -0.084 C 
HETATM   29  C19 UNL     1      -9.843  12.068  22.225  1.00  0.00     0.043 C 
HETATM   30  C20 UNL     1     -11.191   9.929  22.162  1.00  0.00     0.043 C 
ENDBRANCH  25  27
ENDBRANCH  24  25
ENDBRANCH  22  24
ENDBRANCH  14  22
BRANCH  20  31
HETATM   31  C27 UNL     1      -4.486   6.106  15.462  1.00  0.00     0.021 C 
BRANCH  31  32
HETATM   32  C28 UNL     1      -3.047   6.513  15.151  1.00  0.00     0.111 C 
BRANCH  32  33
HETATM   33  C29 UNL     1      -2.716   7.850  15.759  1.00  0.00     0.139 C 
HETATM   34  O4  UNL     1      -2.690   8.932  15.200  1.00  0.00    -0.650 OA
BRANCH  33  35
HETATM   35  O5  UNL     1      -2.400   7.742  17.064  1.00  0.00    -0.776 OA
HETATM   36  H41 UNL     1      -2.196   8.661  17.341  1.00  0.00     0.167 HD
ENDBRANCH  33  35
ENDBRANCH  32  33
ENDBRANCH  31  32
ENDBRANCH  20  31
TORSDOF 8
ENDMDL
MODEL 3
REMARK minimizedAffinity -9.09615803
REMARK CNNscore 0.284788013
REMARK CNNaffinity 6.88896036
REMARK  8 active torsions:
REMARK  status: ('A' for Active; 'I' for Inactive)
REMARK    1  A    between atoms: C12_14  and  C13_15 
REMARK    2  A    between atoms: C13_15  and  C15_17 
REMARK    3  A    between atoms: C15_17  and  C16_18 
REMARK    4  A    between atoms: C16_18  and  C17_20 
REMARK    5  A    between atoms: C26_29  and  C27_30 
REMARK    6  A    between atoms: C27_30  and  C28_31 
REMARK    7  A    between atoms: C28_31  and  C29_32 
REMARK    8  A    between atoms: C29_32  and  O5_34 
ROOT
HETATM    1  C1  UNL     1       1.870   5.312  10.991  1.00  0.00     0.025 C 
HETATM    2  C2  UNL     1       1.124   6.411  11.151  1.00  0.00     0.015 C 
HETATM    3  C3  UNL     1       1.739   7.752  11.245  1.00  0.00     0.289 C 
HETATM    4  O1  UNL     1       2.912   8.025  11.069  1.00  0.00    -0.260 OA
HETATM    5  O2  UNL     1       0.757   8.641  11.545  1.00  0.00    -0.311 OA
HETATM    6  C4  UNL     1      -0.466   7.953  11.874  1.00  0.00     0.142 C 
HETATM    7  C5  UNL     1      -0.646   8.012  13.385  1.00  0.00     0.039 C 
HETATM    8  C6  UNL     1      -1.793   7.162  13.955  1.00  0.00     0.006 C 
HETATM    9  C7  UNL     1      -1.877   5.749  13.327  1.00  0.00    -0.027 A 
HETATM   10  C8  UNL     1      -3.075   4.903  13.806  1.00  0.00     0.011 C 
HETATM   11  C9  UNL     1      -4.408   5.653  13.954  1.00  0.00     0.011 C 
HETATM   12  C10 UNL     1      -4.231   6.949  14.759  1.00  0.00    -0.032 C 
HETATM   13  C11 UNL     1      -3.771   6.572  16.196  1.00  0.00     0.016 C 
HETATM   14  C12 UNL     1      -5.463   7.904  14.852  1.00  0.00    -0.002 C 
HETATM   15  C21 UNL     1      -4.815   9.306  15.049  1.00  0.00     0.006 C 
HETATM   16  C22 UNL     1      -3.312   9.164  14.735  1.00  0.00     0.011 C 
HETATM   17  C23 UNL     1      -3.198   7.843  13.956  1.00  0.00    -0.032 C 
HETATM   18  C24 UNL     1      -3.633   8.147  12.487  1.00  0.00     0.016 C 
HETATM   19  C25 UNL     1      -0.596   4.950  13.296  1.00  0.00     0.022 A 
HETATM   20  C26 UNL     1      -1.153   5.457  11.975  1.00  0.00    -0.021 A 
HETATM   21  C30 UNL     1      -0.357   6.563  11.267  1.00  0.00     0.063 C 
ENDROOT
BRANCH  14  22
HETATM   22  C13 UNL     1      -6.689   7.643  15.779  1.00  0.00    -0.007 C 
HETATM   23  C14 UNL     1      -6.824   6.244  16.398  1.00  0.00     0.011 C 
BRANCH  22  24
HETATM   24  C15 UNL     1      -8.010   8.051  15.097  1.00  0.00     0.087 C 
BRANCH  24  25
HETATM   25  C16 UNL     1      -8.859   6.866  14.656  1.00  0.00     0.149 C 
HETATM   26  O3  UNL     1     -10.081   6.850  14.758  1.00  0.00    -0.293 OA
BRANCH  25  27
HETATM   27  C17 UNL     1      -8.113   5.738  14.019  1.00  0.00     0.052 C 
HETATM   28  C18 UNL     1      -8.171   5.393  12.718  1.00  0.00    -0.084 C 
HETATM   29  C19 UNL     1      -7.326   4.262  12.193  1.00  0.00     0.043 C 
HETATM   30  C20 UNL     1      -9.042   6.048  11.682  1.00  0.00     0.043 C 
ENDBRANCH  25  27
ENDBRANCH  24  25
ENDBRANCH  22  24
ENDBRANCH  14  22
BRANCH  20  31
HETATM   31  C27 UNL     1      -1.829   4.492  10.986  1.00  0.00     0.021 C 
BRANCH  31  32
HETATM   32  C28 UNL     1      -2.081   3.080  11.512  1.00  0.00     0.111 C 
BRANCH  32  33
HETATM   33  C29 UNL     1      -1.024   2.123  11.030  1.00  0.00     0.139 C 
HETATM   34  O4  UNL     1       0.183   2.226  11.159  1.00  0.00    -0.650 OA
BRANCH  33  35
HETATM   35  O5  UNL     1      -1.559   1.077  10.371  1.00  0.00    -0.776 OA
HETATM   36  H41 UNL     1      -0.785   0.538  10.101  1.00  0.00     0.167 HD
ENDBRANCH  33  35
ENDBRANCH  32  33
ENDBRANCH  31  32
ENDBRANCH  20  31
TORSDOF 8
ENDMDL
MODEL 4
REMARK minimizedAffinity -8.46490765
REMARK CNNscore 0.232911259
REMARK CNNaffinity 6.65218687
REMARK  8 active torsions:
REMARK  status: ('A' for Active; 'I' for Inactive)
REMARK    1  A    between atoms: C12_14  and  C13_15 
REMARK    2  A    between atoms: C13_15  and  C15_17 
REMARK    3  A    between atoms: C15_17  and  C16_18 
REMARK    4  A    between atoms: C16_18  and  C17_20 
REMARK    5  A    between atoms: C26_29  and  C27_30 
REMARK    6  A    between atoms: C27_30  and  C28_31 
REMARK    7  A    between atoms: C28_31  and  C29_32 
REMARK    8  A    between atoms: C29_32  and  O5_34 
ROOT
HETATM    1  C1  UNL     1       3.747   7.351  11.924  1.00  0.00     0.025 C 
HETATM    2  C2  UNL     1       2.812   8.202  12.364  1.00  0.00     0.015 C 
HETATM    3  C3  UNL     1       3.152   9.311  13.281  1.00  0.00     0.289 C 
HETATM    4  O1  UNL     1       4.268   9.650  13.626  1.00  0.00    -0.260 OA
HETATM    5  O2  UNL     1       1.992   9.906  13.662  1.00  0.00    -0.311 OA
HETATM    6  C4  UNL     1       0.857   9.132  13.225  1.00  0.00     0.142 C 
HETATM    7  C5  UNL     1       0.292   8.402  14.436  1.00  0.00     0.039 C 
HETATM    8  C6  UNL     1      -0.804   7.366  14.140  1.00  0.00     0.006 C 
HETATM    9  C7  UNL     1      -0.490   6.477  12.912  1.00  0.00    -0.027 A 
HETATM   10  C8  UNL     1      -1.612   5.491  12.527  1.00  0.00     0.011 C 
HETATM   11  C9  UNL     1      -3.044   6.042  12.610  1.00  0.00     0.011 C 
HETATM   12  C10 UNL     1      -3.296   6.740  13.955  1.00  0.00    -0.032 C 
HETATM   13  C11 UNL     1      -3.161   5.683  15.087  1.00  0.00     0.016 C 
HETATM   14  C12 UNL     1      -4.653   7.496  14.122  1.00  0.00    -0.002 C 
HETATM   15  C21 UNL     1      -4.318   8.604  15.164  1.00  0.00     0.006 C 
HETATM   16  C22 UNL     1      -2.783   8.662  15.294  1.00  0.00     0.011 C 
HETATM   17  C23 UNL     1      -2.256   7.932  14.047  1.00  0.00    -0.032 C 
HETATM   18  C24 UNL     1      -2.348   8.944  12.860  1.00  0.00     0.016 C 
HETATM   19  C25 UNL     1       0.871   5.824  12.885  1.00  0.00     0.022 A 
HETATM   20  C26 UNL     1       0.593   6.933  11.882  1.00  0.00    -0.021 A 
HETATM   21  C30 UNL     1       1.347   8.255  12.083  1.00  0.00     0.063 C 
ENDROOT
BRANCH  14  22
HETATM   22  C13 UNL     1      -6.013   6.780  14.382  1.00  0.00    -0.007 C 
HETATM   23  C14 UNL     1      -6.257   6.211  15.787  1.00  0.00     0.011 C 
BRANCH  22  24
HETATM   24  C15 UNL     1      -6.297   5.703  13.317  1.00  0.00     0.087 C 
BRANCH  24  25
HETATM   25  C16 UNL     1      -7.647   5.019  13.486  1.00  0.00     0.149 C 
HETATM   26  O3  UNL     1      -7.792   3.985  14.131  1.00  0.00    -0.293 OA
BRANCH  25  27
HETATM   27  C17 UNL     1      -8.812   5.727  12.872  1.00  0.00     0.052 C 
HETATM   28  C18 UNL     1      -9.675   6.530  13.522  1.00  0.00    -0.084 C 
HETATM   29  C19 UNL     1     -10.781   7.224  12.772  1.00  0.00     0.043 C 
HETATM   30  C20 UNL     1      -9.655   6.816  14.999  1.00  0.00     0.043 C 
ENDBRANCH  25  27
ENDBRANCH  24  25
ENDBRANCH  22  24
ENDBRANCH  14  22
BRANCH  20  31
HETATM   31  C27 UNL     1       0.360   6.606  10.396  1.00  0.00     0.021 C 
BRANCH  31  32
HETATM   32  C28 UNL     1       1.435   7.111   9.436  1.00  0.00     0.111 C 
BRANCH  32  33
HETATM   33  C29 UNL     1       0.880   8.143   8.492  1.00  0.00     0.139 C 
HETATM   34  O4  UNL     1      -0.275   8.521   8.402  1.00  0.00    -0.650 OA
BRANCH  33  35
HETATM   35  O5  UNL     1       1.830   8.634   7.672  1.00  0.00    -0.776 OA
HETATM   36  H41 UNL     1       1.353   9.278   7.106  1.00  0.00     0.167 HD
ENDBRANCH  33  35
ENDBRANCH  32  33
ENDBRANCH  31  32
ENDBRANCH  20  31
TORSDOF 8
ENDMDL
MODEL 5
REMARK minimizedAffinity -8.29625225
REMARK CNNscore 0.225652099
REMARK CNNaffinity 7.11739969
REMARK  8 active torsions:
REMARK  status: ('A' for Active; 'I' for Inactive)
REMARK    1  A    between atoms: C12_14  and  C13_15 
REMARK    2  A    between atoms: C13_15  and  C15_17 
REMARK    3  A    between atoms: C15_17  and  C16_18 
REMARK    4  A    between atoms: C16_18  and  C17_20 
REMARK    5  A    between atoms: C26_29  and  C27_30 
REMARK    6  A    between atoms: C27_30  and  C28_31 
REMARK    7  A    between atoms: C28_31  and  C29_32 
REMARK    8  A    between atoms: C29_32  and  O5_34 
ROOT
HETATM    1  C1  UNL     1      -0.007   4.199  12.512  1.00  0.00     0.025 C 
HETATM    2  C2  UNL     1      -0.523   5.420  12.700  1.00  0.00     0.015 C 
HETATM    3  C3  UNL     1       0.285   6.516  13.277  1.00  0.00     0.289 C 
HETATM    4  O1  UNL     1       1.477   6.489  13.518  1.00  0.00    -0.260 OA
HETATM    5  O2  UNL     1      -0.538   7.578  13.477  1.00  0.00    -0.311 OA
HETATM    6  C4  UNL     1      -1.913   7.202  13.267  1.00  0.00     0.142 C 
HETATM    7  C5  UNL     1      -2.578   7.072  14.631  1.00  0.00     0.039 C 
HETATM    8  C6  UNL     1      -3.998   6.484  14.629  1.00  0.00     0.006 C 
HETATM    9  C7  UNL     1      -4.151   5.259  13.693  1.00  0.00    -0.027 A 
HETATM   10  C8  UNL     1      -5.586   4.702  13.592  1.00  0.00     0.011 C 
HETATM   11  C9  UNL     1      -6.707   5.750  13.517  1.00  0.00     0.011 C 
HETATM   12  C10 UNL     1      -6.553   6.811  14.617  1.00  0.00    -0.032 C 
HETATM   13  C11 UNL     1      -6.694   6.107  15.997  1.00  0.00     0.016 C 
HETATM   14  C12 UNL     1      -7.522   8.035  14.568  1.00  0.00    -0.002 C 
HETATM   15  C21 UNL     1      -6.707   9.164  15.265  1.00  0.00     0.006 C 
HETATM   16  C22 UNL     1      -5.249   8.674  15.377  1.00  0.00     0.011 C 
HETATM   17  C23 UNL     1      -5.150   7.508  14.380  1.00  0.00    -0.032 C 
HETATM   18  C24 UNL     1      -4.990   8.140  12.961  1.00  0.00     0.016 C 
HETATM   19  C25 UNL     1      -3.127   4.161  13.850  1.00  0.00     0.022 A 
HETATM   20  C26 UNL     1      -3.087   4.997  12.581  1.00  0.00    -0.021 A 
HETATM   21  C30 UNL     1      -1.891   5.944  12.412  1.00  0.00     0.063 C 
ENDROOT
BRANCH  14  22
HETATM   22  C13 UNL     1      -9.015   7.973  15.011  1.00  0.00    -0.007 C 
HETATM   23  C14 UNL     1      -9.308   8.011  16.518  1.00  0.00     0.011 C 
BRANCH  22  24
HETATM   24  C15 UNL     1      -9.749   6.786  14.357  1.00  0.00     0.087 C 
BRANCH  24  25
HETATM   25  C16 UNL     1     -11.116   7.151  13.794  1.00  0.00     0.149 C 
HETATM   26  O3  UNL     1     -11.259   7.799  12.762  1.00  0.00    -0.293 OA
BRANCH  25  27
HETATM   27  C17 UNL     1     -12.290   6.606  14.543  1.00  0.00     0.052 C 
HETATM   28  C18 UNL     1     -13.498   7.192  14.644  1.00  0.00    -0.084 C 
HETATM   29  C19 UNL     1     -14.615   6.511  15.390  1.00  0.00     0.043 C 
HETATM   30  C20 UNL     1     -13.867   8.532  14.066  1.00  0.00     0.043 C 
ENDBRANCH  25  27
ENDBRANCH  24  25
ENDBRANCH  22  24
ENDBRANCH  14  22
BRANCH  20  31
HETATM   31  C27 UNL     1      -3.570   4.412  11.241  1.00  0.00     0.021 C 
BRANCH  31  32
HETATM   32  C28 UNL     1      -4.629   3.316  11.345  1.00  0.00     0.111 C 
BRANCH  32  33
HETATM   33  C29 UNL     1      -3.998   1.951  11.372  1.00  0.00     0.139 C 
HETATM   34  O4  UNL     1      -2.811   1.684  11.449  1.00  0.00    -0.650 OA
BRANCH  33  35
HETATM   35  O5  UNL     1      -4.917   0.971  11.270  1.00  0.00    -0.776 OA
HETATM   36  H41 UNL     1      -4.392   0.143  11.288  1.00  0.00     0.167 HD
ENDBRANCH  33  35
ENDBRANCH  32  33
ENDBRANCH  31  32
ENDBRANCH  20  31
TORSDOF 8
ENDMDL
MODEL 6
REMARK minimizedAffinity -8.21394634
REMARK CNNscore 0.209634691
REMARK CNNaffinity 6.36386347
REMARK  8 active torsions:
REMARK  status: ('A' for Active; 'I' for Inactive)
REMARK    1  A    between atoms: C12_14  and  C13_15 
REMARK    2  A    between atoms: C13_15  and  C15_17 
REMARK    3  A    between atoms: C15_17  and  C16_18 
REMARK    4  A    between atoms: C16_18  and  C17_20 
REMARK    5  A    between atoms: C26_29  and  C27_30 
REMARK    6  A    between atoms: C27_30  and  C28_31 
REMARK    7  A    between atoms: C28_31  and  C29_32 
REMARK    8  A    between atoms: C29_32  and  O5_34 
ROOT
HETATM    1  C1  UNL     1       1.057  12.183  16.441  1.00  0.00     0.025 C 
HETATM    2  C2  UNL     1      -0.013  12.061  15.645  1.00  0.00     0.015 C 
HETATM    3  C3  UNL     1      -1.068  13.096  15.610  1.00  0.00     0.289 C 
HETATM    4  O1  UNL     1      -1.038  14.180  16.163  1.00  0.00    -0.260 OA
HETATM    5  O2  UNL     1      -2.079  12.634  14.830  1.00  0.00    -0.311 OA
HETATM    6  C4  UNL     1      -1.872  11.246  14.500  1.00  0.00     0.142 C 
HETATM    7  C5  UNL     1      -2.820  10.414  15.351  1.00  0.00     0.039 C 
HETATM    8  C6  UNL     1      -2.613   8.892  15.288  1.00  0.00     0.006 C 
HETATM    9  C7  UNL     1      -1.123   8.475  15.348  1.00  0.00    -0.027 A 
HETATM   10  C8  UNL     1      -0.871   6.961  15.191  1.00  0.00     0.011 C 
HETATM   11  C9  UNL     1      -1.727   6.247  14.133  1.00  0.00     0.011 C 
HETATM   12  C10 UNL     1      -3.215   6.592  14.294  1.00  0.00    -0.032 C 
HETATM   13  C11 UNL     1      -3.691   6.069  15.678  1.00  0.00     0.016 C 
HETATM   14  C12 UNL     1      -4.190   6.075  13.189  1.00  0.00    -0.002 C 
HETATM   15  C21 UNL     1      -5.350   7.113  13.221  1.00  0.00     0.006 C 
HETATM   16  C22 UNL     1      -4.865   8.316  14.055  1.00  0.00     0.011 C 
HETATM   17  C23 UNL     1      -3.336   8.162  14.112  1.00  0.00    -0.032 C 
HETATM   18  C24 UNL     1      -2.779   8.686  12.750  1.00  0.00     0.016 C 
HETATM   19  C25 UNL     1      -0.303   9.072  16.467  1.00  0.00     0.022 A 
HETATM   20  C26 UNL     1      -0.011   9.529  15.046  1.00  0.00    -0.021 A 
HETATM   21  C30 UNL     1      -0.387  10.974  14.692  1.00  0.00     0.063 C 
ENDROOT
BRANCH  14  22
HETATM   22  C13 UNL     1      -4.673   4.596  13.089  1.00  0.00    -0.007 C 
HETATM   23  C14 UNL     1      -3.629   3.533  12.717  1.00  0.00     0.011 C 
BRANCH  22  24
HETATM   24  C15 UNL     1      -5.910   4.466  12.179  1.00  0.00     0.087 C 
BRANCH  24  25
HETATM   25  C16 UNL     1      -7.134   3.905  12.890  1.00  0.00     0.149 C 
HETATM   26  O3  UNL     1      -7.381   2.704  12.942  1.00  0.00    -0.293 OA
BRANCH  25  27
HETATM   27  C17 UNL     1      -7.992   4.910  13.590  1.00  0.00     0.052 C 
HETATM   28  C18 UNL     1      -8.823   5.785  12.992  1.00  0.00    -0.084 C 
HETATM   29  C19 UNL     1      -9.672   6.714  13.820  1.00  0.00     0.043 C 
HETATM   30  C20 UNL     1      -8.995   5.948  11.506  1.00  0.00     0.043 C 
ENDBRANCH  25  27
ENDBRANCH  24  25
ENDBRANCH  22  24
ENDBRANCH  14  22
BRANCH  20  31
HETATM   31  C27 UNL     1       1.257   9.053  14.314  1.00  0.00     0.021 C 
BRANCH  31  32
HETATM   32  C28 UNL     1       1.771   7.673  14.717  1.00  0.00     0.111 C 
BRANCH  32  33
HETATM   33  C29 UNL     1       2.945   7.781  15.653  1.00  0.00     0.139 C 
HETATM   34  O4  UNL     1       3.463   8.799  16.076  1.00  0.00    -0.650 OA
BRANCH  33  35
HETATM   35  O5  UNL     1       3.431   6.570  15.989  1.00  0.00    -0.776 OA
HETATM   36  H41 UNL     1       4.187   6.769  16.582  1.00  0.00     0.167 HD
ENDBRANCH  33  35
ENDBRANCH  32  33
ENDBRANCH  31  32
ENDBRANCH  20  31
TORSDOF 8
ENDMDL
MODEL 7
REMARK minimizedAffinity -8.60654449
REMARK CNNscore 0.201472595
REMARK CNNaffinity 6.56526995
REMARK  8 active torsions:
REMARK  status: ('A' for Active; 'I' for Inactive)
REMARK    1  A    between atoms: C12_14  and  C13_15 
REMARK    2  A    between atoms: C13_15  and  C15_17 
REMARK    3  A    between atoms: C15_17  and  C16_18 
REMARK    4  A    between atoms: C16_18  and  C17_20 
REMARK    5  A    between atoms: C26_29  and  C27_30 
REMARK    6  A    between atoms: C27_30  and  C28_31 
REMARK    7  A    between atoms: C28_31  and  C29_32 
REMARK    8  A    between atoms: C29_32  and  O5_34 
ROOT
HETATM    1  C1  UNL     1      -7.137   5.557  14.723  1.00  0.00     0.025 C 
HETATM    2  C2  UNL     1      -6.382   5.004  13.767  1.00  0.00     0.015 C 
HETATM    3  C3  UNL     1      -6.590   3.605  13.335  1.00  0.00     0.289 C 
HETATM    4  O1  UNL     1      -7.496   2.868  13.677  1.00  0.00    -0.260 OA
HETATM    5  O2  UNL     1      -5.595   3.285  12.467  1.00  0.00    -0.311 OA
HETATM    6  C4  UNL     1      -4.591   4.319  12.443  1.00  0.00     0.142 C 
HETATM    7  C5  UNL     1      -3.384   3.820  13.225  1.00  0.00     0.039 C 
HETATM    8  C6  UNL     1      -2.279   4.858  13.482  1.00  0.00     0.006 C 
HETATM    9  C7  UNL     1      -2.828   6.241  13.912  1.00  0.00    -0.027 A 
HETATM   10  C8  UNL     1      -1.754   7.334  14.086  1.00  0.00     0.011 C 
HETATM   11  C9  UNL     1      -0.641   7.353  13.027  1.00  0.00     0.011 C 
HETATM   12  C10 UNL     1      -0.042   5.953  12.823  1.00  0.00    -0.032 C 
HETATM   13  C11 UNL     1       0.621   5.506  14.157  1.00  0.00     0.016 C 
HETATM   14  C12 UNL     1       0.985   5.779  11.659  1.00  0.00    -0.002 C 
HETATM   15  C21 UNL     1       0.835   4.279  11.270  1.00  0.00     0.006 C 
HETATM   16  C22 UNL     1      -0.445   3.755  11.952  1.00  0.00     0.011 C 
HETATM   17  C23 UNL     1      -1.229   5.020  12.339  1.00  0.00    -0.032 C 
HETATM   18  C24 UNL     1      -1.940   5.524  11.042  1.00  0.00     0.016 C 
HETATM   19  C25 UNL     1      -3.828   6.245  15.044  1.00  0.00     0.022 A 
HETATM   20  C26 UNL     1      -4.327   6.595  13.651  1.00  0.00    -0.021 A 
HETATM   21  C30 UNL     1      -5.257   5.580  12.972  1.00  0.00     0.063 C 
ENDROOT
BRANCH  14  22
HETATM   22  C13 UNL     1       2.465   6.263  11.735  1.00  0.00    -0.007 C 
HETATM   23  C14 UNL     1       2.711   7.777  11.824  1.00  0.00     0.011 C 
BRANCH  22  24
HETATM   24  C15 UNL     1       3.318   5.653  10.607  1.00  0.00     0.087 C 
BRANCH  24  25
HETATM   25  C16 UNL     1       2.727   5.855   9.218  1.00  0.00     0.149 C 
HETATM   26  O3  UNL     1       3.204   5.340   8.211  1.00  0.00    -0.293 OA
BRANCH  25  27
HETATM   27  C17 UNL     1       1.476   6.671   9.161  1.00  0.00     0.052 C 
HETATM   28  C18 UNL     1       1.340   7.859   8.542  1.00  0.00    -0.084 C 
HETATM   29  C19 UNL     1       0.005   8.555   8.516  1.00  0.00     0.043 C 
HETATM   30  C20 UNL     1       2.442   8.607   7.841  1.00  0.00     0.043 C 
ENDBRANCH  25  27
ENDBRANCH  24  25
ENDBRANCH  22  24
ENDBRANCH  14  22
BRANCH  20  31
HETATM   31  C27 UNL     1      -4.673   8.049  13.283  1.00  0.00     0.021 C 
BRANCH  31  32
HETATM   32  C28 UNL     1      -5.358   8.860  14.381  1.00  0.00     0.111 C 
BRANCH  32  33
HETATM   33  C29 UNL     1      -4.355   9.630  15.196  1.00  0.00     0.139 C 
HETATM   34  O4  UNL     1      -3.525  10.426  14.792  1.00  0.00    -0.650 OA
BRANCH  33  35
HETATM   35  O5  UNL     1      -4.435   9.328  16.507  1.00  0.00    -0.776 OA
HETATM   36  H41 UNL     1      -3.736   9.875  16.926  1.00  0.00     0.167 HD
ENDBRANCH  33  35
ENDBRANCH  32  33
ENDBRANCH  31  32
ENDBRANCH  20  31
TORSDOF 8
ENDMDL
MODEL 8
REMARK minimizedAffinity -8.14330292
REMARK CNNscore 0.19224456
REMARK CNNaffinity 6.40511656
REMARK  8 active torsions:
REMARK  status: ('A' for Active; 'I' for Inactive)
REMARK    1  A    between atoms: C12_14  and  C13_15 
REMARK    2  A    between atoms: C13_15  and  C15_17 
REMARK    3  A    between atoms: C15_17  and  C16_18 
REMARK    4  A    between atoms: C16_18  and  C17_20 
REMARK    5  A    between atoms: C26_29  and  C27_30 
REMARK    6  A    between atoms: C27_30  and  C28_31 
REMARK    7  A    between atoms: C28_31  and  C29_32 
REMARK    8  A    between atoms: C29_32  and  O5_34 
ROOT
HETATM    1  C1  UNL     1       4.151   7.591  10.095  1.00  0.00     0.025 C 
HETATM    2  C2  UNL     1       3.328   6.608  10.476  1.00  0.00     0.015 C 
HETATM    3  C3  UNL     1       3.079   5.434   9.611  1.00  0.00     0.289 C 
HETATM    4  O1  UNL     1       3.651   5.165   8.572  1.00  0.00    -0.260 OA
HETATM    5  O2  UNL     1       2.104   4.688  10.193  1.00  0.00    -0.311 OA
HETATM    6  C4  UNL     1       1.517   5.396  11.303  1.00  0.00     0.142 C 
HETATM    7  C5  UNL     1       0.156   5.917  10.862  1.00  0.00     0.039 C 
HETATM    8  C6  UNL     1      -0.545   6.870  11.843  1.00  0.00     0.006 C 
HETATM    9  C7  UNL     1       0.408   7.927  12.455  1.00  0.00    -0.027 A 
HETATM   10  C8  UNL     1      -0.240   8.839  13.517  1.00  0.00     0.011 C 
HETATM   11  C9  UNL     1      -1.196   8.147  14.500  1.00  0.00     0.011 C 
HETATM   12  C10 UNL     1      -2.218   7.271  13.760  1.00  0.00    -0.032 C 
HETATM   13  C11 UNL     1      -3.093   8.192  12.863  1.00  0.00     0.016 C 
HETATM   14  C12 UNL     1      -3.152   6.373  14.633  1.00  0.00    -0.002 C 
HETATM   15  C21 UNL     1      -3.493   5.184  13.686  1.00  0.00     0.006 C 
HETATM   16  C22 UNL     1      -2.523   5.260  12.489  1.00  0.00     0.011 C 
HETATM   17  C23 UNL     1      -1.387   6.182  12.963  1.00  0.00    -0.032 C 
HETATM   18  C24 UNL     1      -0.451   5.316  13.865  1.00  0.00     0.016 C 
HETATM   19  C25 UNL     1       1.260   8.707  11.482  1.00  0.00     0.022 A 
HETATM   20  C26 UNL     1       1.953   7.705  12.393  1.00  0.00    -0.021 A 
HETATM   21  C30 UNL     1       2.530   6.448  11.729  1.00  0.00     0.063 C 
ENDROOT
BRANCH  14  22
HETATM   22  C13 UNL     1      -4.380   6.917  15.425  1.00  0.00    -0.007 C 
HETATM   23  C14 UNL     1      -5.394   5.892  15.951  1.00  0.00     0.011 C 
BRANCH  22  24
HETATM   24  C15 UNL     1      -5.105   8.031  14.645  1.00  0.00     0.087 C 
BRANCH  24  25
HETATM   25  C16 UNL     1      -6.514   7.651  14.210  1.00  0.00     0.149 C 
HETATM   26  O3  UNL     1      -6.745   6.725  13.438  1.00  0.00    -0.293 OA
BRANCH  25  27
HETATM   27  C17 UNL     1      -7.619   8.437  14.839  1.00  0.00     0.052 C 
HETATM   28  C18 UNL     1      -8.613   7.930  15.594  1.00  0.00    -0.084 C 
HETATM   29  C19 UNL     1      -9.639   8.842  16.212  1.00  0.00     0.043 C 
HETATM   30  C20 UNL     1      -8.820   6.470  15.895  1.00  0.00     0.043 C 
ENDBRANCH  25  27
ENDBRANCH  24  25
ENDBRANCH  22  24
ENDBRANCH  14  22
BRANCH  20  31
HETATM   31  C27 UNL     1       2.800   8.185  13.585  1.00  0.00     0.021 C 
BRANCH  31  32
HETATM   32  C28 UNL     1       4.312   8.062  13.409  1.00  0.00     0.111 C 
BRANCH  32  33
HETATM   33  C29 UNL     1       4.973   9.414  13.427  1.00  0.00     0.139 C 
HETATM   34  O4  UNL     1       5.791   9.828  14.230  1.00  0.00    -0.650 OA
BRANCH  33  35
HETATM   35  O5  UNL     1       4.536  10.199  12.424  1.00  0.00    -0.776 OA
HETATM   36  H41 UNL     1       5.022  11.042  12.546  1.00  0.00     0.167 HD
ENDBRANCH  33  35
ENDBRANCH  32  33
ENDBRANCH  31  32
ENDBRANCH  20  31
TORSDOF 8
ENDMDL
MODEL 9
REMARK minimizedAffinity -7.14226103
REMARK CNNscore 0.173243895
REMARK CNNaffinity 6.10319185
REMARK  8 active torsions:
REMARK  status: ('A' for Active; 'I' for Inactive)
REMARK    1  A    between atoms: C12_14  and  C13_15 
REMARK    2  A    between atoms: C13_15  and  C15_17 
REMARK    3  A    between atoms: C15_17  and  C16_18 
REMARK    4  A    between atoms: C16_18  and  C17_20 
REMARK    5  A    between atoms: C26_29  and  C27_30 
REMARK    6  A    between atoms: C27_30  and  C28_31 
REMARK    7  A    between atoms: C28_31  and  C29_32 
REMARK    8  A    between atoms: C29_32  and  O5_34 
ROOT
HETATM    1  C1  UNL     1       0.480   4.745  11.549  1.00  0.00     0.025 C 
HETATM    2  C2  UNL     1      -0.035   5.973  11.409  1.00  0.00     0.015 C 
HETATM    3  C3  UNL     1       0.477   6.910  10.386  1.00  0.00     0.289 C 
HETATM    4  O1  UNL     1       1.287   6.660   9.514  1.00  0.00    -0.260 OA
HETATM    5  O2  UNL     1      -0.134   8.108  10.578  1.00  0.00    -0.311 OA
HETATM    6  C4  UNL     1      -0.881   8.107  11.811  1.00  0.00     0.142 C 
HETATM    7  C5  UNL     1      -0.096   8.912  12.837  1.00  0.00     0.039 C 
HETATM    8  C6  UNL     1      -0.631   8.863  14.277  1.00  0.00     0.006 C 
HETATM    9  C7  UNL     1      -1.051   7.441  14.724  1.00  0.00    -0.027 A 
HETATM   10  C8  UNL     1      -1.682   7.369  16.130  1.00  0.00     0.011 C 
HETATM   11  C9  UNL     1      -2.660   8.501  16.483  1.00  0.00     0.011 C 
HETATM   12  C10 UNL     1      -2.055   9.878  16.169  1.00  0.00    -0.032 C 
HETATM   13  C11 UNL     1      -0.801  10.077  17.066  1.00  0.00     0.016 C 
HETATM   14  C12 UNL     1      -2.992  11.118  16.318  1.00  0.00    -0.002 C 
HETATM   15  C21 UNL     1      -2.392  12.143  15.310  1.00  0.00     0.006 C 
HETATM   16  C22 UNL     1      -1.396  11.376  14.417  1.00  0.00     0.011 C 
HETATM   17  C23 UNL     1      -1.754   9.894  14.613  1.00  0.00    -0.032 C 
HETATM   18  C24 UNL     1      -3.007   9.612  13.723  1.00  0.00     0.016 C 
HETATM   19  C25 UNL     1      -0.042   6.340  14.500  1.00  0.00     0.022 A 
HETATM   20  C26 UNL     1      -1.303   6.334  13.652  1.00  0.00    -0.021 A 
HETATM   21  C30 UNL     1      -1.136   6.648  12.159  1.00  0.00     0.063 C 
ENDROOT
BRANCH  14  22
HETATM   22  C13 UNL     1      -3.384  11.744  17.691  1.00  0.00    -0.007 C 
HETATM   23  C14 UNL     1      -3.601  10.783  18.870  1.00  0.00     0.011 C 
BRANCH  22  24
HETATM   24  C15 UNL     1      -4.586  12.697  17.555  1.00  0.00     0.087 C 
BRANCH  24  25
HETATM   25  C16 UNL     1      -4.488  13.932  18.441  1.00  0.00     0.149 C 
HETATM   26  O3  UNL     1      -4.373  15.067  17.990  1.00  0.00    -0.293 OA
BRANCH  25  27
HETATM   27  C17 UNL     1      -4.612  13.684  19.911  1.00  0.00     0.052 C 
HETATM   28  C18 UNL     1      -5.766  13.529  20.587  1.00  0.00    -0.084 C 
HETATM   29  C19 UNL     1      -5.749  13.234  22.064  1.00  0.00     0.043 C 
HETATM   30  C20 UNL     1      -7.144  13.633  19.993  1.00  0.00     0.043 C 
ENDBRANCH  25  27
ENDBRANCH  24  25
ENDBRANCH  22  24
ENDBRANCH  14  22
BRANCH  20  31
HETATM   31  C27 UNL     1      -2.422   5.311  13.918  1.00  0.00     0.021 C 
BRANCH  31  32
HETATM   32  C28 UNL     1      -3.653   5.435  13.023  1.00  0.00     0.111 C 
BRANCH  32  33
HETATM   33  C29 UNL     1      -3.829   4.211  12.166  1.00  0.00     0.139 C 
HETATM   34  O4  UNL     1      -3.073   3.793  11.306  1.00  0.00    -0.650 OA
BRANCH  33  35
HETATM   35  O5  UNL     1      -4.991   3.580  12.425  1.00  0.00    -0.776 OA
HETATM   36  H41 UNL     1      -4.996   2.818  11.808  1.00  0.00     0.167 HD
ENDBRANCH  33  35
ENDBRANCH  32  33
ENDBRANCH  31  32
ENDBRANCH  20  31
TORSDOF 8
ENDMDL
