MODEL 1
REMARK minimizedAffinity -8.17681122
REMARK CNNscore 0.549208701
REMARK CNNaffinity 7.03664064
REMARK  10 active torsions:
REMARK  status: ('A' for Active; 'I' for Inactive)
REMARK    1  A    between atoms: C2_2  and  O1_3 
REMARK    2  A    between atoms: O1_3  and  C3_4 
REMARK    3  A    between atoms: C14_15  and  O2_16 
REMARK    4  A    between atoms: C19_21  and  O3_22 
REMARK    5  A    between atoms: O3_22  and  C20_23 
REMARK    6  A    between atoms: C21_25  and  C22_26 
REMARK    7  A    between atoms: C22_26  and  O5_27 
REMARK    8  A    between atoms: C23_28  and  O6_29 
REMARK    9  A    between atoms: C24_30  and  O7_31 
REMARK   10  A    between atoms: C25_32  and  O8_33 
ROOT
HETATM    1  C3  UNL     1      -0.471  53.395 -26.015  1.00  0.00     0.260 C 
HETATM    2  C4  UNL     1      -1.023  52.540 -27.171  1.00  0.00     0.065 C 
HETATM    3  C5  UNL     1      -2.383  51.924 -26.820  1.00  0.00    -0.007 C 
HETATM    4  C6  UNL     1      -2.941  51.144 -28.008  1.00  0.00     0.010 C 
HETATM    5  C7  UNL     1      -2.187  51.038 -25.572  1.00  0.00     0.027 C 
HETATM    6  C8  UNL     1      -1.274  51.738 -24.524  1.00  0.00     0.130 C 
HETATM    7  C9  UNL     1      -1.933  51.522 -23.151  1.00  0.00     0.042 C 
HETATM    8  C10 UNL     1      -2.808  50.269 -23.346  1.00  0.00    -0.029 C 
HETATM    9  C11 UNL     1      -1.859  49.029 -23.321  1.00  0.00     0.016 C 
HETATM   10  C12 UNL     1      -3.939  50.099 -22.300  1.00  0.00     0.006 C 
HETATM   11  C13 UNL     1      -3.432  49.771 -20.894  1.00  0.00     0.038 C 
HETATM   12  C14 UNL     1      -4.575  49.554 -19.895  1.00  0.00     0.124 C 
HETATM   13  C15 UNL     1      -5.347  48.270 -20.270  1.00  0.00     0.034 C 
HETATM   14  C16 UNL     1      -6.521  47.812 -19.325  1.00  0.00    -0.015 C 
HETATM   15  C17 UNL     1      -6.128  47.818 -17.830  1.00  0.00     0.018 C 
HETATM   16  C18 UNL     1      -7.745  48.750 -19.442  1.00  0.00     0.018 C 
HETATM   17  C19 UNL     1      -6.876  46.321 -19.685  1.00  0.00     0.133 C 
HETATM   18  C26 UNL     1      -6.469  45.896 -21.105  1.00  0.00     0.034 C 
HETATM   19  C27 UNL     1      -6.607  47.014 -22.125  1.00  0.00     0.013 C 
HETATM   20  C28 UNL     1      -5.836  48.280 -21.737  1.00  0.00    -0.025 A 
HETATM   21  C29 UNL     1      -6.429  49.530 -22.350  1.00  0.00     0.021 A 
HETATM   22  C30 UNL     1      -5.038  49.119 -22.783  1.00  0.00    -0.027 A 
HETATM   23  C31 UNL     1      -4.895  48.513 -24.188  1.00  0.00     0.011 C 
HETATM   24  C32 UNL     1      -4.107  49.290 -25.257  1.00  0.00     0.011 C 
HETATM   25  C33 UNL     1      -3.435  50.569 -24.752  1.00  0.00    -0.030 C 
HETATM   26  C34 UNL     1      -4.511  51.693 -24.746  1.00  0.00     0.016 C 
HETATM   27  O9  UNL     1      -1.136  53.128 -24.780  1.00  0.00    -0.356 OA
ENDROOT
BRANCH  17  28
HETATM   28  O3  UNL     1      -8.281  46.090 -19.517  1.00  0.00    -0.352 OA
BRANCH  28  29
HETATM   29  C20 UNL     1      -8.617  44.705 -19.369  1.00  0.00     0.292 C 
HETATM   30  O4  UNL     1      -7.420  43.923 -19.377  1.00  0.00    -0.348 OA
HETATM   31  C21 UNL     1      -7.668  42.521 -19.206  1.00  0.00     0.179 C 
HETATM   32  C23 UNL     1      -8.445  42.005 -20.429  1.00  0.00     0.180 C 
HETATM   33  C24 UNL     1      -9.754  42.790 -20.552  1.00  0.00     0.183 C 
HETATM   34  C25 UNL     1      -9.529  44.303 -20.546  1.00  0.00     0.204 C 
BRANCH  31  35
HETATM   35  C22 UNL     1      -6.310  41.824 -19.038  1.00  0.00     0.198 C 
BRANCH  35  36
HETATM   36  O5  UNL     1      -5.751  41.469 -20.296  1.00  0.00    -0.398 OA
HETATM   37  H37 UNL     1      -4.854  41.135 -20.130  1.00  0.00     0.209 HD
ENDBRANCH  35  36
ENDBRANCH  31  35
BRANCH  32  38
HETATM   38  O6  UNL     1      -8.749  40.615 -20.350  1.00  0.00    -0.390 OA
HETATM   39  H39 UNL     1      -9.491  40.448 -20.962  1.00  0.00     0.210 HD
ENDBRANCH  32  38
BRANCH  33  40
HETATM   40  O7  UNL     1     -10.445  42.401 -21.756  1.00  0.00    -0.390 OA
HETATM   41  H41 UNL     1      -9.893  42.656 -22.519  1.00  0.00     0.210 HD
ENDBRANCH  33  40
BRANCH  34  42
HETATM   42  O8  UNL     1     -10.811  44.952 -20.476  1.00  0.00    -0.388 OA
HETATM   43  H43 UNL     1     -11.401  44.461 -21.078  1.00  0.00     0.210 HD
ENDBRANCH  34  42
ENDBRANCH  28  29
ENDBRANCH  17  28
BRANCH  12  44
HETATM   44  O2  UNL     1      -3.959  49.411 -18.615  1.00  0.00    -0.395 OA
HETATM   45  H24 UNL     1      -3.543  50.265 -18.394  1.00  0.00     0.210 HD
ENDBRANCH  12  44
BRANCH   1  46
HETATM   46  O1  UNL     1       0.935  53.161 -25.928  1.00  0.00    -0.362 OA
BRANCH  46  47
HETATM   47  C2  UNL     1       1.450  52.287 -26.929  1.00  0.00     0.166 C 
HETATM   48  C1  UNL     1       2.456  51.291 -26.384  1.00  0.00     0.033 C 
ENDBRANCH  46  47
ENDBRANCH   1  46
TORSDOF 10
ENDMDL
MODEL 2
REMARK minimizedAffinity -8.70931911
REMARK CNNscore 0.445885539
REMARK CNNaffinity 6.82242155
REMARK  10 active torsions:
REMARK  status: ('A' for Active; 'I' for Inactive)
REMARK    1  A    between atoms: C2_2  and  O1_3 
REMARK    2  A    between atoms: O1_3  and  C3_4 
REMARK    3  A    between atoms: C14_15  and  O2_16 
REMARK    4  A    between atoms: C19_21  and  O3_22 
REMARK    5  A    between atoms: O3_22  and  C20_23 
REMARK    6  A    between atoms: C21_25  and  C22_26 
REMARK    7  A    between atoms: C22_26  and  O5_27 
REMARK    8  A    between atoms: C23_28  and  O6_29 
REMARK    9  A    between atoms: C24_30  and  O7_31 
REMARK   10  A    between atoms: C25_32  and  O8_33 
ROOT
HETATM    1  C3  UNL     1      -6.194  47.803 -24.954  1.00  0.00     0.260 C 
HETATM    2  C4  UNL     1      -5.056  48.445 -25.770  1.00  0.00     0.065 C 
HETATM    3  C5  UNL     1      -3.735  48.452 -24.990  1.00  0.00    -0.007 C 
HETATM    4  C6  UNL     1      -2.609  49.025 -25.848  1.00  0.00     0.010 C 
HETATM    5  C7  UNL     1      -3.960  49.261 -23.695  1.00  0.00     0.027 C 
HETATM    6  C8  UNL     1      -5.330  48.910 -23.046  1.00  0.00     0.130 C 
HETATM    7  C9  UNL     1      -5.076  48.760 -21.536  1.00  0.00     0.042 C 
HETATM    8  C10 UNL     1      -3.794  49.577 -21.286  1.00  0.00    -0.029 C 
HETATM    9  C11 UNL     1      -4.198  51.085 -21.282  1.00  0.00     0.016 C 
HETATM   10  C12 UNL     1      -3.042  49.219 -19.979  1.00  0.00     0.006 C 
HETATM   11  C13 UNL     1      -3.790  49.628 -18.708  1.00  0.00     0.038 C 
HETATM   12  C14 UNL     1      -2.997  49.313 -17.435  1.00  0.00     0.124 C 
HETATM   13  C15 UNL     1      -1.742  50.211 -17.376  1.00  0.00     0.034 C 
HETATM   14  C16 UNL     1      -0.818  50.108 -16.105  1.00  0.00    -0.015 C 
HETATM   15  C17 UNL     1      -1.611  50.160 -14.778  1.00  0.00     0.018 C 
HETATM   16  C18 UNL     1      -0.037  48.774 -16.074  1.00  0.00     0.018 C 
HETATM   17  C19 UNL     1       0.137  51.360 -16.099  1.00  0.00     0.133 C 
HETATM   18  C26 UNL     1       0.350  52.001 -17.479  1.00  0.00     0.034 C 
HETATM   19  C27 UNL     1       0.374  50.988 -18.612  1.00  0.00     0.013 C 
HETATM   20  C28 UNL     1      -0.877  50.105 -18.654  1.00  0.00    -0.025 A 
HETATM   21  C29 UNL     1      -0.620  48.765 -19.309  1.00  0.00     0.021 A 
HETATM   22  C30 UNL     1      -1.575  49.717 -19.995  1.00  0.00    -0.027 A 
HETATM   23  C31 UNL     1      -1.068  50.421 -21.264  1.00  0.00     0.011 C 
HETATM   24  C32 UNL     1      -1.727  50.088 -22.614  1.00  0.00     0.011 C 
HETATM   25  C33 UNL     1      -2.931  49.147 -22.522  1.00  0.00    -0.030 C 
HETATM   26  C34 UNL     1      -2.383  47.693 -22.445  1.00  0.00     0.016 C 
HETATM   27  O9  UNL     1      -5.875  47.705 -23.566  1.00  0.00    -0.356 OA
ENDROOT
BRANCH  17  28
HETATM   28  O3  UNL     1       1.414  51.007 -15.549  1.00  0.00    -0.352 OA
BRANCH  28  29
HETATM   29  C20 UNL     1       1.411  50.913 -14.120  1.00  0.00     0.292 C 
HETATM   30  O4  UNL     1       1.084  52.186 -13.560  1.00  0.00    -0.348 OA
HETATM   31  C21 UNL     1       1.033  52.171 -12.127  1.00  0.00     0.179 C 
HETATM   32  C23 UNL     1       2.446  51.891 -11.587  1.00  0.00     0.180 C 
HETATM   33  C24 UNL     1       2.932  50.549 -12.140  1.00  0.00     0.183 C 
HETATM   34  C25 UNL     1       2.817  50.471 -13.664  1.00  0.00     0.204 C 
BRANCH  31  35
HETATM   35  C22 UNL     1       0.487  53.530 -11.665  1.00  0.00     0.198 C 
BRANCH  35  36
HETATM   36  O5  UNL     1       0.002  53.465 -10.329  1.00  0.00    -0.398 OA
HETATM   37  H37 UNL     1      -0.226  54.371 -10.061  1.00  0.00     0.209 HD
ENDBRANCH  35  36
ENDBRANCH  31  35
BRANCH  32  38
HETATM   38  O6  UNL     1       2.499  51.847 -10.164  1.00  0.00    -0.390 OA
HETATM   39  H39 UNL     1       3.309  51.358  -9.922  1.00  0.00     0.210 HD
ENDBRANCH  32  38
BRANCH  33  40
HETATM   40  O7  UNL     1       4.297  50.320 -11.739  1.00  0.00    -0.390 OA
HETATM   41  H41 UNL     1       4.853  51.009 -12.147  1.00  0.00     0.210 HD
ENDBRANCH  33  40
BRANCH  34  42
HETATM   42  O8  UNL     1       3.114  49.124 -14.073  1.00  0.00    -0.388 OA
HETATM   43  H43 UNL     1       3.878  48.837 -13.539  1.00  0.00     0.210 HD
ENDBRANCH  34  42
ENDBRANCH  28  29
ENDBRANCH  17  28
BRANCH  12  44
HETATM   44  O2  UNL     1      -3.871  49.603 -16.342  1.00  0.00    -0.395 OA
HETATM   45  H24 UNL     1      -4.610  48.969 -16.385  1.00  0.00     0.210 HD
ENDBRANCH  12  44
BRANCH   1  46
HETATM   46  O1  UNL     1      -7.380  48.565 -25.181  1.00  0.00    -0.362 OA
BRANCH  46  47
HETATM   47  C2  UNL     1      -8.498  47.800 -25.621  1.00  0.00     0.166 C 
HETATM   48  C1  UNL     1      -8.100  46.475 -26.243  1.00  0.00     0.033 C 
ENDBRANCH  46  47
ENDBRANCH   1  46
TORSDOF 10
ENDMDL
MODEL 3
REMARK minimizedAffinity -8.53453255
REMARK CNNscore 0.427444607
REMARK CNNaffinity 6.44847918
REMARK  10 active torsions:
REMARK  status: ('A' for Active; 'I' for Inactive)
REMARK    1  A    between atoms: C2_2  and  O1_3 
REMARK    2  A    between atoms: O1_3  and  C3_4 
REMARK    3  A    between atoms: C14_15  and  O2_16 
REMARK    4  A    between atoms: C19_21  and  O3_22 
REMARK    5  A    between atoms: O3_22  and  C20_23 
REMARK    6  A    between atoms: C21_25  and  C22_26 
REMARK    7  A    between atoms: C22_26  and  O5_27 
REMARK    8  A    between atoms: C23_28  and  O6_29 
REMARK    9  A    between atoms: C24_30  and  O7_31 
REMARK   10  A    between atoms: C25_32  and  O8_33 
ROOT
HETATM    1  C3  UNL     1      -7.950  44.735 -15.060  1.00  0.00     0.260 C 
HETATM    2  C4  UNL     1      -6.712  43.828 -15.190  1.00  0.00     0.065 C 
HETATM    3  C5  UNL     1      -5.519  44.581 -15.793  1.00  0.00    -0.007 C 
HETATM    4  C6  UNL     1      -4.287  43.681 -15.842  1.00  0.00     0.010 C 
HETATM    5  C7  UNL     1      -5.940  45.082 -17.191  1.00  0.00     0.027 C 
HETATM    6  C8  UNL     1      -7.387  45.656 -17.169  1.00  0.00     0.130 C 
HETATM    7  C9  UNL     1      -7.354  46.962 -17.982  1.00  0.00     0.042 C 
HETATM    8  C10 UNL     1      -6.132  46.801 -18.906  1.00  0.00    -0.029 C 
HETATM    9  C11 UNL     1      -6.547  45.842 -20.065  1.00  0.00     0.016 C 
HETATM   10  C12 UNL     1      -5.575  48.128 -19.480  1.00  0.00     0.006 C 
HETATM   11  C13 UNL     1      -6.505  48.796 -20.495  1.00  0.00     0.038 C 
HETATM   12  C14 UNL     1      -5.903  50.076 -21.088  1.00  0.00     0.124 C 
HETATM   13  C15 UNL     1      -4.679  49.713 -21.957  1.00  0.00     0.034 C 
HETATM   14  C16 UNL     1      -3.951  50.876 -22.730  1.00  0.00    -0.015 C 
HETATM   15  C17 UNL     1      -4.930  51.800 -23.491  1.00  0.00     0.018 C 
HETATM   16  C18 UNL     1      -3.168  51.797 -21.766  1.00  0.00     0.018 C 
HETATM   17  C19 UNL     1      -3.020  50.223 -23.819  1.00  0.00     0.133 C 
HETATM   18  C26 UNL     1      -2.615  48.771 -23.520  1.00  0.00     0.034 C 
HETATM   19  C27 UNL     1      -2.415  48.500 -22.038  1.00  0.00     0.013 C 
HETATM   20  C28 UNL     1      -3.637  48.867 -21.190  1.00  0.00    -0.025 A 
HETATM   21  C29 UNL     1      -3.272  49.196 -19.759  1.00  0.00     0.021 A 
HETATM   22  C30 UNL     1      -4.126  47.973 -20.009  1.00  0.00    -0.027 A 
HETATM   23  C31 UNL     1      -3.447  46.603 -19.854  1.00  0.00     0.011 C 
HETATM   24  C32 UNL     1      -3.898  45.673 -18.715  1.00  0.00     0.011 C 
HETATM   25  C33 UNL     1      -5.092  46.186 -17.905  1.00  0.00    -0.030 C 
HETATM   26  C34 UNL     1      -4.546  47.191 -16.851  1.00  0.00     0.016 C 
HETATM   27  O9  UNL     1      -7.836  45.920 -15.848  1.00  0.00    -0.356 OA
ENDROOT
BRANCH  17  28
HETATM   28  O3  UNL     1      -1.833  51.009 -23.994  1.00  0.00    -0.352 OA
BRANCH  28  29
HETATM   29  C20 UNL     1      -1.361  51.032 -25.346  1.00  0.00     0.292 C 
HETATM   30  O4  UNL     1       0.065  51.131 -25.350  1.00  0.00    -0.348 OA
HETATM   31  C21 UNL     1       0.623  51.133 -26.671  1.00  0.00     0.179 C 
HETATM   32  C23 UNL     1       0.169  52.412 -27.395  1.00  0.00     0.180 C 
HETATM   33  C24 UNL     1      -1.361  52.443 -27.438  1.00  0.00     0.183 C 
HETATM   34  C25 UNL     1      -1.986  52.252 -26.054  1.00  0.00     0.204 C 
BRANCH  31  35
HETATM   35  C22 UNL     1       2.149  51.046 -26.534  1.00  0.00     0.198 C 
BRANCH  35  36
HETATM   36  O5  UNL     1       2.742  52.339 -26.528  1.00  0.00    -0.398 OA
HETATM   37  H37 UNL     1       3.687  52.222 -26.331  1.00  0.00     0.209 HD
ENDBRANCH  35  36
ENDBRANCH  31  35
BRANCH  32  38
HETATM   38  O6  UNL     1       0.667  52.503 -28.728  1.00  0.00    -0.390 OA
HETATM   39  H39 UNL     1       0.094  53.133 -29.205  1.00  0.00     0.210 HD
ENDBRANCH  32  38
BRANCH  33  40
HETATM   40  O7  UNL     1      -1.809  53.688 -28.011  1.00  0.00    -0.390 OA
HETATM   41  H41 UNL     1      -1.530  54.412 -27.420  1.00  0.00     0.210 HD
ENDBRANCH  33  40
BRANCH  34  42
HETATM   42  O8  UNL     1      -3.408  52.108 -26.214  1.00  0.00    -0.388 OA
HETATM   43  H43 UNL     1      -3.677  52.767 -26.881  1.00  0.00     0.210 HD
ENDBRANCH  34  42
ENDBRANCH  28  29
ENDBRANCH  17  28
BRANCH  12  44
HETATM   44  O2  UNL     1      -6.930  50.662 -21.889  1.00  0.00    -0.395 OA
HETATM   45  H24 UNL     1      -7.648  50.934 -21.288  1.00  0.00     0.210 HD
ENDBRANCH  12  44
BRANCH   1  46
HETATM   46  O1  UNL     1      -9.098  43.964 -15.413  1.00  0.00    -0.362 OA
BRANCH  46  47
HETATM   47  C2  UNL     1     -10.276  44.291 -14.682  1.00  0.00     0.166 C 
HETATM   48  C1  UNL     1     -11.423  43.333 -14.947  1.00  0.00     0.033 C 
ENDBRANCH  46  47
ENDBRANCH   1  46
TORSDOF 10
ENDMDL
MODEL 4
REMARK minimizedAffinity -8.20471859
REMARK CNNscore 0.407664567
REMARK CNNaffinity 6.76175308
REMARK  10 active torsions:
REMARK  status: ('A' for Active; 'I' for Inactive)
REMARK    1  A    between atoms: C2_2  and  O1_3 
REMARK    2  A    between atoms: O1_3  and  C3_4 
REMARK    3  A    between atoms: C14_15  and  O2_16 
REMARK    4  A    between atoms: C19_21  and  O3_22 
REMARK    5  A    between atoms: O3_22  and  C20_23 
REMARK    6  A    between atoms: C21_25  and  C22_26 
REMARK    7  A    between atoms: C22_26  and  O5_27 
REMARK    8  A    between atoms: C23_28  and  O6_29 
REMARK    9  A    between atoms: C24_30  and  O7_31 
REMARK   10  A    between atoms: C25_32  and  O8_33 
ROOT
HETATM    1  C3  UNL     1      -0.383  53.375 -25.921  1.00  0.00     0.260 C 
HETATM    2  C4  UNL     1      -0.966  52.545 -27.080  1.00  0.00     0.065 C 
HETATM    3  C5  UNL     1      -2.358  51.997 -26.741  1.00  0.00    -0.007 C 
HETATM    4  C6  UNL     1      -2.942  51.242 -27.932  1.00  0.00     0.010 C 
HETATM    5  C7  UNL     1      -2.218  51.106 -25.488  1.00  0.00     0.027 C 
HETATM    6  C8  UNL     1      -1.281  51.764 -24.433  1.00  0.00     0.130 C 
HETATM    7  C9  UNL     1      -1.964  51.585 -23.067  1.00  0.00     0.042 C 
HETATM    8  C10 UNL     1      -2.897  50.376 -23.266  1.00  0.00    -0.029 C 
HETATM    9  C11 UNL     1      -2.011  49.092 -23.228  1.00  0.00     0.016 C 
HETATM   10  C12 UNL     1      -4.046  50.266 -22.231  1.00  0.00     0.006 C 
HETATM   11  C13 UNL     1      -3.569  49.918 -20.819  1.00  0.00     0.038 C 
HETATM   12  C14 UNL     1      -4.730  49.761 -19.831  1.00  0.00     0.124 C 
HETATM   13  C15 UNL     1      -5.561  48.516 -20.210  1.00  0.00     0.034 C 
HETATM   14  C16 UNL     1      -6.765  48.119 -19.275  1.00  0.00    -0.015 C 
HETATM   15  C17 UNL     1      -6.386  48.110 -17.776  1.00  0.00     0.018 C 
HETATM   16  C18 UNL     1      -7.940  49.115 -19.406  1.00  0.00     0.018 C 
HETATM   17  C19 UNL     1      -7.189  46.645 -19.634  1.00  0.00     0.133 C 
HETATM   18  C26 UNL     1      -6.790  46.197 -21.048  1.00  0.00     0.034 C 
HETATM   19  C27 UNL     1      -6.863  47.316 -22.073  1.00  0.00     0.013 C 
HETATM   20  C28 UNL     1      -6.035  48.544 -21.681  1.00  0.00    -0.025 A 
HETATM   21  C29 UNL     1      -6.559  49.820 -22.303  1.00  0.00     0.021 A 
HETATM   22  C30 UNL     1      -5.186  49.340 -22.722  1.00  0.00    -0.027 A 
HETATM   23  C31 UNL     1      -5.060  48.722 -24.123  1.00  0.00     0.011 C 
HETATM   24  C32 UNL     1      -4.224  49.456 -25.187  1.00  0.00     0.011 C 
HETATM   25  C33 UNL     1      -3.495  50.702 -24.679  1.00  0.00    -0.030 C 
HETATM   26  C34 UNL     1      -4.514  51.877 -24.687  1.00  0.00     0.016 C 
HETATM   27  O9  UNL     1      -1.073  53.146 -24.693  1.00  0.00    -0.356 OA
ENDROOT
BRANCH  17  28
HETATM   28  O3  UNL     1      -8.606  46.485 -19.478  1.00  0.00    -0.352 OA
BRANCH  28  29
HETATM   29  C20 UNL     1      -9.193  45.631 -20.468  1.00  0.00     0.292 C 
HETATM   30  O4  UNL     1     -10.146  46.374 -21.231  1.00  0.00    -0.348 OA
HETATM   31  C21 UNL     1     -10.763  45.596 -22.266  1.00  0.00     0.179 C 
HETATM   32  C23 UNL     1     -11.608  44.490 -21.611  1.00  0.00     0.180 C 
HETATM   33  C24 UNL     1     -10.700  43.625 -20.733  1.00  0.00     0.183 C 
HETATM   34  C25 UNL     1      -9.884  44.458 -19.742  1.00  0.00     0.204 C 
BRANCH  31  35
HETATM   35  C22 UNL     1     -11.607  46.548 -23.126  1.00  0.00     0.198 C 
BRANCH  35  36
HETATM   36  O5  UNL     1     -12.913  46.710 -22.587  1.00  0.00    -0.398 OA
HETATM   37  H37 UNL     1     -13.356  47.400 -23.109  1.00  0.00     0.209 HD
ENDBRANCH  35  36
ENDBRANCH  31  35
BRANCH  32  38
HETATM   38  O6  UNL     1     -12.259  43.651 -22.563  1.00  0.00    -0.390 OA
HETATM   39  H39 UNL     1     -12.486  42.819 -22.104  1.00  0.00     0.210 HD
ENDBRANCH  32  38
BRANCH  33  40
HETATM   40  O7  UNL     1     -11.491  42.652 -20.021  1.00  0.00    -0.390 OA
HETATM   41  H41 UNL     1     -12.091  43.130 -19.419  1.00  0.00     0.210 HD
ENDBRANCH  33  40
BRANCH  34  42
HETATM   42  O8  UNL     1      -8.934  43.593 -19.096  1.00  0.00    -0.388 OA
HETATM   43  H43 UNL     1      -9.408  42.764 -18.897  1.00  0.00     0.210 HD
ENDBRANCH  34  42
ENDBRANCH  28  29
ENDBRANCH  17  28
BRANCH  12  44
HETATM   44  O2  UNL     1      -4.134  49.592 -18.544  1.00  0.00    -0.395 OA
HETATM   45  H24 UNL     1      -3.679  50.425 -18.322  1.00  0.00     0.210 HD
ENDBRANCH  12  44
BRANCH   1  46
HETATM   46  O1  UNL     1       1.008  53.072 -25.821  1.00  0.00    -0.362 OA
BRANCH  46  47
HETATM   47  C2  UNL     1       1.501  52.215 -26.846  1.00  0.00     0.166 C 
HETATM   48  C1  UNL     1       2.461  51.161 -26.326  1.00  0.00     0.033 C 
ENDBRANCH  46  47
ENDBRANCH   1  46
TORSDOF 10
ENDMDL
MODEL 5
REMARK minimizedAffinity -9.04023933
REMARK CNNscore 0.379051775
REMARK CNNaffinity 6.69742346
REMARK  10 active torsions:
REMARK  status: ('A' for Active; 'I' for Inactive)
REMARK    1  A    between atoms: C2_2  and  O1_3 
REMARK    2  A    between atoms: O1_3  and  C3_4 
REMARK    3  A    between atoms: C14_15  and  O2_16 
REMARK    4  A    between atoms: C19_21  and  O3_22 
REMARK    5  A    between atoms: O3_22  and  C20_23 
REMARK    6  A    between atoms: C21_25  and  C22_26 
REMARK    7  A    between atoms: C22_26  and  O5_27 
REMARK    8  A    between atoms: C23_28  and  O6_29 
REMARK    9  A    between atoms: C24_30  and  O7_31 
REMARK   10  A    between atoms: C25_32  and  O8_33 
ROOT
HETATM    1  C3  UNL     1      -0.435  53.249 -25.754  1.00  0.00     0.260 C 
HETATM    2  C4  UNL     1      -1.000  51.835 -25.987  1.00  0.00     0.065 C 
HETATM    3  C5  UNL     1      -1.646  51.266 -24.717  1.00  0.00    -0.007 C 
HETATM    4  C6  UNL     1      -2.262  49.898 -24.996  1.00  0.00     0.010 C 
HETATM    5  C7  UNL     1      -0.559  51.213 -23.624  1.00  0.00     0.027 C 
HETATM    6  C8  UNL     1       0.311  52.504 -23.632  1.00  0.00     0.130 C 
HETATM    7  C9  UNL     1       0.487  52.925 -22.163  1.00  0.00     0.042 C 
HETATM    8  C10 UNL     1       0.263  51.625 -21.368  1.00  0.00    -0.029 C 
HETATM    9  C11 UNL     1       1.562  50.769 -21.499  1.00  0.00     0.016 C 
HETATM   10  C12 UNL     1      -0.095  51.832 -19.874  1.00  0.00     0.006 C 
HETATM   11  C13 UNL     1       1.062  52.381 -19.036  1.00  0.00     0.038 C 
HETATM   12  C14 UNL     1       0.696  52.522 -17.554  1.00  0.00     0.124 C 
HETATM   13  C15 UNL     1       0.486  51.120 -16.941  1.00  0.00     0.034 C 
HETATM   14  C16 UNL     1       0.178  51.026 -15.400  1.00  0.00    -0.015 C 
HETATM   15  C17 UNL     1       1.138  51.881 -14.540  1.00  0.00     0.018 C 
HETATM   16  C18 UNL     1      -1.245  51.535 -15.072  1.00  0.00     0.018 C 
HETATM   17  C19 UNL     1       0.395  49.531 -14.954  1.00  0.00     0.133 C 
HETATM   18  C26 UNL     1       0.279  48.507 -16.093  1.00  0.00     0.034 C 
HETATM   19  C27 UNL     1      -0.764  48.883 -17.132  1.00  0.00     0.013 C 
HETATM   20  C28 UNL     1      -0.543  50.277 -17.729  1.00  0.00    -0.025 A 
HETATM   21  C29 UNL     1      -1.824  50.897 -18.244  1.00  0.00     0.021 A 
HETATM   22  C30 UNL     1      -0.740  50.570 -19.249  1.00  0.00    -0.027 A 
HETATM   23  C31 UNL     1      -0.977  49.355 -20.160  1.00  0.00     0.011 C 
HETATM   24  C32 UNL     1      -1.164  49.583 -21.669  1.00  0.00     0.011 C 
HETATM   25  C33 UNL     1      -0.975  51.032 -22.126  1.00  0.00    -0.030 C 
HETATM   26  C34 UNL     1      -2.310  51.785 -21.859  1.00  0.00     0.016 C 
HETATM   27  O9  UNL     1      -0.302  53.555 -24.366  1.00  0.00    -0.356 OA
ENDROOT
BRANCH  17  28
HETATM   28  O3  UNL     1      -0.535  49.182 -13.920  1.00  0.00    -0.352 OA
BRANCH  28  29
HETATM   29  C20 UNL     1      -0.037  48.183 -13.022  1.00  0.00     0.292 C 
HETATM   30  O4  UNL     1       1.051  47.491 -13.637  1.00  0.00    -0.348 OA
HETATM   31  C21 UNL     1       1.627  46.488 -12.789  1.00  0.00     0.179 C 
HETATM   32  C23 UNL     1       0.582  45.383 -12.555  1.00  0.00     0.180 C 
HETATM   33  C24 UNL     1      -0.663  46.004 -11.915  1.00  0.00     0.183 C 
HETATM   34  C25 UNL     1      -1.187  47.204 -12.706  1.00  0.00     0.204 C 
BRANCH  31  35
HETATM   35  C22 UNL     1       2.892  45.961 -13.481  1.00  0.00     0.198 C 
BRANCH  35  36
HETATM   36  O5  UNL     1       3.066  46.554 -14.762  1.00  0.00    -0.398 OA
HETATM   37  H37 UNL     1       3.931  46.265 -15.098  1.00  0.00     0.209 HD
ENDBRANCH  35  36
ENDBRANCH  31  35
BRANCH  32  38
HETATM   38  O6  UNL     1       1.058  44.337 -11.711  1.00  0.00    -0.390 OA
HETATM   39  H39 UNL     1       0.274  43.876 -11.356  1.00  0.00     0.210 HD
ENDBRANCH  32  38
BRANCH  33  40
HETATM   40  O7  UNL     1      -1.697  45.008 -11.791  1.00  0.00    -0.390 OA
HETATM   41  H41 UNL     1      -1.955  44.724 -12.688  1.00  0.00     0.210 HD
ENDBRANCH  33  40
BRANCH  34  42
HETATM   42  O8  UNL     1      -2.231  47.831 -11.941  1.00  0.00    -0.388 OA
HETATM   43  H43 UNL     1      -2.769  47.109 -11.567  1.00  0.00     0.210 HD
ENDBRANCH  34  42
ENDBRANCH  28  29
ENDBRANCH  17  28
BRANCH  12  44
HETATM   44  O2  UNL     1       1.802  53.179 -16.934  1.00  0.00    -0.395 OA
HETATM   45  H24 UNL     1       1.851  54.080 -17.305  1.00  0.00     0.210 HD
ENDBRANCH  12  44
BRANCH   1  46
HETATM   46  O1  UNL     1       0.810  53.344 -26.447  1.00  0.00    -0.362 OA
BRANCH  46  47
HETATM   47  C2  UNL     1       1.123  52.213 -27.255  1.00  0.00     0.166 C 
HETATM   48  C1  UNL     1       2.541  51.713 -27.049  1.00  0.00     0.033 C 
ENDBRANCH  46  47
ENDBRANCH   1  46
TORSDOF 10
ENDMDL
MODEL 6
REMARK minimizedAffinity -8.88659096
REMARK CNNscore 0.348329633
REMARK CNNaffinity 6.65876913
REMARK  10 active torsions:
REMARK  status: ('A' for Active; 'I' for Inactive)
REMARK    1  A    between atoms: C2_2  and  O1_3 
REMARK    2  A    between atoms: O1_3  and  C3_4 
REMARK    3  A    between atoms: C14_15  and  O2_16 
REMARK    4  A    between atoms: C19_21  and  O3_22 
REMARK    5  A    between atoms: O3_22  and  C20_23 
REMARK    6  A    between atoms: C21_25  and  C22_26 
REMARK    7  A    between atoms: C22_26  and  O5_27 
REMARK    8  A    between atoms: C23_28  and  O6_29 
REMARK    9  A    between atoms: C24_30  and  O7_31 
REMARK   10  A    between atoms: C25_32  and  O8_33 
ROOT
HETATM    1  C3  UNL     1      -3.615  51.959 -24.746  1.00  0.00     0.260 C 
HETATM    2  C4  UNL     1      -4.159  50.524 -24.609  1.00  0.00     0.065 C 
HETATM    3  C5  UNL     1      -4.295  50.108 -23.139  1.00  0.00    -0.007 C 
HETATM    4  C6  UNL     1      -4.905  48.713 -23.031  1.00  0.00     0.010 C 
HETATM    5  C7  UNL     1      -2.894  50.191 -22.498  1.00  0.00     0.027 C 
HETATM    6  C8  UNL     1      -2.143  51.477 -22.953  1.00  0.00     0.130 C 
HETATM    7  C9  UNL     1      -1.487  52.071 -21.695  1.00  0.00     0.042 C 
HETATM    8  C10 UNL     1      -1.359  50.874 -20.734  1.00  0.00    -0.029 C 
HETATM    9  C11 UNL     1      -0.148  50.016 -21.217  1.00  0.00     0.016 C 
HETATM   10  C12 UNL     1      -1.184  51.257 -19.242  1.00  0.00     0.006 C 
HETATM   11  C13 UNL     1       0.165  51.908 -18.929  1.00  0.00     0.038 C 
HETATM   12  C14 UNL     1       0.332  52.223 -17.439  1.00  0.00     0.124 C 
HETATM   13  C15 UNL     1       0.414  50.903 -16.641  1.00  0.00     0.034 C 
HETATM   14  C16 UNL     1       0.666  50.992 -15.089  1.00  0.00    -0.015 C 
HETATM   15  C17 UNL     1       1.825  51.948 -14.720  1.00  0.00     0.018 C 
HETATM   16  C18 UNL     1      -0.575  51.529 -14.340  1.00  0.00     0.018 C 
HETATM   17  C19 UNL     1       1.094  49.563 -14.586  1.00  0.00     0.133 C 
HETATM   18  C26 UNL     1       0.638  48.409 -15.492  1.00  0.00     0.034 C 
HETATM   19  C27 UNL     1      -0.718  48.653 -16.133  1.00  0.00     0.013 C 
HETATM   20  C28 UNL     1      -0.784  49.966 -16.919  1.00  0.00    -0.025 A 
HETATM   21  C29 UNL     1      -2.191  50.514 -17.016  1.00  0.00     0.021 A 
HETATM   22  C30 UNL     1      -1.511  50.075 -18.295  1.00  0.00    -0.027 A 
HETATM   23  C31 UNL     1      -1.993  48.759 -18.926  1.00  0.00     0.011 C 
HETATM   24  C32 UNL     1      -2.705  48.804 -20.288  1.00  0.00     0.011 C 
HETATM   25  C33 UNL     1      -2.755  50.188 -20.939  1.00  0.00    -0.030 C 
HETATM   26  C34 UNL     1      -3.947  50.961 -20.305  1.00  0.00     0.016 C 
HETATM   27  O9  UNL     1      -3.021  52.429 -23.536  1.00  0.00    -0.356 OA
ENDROOT
BRANCH  17  28
HETATM   28  O3  UNL     1       0.600  49.334 -13.259  1.00  0.00    -0.352 OA
BRANCH  28  29
HETATM   29  C20 UNL     1       0.338  50.542 -12.535  1.00  0.00     0.292 C 
HETATM   30  O4  UNL     1       1.548  51.009 -11.935  1.00  0.00    -0.348 OA
HETATM   31  C21 UNL     1       1.377  52.235 -11.210  1.00  0.00     0.179 C 
HETATM   32  C23 UNL     1       0.456  51.970 -10.006  1.00  0.00     0.180 C 
HETATM   33  C24 UNL     1      -0.884  51.433 -10.516  1.00  0.00     0.183 C 
HETATM   34  C25 UNL     1      -0.714  50.233 -11.450  1.00  0.00     0.204 C 
BRANCH  31  35
HETATM   35  C22 UNL     1       2.769  52.726 -10.787  1.00  0.00     0.198 C 
BRANCH  35  36
HETATM   36  O5  UNL     1       3.375  53.506 -11.810  1.00  0.00    -0.398 OA
HETATM   37  H37 UNL     1       4.197  53.873 -11.443  1.00  0.00     0.209 HD
ENDBRANCH  35  36
ENDBRANCH  31  35
BRANCH  32  38
HETATM   38  O6  UNL     1       0.216  53.136  -9.223  1.00  0.00    -0.390 OA
HETATM   39  H39 UNL     1      -0.598  52.972  -8.708  1.00  0.00     0.210 HD
ENDBRANCH  32  38
BRANCH  33  40
HETATM   40  O7  UNL     1      -1.721  51.071  -9.399  1.00  0.00    -0.390 OA
HETATM   41  H41 UNL     1      -1.290  50.339  -8.921  1.00  0.00     0.210 HD
ENDBRANCH  33  40
BRANCH  34  42
HETATM   42  O8  UNL     1      -1.996  49.918 -12.021  1.00  0.00    -0.388 OA
HETATM   43  H43 UNL     1      -2.646  49.996 -11.298  1.00  0.00     0.210 HD
ENDBRANCH  34  42
ENDBRANCH  28  29
ENDBRANCH  17  28
BRANCH  12  44
HETATM   44  O2  UNL     1       1.552  52.955 -17.323  1.00  0.00    -0.395 OA
HETATM   45  H24 UNL     1       1.427  53.805 -17.784  1.00  0.00     0.210 HD
ENDBRANCH  12  44
BRANCH   1  46
HETATM   46  O1  UNL     1      -2.695  51.977 -25.838  1.00  0.00    -0.362 OA
BRANCH  46  47
HETATM   47  C2  UNL     1      -2.481  50.708 -26.450  1.00  0.00     0.166 C 
HETATM   48  C1  UNL     1      -2.780  50.710 -27.937  1.00  0.00     0.033 C 
ENDBRANCH  46  47
ENDBRANCH   1  46
TORSDOF 10
ENDMDL
MODEL 7
REMARK minimizedAffinity -8.41791534
REMARK CNNscore 0.342403322
REMARK CNNaffinity 6.697155
REMARK  10 active torsions:
REMARK  status: ('A' for Active; 'I' for Inactive)
REMARK    1  A    between atoms: C2_2  and  O1_3 
REMARK    2  A    between atoms: O1_3  and  C3_4 
REMARK    3  A    between atoms: C14_15  and  O2_16 
REMARK    4  A    between atoms: C19_21  and  O3_22 
REMARK    5  A    between atoms: O3_22  and  C20_23 
REMARK    6  A    between atoms: C21_25  and  C22_26 
REMARK    7  A    between atoms: C22_26  and  O5_27 
REMARK    8  A    between atoms: C23_28  and  O6_29 
REMARK    9  A    between atoms: C24_30  and  O7_31 
REMARK   10  A    between atoms: C25_32  and  O8_33 
ROOT
HETATM    1  C3  UNL     1      -0.002  52.913 -25.645  1.00  0.00     0.260 C 
HETATM    2  C4  UNL     1      -0.659  52.187 -26.834  1.00  0.00     0.065 C 
HETATM    3  C5  UNL     1      -2.108  51.791 -26.526  1.00  0.00    -0.007 C 
HETATM    4  C6  UNL     1      -2.757  51.140 -27.745  1.00  0.00     0.010 C 
HETATM    5  C7  UNL     1      -2.086  50.855 -25.299  1.00  0.00     0.027 C 
HETATM    6  C8  UNL     1      -1.096  51.372 -24.216  1.00  0.00     0.130 C 
HETATM    7  C9  UNL     1      -1.813  51.233 -22.862  1.00  0.00     0.042 C 
HETATM    8  C10 UNL     1      -2.874  50.143 -23.107  1.00  0.00    -0.029 C 
HETATM    9  C11 UNL     1      -2.138  48.766 -23.098  1.00  0.00     0.016 C 
HETATM   10  C12 UNL     1      -4.041  50.135 -22.087  1.00  0.00     0.006 C 
HETATM   11  C13 UNL     1      -3.626  49.695 -20.682  1.00  0.00     0.038 C 
HETATM   12  C14 UNL     1      -4.811  49.642 -19.711  1.00  0.00     0.124 C 
HETATM   13  C15 UNL     1      -5.772  48.510 -20.135  1.00  0.00     0.034 C 
HETATM   14  C16 UNL     1      -7.026  48.226 -19.225  1.00  0.00    -0.015 C 
HETATM   15  C17 UNL     1      -6.671  48.132 -17.722  1.00  0.00     0.018 C 
HETATM   16  C18 UNL     1      -8.079  49.352 -19.338  1.00  0.00     0.018 C 
HETATM   17  C19 UNL     1      -7.608  46.820 -19.631  1.00  0.00     0.133 C 
HETATM   18  C26 UNL     1      -7.243  46.370 -21.054  1.00  0.00     0.034 C 
HETATM   19  C27 UNL     1      -7.175  47.519 -22.046  1.00  0.00     0.013 C 
HETATM   20  C28 UNL     1      -6.219  48.634 -21.610  1.00  0.00    -0.025 A 
HETATM   21  C29 UNL     1      -6.588  49.978 -22.199  1.00  0.00     0.021 A 
HETATM   22  C30 UNL     1      -5.273  49.358 -22.617  1.00  0.00    -0.027 A 
HETATM   23  C31 UNL     1      -5.197  48.770 -24.035  1.00  0.00     0.011 C 
HETATM   24  C32 UNL     1      -4.270  49.434 -25.068  1.00  0.00     0.011 C 
HETATM   25  C33 UNL     1      -3.411  50.575 -24.516  1.00  0.00    -0.030 C 
HETATM   26  C34 UNL     1      -4.292  51.858 -24.499  1.00  0.00     0.016 C 
HETATM   27  O9  UNL     1      -0.730  52.728 -24.431  1.00  0.00    -0.356 OA
ENDROOT
BRANCH  17  28
HETATM   28  O3  UNL     1      -9.036  46.817 -19.495  1.00  0.00    -0.352 OA
BRANCH  28  29
HETATM   29  C20 UNL     1      -9.503  45.993 -18.421  1.00  0.00     0.292 C 
HETATM   30  O4  UNL     1     -10.005  44.763 -18.949  1.00  0.00    -0.348 OA
HETATM   31  C21 UNL     1     -10.470  43.866 -17.931  1.00  0.00     0.179 C 
HETATM   32  C23 UNL     1     -11.696  44.492 -17.244  1.00  0.00     0.180 C 
HETATM   33  C24 UNL     1     -11.295  45.845 -16.651  1.00  0.00     0.183 C 
HETATM   34  C25 UNL     1     -10.620  46.755 -17.680  1.00  0.00     0.204 C 
BRANCH  31  35
HETATM   35  C22 UNL     1     -10.796  42.525 -18.604  1.00  0.00     0.198 C 
BRANCH  35  36
HETATM   36  O5  UNL     1     -12.192  42.391 -18.840  1.00  0.00    -0.398 OA
HETATM   37  H37 UNL     1     -12.320  41.580 -19.361  1.00  0.00     0.209 HD
ENDBRANCH  35  36
ENDBRANCH  31  35
BRANCH  32  38
HETATM   38  O6  UNL     1     -12.229  43.675 -16.205  1.00  0.00    -0.390 OA
HETATM   39  H39 UNL     1     -12.760  44.257 -15.628  1.00  0.00     0.210 HD
ENDBRANCH  32  38
BRANCH  33  40
HETATM   40  O7  UNL     1     -12.455  46.501 -16.102  1.00  0.00    -0.390 OA
HETATM   41  H41 UNL     1     -13.073  46.687 -16.833  1.00  0.00     0.210 HD
ENDBRANCH  33  40
BRANCH  34  42
HETATM   42  O8  UNL     1     -10.115  47.916 -16.997  1.00  0.00    -0.388 OA
HETATM   43  H43 UNL     1     -10.803  48.181 -16.358  1.00  0.00     0.210 HD
ENDBRANCH  34  42
ENDBRANCH  28  29
ENDBRANCH  17  28
BRANCH  12  44
HETATM   44  O2  UNL     1      -4.255  49.371 -18.423  1.00  0.00    -0.395 OA
HETATM   45  H24 UNL     1      -3.712  50.141 -18.172  1.00  0.00     0.210 HD
ENDBRANCH  12  44
BRANCH   1  46
HETATM   46  O1  UNL     1       1.346  52.452 -25.539  1.00  0.00    -0.362 OA
BRANCH  46  47
HETATM   47  C2  UNL     1       1.663  51.357 -26.394  1.00  0.00     0.166 C 
HETATM   48  C1  UNL     1       2.730  51.696 -27.418  1.00  0.00     0.033 C 
ENDBRANCH  46  47
ENDBRANCH   1  46
TORSDOF 10
ENDMDL
MODEL 8
REMARK minimizedAffinity -7.73508978
REMARK CNNscore 0.342352957
REMARK CNNaffinity 6.73125219
REMARK  10 active torsions:
REMARK  status: ('A' for Active; 'I' for Inactive)
REMARK    1  A    between atoms: C2_2  and  O1_3 
REMARK    2  A    between atoms: O1_3  and  C3_4 
REMARK    3  A    between atoms: C14_15  and  O2_16 
REMARK    4  A    between atoms: C19_21  and  O3_22 
REMARK    5  A    between atoms: O3_22  and  C20_23 
REMARK    6  A    between atoms: C21_25  and  C22_26 
REMARK    7  A    between atoms: C22_26  and  O5_27 
REMARK    8  A    between atoms: C23_28  and  O6_29 
REMARK    9  A    between atoms: C24_30  and  O7_31 
REMARK   10  A    between atoms: C25_32  and  O8_33 
ROOT
HETATM    1  C3  UNL     1      -3.050  50.338 -24.827  1.00  0.00     0.260 C 
HETATM    2  C4  UNL     1      -3.765  49.018 -24.484  1.00  0.00     0.065 C 
HETATM    3  C5  UNL     1      -4.051  48.903 -22.981  1.00  0.00    -0.007 C 
HETATM    4  C6  UNL     1      -4.825  47.622 -22.680  1.00  0.00     0.010 C 
HETATM    5  C7  UNL     1      -2.698  48.963 -22.241  1.00  0.00     0.027 C 
HETATM    6  C8  UNL     1      -1.773  50.057 -22.850  1.00  0.00     0.130 C 
HETATM    7  C9  UNL     1      -1.142  50.808 -21.666  1.00  0.00     0.042 C 
HETATM    8  C10 UNL     1      -1.222  49.807 -20.498  1.00  0.00    -0.029 C 
HETATM    9  C11 UNL     1      -0.088  48.755 -20.708  1.00  0.00     0.016 C 
HETATM   10  C12 UNL     1      -1.109  50.444 -19.090  1.00  0.00     0.006 C 
HETATM   11  C13 UNL     1       0.282  51.003 -18.778  1.00  0.00     0.038 C 
HETATM   12  C14 UNL     1       0.379  51.575 -17.359  1.00  0.00     0.124 C 
HETATM   13  C15 UNL     1       0.252  50.428 -16.333  1.00  0.00     0.034 C 
HETATM   14  C16 UNL     1       0.403  50.782 -14.806  1.00  0.00    -0.015 C 
HETATM   15  C17 UNL     1       1.635  51.668 -14.512  1.00  0.00     0.018 C 
HETATM   16  C18 UNL     1      -0.818  51.573 -14.282  1.00  0.00     0.018 C 
HETATM   17  C19 UNL     1       0.626  49.437 -14.018  1.00  0.00     0.133 C 
HETATM   18  C26 UNL     1       0.103  48.185 -14.740  1.00  0.00     0.034 C 
HETATM   19  C27 UNL     1      -1.167  48.440 -15.534  1.00  0.00     0.013 C 
HETATM   20  C28 UNL     1      -1.025  49.582 -16.545  1.00  0.00    -0.025 A 
HETATM   21  C29 UNL     1      -2.349  50.241 -16.866  1.00  0.00     0.021 A 
HETATM   22  C30 UNL     1      -1.637  49.502 -17.979  1.00  0.00    -0.027 A 
HETATM   23  C31 UNL     1      -2.222  48.146 -18.404  1.00  0.00     0.011 C 
HETATM   24  C32 UNL     1      -2.827  48.005 -19.811  1.00  0.00     0.011 C 
HETATM   25  C33 UNL     1      -2.670  49.240 -20.702  1.00  0.00    -0.030 C 
HETATM   26  C34 UNL     1      -3.806  50.235 -20.327  1.00  0.00     0.016 C 
HETATM   27  O9  UNL     1      -2.492  50.966 -23.672  1.00  0.00    -0.356 OA
ENDROOT
BRANCH  17  28
HETATM   28  O3  UNL     1       0.016  49.514 -12.722  1.00  0.00    -0.352 OA
BRANCH  28  29
HETATM   29  C20 UNL     1       0.920  49.218 -11.651  1.00  0.00     0.292 C 
HETATM   30  O4  UNL     1       2.199  49.788 -11.937  1.00  0.00    -0.348 OA
HETATM   31  C21 UNL     1       3.159  49.558 -10.896  1.00  0.00     0.179 C 
HETATM   32  C23 UNL     1       3.445  48.049 -10.814  1.00  0.00     0.180 C 
HETATM   33  C24 UNL     1       2.134  47.309 -10.534  1.00  0.00     0.183 C 
HETATM   34  C25 UNL     1       1.031  47.684 -11.526  1.00  0.00     0.204 C 
BRANCH  31  35
HETATM   35  C22 UNL     1       4.415  50.376 -11.230  1.00  0.00     0.198 C 
BRANCH  35  36
HETATM   36  O5  UNL     1       5.282  49.659 -12.101  1.00  0.00    -0.398 OA
HETATM   37  H37 UNL     1       5.996  50.266 -12.359  1.00  0.00     0.209 HD
ENDBRANCH  35  36
ENDBRANCH  31  35
BRANCH  32  38
HETATM   38  O6  UNL     1       4.386  47.715  -9.797  1.00  0.00    -0.390 OA
HETATM   39  H39 UNL     1       4.265  46.768  -9.594  1.00  0.00     0.210 HD
ENDBRANCH  32  38
BRANCH  33  40
HETATM   40  O7  UNL     1       2.359  45.886 -10.566  1.00  0.00    -0.390 OA
HETATM   41  H41 UNL     1       2.631  45.642 -11.471  1.00  0.00     0.210 HD
ENDBRANCH  33  40
BRANCH  34  42
HETATM   42  O8  UNL     1      -0.202  47.093 -11.078  1.00  0.00    -0.388 OA
HETATM   43  H43 UNL     1       0.019  46.192 -10.777  1.00  0.00     0.210 HD
ENDBRANCH  34  42
ENDBRANCH  28  29
ENDBRANCH  17  28
BRANCH  12  44
HETATM   44  O2  UNL     1       1.665  52.189 -17.267  1.00  0.00    -0.395 OA
HETATM   45  H24 UNL     1       1.672  52.945 -17.883  1.00  0.00     0.210 HD
ENDBRANCH  12  44
BRANCH   1  46
HETATM   46  O1  UNL     1      -2.060  50.057 -25.816  1.00  0.00    -0.362 OA
BRANCH  46  47
HETATM   47  C2  UNL     1      -2.157  50.856 -26.991  1.00  0.00     0.166 C 
HETATM   48  C1  UNL     1      -2.757  52.224 -26.729  1.00  0.00     0.033 C 
ENDBRANCH  46  47
ENDBRANCH   1  46
TORSDOF 10
ENDMDL
MODEL 9
REMARK minimizedAffinity -9.00725174
REMARK CNNscore 0.330364168
REMARK CNNaffinity 6.26687098
REMARK  10 active torsions:
REMARK  status: ('A' for Active; 'I' for Inactive)
REMARK    1  A    between atoms: C2_2  and  O1_3 
REMARK    2  A    between atoms: O1_3  and  C3_4 
REMARK    3  A    between atoms: C14_15  and  O2_16 
REMARK    4  A    between atoms: C19_21  and  O3_22 
REMARK    5  A    between atoms: O3_22  and  C20_23 
REMARK    6  A    between atoms: C21_25  and  C22_26 
REMARK    7  A    between atoms: C22_26  and  O5_27 
REMARK    8  A    between atoms: C23_28  and  O6_29 
REMARK    9  A    between atoms: C24_30  and  O7_31 
REMARK   10  A    between atoms: C25_32  and  O8_33 
ROOT
HETATM    1  C3  UNL     1     -12.579  45.375 -24.087  1.00  0.00     0.260 C 
HETATM    2  C4  UNL     1     -11.880  44.095 -23.591  1.00  0.00     0.065 C 
HETATM    3  C5  UNL     1     -10.710  44.416 -22.652  1.00  0.00    -0.007 C 
HETATM    4  C6  UNL     1     -10.083  43.131 -22.118  1.00  0.00     0.010 C 
HETATM    5  C7  UNL     1      -9.703  45.281 -23.440  1.00  0.00     0.027 C 
HETATM    6  C8  UNL     1     -10.434  46.361 -24.289  1.00  0.00     0.130 C 
HETATM    7  C9  UNL     1      -9.650  47.672 -24.103  1.00  0.00     0.042 C 
HETATM    8  C10 UNL     1      -8.240  47.213 -23.687  1.00  0.00    -0.029 C 
HETATM    9  C11 UNL     1      -7.513  46.715 -24.976  1.00  0.00     0.016 C 
HETATM   10  C12 UNL     1      -7.390  48.296 -22.976  1.00  0.00     0.006 C 
HETATM   11  C13 UNL     1      -6.962  49.443 -23.895  1.00  0.00     0.038 C 
HETATM   12  C14 UNL     1      -6.077  50.469 -23.179  1.00  0.00     0.124 C 
HETATM   13  C15 UNL     1      -4.723  49.817 -22.821  1.00  0.00     0.034 C 
HETATM   14  C16 UNL     1      -3.624  50.720 -22.145  1.00  0.00    -0.015 C 
HETATM   15  C17 UNL     1      -3.426  52.072 -22.869  1.00  0.00     0.018 C 
HETATM   16  C18 UNL     1      -3.996  51.075 -20.687  1.00  0.00     0.018 C 
HETATM   17  C19 UNL     1      -2.248  49.959 -22.241  1.00  0.00     0.133 C 
HETATM   18  C26 UNL     1      -2.375  48.437 -22.404  1.00  0.00     0.034 C 
HETATM   19  C27 UNL     1      -3.555  47.851 -21.648  1.00  0.00     0.013 C 
HETATM   20  C28 UNL     1      -4.890  48.510 -22.012  1.00  0.00    -0.025 A 
HETATM   21  C29 UNL     1      -5.909  48.411 -20.898  1.00  0.00     0.021 A 
HETATM   22  C30 UNL     1      -6.201  47.684 -22.193  1.00  0.00    -0.027 A 
HETATM   23  C31 UNL     1      -6.058  46.153 -22.182  1.00  0.00     0.011 C 
HETATM   24  C32 UNL     1      -7.316  45.287 -22.370  1.00  0.00     0.011 C 
HETATM   25  C33 UNL     1      -8.595  46.074 -22.669  1.00  0.00    -0.030 C 
HETATM   26  C34 UNL     1      -9.162  46.581 -21.312  1.00  0.00     0.016 C 
HETATM   27  O9  UNL     1     -11.782  46.541 -23.878  1.00  0.00    -0.356 OA
ENDROOT
BRANCH  17  28
HETATM   28  O3  UNL     1      -1.445  50.237 -21.086  1.00  0.00    -0.352 OA
BRANCH  28  29
HETATM   29  C20 UNL     1      -0.960  51.584 -21.042  1.00  0.00     0.292 C 
HETATM   30  O4  UNL     1      -0.252  51.874 -22.249  1.00  0.00    -0.348 OA
HETATM   31  C21 UNL     1       0.247  53.218 -22.297  1.00  0.00     0.179 C 
HETATM   32  C23 UNL     1       1.315  53.386 -21.203  1.00  0.00     0.180 C 
HETATM   33  C24 UNL     1       0.685  53.074 -19.842  1.00  0.00     0.183 C 
HETATM   34  C25 UNL     1      -0.021  51.717 -19.824  1.00  0.00     0.204 C 
BRANCH  31  35
HETATM   35  C22 UNL     1       0.808  53.458 -23.706  1.00  0.00     0.198 C 
BRANCH  35  36
HETATM   36  O5  UNL     1       1.709  54.559 -23.723  1.00  0.00    -0.398 OA
HETATM   37  H37 UNL     1       2.108  54.590 -24.609  1.00  0.00     0.209 HD
ENDBRANCH  35  36
ENDBRANCH  31  35
BRANCH  32  38
HETATM   38  O6  UNL     1       1.868  54.699 -21.162  1.00  0.00    -0.390 OA
HETATM   39  H39 UNL     1       2.266  54.815 -20.278  1.00  0.00     0.210 HD
ENDBRANCH  32  38
BRANCH  33  40
HETATM   40  O7  UNL     1       1.696  53.115 -18.815  1.00  0.00    -0.390 OA
HETATM   41  H41 UNL     1       2.340  52.405 -18.995  1.00  0.00     0.210 HD
ENDBRANCH  33  40
BRANCH  34  42
HETATM   42  O8  UNL     1      -0.735  51.594 -18.582  1.00  0.00    -0.388 OA
HETATM   43  H43 UNL     1      -0.144  51.944 -17.889  1.00  0.00     0.210 HD
ENDBRANCH  34  42
ENDBRANCH  28  29
ENDBRANCH  17  28
BRANCH  12  44
HETATM   44  O2  UNL     1      -5.887  51.542 -24.102  1.00  0.00    -0.395 OA
HETATM   45  H24 UNL     1      -6.756  51.961 -24.243  1.00  0.00     0.210 HD
ENDBRANCH  12  44
BRANCH   1  46
HETATM   46  O1  UNL     1     -12.909  45.190 -25.464  1.00  0.00    -0.362 OA
BRANCH  46  47
HETATM   47  C2  UNL     1     -13.679  46.245 -26.033  1.00  0.00     0.166 C 
HETATM   48  C1  UNL     1     -13.491  46.372 -27.533  1.00  0.00     0.033 C 
ENDBRANCH  46  47
ENDBRANCH   1  46
TORSDOF 10
ENDMDL
