MODEL 1
REMARK minimizedAffinity -6.5483551
REMARK CNNscore 0.588749647
REMARK CNNaffinity 6.00640106
REMARK  9 active torsions:
REMARK  status: ('A' for Active; 'I' for Inactive)
REMARK    1  A    between atoms: C2_2  and  C3_3 
REMARK    2  A    between atoms: C3_3  and  C5_5 
REMARK    3  A    between atoms: C3_3  and  C6_7 
REMARK    4  A    between atoms: C5_5  and  O1_6 
REMARK    5  A    between atoms: C7_8  and  O2_9 
REMARK    6  A    between atoms: C18_22  and  O5_23 
REMARK    7  A    between atoms: O5_23  and  C19_24 
REMARK    8  A    between atoms: C19_24  and  C20_26 
REMARK    9  A    between atoms: C29_36  and  O8_37 
ROOT
HETATM    1  C6  UNL     1     -14.412  11.661  -2.027  1.00  0.00     0.023 A 
HETATM    2  C7  UNL     1     -13.235  12.120  -2.664  1.00  0.00     0.076 A 
HETATM    3  C8  UNL     1     -12.285  12.908  -2.007  1.00  0.00     0.053 A 
HETATM    4  C9  UNL     1     -12.494  13.296  -0.684  1.00  0.00     0.034 A 
HETATM    5  C10 UNL     1     -11.481  14.131  -0.019  1.00  0.00     0.192 A 
HETATM    6  O3  UNL     1     -10.471  14.466  -0.629  1.00  0.00    -0.287 OA
HETATM    7  C11 UNL     1     -11.718  14.566   1.383  1.00  0.00     0.035 A 
HETATM    8  C12 UNL     1     -12.857  14.239   2.011  1.00  0.00     0.131 A 
HETATM    9  O4  UNL     1     -13.188  14.662   3.277  1.00  0.00    -0.336 OA
HETATM   10  C13 UNL     1     -12.213  15.335   4.095  1.00  0.00     0.065 C 
HETATM   11  C14 UNL     1     -13.057  16.234   5.023  1.00  0.00     0.046 C 
HETATM   12  C15 UNL     1     -11.560  14.263   4.976  1.00  0.00     0.046 C 
HETATM   13  C16 UNL     1     -11.257  16.211   3.231  1.00  0.00     0.031 C 
HETATM   14  C17 UNL     1     -10.171  16.993   3.993  1.00  0.00     0.041 C 
HETATM   15  C18 UNL     1      -8.880  16.212   4.265  1.00  0.00     0.136 C 
HETATM   16  C23 UNL     1      -8.302  15.590   2.983  1.00  0.00     0.012 C 
HETATM   17  C24 UNL     1      -7.704  16.620   2.016  1.00  0.00     0.012 C 
HETATM   18  C25 UNL     1      -9.362  14.718   2.295  1.00  0.00     0.017 C 
HETATM   19  C26 UNL     1     -10.678  15.467   2.005  1.00  0.00     0.033 C 
HETATM   20  C27 UNL     1     -13.886  13.381   1.349  1.00  0.00     0.219 A 
HETATM   21  O7  UNL     1     -14.915  13.047   1.931  1.00  0.00    -0.284 OA
HETATM   22  C28 UNL     1     -13.658  12.920  -0.032  1.00  0.00     0.065 A 
HETATM   23  C29 UNL     1     -14.614  12.119  -0.704  1.00  0.00     0.091 A 
ENDROOT
BRANCH   1  24
HETATM   24  C3  UNL     1     -15.431  10.759  -2.794  1.00  0.00     0.027 C 
HETATM   25  C4  UNL     1     -15.780  11.236  -4.232  1.00  0.00     0.027 C 
BRANCH  24  26
HETATM   26  C2  UNL     1     -16.817  10.786  -2.115  1.00  0.00    -0.021 C 
HETATM   27  C1  UNL     1     -18.018  10.932  -2.692  1.00  0.00     0.008 C 
ENDBRANCH  24  26
BRANCH  24  28
HETATM   28  C5  UNL     1     -14.802   9.334  -2.941  1.00  0.00     0.182 C 
BRANCH  28  29
HETATM   29  O1  UNL     1     -14.154   8.839  -1.766  1.00  0.00    -0.399 OA
HETATM   30  H9  UNL     1     -14.467   9.384  -1.016  1.00  0.00     0.209 HD
ENDBRANCH  28  29
ENDBRANCH  24  28
ENDBRANCH   1  24
BRANCH   2  31
HETATM   31  O2  UNL     1     -13.020  11.840  -3.989  1.00  0.00    -0.360 OA
HETATM   32  H10 UNL     1     -12.122  12.118  -4.242  1.00  0.00     0.217 HD
ENDBRANCH   2  31
BRANCH  23  33
HETATM   33  O8  UNL     1     -15.797  11.812  -0.077  1.00  0.00    -0.359 OA
HETATM   34  H36 UNL     1     -15.798  12.171   0.839  1.00  0.00     0.217 HD
ENDBRANCH  23  33
BRANCH  15  35
HETATM   35  O5  UNL     1      -7.889  17.089   4.835  1.00  0.00    -0.315 OA
BRANCH  35  36
HETATM   36  C19 UNL     1      -8.030  17.380   6.163  1.00  0.00     0.262 C 
HETATM   37  O6  UNL     1      -9.005  17.088   6.840  1.00  0.00    -0.265 OA
BRANCH  36  38
HETATM   38  C20 UNL     1      -6.809  18.137   6.658  1.00  0.00     0.077 C 
HETATM   39  C21 UNL     1      -5.535  17.475   6.144  1.00  0.00     0.020 C 
HETATM   40  C22 UNL     1      -6.797  18.213   8.185  1.00  0.00     0.020 C 
ENDBRANCH  36  38
ENDBRANCH  35  36
ENDBRANCH  15  35
TORSDOF 9
ENDMDL
MODEL 2
REMARK minimizedAffinity -6.59945297
REMARK CNNscore 0.378968507
REMARK CNNaffinity 6.15457535
REMARK  9 active torsions:
REMARK  status: ('A' for Active; 'I' for Inactive)
REMARK    1  A    between atoms: C2_2  and  C3_3 
REMARK    2  A    between atoms: C3_3  and  C5_5 
REMARK    3  A    between atoms: C3_3  and  C6_7 
REMARK    4  A    between atoms: C5_5  and  O1_6 
REMARK    5  A    between atoms: C7_8  and  O2_9 
REMARK    6  A    between atoms: C18_22  and  O5_23 
REMARK    7  A    between atoms: O5_23  and  C19_24 
REMARK    8  A    between atoms: C19_24  and  C20_26 
REMARK    9  A    between atoms: C29_36  and  O8_37 
ROOT
HETATM    1  C6  UNL     1      -4.301 -11.087   2.688  1.00  0.00     0.023 A 
HETATM    2  C7  UNL     1      -3.716 -11.319   1.420  1.00  0.00     0.076 A 
HETATM    3  C8  UNL     1      -4.343 -10.951   0.227  1.00  0.00     0.053 A 
HETATM    4  C9  UNL     1      -5.606 -10.360   0.255  1.00  0.00     0.034 A 
HETATM    5  C10 UNL     1      -6.247  -9.989  -1.017  1.00  0.00     0.192 A 
HETATM    6  O3  UNL     1      -5.664 -10.195  -2.076  1.00  0.00    -0.287 OA
HETATM    7  C11 UNL     1      -7.605  -9.382  -0.986  1.00  0.00     0.035 A 
HETATM    8  C12 UNL     1      -8.249  -9.221   0.179  1.00  0.00     0.131 A 
HETATM    9  O4  UNL     1      -9.532  -8.740   0.289  1.00  0.00    -0.336 OA
HETATM   10  C13 UNL     1     -10.199  -8.182  -0.859  1.00  0.00     0.065 C 
HETATM   11  C14 UNL     1     -11.697  -8.429  -0.580  1.00  0.00     0.046 C 
HETATM   12  C15 UNL     1      -9.974  -6.666  -0.806  1.00  0.00     0.046 C 
HETATM   13  C16 UNL     1      -9.775  -8.910  -2.170  1.00  0.00     0.031 C 
HETATM   14  C17 UNL     1     -10.429  -8.411  -3.471  1.00  0.00     0.041 C 
HETATM   15  C18 UNL     1      -9.721  -7.227  -4.140  1.00  0.00     0.136 C 
HETATM   16  C23 UNL     1      -8.223  -7.498  -4.354  1.00  0.00     0.012 C 
HETATM   17  C24 UNL     1      -7.937  -8.536  -5.448  1.00  0.00     0.012 C 
HETATM   18  C25 UNL     1      -7.559  -7.882  -3.024  1.00  0.00     0.017 C 
HETATM   19  C26 UNL     1      -8.244  -9.070  -2.318  1.00  0.00     0.033 C 
HETATM   20  C27 UNL     1      -7.602  -9.583   1.476  1.00  0.00     0.219 A 
HETATM   21  O7  UNL     1      -8.172  -9.404   2.550  1.00  0.00    -0.284 OA
HETATM   22  C28 UNL     1      -6.247 -10.163   1.468  1.00  0.00     0.065 A 
HETATM   23  C29 UNL     1      -5.603 -10.536   2.673  1.00  0.00     0.091 A 
ENDROOT
BRANCH   1  24
HETATM   24  C3  UNL     1      -3.548 -11.491   3.996  1.00  0.00     0.027 C 
HETATM   25  C4  UNL     1      -4.440 -11.587   5.266  1.00  0.00     0.027 C 
BRANCH  24  26
HETATM   26  C2  UNL     1      -2.534 -10.404   4.412  1.00  0.00    -0.021 C 
HETATM   27  C1  UNL     1      -2.782  -9.210   4.967  1.00  0.00     0.008 C 
ENDBRANCH  24  26
BRANCH  24  28
HETATM   28  C5  UNL     1      -2.932 -12.914   3.781  1.00  0.00     0.182 C 
BRANCH  28  29
HETATM   29  O1  UNL     1      -1.509 -12.978   3.911  1.00  0.00    -0.399 OA
HETATM   30  H9  UNL     1      -1.227 -12.163   4.375  1.00  0.00     0.209 HD
ENDBRANCH  28  29
ENDBRANCH  24  28
ENDBRANCH   1  24
BRANCH   2  31
HETATM   31  O2  UNL     1      -2.515 -11.974   1.330  1.00  0.00    -0.360 OA
HETATM   32  H10 UNL     1      -2.194 -11.947   0.411  1.00  0.00     0.217 HD
ENDBRANCH   2  31
BRANCH  23  33
HETATM   33  O8  UNL     1      -6.274 -10.405   3.865  1.00  0.00    -0.359 OA
HETATM   34  H36 UNL     1      -7.154  -9.991   3.714  1.00  0.00     0.217 HD
ENDBRANCH  23  33
BRANCH  15  35
HETATM   35  O5  UNL     1     -10.326  -6.955  -5.419  1.00  0.00    -0.315 OA
BRANCH  35  36
HETATM   36  C19 UNL     1     -10.945  -5.744  -5.551  1.00  0.00     0.262 C 
HETATM   37  O6  UNL     1     -11.844  -5.339  -4.829  1.00  0.00    -0.265 OA
BRANCH  36  38
HETATM   38  C20 UNL     1     -10.364  -4.995  -6.739  1.00  0.00     0.077 C 
HETATM   39  C21 UNL     1      -9.396  -3.917  -6.259  1.00  0.00     0.020 C 
HETATM   40  C22 UNL     1     -11.474  -4.379  -7.591  1.00  0.00     0.020 C 
ENDBRANCH  36  38
ENDBRANCH  35  36
ENDBRANCH  15  35
TORSDOF 9
ENDMDL
MODEL 3
REMARK minimizedAffinity -6.41099453
REMARK CNNscore 0.344069302
REMARK CNNaffinity 5.40184402
REMARK  9 active torsions:
REMARK  status: ('A' for Active; 'I' for Inactive)
REMARK    1  A    between atoms: C2_2  and  C3_3 
REMARK    2  A    between atoms: C3_3  and  C5_5 
REMARK    3  A    between atoms: C3_3  and  C6_7 
REMARK    4  A    between atoms: C5_5  and  O1_6 
REMARK    5  A    between atoms: C7_8  and  O2_9 
REMARK    6  A    between atoms: C18_22  and  O5_23 
REMARK    7  A    between atoms: O5_23  and  C19_24 
REMARK    8  A    between atoms: C19_24  and  C20_26 
REMARK    9  A    between atoms: C29_36  and  O8_37 
ROOT
HETATM    1  C6  UNL     1     -16.959  -0.490  13.290  1.00  0.00     0.023 A 
HETATM    2  C7  UNL     1     -16.741  -0.931  11.963  1.00  0.00     0.076 A 
HETATM    3  C8  UNL     1     -15.977  -2.062  11.665  1.00  0.00     0.053 A 
HETATM    4  C9  UNL     1     -15.368  -2.785  12.691  1.00  0.00     0.034 A 
HETATM    5  C10 UNL     1     -14.564  -3.968  12.348  1.00  0.00     0.192 A 
HETATM    6  O3  UNL     1     -14.445  -4.306  11.175  1.00  0.00    -0.287 OA
HETATM    7  C11 UNL     1     -13.894  -4.722  13.442  1.00  0.00     0.035 A 
HETATM    8  C12 UNL     1     -13.988  -4.301  14.711  1.00  0.00     0.131 A 
HETATM    9  O4  UNL     1     -13.341  -4.894  15.769  1.00  0.00    -0.336 OA
HETATM   10  C13 UNL     1     -12.667  -6.154  15.594  1.00  0.00     0.065 C 
HETATM   11  C14 UNL     1     -11.545  -6.132  16.653  1.00  0.00     0.046 C 
HETATM   12  C15 UNL     1     -13.659  -7.247  16.010  1.00  0.00     0.046 C 
HETATM   13  C16 UNL     1     -12.049  -6.272  14.168  1.00  0.00     0.031 C 
HETATM   14  C17 UNL     1     -11.290  -7.575  13.858  1.00  0.00     0.041 C 
HETATM   15  C18 UNL     1     -12.163  -8.730  13.354  1.00  0.00     0.136 C 
HETATM   16  C23 UNL     1     -13.037  -8.313  12.160  1.00  0.00     0.012 C 
HETATM   17  C24 UNL     1     -12.243  -8.093  10.865  1.00  0.00     0.012 C 
HETATM   18  C25 UNL     1     -13.877  -7.081  12.523  1.00  0.00     0.017 C 
HETATM   19  C26 UNL     1     -13.034  -5.895  13.037  1.00  0.00     0.033 C 
HETATM   20  C27 UNL     1     -14.813  -3.109  15.071  1.00  0.00     0.219 A 
HETATM   21  O7  UNL     1     -14.933  -2.738  16.237  1.00  0.00    -0.284 OA
HETATM   22  C28 UNL     1     -15.503  -2.362  14.005  1.00  0.00     0.065 A 
HETATM   23  C29 UNL     1     -16.283  -1.216  14.299  1.00  0.00     0.091 A 
ENDROOT
BRANCH   1  24
HETATM   24  C3  UNL     1     -17.844   0.765  13.576  1.00  0.00     0.027 C 
HETATM   25  C4  UNL     1     -18.075   1.700  12.355  1.00  0.00     0.027 C 
BRANCH  24  26
HETATM   26  C2  UNL     1     -17.149   1.720  14.570  1.00  0.00    -0.021 C 
HETATM   27  C1  UNL     1     -16.063   2.478  14.367  1.00  0.00     0.008 C 
ENDBRANCH  24  26
BRANCH  24  28
HETATM   28  C5  UNL     1     -19.258   0.268  14.026  1.00  0.00     0.182 C 
BRANCH  28  29
HETATM   29  O1  UNL     1     -20.262   0.309  13.008  1.00  0.00    -0.399 OA
HETATM   30  H9  UNL     1     -19.796   0.389  12.150  1.00  0.00     0.209 HD
ENDBRANCH  28  29
ENDBRANCH  24  28
ENDBRANCH   1  24
BRANCH   2  31
HETATM   31  O2  UNL     1     -17.244  -0.210  10.911  1.00  0.00    -0.360 OA
HETATM   32  H10 UNL     1     -17.114  -0.703  10.082  1.00  0.00     0.217 HD
ENDBRANCH   2  31
BRANCH  23  33
HETATM   33  O8  UNL     1     -16.352  -0.762  15.593  1.00  0.00    -0.359 OA
HETATM   34  H36 UNL     1     -15.859  -1.368  16.191  1.00  0.00     0.217 HD
ENDBRANCH  23  33
BRANCH  15  35
HETATM   35  O5  UNL     1     -11.329  -9.833  12.949  1.00  0.00    -0.315 OA
BRANCH  35  36
HETATM   36  C19 UNL     1     -10.049  -9.832  13.427  1.00  0.00     0.262 C 
HETATM   37  O6  UNL     1      -9.143  -9.137  12.991  1.00  0.00    -0.265 OA
BRANCH  36  38
HETATM   38  C20 UNL     1      -9.920 -10.837  14.560  1.00  0.00     0.077 C 
HETATM   39  C21 UNL     1     -10.995 -11.913  14.434  1.00  0.00     0.020 C 
HETATM   40  C22 UNL     1     -10.011 -10.143  15.918  1.00  0.00     0.020 C 
ENDBRANCH  36  38
ENDBRANCH  35  36
ENDBRANCH  15  35
TORSDOF 9
ENDMDL
MODEL 4
REMARK minimizedAffinity -8.37460327
REMARK CNNscore 0.295325816
REMARK CNNaffinity 6.77215338
REMARK  9 active torsions:
REMARK  status: ('A' for Active; 'I' for Inactive)
REMARK    1  A    between atoms: C2_2  and  C3_3 
REMARK    2  A    between atoms: C3_3  and  C5_5 
REMARK    3  A    between atoms: C3_3  and  C6_7 
REMARK    4  A    between atoms: C5_5  and  O1_6 
REMARK    5  A    between atoms: C7_8  and  O2_9 
REMARK    6  A    between atoms: C18_22  and  O5_23 
REMARK    7  A    between atoms: O5_23  and  C19_24 
REMARK    8  A    between atoms: C19_24  and  C20_26 
REMARK    9  A    between atoms: C29_36  and  O8_37 
ROOT
HETATM    1  C6  UNL     1      -4.310   5.744  13.479  1.00  0.00     0.023 A 
HETATM    2  C7  UNL     1      -5.217   4.789  12.962  1.00  0.00     0.076 A 
HETATM    3  C8  UNL     1      -6.603   4.963  13.019  1.00  0.00     0.053 A 
HETATM    4  C9  UNL     1      -7.140   6.096  13.630  1.00  0.00     0.034 A 
HETATM    5  C10 UNL     1      -8.602   6.251  13.682  1.00  0.00     0.192 A 
HETATM    6  O3  UNL     1      -9.324   5.394  13.185  1.00  0.00    -0.287 OA
HETATM    7  C11 UNL     1      -9.173   7.448  14.357  1.00  0.00     0.035 A 
HETATM    8  C12 UNL     1      -8.367   8.343  14.946  1.00  0.00     0.131 A 
HETATM    9  O4  UNL     1      -8.814   9.433  15.654  1.00  0.00    -0.336 OA
HETATM   10  C13 UNL     1     -10.209   9.791  15.632  1.00  0.00     0.065 C 
HETATM   11  C14 UNL     1     -10.436  10.502  16.982  1.00  0.00     0.046 C 
HETATM   12  C15 UNL     1     -10.377  10.845  14.531  1.00  0.00     0.046 C 
HETATM   13  C16 UNL     1     -11.116   8.527  15.538  1.00  0.00     0.031 C 
HETATM   14  C17 UNL     1     -12.635   8.777  15.516  1.00  0.00     0.041 C 
HETATM   15  C18 UNL     1     -13.227   9.055  14.130  1.00  0.00     0.136 C 
HETATM   16  C23 UNL     1     -12.840   7.972  13.110  1.00  0.00     0.012 C 
HETATM   17  C24 UNL     1     -13.537   6.626  13.349  1.00  0.00     0.012 C 
HETATM   18  C25 UNL     1     -11.314   7.816  13.057  1.00  0.00     0.017 C 
HETATM   19  C26 UNL     1     -10.678   7.535  14.434  1.00  0.00     0.033 C 
HETATM   20  C27 UNL     1      -6.881   8.201  14.887  1.00  0.00     0.219 A 
HETATM   21  O7  UNL     1      -6.135   9.037  15.394  1.00  0.00    -0.284 OA
HETATM   22  C28 UNL     1      -6.295   7.035  14.203  1.00  0.00     0.065 A 
HETATM   23  C29 UNL     1      -4.892   6.852  14.137  1.00  0.00     0.091 A 
ENDROOT
BRANCH   1  24
HETATM   24  C3  UNL     1      -2.769   5.517  13.367  1.00  0.00     0.027 C 
HETATM   25  C4  UNL     1      -1.945   6.774  12.967  1.00  0.00     0.027 C 
BRANCH  24  26
HETATM   26  C2  UNL     1      -2.431   4.548  12.214  1.00  0.00    -0.021 C 
HETATM   27  C1  UNL     1      -1.274   4.422  11.551  1.00  0.00     0.008 C 
ENDBRANCH  24  26
BRANCH  24  28
HETATM   28  C5  UNL     1      -2.241   5.072  14.772  1.00  0.00     0.182 C 
BRANCH  28  29
HETATM   29  O1  UNL     1      -0.929   5.540  15.097  1.00  0.00    -0.399 OA
HETATM   30  H9  UNL     1      -0.726   6.274  14.481  1.00  0.00     0.209 HD
ENDBRANCH  28  29
ENDBRANCH  24  28
ENDBRANCH   1  24
BRANCH   2  31
HETATM   31  O2  UNL     1      -4.747   3.617  12.428  1.00  0.00    -0.360 OA
HETATM   32  H10 UNL     1      -5.479   3.128  12.011  1.00  0.00     0.217 HD
ENDBRANCH   2  31
BRANCH  23  33
HETATM   33  O8  UNL     1      -4.065   7.748  14.770  1.00  0.00    -0.359 OA
HETATM   34  H36 UNL     1      -4.595   8.477  15.166  1.00  0.00     0.217 HD
ENDBRANCH  23  33
BRANCH  15  35
HETATM   35  O5  UNL     1     -14.664   9.113  14.214  1.00  0.00    -0.315 OA
BRANCH  35  36
HETATM   36  C19 UNL     1     -15.295   9.890  13.284  1.00  0.00     0.262 C 
HETATM   37  O6  UNL     1     -14.848  10.932  12.829  1.00  0.00    -0.265 OA
BRANCH  36  38
HETATM   38  C20 UNL     1     -16.638   9.276  12.923  1.00  0.00     0.077 C 
HETATM   39  C21 UNL     1     -16.925   8.074  13.818  1.00  0.00     0.020 C 
HETATM   40  C22 UNL     1     -16.673   8.869  11.450  1.00  0.00     0.020 C 
ENDBRANCH  36  38
ENDBRANCH  35  36
ENDBRANCH  15  35
TORSDOF 9
ENDMDL
MODEL 5
REMARK minimizedAffinity -7.06532431
REMARK CNNscore 0.274877578
REMARK CNNaffinity 5.63621664
REMARK  9 active torsions:
REMARK  status: ('A' for Active; 'I' for Inactive)
REMARK    1  A    between atoms: C2_2  and  C3_3 
REMARK    2  A    between atoms: C3_3  and  C5_5 
REMARK    3  A    between atoms: C3_3  and  C6_7 
REMARK    4  A    between atoms: C5_5  and  O1_6 
REMARK    5  A    between atoms: C7_8  and  O2_9 
REMARK    6  A    between atoms: C18_22  and  O5_23 
REMARK    7  A    between atoms: O5_23  and  C19_24 
REMARK    8  A    between atoms: C19_24  and  C20_26 
REMARK    9  A    between atoms: C29_36  and  O8_37 
ROOT
HETATM    1  C6  UNL     1      -6.646  -9.722  10.460  1.00  0.00     0.023 A 
HETATM    2  C7  UNL     1      -5.262  -9.974  10.304  1.00  0.00     0.076 A 
HETATM    3  C8  UNL     1      -4.687 -10.255   9.062  1.00  0.00     0.053 A 
HETATM    4  C9  UNL     1      -5.487 -10.328   7.922  1.00  0.00     0.034 A 
HETATM    5  C10 UNL     1      -4.856 -10.632   6.628  1.00  0.00     0.192 A 
HETATM    6  O3  UNL     1      -3.644 -10.810   6.567  1.00  0.00    -0.287 OA
HETATM    7  C11 UNL     1      -5.715 -10.734   5.418  1.00  0.00     0.035 A 
HETATM    8  C12 UNL     1      -7.045 -10.596   5.516  1.00  0.00     0.131 A 
HETATM    9  O4  UNL     1      -7.916 -10.750   4.464  1.00  0.00    -0.336 OA
HETATM   10  C13 UNL     1      -7.414 -10.877   3.120  1.00  0.00     0.065 C 
HETATM   11  C14 UNL     1      -8.494 -11.705   2.392  1.00  0.00     0.046 C 
HETATM   12  C15 UNL     1      -7.435  -9.471   2.507  1.00  0.00     0.046 C 
HETATM   13  C16 UNL     1      -6.053 -11.635   3.092  1.00  0.00     0.031 C 
HETATM   14  C17 UNL     1      -5.416 -11.845   1.706  1.00  0.00     0.041 C 
HETATM   15  C18 UNL     1      -4.547 -10.684   1.210  1.00  0.00     0.136 C 
HETATM   16  C23 UNL     1      -3.482 -10.279   2.242  1.00  0.00     0.012 C 
HETATM   17  C24 UNL     1      -2.355 -11.309   2.398  1.00  0.00     0.012 C 
HETATM   18  C25 UNL     1      -4.145  -9.959   3.589  1.00  0.00     0.017 C 
HETATM   19  C26 UNL     1      -5.031 -11.104   4.123  1.00  0.00     0.033 C 
HETATM   20  C27 UNL     1      -7.693 -10.274   6.823  1.00  0.00     0.219 A 
HETATM   21  O7  UNL     1      -8.908 -10.110   6.914  1.00  0.00    -0.284 OA
HETATM   22  C28 UNL     1      -6.857 -10.145   8.030  1.00  0.00     0.065 A 
HETATM   23  C29 UNL     1      -7.432  -9.857   9.292  1.00  0.00     0.091 A 
ENDROOT
BRANCH   1  24
HETATM   24  C3  UNL     1      -7.239  -9.385  11.866  1.00  0.00     0.027 C 
HETATM   25  C4  UNL     1      -7.156 -10.534  12.909  1.00  0.00     0.027 C 
BRANCH  24  26
HETATM   26  C2  UNL     1      -8.762  -9.150  11.784  1.00  0.00    -0.021 C 
HETATM   27  C1  UNL     1      -9.676  -9.300  12.753  1.00  0.00     0.008 C 
ENDBRANCH  24  26
BRANCH  24  28
HETATM   28  C5  UNL     1      -6.423  -8.189  12.461  1.00  0.00     0.182 C 
BRANCH  28  29
HETATM   29  O1  UNL     1      -6.962  -6.894  12.179  1.00  0.00    -0.399 OA
HETATM   30  H9  UNL     1      -7.889  -7.027  11.892  1.00  0.00     0.209 HD
ENDBRANCH  28  29
ENDBRANCH  24  28
ENDBRANCH   1  24
BRANCH   2  31
HETATM   31  O2  UNL     1      -4.443 -10.000  11.403  1.00  0.00    -0.360 OA
HETATM   32  H10 UNL     1      -3.514 -10.064  11.119  1.00  0.00     0.217 HD
ENDBRANCH   2  31
BRANCH  23  33
HETATM   33  O8  UNL     1      -8.797  -9.750   9.403  1.00  0.00    -0.359 OA
HETATM   34  H36 UNL     1      -9.216  -9.842   8.518  1.00  0.00     0.217 HD
ENDBRANCH  23  33
BRANCH  15  35
HETATM   35  O5  UNL     1      -3.882 -11.058  -0.012  1.00  0.00    -0.315 OA
BRANCH  35  36
HETATM   36  C19 UNL     1      -4.635 -11.007  -1.151  1.00  0.00     0.262 C 
HETATM   37  O6  UNL     1      -5.366 -10.078  -1.462  1.00  0.00    -0.265 OA
BRANCH  36  38
HETATM   38  C20 UNL     1      -4.443 -12.283  -1.955  1.00  0.00     0.077 C 
HETATM   39  C21 UNL     1      -3.137 -12.964  -1.556  1.00  0.00     0.020 C 
HETATM   40  C22 UNL     1      -4.461 -11.991  -3.455  1.00  0.00     0.020 C 
ENDBRANCH  36  38
ENDBRANCH  35  36
ENDBRANCH  15  35
TORSDOF 9
ENDMDL
MODEL 6
REMARK minimizedAffinity -6.52249384
REMARK CNNscore 0.265307814
REMARK CNNaffinity 5.29659176
REMARK  9 active torsions:
REMARK  status: ('A' for Active; 'I' for Inactive)
REMARK    1  A    between atoms: C2_2  and  C3_3 
REMARK    2  A    between atoms: C3_3  and  C5_5 
REMARK    3  A    between atoms: C3_3  and  C6_7 
REMARK    4  A    between atoms: C5_5  and  O1_6 
REMARK    5  A    between atoms: C7_8  and  O2_9 
REMARK    6  A    between atoms: C18_22  and  O5_23 
REMARK    7  A    between atoms: O5_23  and  C19_24 
REMARK    8  A    between atoms: C19_24  and  C20_26 
REMARK    9  A    between atoms: C29_36  and  O8_37 
ROOT
HETATM    1  C6  UNL     1     -11.074  -9.235  14.298  1.00  0.00     0.023 A 
HETATM    2  C7  UNL     1     -11.126  -8.478  15.492  1.00  0.00     0.076 A 
HETATM    3  C8  UNL     1     -11.768  -7.239  15.566  1.00  0.00     0.053 A 
HETATM    4  C9  UNL     1     -12.361  -6.690  14.430  1.00  0.00     0.034 A 
HETATM    5  C10 UNL     1     -13.025  -5.381  14.535  1.00  0.00     0.192 A 
HETATM    6  O3  UNL     1     -13.054  -4.797  15.613  1.00  0.00    -0.287 OA
HETATM    7  C11 UNL     1     -13.634  -4.785  13.315  1.00  0.00     0.035 A 
HETATM    8  C12 UNL     1     -13.538  -5.412  12.134  1.00  0.00     0.131 A 
HETATM    9  O4  UNL     1     -14.005  -4.897  10.948  1.00  0.00    -0.336 OA
HETATM   10  C13 UNL     1     -14.823  -3.712  10.944  1.00  0.00     0.065 C 
HETATM   11  C14 UNL     1     -14.547  -3.070   9.568  1.00  0.00     0.046 C 
HETATM   12  C15 UNL     1     -16.282  -4.183  10.939  1.00  0.00     0.046 C 
HETATM   13  C16 UNL     1     -14.405  -2.732  12.081  1.00  0.00     0.031 C 
HETATM   14  C17 UNL     1     -15.200  -1.417  12.176  1.00  0.00     0.041 C 
HETATM   15  C18 UNL     1     -16.491  -1.498  12.999  1.00  0.00     0.136 C 
HETATM   16  C23 UNL     1     -16.247  -2.088  14.397  1.00  0.00     0.012 C 
HETATM   17  C24 UNL     1     -15.481  -1.147  15.336  1.00  0.00     0.012 C 
HETATM   18  C25 UNL     1     -15.558  -3.455  14.282  1.00  0.00     0.017 C 
HETATM   19  C26 UNL     1     -14.253  -3.416  13.460  1.00  0.00     0.033 C 
HETATM   20  C27 UNL     1     -12.878  -6.748  12.020  1.00  0.00     0.219 A 
HETATM   21  O7  UNL     1     -12.818  -7.345  10.947  1.00  0.00    -0.284 OA
HETATM   22  C28 UNL     1     -12.289  -7.365  13.221  1.00  0.00     0.065 A 
HETATM   23  C29 UNL     1     -11.639  -8.622  13.155  1.00  0.00     0.091 A 
ENDROOT
BRANCH   1  24
HETATM   24  C3  UNL     1     -10.368 -10.629  14.271  1.00  0.00     0.027 C 
HETATM   25  C4  UNL     1     -10.801 -11.564  13.106  1.00  0.00     0.027 C 
BRANCH  24  26
HETATM   26  C2  UNL     1     -10.756 -11.473  15.504  1.00  0.00    -0.021 C 
HETATM   27  C1  UNL     1     -11.357 -12.670  15.531  1.00  0.00     0.008 C 
ENDBRANCH  24  26
BRANCH  24  28
HETATM   28  C5  UNL     1      -8.831 -10.390  14.099  1.00  0.00     0.182 C 
BRANCH  28  29
HETATM   29  O1  UNL     1      -8.484  -9.339  13.193  1.00  0.00    -0.399 OA
HETATM   30  H9  UNL     1      -9.288  -8.796  13.064  1.00  0.00     0.209 HD
ENDBRANCH  28  29
ENDBRANCH  24  28
ENDBRANCH   1  24
BRANCH   2  31
HETATM   31  O2  UNL     1     -10.487  -8.929  16.617  1.00  0.00    -0.360 OA
HETATM   32  H10 UNL     1     -10.716  -8.363  17.376  1.00  0.00     0.217 HD
ENDBRANCH   2  31
BRANCH  23  33
HETATM   33  O8  UNL     1     -11.508  -9.251  11.941  1.00  0.00    -0.359 OA
HETATM   34  H36 UNL     1     -11.962  -8.731  11.240  1.00  0.00     0.217 HD
ENDBRANCH  23  33
BRANCH  15  35
HETATM   35  O5  UNL     1     -17.059  -0.182  13.149  1.00  0.00    -0.315 OA
BRANCH  35  36
HETATM   36  C19 UNL     1     -17.559   0.394  12.016  1.00  0.00     0.262 C 
HETATM   37  O6  UNL     1     -17.945  -0.221  11.033  1.00  0.00    -0.265 OA
BRANCH  36  38
HETATM   38  C20 UNL     1     -17.540   1.908  12.154  1.00  0.00     0.077 C 
HETATM   39  C21 UNL     1     -16.912   2.306  13.487  1.00  0.00     0.020 C 
HETATM   40  C22 UNL     1     -18.949   2.485  12.030  1.00  0.00     0.020 C 
ENDBRANCH  36  38
ENDBRANCH  35  36
ENDBRANCH  15  35
TORSDOF 9
ENDMDL
MODEL 7
REMARK minimizedAffinity -7.21511316
REMARK CNNscore 0.253164887
REMARK CNNaffinity 5.43229055
REMARK  9 active torsions:
REMARK  status: ('A' for Active; 'I' for Inactive)
REMARK    1  A    between atoms: C2_2  and  C3_3 
REMARK    2  A    between atoms: C3_3  and  C5_5 
REMARK    3  A    between atoms: C3_3  and  C6_7 
REMARK    4  A    between atoms: C5_5  and  O1_6 
REMARK    5  A    between atoms: C7_8  and  O2_9 
REMARK    6  A    between atoms: C18_22  and  O5_23 
REMARK    7  A    between atoms: O5_23  and  C19_24 
REMARK    8  A    between atoms: C19_24  and  C20_26 
REMARK    9  A    between atoms: C29_36  and  O8_37 
ROOT
HETATM    1  C6  UNL     1      -6.377  -9.455   9.647  1.00  0.00     0.023 A 
HETATM    2  C7  UNL     1      -7.636  -8.877   9.356  1.00  0.00     0.076 A 
HETATM    3  C8  UNL     1      -8.140  -8.796   8.055  1.00  0.00     0.053 A 
HETATM    4  C9  UNL     1      -7.384  -9.265   6.982  1.00  0.00     0.034 A 
HETATM    5  C10 UNL     1      -7.936  -9.161   5.622  1.00  0.00     0.192 A 
HETATM    6  O3  UNL     1      -9.049  -8.673   5.451  1.00  0.00    -0.287 OA
HETATM    7  C11 UNL     1      -7.117  -9.638   4.476  1.00  0.00     0.035 A 
HETATM    8  C12 UNL     1      -5.879 -10.111   4.678  1.00  0.00     0.131 A 
HETATM    9  O4  UNL     1      -5.029 -10.501   3.670  1.00  0.00    -0.336 OA
HETATM   10  C13 UNL     1      -5.510 -10.610   2.317  1.00  0.00     0.065 C 
HETATM   11  C14 UNL     1      -4.259 -10.349   1.452  1.00  0.00     0.046 C 
HETATM   12  C15 UNL     1      -5.906 -12.077   2.108  1.00  0.00     0.046 C 
HETATM   13  C16 UNL     1      -6.599  -9.538   2.015  1.00  0.00     0.031 C 
HETATM   14  C17 UNL     1      -7.187  -9.544   0.592  1.00  0.00     0.041 C 
HETATM   15  C18 UNL     1      -8.364 -10.504   0.381  1.00  0.00     0.136 C 
HETATM   16  C23 UNL     1      -9.472 -10.296   1.427  1.00  0.00     0.012 C 
HETATM   17  C24 UNL     1     -10.254  -8.989   1.240  1.00  0.00     0.012 C 
HETATM   18  C25 UNL     1      -8.891 -10.409   2.843  1.00  0.00     0.017 C 
HETATM   19  C26 UNL     1      -7.702  -9.458   3.096  1.00  0.00     0.033 C 
HETATM   20  C27 UNL     1      -5.314 -10.233   6.056  1.00  0.00     0.219 A 
HETATM   21  O7  UNL     1      -4.194 -10.700   6.252  1.00  0.00    -0.284 OA
HETATM   22  C28 UNL     1      -6.120  -9.788   7.207  1.00  0.00     0.065 A 
HETATM   23  C29 UNL     1      -5.617  -9.870   8.528  1.00  0.00     0.091 A 
ENDROOT
BRANCH   1  24
HETATM   24  C3  UNL     1      -5.867  -9.548  11.121  1.00  0.00     0.027 C 
HETATM   25  C4  UNL     1      -4.321  -9.542  11.284  1.00  0.00     0.027 C 
BRANCH  24  26
HETATM   26  C2  UNL     1      -6.240 -10.907  11.752  1.00  0.00    -0.021 C 
HETATM   27  C1  UNL     1      -7.110 -11.819  11.299  1.00  0.00     0.008 C 
ENDBRANCH  24  26
BRANCH  24  28
HETATM   28  C5  UNL     1      -6.399  -8.298  11.898  1.00  0.00     0.182 C 
BRANCH  28  29
HETATM   29  O1  UNL     1      -6.236  -8.359  13.317  1.00  0.00    -0.399 OA
HETATM   30  H9  UNL     1      -5.577  -9.060  13.500  1.00  0.00     0.209 HD
ENDBRANCH  28  29
ENDBRANCH  24  28
ENDBRANCH   1  24
BRANCH   2  31
HETATM   31  O2  UNL     1      -8.384  -8.323  10.362  1.00  0.00    -0.360 OA
HETATM   32  H10 UNL     1      -9.264  -8.081  10.023  1.00  0.00     0.217 HD
ENDBRANCH   2  31
BRANCH  23  33
HETATM   33  O8  UNL     1      -4.336 -10.321   8.736  1.00  0.00    -0.359 OA
HETATM   34  H36 UNL     1      -3.932 -10.596   7.882  1.00  0.00     0.217 HD
ENDBRANCH  23  33
BRANCH  15  35
HETATM   35  O5  UNL     1      -8.927 -10.307  -0.930  1.00  0.00    -0.315 OA
BRANCH  35  36
HETATM   36  C19 UNL     1      -8.275 -10.912  -1.967  1.00  0.00     0.262 C 
HETATM   37  O6  UNL     1      -7.723 -12.000  -1.902  1.00  0.00    -0.265 OA
BRANCH  36  38
HETATM   38  C20 UNL     1      -8.323 -10.021  -3.197  1.00  0.00     0.077 C 
HETATM   39  C21 UNL     1      -7.710  -8.659  -2.885  1.00  0.00     0.020 C 
HETATM   40  C22 UNL     1      -9.757  -9.862  -3.701  1.00  0.00     0.020 C 
ENDBRANCH  36  38
ENDBRANCH  35  36
ENDBRANCH  15  35
TORSDOF 9
ENDMDL
MODEL 8
REMARK minimizedAffinity -6.87882948
REMARK CNNscore 0.240000322
REMARK CNNaffinity 5.32476759
REMARK  9 active torsions:
REMARK  status: ('A' for Active; 'I' for Inactive)
REMARK    1  A    between atoms: C2_2  and  C3_3 
REMARK    2  A    between atoms: C3_3  and  C5_5 
REMARK    3  A    between atoms: C3_3  and  C6_7 
REMARK    4  A    between atoms: C5_5  and  O1_6 
REMARK    5  A    between atoms: C7_8  and  O2_9 
REMARK    6  A    between atoms: C18_22  and  O5_23 
REMARK    7  A    between atoms: O5_23  and  C19_24 
REMARK    8  A    between atoms: C19_24  and  C20_26 
REMARK    9  A    between atoms: C29_36  and  O8_37 
ROOT
HETATM    1  C6  UNL     1      -4.574 -10.240   4.924  1.00  0.00     0.023 A 
HETATM    2  C7  UNL     1      -3.815 -10.512   3.761  1.00  0.00     0.076 A 
HETATM    3  C8  UNL     1      -4.366 -10.457   2.478  1.00  0.00     0.053 A 
HETATM    4  C9  UNL     1      -5.717 -10.158   2.309  1.00  0.00     0.034 A 
HETATM    5  C10 UNL     1      -6.272 -10.114   0.947  1.00  0.00     0.192 A 
HETATM    6  O3  UNL     1      -5.544 -10.333  -0.015  1.00  0.00    -0.287 OA
HETATM    7  C11 UNL     1      -7.720  -9.820   0.771  1.00  0.00     0.035 A 
HETATM    8  C12 UNL     1      -8.510  -9.644   1.839  1.00  0.00     0.131 A 
HETATM    9  O4  UNL     1      -9.868  -9.443   1.768  1.00  0.00    -0.336 OA
HETATM   10  C13 UNL     1     -10.501  -9.208   0.496  1.00  0.00     0.065 C 
HETATM   11  C14 UNL     1     -11.939  -9.734   0.688  1.00  0.00     0.046 C 
HETATM   12  C15 UNL     1     -10.596  -7.687   0.325  1.00  0.00     0.046 C 
HETATM   13  C16 UNL     1      -9.793 -10.000  -0.644  1.00  0.00     0.031 C 
HETATM   14  C17 UNL     1     -10.384  -9.840  -2.057  1.00  0.00     0.041 C 
HETATM   15  C18 UNL     1      -9.860  -8.634  -2.846  1.00  0.00     0.136 C 
HETATM   16  C23 UNL     1      -8.324  -8.599  -2.893  1.00  0.00     0.012 C 
HETATM   17  C24 UNL     1      -7.712  -9.691  -3.781  1.00  0.00     0.012 C 
HETATM   18  C25 UNL     1      -7.750  -8.642  -1.470  1.00  0.00     0.017 C 
HETATM   19  C26 UNL     1      -8.254  -9.841  -0.641  1.00  0.00     0.033 C 
HETATM   20  C27 UNL     1      -7.954  -9.673   3.225  1.00  0.00     0.219 A 
HETATM   21  O7  UNL     1      -8.666  -9.476   4.208  1.00  0.00    -0.284 OA
HETATM   22  C28 UNL     1      -6.518  -9.939   3.420  1.00  0.00     0.065 A 
HETATM   23  C29 UNL     1      -5.951  -9.992   4.717  1.00  0.00     0.091 A 
ENDROOT
BRANCH   1  24
HETATM   24  C3  UNL     1      -3.908 -10.285   6.336  1.00  0.00     0.027 C 
HETATM   25  C4  UNL     1      -3.598 -11.711   6.873  1.00  0.00     0.027 C 
BRANCH  24  26
HETATM   26  C2  UNL     1      -4.866  -9.748   7.421  1.00  0.00    -0.021 C 
HETATM   27  C1  UNL     1      -4.897 -10.057   8.724  1.00  0.00     0.008 C 
ENDBRANCH  24  26
BRANCH  24  28
HETATM   28  C5  UNL     1      -2.535  -9.539   6.249  1.00  0.00     0.182 C 
BRANCH  28  29
HETATM   29  O1  UNL     1      -2.631  -8.122   6.077  1.00  0.00    -0.399 OA
HETATM   30  H9  UNL     1      -3.545  -7.866   6.318  1.00  0.00     0.209 HD
ENDBRANCH  28  29
ENDBRANCH  24  28
ENDBRANCH   1  24
BRANCH   2  31
HETATM   31  O2  UNL     1      -2.504 -10.895   3.873  1.00  0.00    -0.360 OA
HETATM   32  H10 UNL     1      -2.093 -10.926   2.991  1.00  0.00     0.217 HD
ENDBRANCH   2  31
BRANCH  23  33
HETATM   33  O8  UNL     1      -6.765  -9.847   5.815  1.00  0.00    -0.359 OA
HETATM   34  H36 UNL     1      -7.687  -9.660   5.529  1.00  0.00     0.217 HD
ENDBRANCH  23  33
BRANCH  15  35
HETATM   35  O5  UNL     1     -10.359  -8.680  -4.197  1.00  0.00    -0.315 OA
BRANCH  35  36
HETATM   36  C19 UNL     1     -10.804  -7.498  -4.719  1.00  0.00     0.262 C 
HETATM   37  O6  UNL     1     -11.456  -6.667  -4.104  1.00  0.00    -0.265 OA
BRANCH  36  38
HETATM   38  C20 UNL     1     -10.387  -7.388  -6.176  1.00  0.00     0.077 C 
HETATM   39  C21 UNL     1      -8.904  -7.042  -6.274  1.00  0.00     0.020 C 
HETATM   40  C22 UNL     1     -11.230  -6.344  -6.907  1.00  0.00     0.020 C 
ENDBRANCH  36  38
ENDBRANCH  35  36
ENDBRANCH  15  35
TORSDOF 9
ENDMDL
MODEL 9
REMARK minimizedAffinity -6.31491327
REMARK CNNscore 0.231016457
REMARK CNNaffinity 4.99790144
REMARK  9 active torsions:
REMARK  status: ('A' for Active; 'I' for Inactive)
REMARK    1  A    between atoms: C2_2  and  C3_3 
REMARK    2  A    between atoms: C3_3  and  C5_5 
REMARK    3  A    between atoms: C3_3  and  C6_7 
REMARK    4  A    between atoms: C5_5  and  O1_6 
REMARK    5  A    between atoms: C7_8  and  O2_9 
REMARK    6  A    between atoms: C18_22  and  O5_23 
REMARK    7  A    between atoms: O5_23  and  C19_24 
REMARK    8  A    between atoms: C19_24  and  C20_26 
REMARK    9  A    between atoms: C29_36  and  O8_37 
ROOT
HETATM    1  C6  UNL     1       8.111  13.133  21.060  1.00  0.00     0.023 A 
HETATM    2  C7  UNL     1       7.423  14.120  20.315  1.00  0.00     0.076 A 
HETATM    3  C8  UNL     1       7.621  14.296  18.943  1.00  0.00     0.053 A 
HETATM    4  C9  UNL     1       8.548  13.507  18.263  1.00  0.00     0.034 A 
HETATM    5  C10 UNL     1       8.742  13.719  16.820  1.00  0.00     0.192 A 
HETATM    6  O3  UNL     1       8.086  14.576  16.236  1.00  0.00    -0.287 OA
HETATM    7  C11 UNL     1       9.749  12.893  16.102  1.00  0.00     0.035 A 
HETATM    8  C12 UNL     1      10.498  12.005  16.771  1.00  0.00     0.131 A 
HETATM    9  O4  UNL     1      11.501  11.258  16.199  1.00  0.00    -0.336 OA
HETATM   10  C13 UNL     1      11.672  11.246  14.769  1.00  0.00     0.065 C 
HETATM   11  C14 UNL     1      13.176  10.959  14.574  1.00  0.00     0.046 C 
HETATM   12  C15 UNL     1      10.908  10.025  14.244  1.00  0.00     0.046 C 
HETATM   13  C16 UNL     1      11.308  12.626  14.144  1.00  0.00     0.031 C 
HETATM   14  C17 UNL     1      11.460  12.745  12.617  1.00  0.00     0.041 C 
HETATM   15  C18 UNL     1      10.243  12.285  11.806  1.00  0.00     0.136 C 
HETATM   16  C23 UNL     1       8.947  12.963  12.277  1.00  0.00     0.012 C 
HETATM   17  C24 UNL     1       8.867  14.453  11.916  1.00  0.00     0.012 C 
HETATM   18  C25 UNL     1       8.748  12.737  13.782  1.00  0.00     0.017 C 
HETATM   19  C26 UNL     1       9.953  13.186  14.635  1.00  0.00     0.033 C 
HETATM   20  C27 UNL     1      10.300  11.773  18.233  1.00  0.00     0.219 A 
HETATM   21  O7  UNL     1      10.958  10.934  18.845  1.00  0.00    -0.284 OA
HETATM   22  C28 UNL     1       9.290  12.564  18.957  1.00  0.00     0.065 A 
HETATM   23  C29 UNL     1       9.081  12.388  20.347  1.00  0.00     0.091 A 
ENDROOT
BRANCH   1  24
HETATM   24  C3  UNL     1       7.836  12.954  22.587  1.00  0.00     0.027 C 
HETATM   25  C4  UNL     1       8.448  11.674  23.221  1.00  0.00     0.027 C 
BRANCH  24  26
HETATM   26  C2  UNL     1       6.331  12.744  22.859  1.00  0.00    -0.021 C 
HETATM   27  C1  UNL     1       5.635  11.599  22.820  1.00  0.00     0.008 C 
ENDBRANCH  24  26
BRANCH  24  28
HETATM   28  C5  UNL     1       8.473  14.169  23.340  1.00  0.00     0.182 C 
BRANCH  28  29
HETATM   29  O1  UNL     1       7.546  15.180  23.743  1.00  0.00    -0.399 OA
HETATM   30  H9  UNL     1       6.652  14.781  23.702  1.00  0.00     0.209 HD
ENDBRANCH  28  29
ENDBRANCH  24  28
ENDBRANCH   1  24
BRANCH   2  31
HETATM   31  O2  UNL     1       6.564  14.980  20.948  1.00  0.00    -0.360 OA
HETATM   32  H10 UNL     1       6.085  15.511  20.287  1.00  0.00     0.217 HD
ENDBRANCH   2  31
BRANCH  23  33
HETATM   33  O8  UNL     1       9.870  11.504  21.042  1.00  0.00    -0.359 OA
HETATM   34  H36 UNL     1      10.482  11.041  20.426  1.00  0.00     0.217 HD
ENDBRANCH  23  33
BRANCH  15  35
HETATM   35  O5  UNL     1      10.440  12.591  10.412  1.00  0.00    -0.315 OA
BRANCH  35  36
HETATM   36  C19 UNL     1      10.932  11.582   9.633  1.00  0.00     0.262 C 
HETATM   37  O6  UNL     1      11.808  10.801   9.976  1.00  0.00    -0.265 OA
BRANCH  36  38
HETATM   38  C20 UNL     1      10.244  11.592   8.278  1.00  0.00     0.077 C 
HETATM   39  C21 UNL     1      10.559  10.307   7.518  1.00  0.00     0.020 C 
HETATM   40  C22 UNL     1      10.662  12.815   7.463  1.00  0.00     0.020 C 
ENDBRANCH  36  38
ENDBRANCH  35  36
ENDBRANCH  15  35
TORSDOF 9
ENDMDL
