MODEL 1
REMARK minimizedAffinity -7.6727562
REMARK CNNscore 0.630469561
REMARK CNNaffinity 5.07544184
REMARK  11 active torsions:
REMARK  status: ('A' for Active; 'I' for Inactive)
REMARK    1  A    between atoms: C2_2  and  O1_3 
REMARK    2  A    between atoms: C2_2  and  C3_4 
REMARK    3  A    between atoms: C4_5  and  C5_6 
REMARK    4  A    between atoms: C5_6  and  O2_7 
REMARK    5  A    between atoms: C9_11  and  O3_12 
REMARK    6  A    between atoms: O3_12  and  C10_13 
REMARK    7  A    between atoms: C11_15  and  C12_16 
REMARK    8  A    between atoms: C12_16  and  O5_17 
REMARK    9  A    between atoms: C13_18  and  O6_19 
REMARK   10  A    between atoms: C14_20  and  O7_21 
REMARK   11  A    between atoms: C15_22  and  O8_23 
ROOT
HETATM    1  C5  UNL     1      -2.919  50.132 -21.041  1.00  0.00     0.086 C 
HETATM    2  C6  UNL     1      -1.801  51.222 -20.970  1.00  0.00     0.023 C 
HETATM    3  C7  UNL     1      -0.460  50.761 -20.383  1.00  0.00     0.013 C 
HETATM    4  C8  UNL     1      -1.567  51.877 -22.355  1.00  0.00     0.039 C 
HETATM    5  C9  UNL     1      -1.932  50.986 -23.550  1.00  0.00     0.126 C 
HETATM    6  C16 UNL     1      -1.681  49.513 -23.241  1.00  0.00     0.044 C 
HETATM    7  C17 UNL     1      -2.555  48.973 -22.069  1.00  0.00    -0.010 C 
HETATM    8  C18 UNL     1      -3.836  48.356 -22.692  1.00  0.00     0.018 C 
HETATM    9  C19 UNL     1      -1.786  47.807 -21.405  1.00  0.00     0.018 C 
ENDROOT
BRANCH   5  10
HETATM   10  O3  UNL     1      -1.094  51.370 -24.648  1.00  0.00    -0.353 OA
BRANCH  10  11
HETATM   11  C10 UNL     1      -1.147  50.433 -25.733  1.00  0.00     0.292 C 
HETATM   12  O4  UNL     1       0.043  50.539 -26.523  1.00  0.00    -0.348 OA
HETATM   13  C11 UNL     1      -0.036  51.435 -27.649  1.00  0.00     0.179 C 
HETATM   14  C13 UNL     1      -0.974  52.614 -27.385  1.00  0.00     0.180 C 
HETATM   15  C14 UNL     1      -2.408  52.092 -27.171  1.00  0.00     0.183 C 
HETATM   16  C15 UNL     1      -2.449  50.700 -26.517  1.00  0.00     0.204 C 
BRANCH  13  17
HETATM   17  C12 UNL     1       1.396  51.897 -27.957  1.00  0.00     0.198 C 
BRANCH  17  18
HETATM   18  O5  UNL     1       2.076  52.222 -26.740  1.00  0.00    -0.398 OA
HETATM   19  H20 UNL     1       1.432  52.745 -26.219  1.00  0.00     0.209 HD
ENDBRANCH  17  18
ENDBRANCH  13  17
BRANCH  14  20
HETATM   20  O6  UNL     1      -0.970  53.559 -28.457  1.00  0.00    -0.390 OA
HETATM   21  H22 UNL     1      -1.667  54.212 -28.252  1.00  0.00     0.210 HD
ENDBRANCH  14  20
BRANCH  15  22
HETATM   22  O7  UNL     1      -3.129  53.050 -26.377  1.00  0.00    -0.390 OA
HETATM   23  H24 UNL     1      -2.713  53.053 -25.494  1.00  0.00     0.210 HD
ENDBRANCH  15  22
BRANCH  16  24
HETATM   24  O8  UNL     1      -2.638  49.689 -27.516  1.00  0.00    -0.388 OA
HETATM   25  H26 UNL     1      -3.529  49.813 -27.890  1.00  0.00     0.210 HD
ENDBRANCH  16  24
ENDBRANCH  10  11
ENDBRANCH   5  10
BRANCH   1  26
HETATM   26  C4  UNL     1      -3.436  49.605 -19.712  1.00  0.00     0.010 C 
HETATM   27  C3  UNL     1      -2.736  49.107 -18.678  1.00  0.00     0.003 C 
BRANCH  27  28
HETATM   28  C2  UNL     1      -3.350  48.642 -17.391  1.00  0.00     0.136 C 
HETATM   29  C1  UNL     1      -2.926  49.514 -16.220  1.00  0.00     0.043 C 
BRANCH  28  30
HETATM   30  O1  UNL     1      -4.760  48.736 -17.539  1.00  0.00    -0.392 OA
HETATM   31  H5  UNL     1      -5.004  48.139 -18.267  1.00  0.00     0.210 HD
ENDBRANCH  28  30
ENDBRANCH  27  28
ENDBRANCH   1  26
BRANCH   1  32
HETATM   32  O2  UNL     1      -4.070  50.828 -21.568  1.00  0.00    -0.385 OA
HETATM   33  H8  UNL     1      -4.351  51.473 -20.895  1.00  0.00     0.211 HD
ENDBRANCH   1  32
TORSDOF 11
ENDMDL
MODEL 2
REMARK minimizedAffinity -6.72338867
REMARK CNNscore 0.629026651
REMARK CNNaffinity 5.08405495
REMARK  11 active torsions:
REMARK  status: ('A' for Active; 'I' for Inactive)
REMARK    1  A    between atoms: C2_2  and  O1_3 
REMARK    2  A    between atoms: C2_2  and  C3_4 
REMARK    3  A    between atoms: C4_5  and  C5_6 
REMARK    4  A    between atoms: C5_6  and  O2_7 
REMARK    5  A    between atoms: C9_11  and  O3_12 
REMARK    6  A    between atoms: O3_12  and  C10_13 
REMARK    7  A    between atoms: C11_15  and  C12_16 
REMARK    8  A    between atoms: C12_16  and  O5_17 
REMARK    9  A    between atoms: C13_18  and  O6_19 
REMARK   10  A    between atoms: C14_20  and  O7_21 
REMARK   11  A    between atoms: C15_22  and  O8_23 
ROOT
HETATM    1  C5  UNL     1      -2.652  50.645 -22.809  1.00  0.00     0.086 C 
HETATM    2  C6  UNL     1      -3.829  51.648 -22.582  1.00  0.00     0.023 C 
HETATM    3  C7  UNL     1      -4.772  51.848 -23.778  1.00  0.00     0.013 C 
HETATM    4  C8  UNL     1      -4.652  51.273 -21.325  1.00  0.00     0.039 C 
HETATM    5  C9  UNL     1      -4.607  49.784 -20.955  1.00  0.00     0.126 C 
HETATM    6  C16 UNL     1      -4.486  48.908 -22.199  1.00  0.00     0.044 C 
HETATM    7  C17 UNL     1      -3.171  49.153 -22.998  1.00  0.00    -0.010 C 
HETATM    8  C18 UNL     1      -2.121  48.128 -22.490  1.00  0.00     0.018 C 
HETATM    9  C19 UNL     1      -3.446  48.800 -24.478  1.00  0.00     0.018 C 
ENDROOT
BRANCH   5  10
HETATM   10  O3  UNL     1      -5.837  49.465 -20.291  1.00  0.00    -0.353 OA
BRANCH  10  11
HETATM   11  C10 UNL     1      -6.235  48.103 -20.497  1.00  0.00     0.292 C 
HETATM   12  O4  UNL     1      -7.664  48.013 -20.511  1.00  0.00    -0.348 OA
HETATM   13  C11 UNL     1      -8.280  47.716 -19.241  1.00  0.00     0.179 C 
HETATM   14  C13 UNL     1      -7.487  48.291 -18.066  1.00  0.00     0.180 C 
HETATM   15  C14 UNL     1      -6.095  47.631 -18.014  1.00  0.00     0.183 C 
HETATM   16  C15 UNL     1      -5.560  47.248 -19.404  1.00  0.00     0.204 C 
BRANCH  13  17
HETATM   17  C12 UNL     1      -9.711  48.270 -19.295  1.00  0.00     0.198 C 
BRANCH  17  18
HETATM   18  O5  UNL     1     -10.544  47.559 -18.374  1.00  0.00    -0.398 OA
HETATM   19  H20 UNL     1     -10.318  46.615 -18.501  1.00  0.00     0.209 HD
ENDBRANCH  17  18
ENDBRANCH  13  17
BRANCH  14  20
HETATM   20  O6  UNL     1      -8.151  48.091 -16.816  1.00  0.00    -0.390 OA
HETATM   21  H22 UNL     1      -7.531  48.389 -16.124  1.00  0.00     0.210 HD
ENDBRANCH  14  20
BRANCH  15  22
HETATM   22  O7  UNL     1      -5.189  48.529 -17.348  1.00  0.00    -0.390 OA
HETATM   23  H24 UNL     1      -5.092  49.310 -17.927  1.00  0.00     0.210 HD
ENDBRANCH  15  22
BRANCH  16  24
HETATM   24  O8  UNL     1      -5.789  45.855 -19.657  1.00  0.00    -0.388 OA
HETATM   25  H26 UNL     1      -5.237  45.352 -19.032  1.00  0.00     0.210 HD
ENDBRANCH  16  24
ENDBRANCH  10  11
ENDBRANCH   5  10
BRANCH   1  26
HETATM   26  C4  UNL     1      -1.610  51.046 -23.840  1.00  0.00     0.010 C 
HETATM   27  C3  UNL     1      -0.987  52.228 -23.987  1.00  0.00     0.003 C 
BRANCH  27  28
HETATM   28  C2  UNL     1       0.056  52.507 -25.028  1.00  0.00     0.136 C 
HETATM   29  C1  UNL     1       0.254  51.318 -25.956  1.00  0.00     0.043 C 
BRANCH  28  30
HETATM   30  O1  UNL     1      -0.399  53.611 -25.797  1.00  0.00    -0.392 OA
HETATM   31  H5  UNL     1      -0.478  54.363 -25.184  1.00  0.00     0.210 HD
ENDBRANCH  28  30
ENDBRANCH  27  28
ENDBRANCH   1  26
BRANCH   1  32
HETATM   32  O2  UNL     1      -1.901  50.686 -21.575  1.00  0.00    -0.385 OA
HETATM   33  H8  UNL     1      -1.503  51.572 -21.508  1.00  0.00     0.211 HD
ENDBRANCH   1  32
TORSDOF 11
ENDMDL
MODEL 3
REMARK minimizedAffinity -6.31016254
REMARK CNNscore 0.62212801
REMARK CNNaffinity 4.76079178
REMARK  11 active torsions:
REMARK  status: ('A' for Active; 'I' for Inactive)
REMARK    1  A    between atoms: C2_2  and  O1_3 
REMARK    2  A    between atoms: C2_2  and  C3_4 
REMARK    3  A    between atoms: C4_5  and  C5_6 
REMARK    4  A    between atoms: C5_6  and  O2_7 
REMARK    5  A    between atoms: C9_11  and  O3_12 
REMARK    6  A    between atoms: O3_12  and  C10_13 
REMARK    7  A    between atoms: C11_15  and  C12_16 
REMARK    8  A    between atoms: C12_16  and  O5_17 
REMARK    9  A    between atoms: C13_18  and  O6_19 
REMARK   10  A    between atoms: C14_20  and  O7_21 
REMARK   11  A    between atoms: C15_22  and  O8_23 
ROOT
HETATM    1  C5  UNL     1       2.412  54.071 -10.204  1.00  0.00     0.086 C 
HETATM    2  C6  UNL     1       2.574  52.778 -11.067  1.00  0.00     0.023 C 
HETATM    3  C7  UNL     1       3.001  51.517 -10.303  1.00  0.00     0.013 C 
HETATM    4  C8  UNL     1       1.290  52.483 -11.883  1.00  0.00     0.039 C 
HETATM    5  C9  UNL     1       0.001  53.041 -11.264  1.00  0.00     0.126 C 
HETATM    6  C16 UNL     1       0.072  53.041  -9.740  1.00  0.00     0.044 C 
HETATM    7  C17 UNL     1       1.204  53.952  -9.177  1.00  0.00    -0.010 C 
HETATM    8  C18 UNL     1       0.578  55.344  -8.889  1.00  0.00     0.018 C 
HETATM    9  C19 UNL     1       1.637  53.376  -7.809  1.00  0.00     0.018 C 
ENDROOT
BRANCH   5  10
HETATM   10  O3  UNL     1      -1.079  52.189 -11.670  1.00  0.00    -0.353 OA
BRANCH  10  11
HETATM   11  C10 UNL     1      -2.349  52.854 -11.624  1.00  0.00     0.292 C 
HETATM   12  O4  UNL     1      -3.143  52.307 -10.565  1.00  0.00    -0.348 OA
HETATM   13  C11 UNL     1      -4.024  51.230 -10.943  1.00  0.00     0.179 C 
HETATM   14  C13 UNL     1      -3.451  50.386 -12.083  1.00  0.00     0.180 C 
HETATM   15  C14 UNL     1      -3.303  51.260 -13.344  1.00  0.00     0.183 C 
HETATM   16  C15 UNL     1      -2.991  52.731 -13.022  1.00  0.00     0.204 C 
BRANCH  13  17
HETATM   17  C12 UNL     1      -4.278  50.393  -9.680  1.00  0.00     0.198 C 
BRANCH  17  18
HETATM   18  O5  UNL     1      -5.642  49.960  -9.649  1.00  0.00    -0.398 OA
HETATM   19  H20 UNL     1      -6.166  50.748  -9.897  1.00  0.00     0.209 HD
ENDBRANCH  17  18
ENDBRANCH  13  17
BRANCH  14  20
HETATM   20  O6  UNL     1      -4.272  49.256 -12.385  1.00  0.00    -0.390 OA
HETATM   21  H22 UNL     1      -3.890  48.843 -13.183  1.00  0.00     0.210 HD
ENDBRANCH  14  20
BRANCH  15  22
HETATM   22  O7  UNL     1      -2.276  50.691 -14.175  1.00  0.00    -0.390 OA
HETATM   23  H24 UNL     1      -1.435  50.785 -13.687  1.00  0.00     0.210 HD
ENDBRANCH  15  22
BRANCH  16  24
HETATM   24  O8  UNL     1      -4.190  53.516 -13.084  1.00  0.00    -0.388 OA
HETATM   25  H26 UNL     1      -4.485  53.524 -14.011  1.00  0.00     0.210 HD
ENDBRANCH  16  24
ENDBRANCH  10  11
ENDBRANCH   5  10
BRANCH   1  26
HETATM   26  C4  UNL     1       3.679  54.624  -9.569  1.00  0.00     0.010 C 
HETATM   27  C3  UNL     1       4.908  54.728 -10.104  1.00  0.00     0.003 C 
BRANCH  27  28
HETATM   28  C2  UNL     1       6.087  55.323  -9.394  1.00  0.00     0.136 C 
HETATM   29  C1  UNL     1       5.752  55.684  -7.955  1.00  0.00     0.043 C 
BRANCH  28  30
HETATM   30  O1  UNL     1       7.114  54.342  -9.388  1.00  0.00    -0.392 OA
HETATM   31  H5  UNL     1       7.333  54.163 -10.318  1.00  0.00     0.210 HD
ENDBRANCH  28  30
ENDBRANCH  27  28
ENDBRANCH   1  26
BRANCH   1  32
HETATM   32  O2  UNL     1       2.068  55.100 -11.157  1.00  0.00    -0.385 OA
HETATM   33  H8  UNL     1       2.845  55.240 -11.727  1.00  0.00     0.211 HD
ENDBRANCH   1  32
TORSDOF 11
ENDMDL
MODEL 4
REMARK minimizedAffinity -6.4323101
REMARK CNNscore 0.589200258
REMARK CNNaffinity 5.13790464
REMARK  11 active torsions:
REMARK  status: ('A' for Active; 'I' for Inactive)
REMARK    1  A    between atoms: C2_2  and  O1_3 
REMARK    2  A    between atoms: C2_2  and  C3_4 
REMARK    3  A    between atoms: C4_5  and  C5_6 
REMARK    4  A    between atoms: C5_6  and  O2_7 
REMARK    5  A    between atoms: C9_11  and  O3_12 
REMARK    6  A    between atoms: O3_12  and  C10_13 
REMARK    7  A    between atoms: C11_15  and  C12_16 
REMARK    8  A    between atoms: C12_16  and  O5_17 
REMARK    9  A    between atoms: C13_18  and  O6_19 
REMARK   10  A    between atoms: C14_20  and  O7_21 
REMARK   11  A    between atoms: C15_22  and  O8_23 
ROOT
HETATM    1  C5  UNL     1      -3.456  50.287 -24.011  1.00  0.00     0.086 C 
HETATM    2  C6  UNL     1      -3.543  48.755 -23.712  1.00  0.00     0.023 C 
HETATM    3  C7  UNL     1      -2.398  48.177 -22.868  1.00  0.00     0.013 C 
HETATM    4  C8  UNL     1      -4.903  48.385 -23.071  1.00  0.00     0.039 C 
HETATM    5  C9  UNL     1      -5.576  49.529 -22.300  1.00  0.00     0.126 C 
HETATM    6  C16 UNL     1      -4.541  50.448 -21.656  1.00  0.00     0.044 C 
HETATM    7  C17 UNL     1      -3.622  51.160 -22.692  1.00  0.00    -0.010 C 
HETATM    8  C18 UNL     1      -4.264  52.537 -23.012  1.00  0.00     0.018 C 
HETATM    9  C19 UNL     1      -2.272  51.458 -22.000  1.00  0.00     0.018 C 
ENDROOT
BRANCH   5  10
HETATM   10  O3  UNL     1      -6.374  48.943 -21.263  1.00  0.00    -0.353 OA
BRANCH  10  11
HETATM   11  C10 UNL     1      -5.647  48.782 -20.037  1.00  0.00     0.292 C 
HETATM   12  O4  UNL     1      -4.644  47.772 -20.199  1.00  0.00    -0.348 OA
HETATM   13  C11 UNL     1      -5.040  46.437 -19.825  1.00  0.00     0.179 C 
HETATM   14  C13 UNL     1      -6.528  46.186 -20.070  1.00  0.00     0.180 C 
HETATM   15  C14 UNL     1      -7.362  47.128 -19.179  1.00  0.00     0.183 C 
HETATM   16  C15 UNL     1      -6.672  48.479 -18.924  1.00  0.00     0.204 C 
BRANCH  13  17
HETATM   17  C12 UNL     1      -4.155  45.467 -20.621  1.00  0.00     0.198 C 
BRANCH  17  18
HETATM   18  O5  UNL     1      -4.007  44.239 -19.900  1.00  0.00    -0.398 OA
HETATM   19  H20 UNL     1      -3.832  44.505 -18.975  1.00  0.00     0.209 HD
ENDBRANCH  17  18
ENDBRANCH  13  17
BRANCH  14  20
HETATM   20  O6  UNL     1      -6.900  44.832 -19.802  1.00  0.00    -0.390 OA
HETATM   21  H22 UNL     1      -7.872  44.792 -19.881  1.00  0.00     0.210 HD
ENDBRANCH  14  20
BRANCH  15  22
HETATM   22  O7  UNL     1      -8.647  47.320 -19.796  1.00  0.00    -0.390 OA
HETATM   23  H24 UNL     1      -8.490  47.810 -20.626  1.00  0.00     0.210 HD
ENDBRANCH  15  22
BRANCH  16  24
HETATM   24  O8  UNL     1      -6.022  48.468 -17.646  1.00  0.00    -0.388 OA
HETATM   25  H26 UNL     1      -6.717  48.413 -16.966  1.00  0.00     0.210 HD
ENDBRANCH  16  24
ENDBRANCH  10  11
ENDBRANCH   5  10
BRANCH   1  26
HETATM   26  C4  UNL     1      -2.295  50.742 -24.882  1.00  0.00     0.010 C 
HETATM   27  C3  UNL     1      -2.330  51.460 -26.017  1.00  0.00     0.003 C 
BRANCH  27  28
HETATM   28  C2  UNL     1      -1.113  51.883 -26.784  1.00  0.00     0.136 C 
HETATM   29  C1  UNL     1       0.135  51.160 -26.300  1.00  0.00     0.043 C 
BRANCH  28  30
HETATM   30  O1  UNL     1      -1.333  51.544 -28.146  1.00  0.00    -0.392 OA
HETATM   31  H5  UNL     1      -2.110  52.051 -28.436  1.00  0.00     0.210 HD
ENDBRANCH  28  30
ENDBRANCH  27  28
ENDBRANCH   1  26
BRANCH   1  32
HETATM   32  O2  UNL     1      -4.599  50.556 -24.852  1.00  0.00    -0.385 OA
HETATM   33  H8  UNL     1      -4.450  50.098 -25.699  1.00  0.00     0.211 HD
ENDBRANCH   1  32
TORSDOF 11
ENDMDL
MODEL 5
REMARK minimizedAffinity -7.34837246
REMARK CNNscore 0.561356604
REMARK CNNaffinity 5.14548874
REMARK  11 active torsions:
REMARK  status: ('A' for Active; 'I' for Inactive)
REMARK    1  A    between atoms: C2_2  and  O1_3 
REMARK    2  A    between atoms: C2_2  and  C3_4 
REMARK    3  A    between atoms: C4_5  and  C5_6 
REMARK    4  A    between atoms: C5_6  and  O2_7 
REMARK    5  A    between atoms: C9_11  and  O3_12 
REMARK    6  A    between atoms: O3_12  and  C10_13 
REMARK    7  A    between atoms: C11_15  and  C12_16 
REMARK    8  A    between atoms: C12_16  and  O5_17 
REMARK    9  A    between atoms: C13_18  and  O6_19 
REMARK   10  A    between atoms: C14_20  and  O7_21 
REMARK   11  A    between atoms: C15_22  and  O8_23 
ROOT
HETATM    1  C5  UNL     1      -3.778  49.947 -21.810  1.00  0.00     0.086 C 
HETATM    2  C6  UNL     1      -2.243  49.764 -21.580  1.00  0.00     0.023 C 
HETATM    3  C7  UNL     1      -1.714  48.331 -21.732  1.00  0.00     0.013 C 
HETATM    4  C8  UNL     1      -1.423  50.722 -22.479  1.00  0.00     0.039 C 
HETATM    5  C9  UNL     1      -2.132  51.143 -23.773  1.00  0.00     0.126 C 
HETATM    6  C16 UNL     1      -3.035  50.030 -24.298  1.00  0.00     0.044 C 
HETATM    7  C17 UNL     1      -4.191  49.664 -23.320  1.00  0.00    -0.010 C 
HETATM    8  C18 UNL     1      -5.429  50.507 -23.728  1.00  0.00     0.018 C 
HETATM    9  C19 UNL     1      -4.568  48.185 -23.568  1.00  0.00     0.018 C 
ENDROOT
BRANCH   5  10
HETATM   10  O3  UNL     1      -1.121  51.410 -24.754  1.00  0.00    -0.353 OA
BRANCH  10  11
HETATM   11  C10 UNL     1      -1.167  50.491 -25.854  1.00  0.00     0.292 C 
HETATM   12  O4  UNL     1       0.089  50.498 -26.543  1.00  0.00    -0.348 OA
HETATM   13  C11 UNL     1       0.180  51.407 -27.659  1.00  0.00     0.179 C 
HETATM   14  C13 UNL     1      -0.671  52.661 -27.452  1.00  0.00     0.180 C 
HETATM   15  C14 UNL     1      -2.158  52.265 -27.363  1.00  0.00     0.183 C 
HETATM   16  C15 UNL     1      -2.372  50.878 -26.736  1.00  0.00     0.204 C 
BRANCH  13  17
HETATM   17  C12 UNL     1       1.666  51.744 -27.843  1.00  0.00     0.198 C 
BRANCH  17  18
HETATM   18  O5  UNL     1       2.230  52.163 -26.596  1.00  0.00    -0.398 OA
HETATM   19  H20 UNL     1       1.573  52.779 -26.213  1.00  0.00     0.209 HD
ENDBRANCH  17  18
ENDBRANCH  13  17
BRANCH  14  20
HETATM   20  O6  UNL     1      -0.498  53.612 -28.507  1.00  0.00    -0.390 OA
HETATM   21  H22 UNL     1      -1.150  54.321 -28.348  1.00  0.00     0.210 HD
ENDBRANCH  14  20
BRANCH  15  22
HETATM   22  O7  UNL     1      -2.855  53.277 -26.615  1.00  0.00    -0.390 OA
HETATM   23  H24 UNL     1      -2.513  53.236 -25.701  1.00  0.00     0.210 HD
ENDBRANCH  15  22
BRANCH  16  24
HETATM   24  O8  UNL     1      -2.567  49.895 -27.762  1.00  0.00    -0.388 OA
HETATM   25  H26 UNL     1      -3.410  50.100 -28.205  1.00  0.00     0.210 HD
ENDBRANCH  16  24
ENDBRANCH  10  11
ENDBRANCH   5  10
BRANCH   1  26
HETATM   26  C4  UNL     1      -4.699  49.269 -20.806  1.00  0.00     0.010 C 
HETATM   27  C3  UNL     1      -5.804  49.760 -20.219  1.00  0.00     0.003 C 
BRANCH  27  28
HETATM   28  C2  UNL     1      -6.661  48.988 -19.260  1.00  0.00     0.136 C 
HETATM   29  C1  UNL     1      -7.808  48.288 -19.973  1.00  0.00     0.043 C 
BRANCH  28  30
HETATM   30  O1  UNL     1      -5.835  48.003 -18.655  1.00  0.00    -0.392 OA
HETATM   31  H5  UNL     1      -5.137  48.482 -18.176  1.00  0.00     0.210 HD
ENDBRANCH  28  30
ENDBRANCH  27  28
ENDBRANCH   1  26
BRANCH   1  32
HETATM   32  O2  UNL     1      -4.017  51.348 -21.554  1.00  0.00    -0.385 OA
HETATM   33  H8  UNL     1      -3.858  51.501 -20.606  1.00  0.00     0.211 HD
ENDBRANCH   1  32
TORSDOF 11
ENDMDL
MODEL 6
REMARK minimizedAffinity -6.10045815
REMARK CNNscore 0.54795599
REMARK CNNaffinity 4.7893815
REMARK  11 active torsions:
REMARK  status: ('A' for Active; 'I' for Inactive)
REMARK    1  A    between atoms: C2_2  and  O1_3 
REMARK    2  A    between atoms: C2_2  and  C3_4 
REMARK    3  A    between atoms: C4_5  and  C5_6 
REMARK    4  A    between atoms: C5_6  and  O2_7 
REMARK    5  A    between atoms: C9_11  and  O3_12 
REMARK    6  A    between atoms: O3_12  and  C10_13 
REMARK    7  A    between atoms: C11_15  and  C12_16 
REMARK    8  A    between atoms: C12_16  and  O5_17 
REMARK    9  A    between atoms: C13_18  and  O6_19 
REMARK   10  A    between atoms: C14_20  and  O7_21 
REMARK   11  A    between atoms: C15_22  and  O8_23 
ROOT
HETATM    1  C5  UNL     1      -3.063  50.543 -23.682  1.00  0.00     0.086 C 
HETATM    2  C6  UNL     1      -3.157  48.992 -23.852  1.00  0.00     0.023 C 
HETATM    3  C7  UNL     1      -2.719  48.162 -22.637  1.00  0.00     0.013 C 
HETATM    4  C8  UNL     1      -4.578  48.562 -24.293  1.00  0.00     0.039 C 
HETATM    5  C9  UNL     1      -5.695  49.527 -23.874  1.00  0.00     0.126 C 
HETATM    6  C16 UNL     1      -5.374  50.202 -22.543  1.00  0.00     0.044 C 
HETATM    7  C17 UNL     1      -4.091  51.085 -22.596  1.00  0.00    -0.010 C 
HETATM    8  C18 UNL     1      -4.539  52.535 -22.927  1.00  0.00     0.018 C 
HETATM    9  C19 UNL     1      -3.489  51.128 -21.173  1.00  0.00     0.018 C 
ENDROOT
BRANCH   5  10
HETATM   10  O3  UNL     1      -6.896  48.759 -23.717  1.00  0.00    -0.353 OA
BRANCH  10  11
HETATM   11  C10 UNL     1      -6.645  47.347 -23.690  1.00  0.00     0.292 C 
HETATM   12  O4  UNL     1      -7.434  46.696 -24.691  1.00  0.00    -0.348 OA
HETATM   13  C11 UNL     1      -8.715  46.203 -24.248  1.00  0.00     0.179 C 
HETATM   14  C13 UNL     1      -9.315  47.068 -23.139  1.00  0.00     0.180 C 
HETATM   15  C14 UNL     1      -8.402  47.017 -21.898  1.00  0.00     0.183 C 
HETATM   16  C15 UNL     1      -6.915  46.853 -22.253  1.00  0.00     0.204 C 
BRANCH  13  17
HETATM   17  C12 UNL     1      -9.624  46.141 -25.484  1.00  0.00     0.198 C 
BRANCH  17  18
HETATM   18  O5  UNL     1      -9.324  47.229 -26.365  1.00  0.00    -0.398 OA
HETATM   19  H20 UNL     1      -9.243  48.013 -25.784  1.00  0.00     0.209 HD
ENDBRANCH  17  18
ENDBRANCH  13  17
BRANCH  14  20
HETATM   20  O6  UNL     1     -10.631  46.644 -22.774  1.00  0.00    -0.390 OA
HETATM   21  H22 UNL     1     -10.887  47.177 -21.998  1.00  0.00     0.210 HD
ENDBRANCH  14  20
BRANCH  15  22
HETATM   22  O7  UNL     1      -8.613  48.214 -21.127  1.00  0.00    -0.390 OA
HETATM   23  H24 UNL     1      -8.286  48.958 -21.669  1.00  0.00     0.210 HD
ENDBRANCH  15  22
BRANCH  16  24
HETATM   24  O8  UNL     1      -6.524  45.479 -22.124  1.00  0.00    -0.388 OA
HETATM   25  H26 UNL     1      -6.579  45.249 -21.179  1.00  0.00     0.210 HD
ENDBRANCH  16  24
ENDBRANCH  10  11
ENDBRANCH   5  10
BRANCH   1  26
HETATM   26  C4  UNL     1      -1.666  51.122 -23.518  1.00  0.00     0.010 C 
HETATM   27  C3  UNL     1      -1.163  52.255 -24.037  1.00  0.00     0.003 C 
BRANCH  27  28
HETATM   28  C2  UNL     1       0.229  52.751 -23.783  1.00  0.00     0.136 C 
HETATM   29  C1  UNL     1       0.721  52.358 -22.398  1.00  0.00     0.043 C 
BRANCH  28  30
HETATM   30  O1  UNL     1       1.076  52.149 -24.752  1.00  0.00    -0.392 OA
HETATM   31  H5  UNL     1       0.760  52.451 -25.622  1.00  0.00     0.210 HD
ENDBRANCH  28  30
ENDBRANCH  27  28
ENDBRANCH   1  26
BRANCH   1  32
HETATM   32  O2  UNL     1      -3.470  51.072 -24.963  1.00  0.00    -0.385 OA
HETATM   33  H8  UNL     1      -2.788  50.821 -25.610  1.00  0.00     0.211 HD
ENDBRANCH   1  32
TORSDOF 11
ENDMDL
MODEL 7
REMARK minimizedAffinity -6.343256
REMARK CNNscore 0.475047082
REMARK CNNaffinity 4.94613314
REMARK  11 active torsions:
REMARK  status: ('A' for Active; 'I' for Inactive)
REMARK    1  A    between atoms: C2_2  and  O1_3 
REMARK    2  A    between atoms: C2_2  and  C3_4 
REMARK    3  A    between atoms: C4_5  and  C5_6 
REMARK    4  A    between atoms: C5_6  and  O2_7 
REMARK    5  A    between atoms: C9_11  and  O3_12 
REMARK    6  A    between atoms: O3_12  and  C10_13 
REMARK    7  A    between atoms: C11_15  and  C12_16 
REMARK    8  A    between atoms: C12_16  and  O5_17 
REMARK    9  A    between atoms: C13_18  and  O6_19 
REMARK   10  A    between atoms: C14_20  and  O7_21 
REMARK   11  A    between atoms: C15_22  and  O8_23 
ROOT
HETATM    1  C5  UNL     1      -2.900  50.476 -23.402  1.00  0.00     0.086 C 
HETATM    2  C6  UNL     1      -2.792  48.918 -23.455  1.00  0.00     0.023 C 
HETATM    3  C7  UNL     1      -2.229  48.247 -22.194  1.00  0.00     0.013 C 
HETATM    4  C8  UNL     1      -4.152  48.274 -23.826  1.00  0.00     0.039 C 
HETATM    5  C9  UNL     1      -5.379  49.116 -23.450  1.00  0.00     0.126 C 
HETATM    6  C16 UNL     1      -5.127  49.927 -22.182  1.00  0.00     0.044 C 
HETATM    7  C17 UNL     1      -3.973  50.962 -22.333  1.00  0.00    -0.010 C 
HETATM    8  C18 UNL     1      -4.613  52.312 -22.758  1.00  0.00     0.018 C 
HETATM    9  C19 UNL     1      -3.358  51.192 -20.933  1.00  0.00     0.018 C 
ENDROOT
BRANCH   5  10
HETATM   10  O3  UNL     1      -6.465  48.213 -23.206  1.00  0.00    -0.353 OA
BRANCH  10  11
HETATM   11  C10 UNL     1      -7.746  48.832 -23.391  1.00  0.00     0.292 C 
HETATM   12  O4  UNL     1      -8.763  48.035 -22.774  1.00  0.00    -0.348 OA
HETATM   13  C11 UNL     1      -9.406  47.073 -23.635  1.00  0.00     0.179 C 
HETATM   14  C13 UNL     1      -8.460  46.540 -24.713  1.00  0.00     0.180 C 
HETATM   15  C14 UNL     1      -8.028  47.697 -25.636  1.00  0.00     0.183 C 
HETATM   16  C15 UNL     1      -7.945  49.048 -24.906  1.00  0.00     0.204 C 
BRANCH  13  17
HETATM   17  C12 UNL     1      -9.942  45.951 -22.734  1.00  0.00     0.198 C 
BRANCH  17  18
HETATM   18  O5  UNL     1      -8.966  44.911 -22.618  1.00  0.00    -0.398 OA
HETATM   19  H20 UNL     1      -8.633  44.770 -23.527  1.00  0.00     0.209 HD
ENDBRANCH  17  18
ENDBRANCH  13  17
BRANCH  14  20
HETATM   20  O6  UNL     1      -9.062  45.509 -25.498  1.00  0.00    -0.390 OA
HETATM   21  H22 UNL     1      -8.433  45.307 -26.218  1.00  0.00     0.210 HD
ENDBRANCH  14  20
BRANCH  15  22
HETATM   22  O7  UNL     1      -6.762  47.358 -26.228  1.00  0.00    -0.390 OA
HETATM   23  H24 UNL     1      -6.108  47.339 -25.503  1.00  0.00     0.210 HD
ENDBRANCH  15  22
BRANCH  16  24
HETATM   24  O8  UNL     1      -9.136  49.811 -25.142  1.00  0.00    -0.388 OA
HETATM   25  H26 UNL     1      -9.151  50.042 -26.088  1.00  0.00     0.210 HD
ENDBRANCH  16  24
ENDBRANCH  10  11
ENDBRANCH   5  10
BRANCH   1  26
HETATM   26  C4  UNL     1      -1.589  51.243 -23.318  1.00  0.00     0.010 C 
HETATM   27  C3  UNL     1      -1.131  52.211 -24.130  1.00  0.00     0.003 C 
BRANCH  27  28
HETATM   28  C2  UNL     1       0.172  52.927 -23.934  1.00  0.00     0.136 C 
HETATM   29  C1  UNL     1       0.735  52.696 -22.540  1.00  0.00     0.043 C 
BRANCH  28  30
HETATM   30  O1  UNL     1       1.089  52.403 -24.885  1.00  0.00    -0.392 OA
HETATM   31  H5  UNL     1       0.721  52.601 -25.764  1.00  0.00     0.210 HD
ENDBRANCH  28  30
ENDBRANCH  27  28
ENDBRANCH   1  26
BRANCH   1  32
HETATM   32  O2  UNL     1      -3.394  50.849 -24.708  1.00  0.00    -0.385 OA
HETATM   33  H8  UNL     1      -2.695  50.639 -25.353  1.00  0.00     0.211 HD
ENDBRANCH   1  32
TORSDOF 11
ENDMDL
MODEL 8
REMARK minimizedAffinity -6.30816174
REMARK CNNscore 0.467701793
REMARK CNNaffinity 4.69079828
REMARK  11 active torsions:
REMARK  status: ('A' for Active; 'I' for Inactive)
REMARK    1  A    between atoms: C2_2  and  O1_3 
REMARK    2  A    between atoms: C2_2  and  C3_4 
REMARK    3  A    between atoms: C4_5  and  C5_6 
REMARK    4  A    between atoms: C5_6  and  O2_7 
REMARK    5  A    between atoms: C9_11  and  O3_12 
REMARK    6  A    between atoms: O3_12  and  C10_13 
REMARK    7  A    between atoms: C11_15  and  C12_16 
REMARK    8  A    between atoms: C12_16  and  O5_17 
REMARK    9  A    between atoms: C13_18  and  O6_19 
REMARK   10  A    between atoms: C14_20  and  O7_21 
REMARK   11  A    between atoms: C15_22  and  O8_23 
ROOT
HETATM    1  C5  UNL     1      -5.353  48.112 -22.137  1.00  0.00     0.086 C 
HETATM    2  C6  UNL     1      -6.221  46.818 -22.027  1.00  0.00     0.023 C 
HETATM    3  C7  UNL     1      -6.998  46.648 -20.714  1.00  0.00     0.013 C 
HETATM    4  C8  UNL     1      -7.190  46.688 -23.228  1.00  0.00     0.039 C 
HETATM    5  C9  UNL     1      -7.577  48.022 -23.881  1.00  0.00     0.126 C 
HETATM    6  C16 UNL     1      -7.626  49.148 -22.852  1.00  0.00     0.044 C 
HETATM    7  C17 UNL     1      -6.248  49.426 -22.180  1.00  0.00    -0.010 C 
HETATM    8  C18 UNL     1      -5.553  50.550 -22.994  1.00  0.00     0.018 C 
HETATM    9  C19 UNL     1      -6.519  50.010 -20.773  1.00  0.00     0.018 C 
ENDROOT
BRANCH   5  10
HETATM   10  O3  UNL     1      -8.886  47.864 -24.446  1.00  0.00    -0.353 OA
BRANCH  10  11
HETATM   11  C10 UNL     1      -8.970  46.735 -25.327  1.00  0.00     0.292 C 
HETATM   12  O4  UNL     1      -7.804  46.680 -26.157  1.00  0.00    -0.348 OA
HETATM   13  C11 UNL     1      -7.919  47.342 -27.433  1.00  0.00     0.179 C 
HETATM   14  C13 UNL     1      -8.851  48.553 -27.374  1.00  0.00     0.180 C 
HETATM   15  C14 UNL     1     -10.277  48.088 -27.020  1.00  0.00     0.183 C 
HETATM   16  C15 UNL     1     -10.296  46.851 -26.108  1.00  0.00     0.204 C 
BRANCH  13  17
HETATM   17  C12 UNL     1      -6.499  47.729 -27.868  1.00  0.00     0.198 C 
BRANCH  17  18
HETATM   18  O5  UNL     1      -5.749  48.182 -26.735  1.00  0.00    -0.398 OA
HETATM   19  H20 UNL     1      -6.354  48.778 -26.250  1.00  0.00     0.209 HD
ENDBRANCH  17  18
ENDBRANCH  13  17
BRANCH  14  20
HETATM   20  O6  UNL     1      -8.881  49.273 -28.609  1.00  0.00    -0.390 OA
HETATM   21  H22 UNL     1      -9.573  49.956 -28.514  1.00  0.00     0.210 HD
ENDBRANCH  14  20
BRANCH  15  22
HETATM   22  O7  UNL     1     -10.975  49.186 -26.406  1.00  0.00    -0.390 OA
HETATM   23  H24 UNL     1     -10.532  49.358 -25.553  1.00  0.00     0.210 HD
ENDBRANCH  15  22
BRANCH  16  24
HETATM   24  O8  UNL     1     -10.514  45.666 -26.886  1.00  0.00    -0.388 OA
HETATM   25  H26 UNL     1     -11.416  45.718 -27.250  1.00  0.00     0.210 HD
ENDBRANCH  16  24
ENDBRANCH  10  11
ENDBRANCH   5  10
BRANCH   1  26
HETATM   26  C4  UNL     1      -4.179  48.225 -21.176  1.00  0.00     0.010 C 
HETATM   27  C3  UNL     1      -3.142  47.385 -21.018  1.00  0.00     0.003 C 
BRANCH  27  28
HETATM   28  C2  UNL     1      -2.015  47.611 -20.055  1.00  0.00     0.136 C 
HETATM   29  C1  UNL     1      -0.806  48.227 -20.742  1.00  0.00     0.043 C 
BRANCH  28  30
HETATM   30  O1  UNL     1      -2.482  48.516 -19.064  1.00  0.00    -0.392 OA
HETATM   31  H5  UNL     1      -3.228  48.078 -18.618  1.00  0.00     0.210 HD
ENDBRANCH  28  30
ENDBRANCH  27  28
ENDBRANCH   1  26
BRANCH   1  32
HETATM   32  O2  UNL     1      -4.695  47.999 -23.418  1.00  0.00    -0.385 OA
HETATM   33  H8  UNL     1      -4.074  47.251 -23.360  1.00  0.00     0.211 HD
ENDBRANCH   1  32
TORSDOF 11
ENDMDL
MODEL 9
REMARK minimizedAffinity -6.52295685
REMARK CNNscore 0.460441023
REMARK CNNaffinity 4.95759773
REMARK  11 active torsions:
REMARK  status: ('A' for Active; 'I' for Inactive)
REMARK    1  A    between atoms: C2_2  and  O1_3 
REMARK    2  A    between atoms: C2_2  and  C3_4 
REMARK    3  A    between atoms: C4_5  and  C5_6 
REMARK    4  A    between atoms: C5_6  and  O2_7 
REMARK    5  A    between atoms: C9_11  and  O3_12 
REMARK    6  A    between atoms: O3_12  and  C10_13 
REMARK    7  A    between atoms: C11_15  and  C12_16 
REMARK    8  A    between atoms: C12_16  and  O5_17 
REMARK    9  A    between atoms: C13_18  and  O6_19 
REMARK   10  A    between atoms: C14_20  and  O7_21 
REMARK   11  A    between atoms: C15_22  and  O8_23 
ROOT
HETATM    1  C5  UNL     1      -7.566  47.469 -30.050  1.00  0.00     0.086 C 
HETATM    2  C6  UNL     1      -8.865  48.279 -30.362  1.00  0.00     0.023 C 
HETATM    3  C7  UNL     1      -8.650  49.699 -30.904  1.00  0.00     0.013 C 
HETATM    4  C8  UNL     1      -9.801  47.493 -31.313  1.00  0.00     0.039 C 
HETATM    5  C9  UNL     1      -9.084  46.486 -32.223  1.00  0.00     0.126 C 
HETATM    6  C16 UNL     1      -7.688  46.974 -32.598  1.00  0.00     0.044 C 
HETATM    7  C17 UNL     1      -6.743  47.134 -31.369  1.00  0.00    -0.010 C 
HETATM    8  C18 UNL     1      -5.955  45.806 -31.214  1.00  0.00     0.018 C 
HETATM    9  C19 UNL     1      -5.700  48.223 -31.714  1.00  0.00     0.018 C 
ENDROOT
BRANCH   5  10
HETATM   10  O3  UNL     1      -9.859  46.358 -33.423  1.00  0.00    -0.353 OA
BRANCH  10  11
HETATM   11  C10 UNL     1      -9.145  45.684 -34.468  1.00  0.00     0.292 C 
HETATM   12  O4  UNL     1      -8.994  46.558 -35.593  1.00  0.00    -0.348 OA
HETATM   13  C11 UNL     1     -10.022  46.456 -36.600  1.00  0.00     0.179 C 
HETATM   14  C13 UNL     1     -11.380  46.082 -36.004  1.00  0.00     0.180 C 
HETATM   15  C14 UNL     1     -11.292  44.683 -35.361  1.00  0.00     0.183 C 
HETATM   16  C15 UNL     1      -9.900  44.376 -34.782  1.00  0.00     0.204 C 
BRANCH  13  17
HETATM   17  C12 UNL     1     -10.067  47.805 -37.333  1.00  0.00     0.198 C 
BRANCH  17  18
HETATM   18  O5  UNL     1      -8.942  48.604 -36.954  1.00  0.00    -0.398 OA
HETATM   19  H20 UNL     1      -8.879  48.512 -35.981  1.00  0.00     0.209 HD
ENDBRANCH  17  18
ENDBRANCH  13  17
BRANCH  14  20
HETATM   20  O6  UNL     1     -12.421  46.087 -36.984  1.00  0.00    -0.390 OA
HETATM   21  H22 UNL     1     -13.218  45.737 -36.541  1.00  0.00     0.210 HD
ENDBRANCH  14  20
BRANCH  15  22
HETATM   22  O7  UNL     1     -12.302  44.585 -34.342  1.00  0.00    -0.390 OA
HETATM   23  H24 UNL     1     -12.054  45.217 -33.639  1.00  0.00     0.210 HD
ENDBRANCH  15  22
BRANCH  16  24
HETATM   24  O8  UNL     1      -9.145  43.580 -35.706  1.00  0.00    -0.388 OA
HETATM   25  H26 UNL     1      -9.583  42.713 -35.769  1.00  0.00     0.210 HD
ENDBRANCH  16  24
ENDBRANCH  10  11
ENDBRANCH   5  10
BRANCH   1  26
HETATM   26  C4  UNL     1      -6.691  47.999 -28.924  1.00  0.00     0.010 C 
HETATM   27  C3  UNL     1      -5.352  47.967 -28.816  1.00  0.00     0.003 C 
BRANCH  27  28
HETATM   28  C2  UNL     1      -4.585  48.553 -27.668  1.00  0.00     0.136 C 
HETATM   29  C1  UNL     1      -5.144  48.095 -26.329  1.00  0.00     0.043 C 
BRANCH  28  30
HETATM   30  O1  UNL     1      -3.245  48.096 -27.780  1.00  0.00    -0.392 OA
HETATM   31  H5  UNL     1      -2.905  48.437 -28.625  1.00  0.00     0.210 HD
ENDBRANCH  28  30
ENDBRANCH  27  28
ENDBRANCH   1  26
BRANCH   1  32
HETATM   32  O2  UNL     1      -8.042  46.216 -29.510  1.00  0.00    -0.385 OA
HETATM   33  H8  UNL     1      -8.461  46.411 -28.653  1.00  0.00     0.211 HD
ENDBRANCH   1  32
TORSDOF 11
ENDMDL
