MODEL 1
REMARK minimizedAffinity -8.00100899
REMARK CNNscore 0.364457279
REMARK CNNaffinity 6.74857855
REMARK  13 active torsions:
REMARK  status: ('A' for Active; 'I' for Inactive)
REMARK    1  A    between atoms: C2_2  and  C3_3 
REMARK    2  A    between atoms: C2_2  and  C14_14 
REMARK    3  A    between atoms: C4_4  and  C5_5 
REMARK    4  A    between atoms: C6_6  and  C8_8 
REMARK    5  A    between atoms: C8_8  and  C9_9 
REMARK    6  A    between atoms: C9_9  and  C10_10 
REMARK    7  A    between atoms: C18_18  and  O1_19 
REMARK    8  A    between atoms: C19_20  and  C20_21 
REMARK    9  A    between atoms: C20_21  and  C21_22 
REMARK   10  A    between atoms: C21_22  and  C22_23 
REMARK   11  A    between atoms: C22_23  and  O2_24 
REMARK   12  A    between atoms: C24_26  and  C26_28 
REMARK   13  A    between atoms: C29_32  and  O4_34 
ROOT
HETATM    1  C14 UNL     1      -3.615   6.049  12.828  1.00  0.00     0.047 C 
HETATM    2  C15 UNL     1      -3.927   7.174  13.826  1.00  0.00     0.013 C 
HETATM    3  C16 UNL     1      -2.641   7.443  14.605  1.00  0.00     0.017 C 
HETATM    4  C17 UNL     1      -1.458   6.924  13.745  1.00  0.00     0.024 C 
HETATM    5  C18 UNL     1      -2.161   5.627  13.171  1.00  0.00     0.138 C 
HETATM    6  C19 UNL     1      -1.047   7.889  12.540  1.00  0.00     0.029 C 
HETATM    7  C23 UNL     1       0.327   7.625  11.881  1.00  0.00    -0.066 C 
HETATM    8  C24 UNL     1       0.593   7.830  10.560  1.00  0.00    -0.021 C 
HETATM    9  C25 UNL     1       1.950   7.680   9.913  1.00  0.00     0.052 C 
HETATM   10  C27 UNL     1       1.409   7.051  12.785  1.00  0.00     0.038 C 
HETATM   11  C28 UNL     1       0.922   6.017  13.788  1.00  0.00     0.042 C 
HETATM   12  C29 UNL     1      -0.234   6.524  14.650  1.00  0.00     0.065 C 
HETATM   13  C30 UNL     1       0.273   7.623  15.596  1.00  0.00     0.047 C 
ENDROOT
BRANCH   5  14
HETATM   14  O1  UNL     1      -1.520   5.110  12.009  1.00  0.00    -0.394 OA
HETATM   15  H26 UNL     1      -2.007   4.307  11.752  1.00  0.00     0.210 HD
ENDBRANCH   5  14
BRANCH   6  16
HETATM   16  C20 UNL     1      -1.399   9.408  12.650  1.00  0.00     0.012 C 
BRANCH  16  17
HETATM   17  C21 UNL     1      -1.717  10.060  13.991  1.00  0.00     0.027 C 
BRANCH  17  18
HETATM   18  C22 UNL     1      -0.750  11.159  14.408  1.00  0.00     0.164 C 
BRANCH  18  19
HETATM   19  O2  UNL     1      -1.179  12.399  13.858  1.00  0.00    -0.401 OA
HETATM   20  H34 UNL     1      -2.049  12.606  14.240  1.00  0.00     0.209 HD
ENDBRANCH  18  19
ENDBRANCH  17  18
ENDBRANCH  16  17
ENDBRANCH   6  16
BRANCH  12  21
HETATM   21  O4  UNL     1      -0.589   5.426  15.514  1.00  0.00    -0.389 OA
HETATM   22  H46 UNL     1      -1.037   5.772  16.304  1.00  0.00     0.210 HD
ENDBRANCH  12  21
BRANCH   1  23
HETATM   23  C2  UNL     1      -4.702   4.970  12.798  1.00  0.00    -0.061 C 
HETATM   24  C1  UNL     1      -4.577   3.801  12.142  1.00  0.00     0.019 C 
BRANCH  23  25
HETATM   25  C3  UNL     1      -5.967   5.213  13.500  1.00  0.00     0.007 C 
HETATM   26  C4  UNL     1      -6.940   6.073  13.154  1.00  0.00     0.001 C 
BRANCH  26  27
HETATM   27  C5  UNL     1      -8.157   6.228  13.926  1.00  0.00     0.002 C 
HETATM   28  C6  UNL     1      -8.339   7.015  15.004  1.00  0.00    -0.084 C 
HETATM   29  C7  UNL     1      -7.284   7.871  15.658  1.00  0.00     0.043 C 
BRANCH  28  30
HETATM   30  C8  UNL     1      -9.699   7.060  15.685  1.00  0.00     0.037 C 
BRANCH  30  31
HETATM   31  C9  UNL     1     -10.545   8.260  15.240  1.00  0.00     0.031 C 
BRANCH  31  32
HETATM   32  C10 UNL     1     -11.883   7.823  14.705  1.00  0.00    -0.024 C 
HETATM   33  C11 UNL     1     -12.186   7.459  13.444  1.00  0.00    -0.091 C 
HETATM   34  C12 UNL     1     -13.575   6.999  13.089  1.00  0.00     0.042 C 
HETATM   35  C13 UNL     1     -11.225   7.473  12.287  1.00  0.00     0.042 C 
ENDBRANCH  31  32
ENDBRANCH  30  31
ENDBRANCH  28  30
ENDBRANCH  26  27
ENDBRANCH  23  25
ENDBRANCH   1  23
BRANCH   8  36
HETATM   36  C26 UNL     1      -0.453   8.253   9.569  1.00  0.00     0.265 C 
HETATM   37  O3  UNL     1      -0.263   9.121   8.724  1.00  0.00    -0.302 OA
ENDBRANCH   8  36
TORSDOF 13
ENDMDL
MODEL 2
REMARK minimizedAffinity -6.29398394
REMARK CNNscore 0.347731143
REMARK CNNaffinity 5.55730486
REMARK  13 active torsions:
REMARK  status: ('A' for Active; 'I' for Inactive)
REMARK    1  A    between atoms: C2_2  and  C3_3 
REMARK    2  A    between atoms: C2_2  and  C14_14 
REMARK    3  A    between atoms: C4_4  and  C5_5 
REMARK    4  A    between atoms: C6_6  and  C8_8 
REMARK    5  A    between atoms: C8_8  and  C9_9 
REMARK    6  A    between atoms: C9_9  and  C10_10 
REMARK    7  A    between atoms: C18_18  and  O1_19 
REMARK    8  A    between atoms: C19_20  and  C20_21 
REMARK    9  A    between atoms: C20_21  and  C21_22 
REMARK   10  A    between atoms: C21_22  and  C22_23 
REMARK   11  A    between atoms: C22_23  and  O2_24 
REMARK   12  A    between atoms: C24_26  and  C26_28 
REMARK   13  A    between atoms: C29_32  and  O4_34 
ROOT
HETATM    1  C14 UNL     1       2.259  10.216  20.320  1.00  0.00     0.047 C 
HETATM    2  C15 UNL     1       0.875  10.777  20.679  1.00  0.00     0.013 C 
HETATM    3  C16 UNL     1       0.633  11.976  19.765  1.00  0.00     0.017 C 
HETATM    4  C17 UNL     1       1.553  11.810  18.526  1.00  0.00     0.024 C 
HETATM    5  C18 UNL     1       2.816  11.217  19.272  1.00  0.00     0.138 C 
HETATM    6  C19 UNL     1       1.022  10.755  17.448  1.00  0.00     0.029 C 
HETATM    7  C23 UNL     1       1.679  10.807  16.049  1.00  0.00    -0.066 C 
HETATM    8  C24 UNL     1       1.876   9.715  15.257  1.00  0.00    -0.021 C 
HETATM    9  C25 UNL     1       2.419   9.751  13.847  1.00  0.00     0.052 C 
HETATM   10  C27 UNL     1       2.169  12.170  15.585  1.00  0.00     0.038 C 
HETATM   11  C28 UNL     1       2.805  13.024  16.671  1.00  0.00     0.042 C 
HETATM   12  C29 UNL     1       1.901  13.206  17.890  1.00  0.00     0.065 C 
HETATM   13  C30 UNL     1       0.694  14.078  17.511  1.00  0.00     0.047 C 
ENDROOT
BRANCH   5  14
HETATM   14  O1  UNL     1       3.721  10.550  18.399  1.00  0.00    -0.394 OA
HETATM   15  H26 UNL     1       4.469  10.247  18.944  1.00  0.00     0.210 HD
ENDBRANCH   5  14
BRANCH   6  16
HETATM   16  C20 UNL     1      -0.509  10.445  17.402  1.00  0.00     0.012 C 
BRANCH  16  17
HETATM   17  C21 UNL     1      -1.550  11.507  17.737  1.00  0.00     0.027 C 
BRANCH  17  18
HETATM   18  C22 UNL     1      -2.813  10.972  18.397  1.00  0.00     0.164 C 
BRANCH  18  19
HETATM   19  O2  UNL     1      -2.732   9.555  18.494  1.00  0.00    -0.401 OA
HETATM   20  H34 UNL     1      -1.979   9.340  19.070  1.00  0.00     0.209 HD
ENDBRANCH  18  19
ENDBRANCH  17  18
ENDBRANCH  16  17
ENDBRANCH   6  16
BRANCH  12  21
HETATM   21  O4  UNL     1       2.657  14.005  18.822  1.00  0.00    -0.389 OA
HETATM   22  H46 UNL     1       2.045  14.454  19.429  1.00  0.00     0.210 HD
ENDBRANCH  12  21
BRANCH   1  23
HETATM   23  C2  UNL     1       3.108   9.903  21.556  1.00  0.00    -0.061 C 
HETATM   24  C1  UNL     1       2.726   9.058  22.531  1.00  0.00     0.019 C 
BRANCH  23  25
HETATM   25  C3  UNL     1       4.406  10.569  21.716  1.00  0.00     0.007 C 
HETATM   26  C4  UNL     1       4.895  11.148  22.826  1.00  0.00     0.001 C 
BRANCH  26  27
HETATM   27  C5  UNL     1       6.200  11.777  22.868  1.00  0.00     0.002 C 
HETATM   28  C6  UNL     1       6.464  13.090  23.014  1.00  0.00    -0.084 C 
HETATM   29  C7  UNL     1       5.435  14.188  23.116  1.00  0.00     0.043 C 
BRANCH  28  30
HETATM   30  C8  UNL     1       7.907  13.571  23.050  1.00  0.00     0.037 C 
BRANCH  30  31
HETATM   31  C9  UNL     1       8.037  15.014  23.554  1.00  0.00     0.031 C 
BRANCH  31  32
HETATM   32  C10 UNL     1       8.826  15.864  22.594  1.00  0.00    -0.024 C 
HETATM   33  C11 UNL     1       9.622  16.912  22.885  1.00  0.00    -0.091 C 
HETATM   34  C12 UNL     1      10.382  17.625  21.799  1.00  0.00     0.042 C 
HETATM   35  C13 UNL     1       9.836  17.475  24.263  1.00  0.00     0.042 C 
ENDBRANCH  31  32
ENDBRANCH  30  31
ENDBRANCH  28  30
ENDBRANCH  26  27
ENDBRANCH  23  25
ENDBRANCH   1  23
BRANCH   8  36
HETATM   36  C26 UNL     1       1.558   8.315  15.697  1.00  0.00     0.265 C 
HETATM   37  O3  UNL     1       2.164   7.741  16.596  1.00  0.00    -0.302 OA
ENDBRANCH   8  36
TORSDOF 13
ENDMDL
MODEL 3
REMARK minimizedAffinity -5.98874664
REMARK CNNscore 0.335520953
REMARK CNNaffinity 5.94706297
REMARK  13 active torsions:
REMARK  status: ('A' for Active; 'I' for Inactive)
REMARK    1  A    between atoms: C2_2  and  C3_3 
REMARK    2  A    between atoms: C2_2  and  C14_14 
REMARK    3  A    between atoms: C4_4  and  C5_5 
REMARK    4  A    between atoms: C6_6  and  C8_8 
REMARK    5  A    between atoms: C8_8  and  C9_9 
REMARK    6  A    between atoms: C9_9  and  C10_10 
REMARK    7  A    between atoms: C18_18  and  O1_19 
REMARK    8  A    between atoms: C19_20  and  C20_21 
REMARK    9  A    between atoms: C20_21  and  C21_22 
REMARK   10  A    between atoms: C21_22  and  C22_23 
REMARK   11  A    between atoms: C22_23  and  O2_24 
REMARK   12  A    between atoms: C24_26  and  C26_28 
REMARK   13  A    between atoms: C29_32  and  O4_34 
ROOT
HETATM    1  C14 UNL     1       5.306   8.696  12.451  1.00  0.00     0.047 C 
HETATM    2  C15 UNL     1       4.443   9.629  13.315  1.00  0.00     0.013 C 
HETATM    3  C16 UNL     1       5.206   9.856  14.618  1.00  0.00     0.017 C 
HETATM    4  C17 UNL     1       6.703   9.557  14.340  1.00  0.00     0.024 C 
HETATM    5  C18 UNL     1       6.501   8.322  13.370  1.00  0.00     0.138 C 
HETATM    6  C19 UNL     1       7.476  10.724  13.568  1.00  0.00     0.029 C 
HETATM    7  C23 UNL     1       9.021  10.657  13.583  1.00  0.00    -0.066 C 
HETATM    8  C24 UNL     1       9.814  11.083  12.559  1.00  0.00    -0.021 C 
HETATM    9  C25 UNL     1      11.324  11.126  12.589  1.00  0.00     0.052 C 
HETATM   10  C27 UNL     1       9.656  10.021  14.810  1.00  0.00     0.038 C 
HETATM   11  C28 UNL     1       8.915   8.813  15.361  1.00  0.00     0.042 C 
HETATM   12  C29 UNL     1       7.442   9.102  15.652  1.00  0.00     0.065 C 
HETATM   13  C30 UNL     1       7.333  10.070  16.840  1.00  0.00     0.047 C 
ENDROOT
BRANCH   5  14
HETATM   14  O1  UNL     1       7.649   8.037  12.578  1.00  0.00    -0.394 OA
HETATM   15  H26 UNL     1       7.434   7.254  12.041  1.00  0.00     0.210 HD
ENDBRANCH   5  14
BRANCH   6  16
HETATM   16  C20 UNL     1       6.919  12.180  13.672  1.00  0.00     0.012 C 
BRANCH  16  17
HETATM   17  C21 UNL     1       7.358  13.127  14.784  1.00  0.00     0.027 C 
BRANCH  17  18
HETATM   18  C22 UNL     1       6.318  14.166  15.180  1.00  0.00     0.164 C 
BRANCH  18  19
HETATM   19  O2  UNL     1       5.345  13.561  16.024  1.00  0.00    -0.401 OA
HETATM   20  H34 UNL     1       5.797  13.267  16.833  1.00  0.00     0.209 HD
ENDBRANCH  18  19
ENDBRANCH  17  18
ENDBRANCH  16  17
ENDBRANCH   6  16
BRANCH  12  21
HETATM   21  O4  UNL     1       6.888   7.861  16.133  1.00  0.00    -0.389 OA
HETATM   22  H46 UNL     1       6.096   8.049  16.666  1.00  0.00     0.210 HD
ENDBRANCH  12  21
BRANCH   1  23
HETATM   23  C2  UNL     1       4.495   7.566  11.811  1.00  0.00    -0.061 C 
HETATM   24  C1  UNL     1       5.047   6.509  11.188  1.00  0.00     0.019 C 
BRANCH  23  25
HETATM   25  C3  UNL     1       3.029   7.632  11.848  1.00  0.00     0.007 C 
HETATM   26  C4  UNL     1       2.161   6.649  11.557  1.00  0.00     0.001 C 
BRANCH  26  27
HETATM   27  C5  UNL     1       0.724   6.828  11.633  1.00  0.00     0.002 C 
HETATM   28  C6  UNL     1      -0.130   6.196  12.461  1.00  0.00    -0.084 C 
HETATM   29  C7  UNL     1       0.241   5.125  13.457  1.00  0.00     0.043 C 
BRANCH  28  30
HETATM   30  C8  UNL     1      -1.615   6.522  12.409  1.00  0.00     0.037 C 
BRANCH  30  31
HETATM   31  C9  UNL     1      -2.434   5.716  13.424  1.00  0.00     0.031 C 
BRANCH  31  32
HETATM   32  C10 UNL     1      -3.308   4.697  12.742  1.00  0.00    -0.024 C 
HETATM   33  C11 UNL     1      -4.651   4.596  12.799  1.00  0.00    -0.091 C 
HETATM   34  C12 UNL     1      -5.376   3.538  12.010  1.00  0.00     0.042 C 
HETATM   35  C13 UNL     1      -5.549   5.477  13.622  1.00  0.00     0.042 C 
ENDBRANCH  31  32
ENDBRANCH  30  31
ENDBRANCH  28  30
ENDBRANCH  26  27
ENDBRANCH  23  25
ENDBRANCH   1  23
BRANCH   8  36
HETATM   36  C26 UNL     1       9.267  11.587  11.254  1.00  0.00     0.265 C 
HETATM   37  O3  UNL     1       9.731  11.265  10.165  1.00  0.00    -0.302 OA
ENDBRANCH   8  36
TORSDOF 13
ENDMDL
MODEL 4
REMARK minimizedAffinity -6.6576376
REMARK CNNscore 0.311704934
REMARK CNNaffinity 6.0332737
REMARK  13 active torsions:
REMARK  status: ('A' for Active; 'I' for Inactive)
REMARK    1  A    between atoms: C2_2  and  C3_3 
REMARK    2  A    between atoms: C2_2  and  C14_14 
REMARK    3  A    between atoms: C4_4  and  C5_5 
REMARK    4  A    between atoms: C6_6  and  C8_8 
REMARK    5  A    between atoms: C8_8  and  C9_9 
REMARK    6  A    between atoms: C9_9  and  C10_10 
REMARK    7  A    between atoms: C18_18  and  O1_19 
REMARK    8  A    between atoms: C19_20  and  C20_21 
REMARK    9  A    between atoms: C20_21  and  C21_22 
REMARK   10  A    between atoms: C21_22  and  C22_23 
REMARK   11  A    between atoms: C22_23  and  O2_24 
REMARK   12  A    between atoms: C24_26  and  C26_28 
REMARK   13  A    between atoms: C29_32  and  O4_34 
ROOT
HETATM    1  C14 UNL     1       6.757   8.377  12.449  1.00  0.00     0.047 C 
HETATM    2  C15 UNL     1       5.650   9.353  12.875  1.00  0.00     0.013 C 
HETATM    3  C16 UNL     1       5.965   9.781  14.307  1.00  0.00     0.017 C 
HETATM    4  C17 UNL     1       7.480   9.541  14.541  1.00  0.00     0.024 C 
HETATM    5  C18 UNL     1       7.614   8.189  13.729  1.00  0.00     0.138 C 
HETATM    6  C19 UNL     1       8.431  10.652  13.894  1.00  0.00     0.029 C 
HETATM    7  C23 UNL     1       9.896  10.680  14.389  1.00  0.00    -0.066 C 
HETATM    8  C24 UNL     1      10.958  11.027  13.609  1.00  0.00    -0.021 C 
HETATM    9  C25 UNL     1      12.383  11.164  14.093  1.00  0.00     0.052 C 
HETATM   10  C27 UNL     1      10.131  10.236  15.825  1.00  0.00     0.038 C 
HETATM   11  C28 UNL     1       9.280   9.061  16.278  1.00  0.00     0.042 C 
HETATM   12  C29 UNL     1       7.784   9.293  16.065  1.00  0.00     0.065 C 
HETATM   13  C30 UNL     1       7.291  10.389  17.023  1.00  0.00     0.047 C 
ENDROOT
BRANCH   5  14
HETATM   14  O1  UNL     1       8.957   7.880  13.371  1.00  0.00    -0.394 OA
HETATM   15  H26 UNL     1       8.935   7.027  12.903  1.00  0.00     0.210 HD
ENDBRANCH   5  14
BRANCH   6  16
HETATM   16  C20 UNL     1       7.839  12.073  13.629  1.00  0.00     0.012 C 
BRANCH  16  17
HETATM   17  C21 UNL     1       7.402  12.510  12.235  1.00  0.00     0.027 C 
BRANCH  17  18
HETATM   18  C22 UNL     1       6.244  13.498  12.213  1.00  0.00     0.164 C 
BRANCH  18  19
HETATM   19  O2  UNL     1       5.049  12.818  11.846  1.00  0.00    -0.401 OA
HETATM   20  H34 UNL     1       4.863  12.155  12.532  1.00  0.00     0.209 HD
ENDBRANCH  18  19
ENDBRANCH  17  18
ENDBRANCH  16  17
ENDBRANCH   6  16
BRANCH  12  21
HETATM   21  O4  UNL     1       7.133   8.087  16.514  1.00  0.00    -0.389 OA
HETATM   22  H46 UNL     1       6.211   8.290  16.750  1.00  0.00     0.210 HD
ENDBRANCH  12  21
BRANCH   1  23
HETATM   23  C2  UNL     1       6.207   7.131  11.747  1.00  0.00    -0.061 C 
HETATM   24  C1  UNL     1       6.961   6.291  11.015  1.00  0.00     0.019 C 
BRANCH  23  25
HETATM   25  C3  UNL     1       4.774   6.830  11.849  1.00  0.00     0.007 C 
HETATM   26  C4  UNL     1       3.963   6.387  10.875  1.00  0.00     0.001 C 
BRANCH  26  27
HETATM   27  C5  UNL     1       2.555   6.118  11.093  1.00  0.00     0.002 C 
HETATM   28  C6  UNL     1       1.531   6.440  10.278  1.00  0.00    -0.084 C 
HETATM   29  C7  UNL     1       1.646   7.197   8.979  1.00  0.00     0.043 C 
BRANCH  28  30
HETATM   30  C8  UNL     1       0.109   6.064  10.666  1.00  0.00     0.037 C 
BRANCH  30  31
HETATM   31  C9  UNL     1       0.056   4.897  11.660  1.00  0.00     0.031 C 
BRANCH  31  32
HETATM   32  C10 UNL     1      -0.873   5.192  12.808  1.00  0.00    -0.024 C 
HETATM   33  C11 UNL     1      -2.186   4.903  12.898  1.00  0.00    -0.091 C 
HETATM   34  C12 UNL     1      -2.961   5.227  14.148  1.00  0.00     0.042 C 
HETATM   35  C13 UNL     1      -3.005   4.259  11.814  1.00  0.00     0.042 C 
ENDBRANCH  31  32
ENDBRANCH  30  31
ENDBRANCH  28  30
ENDBRANCH  26  27
ENDBRANCH  23  25
ENDBRANCH   1  23
BRANCH   8  36
HETATM   36  C26 UNL     1      10.834  11.336  12.144  1.00  0.00     0.265 C 
HETATM   37  O3  UNL     1      11.542  10.815  11.288  1.00  0.00    -0.302 OA
ENDBRANCH   8  36
TORSDOF 13
ENDMDL
MODEL 5
REMARK minimizedAffinity -8.45739555
REMARK CNNscore 0.310198694
REMARK CNNaffinity 6.14447021
REMARK  13 active torsions:
REMARK  status: ('A' for Active; 'I' for Inactive)
REMARK    1  A    between atoms: C2_2  and  C3_3 
REMARK    2  A    between atoms: C2_2  and  C14_14 
REMARK    3  A    between atoms: C4_4  and  C5_5 
REMARK    4  A    between atoms: C6_6  and  C8_8 
REMARK    5  A    between atoms: C8_8  and  C9_9 
REMARK    6  A    between atoms: C9_9  and  C10_10 
REMARK    7  A    between atoms: C18_18  and  O1_19 
REMARK    8  A    between atoms: C19_20  and  C20_21 
REMARK    9  A    between atoms: C20_21  and  C21_22 
REMARK   10  A    between atoms: C21_22  and  C22_23 
REMARK   11  A    between atoms: C22_23  and  O2_24 
REMARK   12  A    between atoms: C24_26  and  C26_28 
REMARK   13  A    between atoms: C29_32  and  O4_34 
ROOT
HETATM    1  C14 UNL     1      -1.794   9.995  16.836  1.00  0.00     0.047 C 
HETATM    2  C15 UNL     1      -0.720  10.739  16.028  1.00  0.00     0.013 C 
HETATM    3  C16 UNL     1       0.123   9.675  15.328  1.00  0.00     0.017 C 
HETATM    4  C17 UNL     1      -0.735   8.385  15.241  1.00  0.00     0.024 C 
HETATM    5  C18 UNL     1      -1.436   8.495  16.656  1.00  0.00     0.138 C 
HETATM    6  C19 UNL     1      -1.843   8.407  14.090  1.00  0.00     0.029 C 
HETATM    7  C23 UNL     1      -2.473   7.046  13.711  1.00  0.00    -0.066 C 
HETATM    8  C24 UNL     1      -3.763   6.890  13.300  1.00  0.00    -0.021 C 
HETATM    9  C25 UNL     1      -4.373   5.591  12.825  1.00  0.00     0.052 C 
HETATM   10  C27 UNL     1      -1.582   5.823  13.871  1.00  0.00     0.038 C 
HETATM   11  C28 UNL     1      -0.683   5.842  15.097  1.00  0.00     0.042 C 
HETATM   12  C29 UNL     1       0.177   7.103  15.184  1.00  0.00     0.065 C 
HETATM   13  C30 UNL     1       1.226   7.089  14.062  1.00  0.00     0.047 C 
ENDROOT
BRANCH   5  14
HETATM   14  O1  UNL     1      -2.613   7.701  16.762  1.00  0.00    -0.394 OA
HETATM   15  H26 UNL     1      -2.951   7.817  17.668  1.00  0.00     0.210 HD
ENDBRANCH   5  14
BRANCH   6  16
HETATM   16  C20 UNL     1      -1.623   9.350  12.863  1.00  0.00     0.012 C 
BRANCH  16  17
HETATM   17  C21 UNL     1      -1.425   8.798  11.456  1.00  0.00     0.027 C 
BRANCH  17  18
HETATM   18  C22 UNL     1       0.018   8.475  11.097  1.00  0.00     0.164 C 
BRANCH  18  19
HETATM   19  O2  UNL     1       0.279   8.892   9.762  1.00  0.00    -0.401 OA
HETATM   20  H34 UNL     1       0.171   9.858   9.728  1.00  0.00     0.209 HD
ENDBRANCH  18  19
ENDBRANCH  17  18
ENDBRANCH  16  17
ENDBRANCH   6  16
BRANCH  12  21
HETATM   21  O4  UNL     1       0.936   6.976  16.403  1.00  0.00    -0.389 OA
HETATM   22  H46 UNL     1       1.736   7.525  16.341  1.00  0.00     0.210 HD
ENDBRANCH  12  21
BRANCH   1  23
HETATM   23  C2  UNL     1      -1.949  10.544  18.257  1.00  0.00    -0.061 C 
HETATM   24  C1  UNL     1      -3.084  10.453  18.974  1.00  0.00     0.019 C 
BRANCH  23  25
HETATM   25  C3  UNL     1      -0.815  11.233  18.883  1.00  0.00     0.007 C 
HETATM   26  C4  UNL     1       0.050  10.730  19.781  1.00  0.00     0.001 C 
BRANCH  26  27
HETATM   27  C5  UNL     1       1.143  11.507  20.332  1.00  0.00     0.002 C 
HETATM   28  C6  UNL     1       2.160  11.053  21.090  1.00  0.00    -0.084 C 
HETATM   29  C7  UNL     1       2.339   9.632  21.562  1.00  0.00     0.043 C 
BRANCH  28  30
HETATM   30  C8  UNL     1       3.232  12.018  21.573  1.00  0.00     0.037 C 
BRANCH  30  31
HETATM   31  C9  UNL     1       3.767  11.661  22.965  1.00  0.00     0.031 C 
BRANCH  31  32
HETATM   32  C10 UNL     1       5.264  11.504  22.958  1.00  0.00    -0.024 C 
HETATM   33  C11 UNL     1       6.193  12.479  23.011  1.00  0.00    -0.091 C 
HETATM   34  C12 UNL     1       7.660  12.142  23.044  1.00  0.00     0.042 C 
HETATM   35  C13 UNL     1       5.897  13.953  23.034  1.00  0.00     0.042 C 
ENDBRANCH  31  32
ENDBRANCH  30  31
ENDBRANCH  28  30
ENDBRANCH  26  27
ENDBRANCH  23  25
ENDBRANCH   1  23
BRANCH   8  36
HETATM   36  C26 UNL     1      -4.752   8.019  13.256  1.00  0.00     0.265 C 
HETATM   37  O3  UNL     1      -4.967   8.758  14.210  1.00  0.00    -0.302 OA
ENDBRANCH   8  36
TORSDOF 13
ENDMDL
MODEL 6
REMARK minimizedAffinity -7.97148848
REMARK CNNscore 0.303900272
REMARK CNNaffinity 6.06355238
REMARK  13 active torsions:
REMARK  status: ('A' for Active; 'I' for Inactive)
REMARK    1  A    between atoms: C2_2  and  C3_3 
REMARK    2  A    between atoms: C2_2  and  C14_14 
REMARK    3  A    between atoms: C4_4  and  C5_5 
REMARK    4  A    between atoms: C6_6  and  C8_8 
REMARK    5  A    between atoms: C8_8  and  C9_9 
REMARK    6  A    between atoms: C9_9  and  C10_10 
REMARK    7  A    between atoms: C18_18  and  O1_19 
REMARK    8  A    between atoms: C19_20  and  C20_21 
REMARK    9  A    between atoms: C20_21  and  C21_22 
REMARK   10  A    between atoms: C21_22  and  C22_23 
REMARK   11  A    between atoms: C22_23  and  O2_24 
REMARK   12  A    between atoms: C24_26  and  C26_28 
REMARK   13  A    between atoms: C29_32  and  O4_34 
ROOT
HETATM    1  C14 UNL     1      -2.371   9.717  16.634  1.00  0.00     0.047 C 
HETATM    2  C15 UNL     1      -1.333  10.489  15.807  1.00  0.00     0.013 C 
HETATM    3  C16 UNL     1      -0.409   9.450  15.175  1.00  0.00     0.017 C 
HETATM    4  C17 UNL     1      -1.179   8.103  15.140  1.00  0.00     0.024 C 
HETATM    5  C18 UNL     1      -1.913   8.236  16.536  1.00  0.00     0.138 C 
HETATM    6  C19 UNL     1      -2.264   7.994  13.971  1.00  0.00     0.029 C 
HETATM    7  C23 UNL     1      -2.796   6.578  13.652  1.00  0.00    -0.066 C 
HETATM    8  C24 UNL     1      -4.065   6.316  13.229  1.00  0.00    -0.021 C 
HETATM    9  C25 UNL     1      -4.579   4.958  12.811  1.00  0.00     0.052 C 
HETATM   10  C27 UNL     1      -1.830   5.426  13.888  1.00  0.00     0.038 C 
HETATM   11  C28 UNL     1      -0.959   5.565  15.126  1.00  0.00     0.042 C 
HETATM   12  C29 UNL     1      -0.185   6.883  15.163  1.00  0.00     0.065 C 
HETATM   13  C30 UNL     1       0.885   6.883  14.059  1.00  0.00     0.047 C 
ENDROOT
BRANCH   5  14
HETATM   14  O1  UNL     1      -3.037   7.373  16.663  1.00  0.00    -0.394 OA
HETATM   15  H26 UNL     1      -3.399   7.510  17.556  1.00  0.00     0.210 HD
ENDBRANCH   5  14
BRANCH   6  16
HETATM   16  C20 UNL     1      -2.082   8.888  12.702  1.00  0.00     0.012 C 
BRANCH  16  17
HETATM   17  C21 UNL     1      -0.714   9.099  12.062  1.00  0.00     0.027 C 
BRANCH  17  18
HETATM   18  C22 UNL     1      -0.532   8.417  10.714  1.00  0.00     0.164 C 
BRANCH  18  19
HETATM   19  O2  UNL     1      -0.398   7.013  10.909  1.00  0.00    -0.401 OA
HETATM   20  H34 UNL     1      -1.227   6.688  11.299  1.00  0.00     0.209 HD
ENDBRANCH  18  19
ENDBRANCH  17  18
ENDBRANCH  16  17
ENDBRANCH   6  16
BRANCH  12  21
HETATM   21  O4  UNL     1       0.558   6.867  16.398  1.00  0.00    -0.389 OA
HETATM   22  H46 UNL     1       1.321   7.465  16.321  1.00  0.00     0.210 HD
ENDBRANCH  12  21
BRANCH   1  23
HETATM   23  C2  UNL     1      -2.589  10.324  18.023  1.00  0.00    -0.061 C 
HETATM   24  C1  UNL     1      -3.782  10.759  18.470  1.00  0.00     0.019 C 
BRANCH  23  25
HETATM   25  C3  UNL     1      -1.442  10.470  18.925  1.00  0.00     0.007 C 
HETATM   26  C4  UNL     1      -0.577  11.497  18.986  1.00  0.00     0.001 C 
BRANCH  26  27
HETATM   27  C5  UNL     1       0.525  11.535  19.927  1.00  0.00     0.002 C 
HETATM   28  C6  UNL     1       1.121  12.632  20.434  1.00  0.00    -0.084 C 
HETATM   29  C7  UNL     1       0.784  14.059  20.083  1.00  0.00     0.043 C 
BRANCH  28  30
HETATM   30  C8  UNL     1       2.263  12.480  21.427  1.00  0.00     0.037 C 
BRANCH  30  31
HETATM   31  C9  UNL     1       3.263  11.392  21.017  1.00  0.00     0.031 C 
BRANCH  31  32
HETATM   32  C10 UNL     1       2.749  10.017  21.351  1.00  0.00    -0.024 C 
HETATM   33  C11 UNL     1       2.770   9.400  22.549  1.00  0.00    -0.091 C 
HETATM   34  C12 UNL     1       2.164   8.032  22.720  1.00  0.00     0.042 C 
HETATM   35  C13 UNL     1       3.378   9.967  23.802  1.00  0.00     0.042 C 
ENDBRANCH  31  32
ENDBRANCH  30  31
ENDBRANCH  28  30
ENDBRANCH  26  27
ENDBRANCH  23  25
ENDBRANCH   1  23
BRANCH   8  36
HETATM   36  C26 UNL     1      -5.125   7.374  13.112  1.00  0.00     0.265 C 
HETATM   37  O3  UNL     1      -6.128   7.397  13.817  1.00  0.00    -0.302 OA
ENDBRANCH   8  36
TORSDOF 13
ENDMDL
MODEL 7
REMARK minimizedAffinity -5.97515488
REMARK CNNscore 0.297116369
REMARK CNNaffinity 5.61645937
REMARK  13 active torsions:
REMARK  status: ('A' for Active; 'I' for Inactive)
REMARK    1  A    between atoms: C2_2  and  C3_3 
REMARK    2  A    between atoms: C2_2  and  C14_14 
REMARK    3  A    between atoms: C4_4  and  C5_5 
REMARK    4  A    between atoms: C6_6  and  C8_8 
REMARK    5  A    between atoms: C8_8  and  C9_9 
REMARK    6  A    between atoms: C9_9  and  C10_10 
REMARK    7  A    between atoms: C18_18  and  O1_19 
REMARK    8  A    between atoms: C19_20  and  C20_21 
REMARK    9  A    between atoms: C20_21  and  C21_22 
REMARK   10  A    between atoms: C21_22  and  C22_23 
REMARK   11  A    between atoms: C22_23  and  O2_24 
REMARK   12  A    between atoms: C24_26  and  C26_28 
REMARK   13  A    between atoms: C29_32  and  O4_34 
ROOT
HETATM    1  C14 UNL     1       2.858  12.377  19.116  1.00  0.00     0.047 C 
HETATM    2  C15 UNL     1       1.608  12.687  19.955  1.00  0.00     0.013 C 
HETATM    3  C16 UNL     1       1.638  11.743  21.156  1.00  0.00     0.017 C 
HETATM    4  C17 UNL     1       3.108  11.287  21.354  1.00  0.00     0.024 C 
HETATM    5  C18 UNL     1       3.502  11.156  19.826  1.00  0.00     0.138 C 
HETATM    6  C19 UNL     1       4.045  12.374  22.058  1.00  0.00     0.029 C 
HETATM    7  C23 UNL     1       5.397  11.865  22.610  1.00  0.00    -0.066 C 
HETATM    8  C24 UNL     1       6.538  12.609  22.641  1.00  0.00    -0.021 C 
HETATM    9  C25 UNL     1       7.843  12.175  23.268  1.00  0.00     0.052 C 
HETATM   10  C27 UNL     1       5.429  10.422  23.092  1.00  0.00     0.038 C 
HETATM   11  C28 UNL     1       4.627   9.447  22.244  1.00  0.00     0.042 C 
HETATM   12  C29 UNL     1       3.173   9.880  22.055  1.00  0.00     0.065 C 
HETATM   13  C30 UNL     1       2.426   9.775  23.394  1.00  0.00     0.047 C 
ENDROOT
BRANCH   5  14
HETATM   14  O1  UNL     1       4.908  11.156  19.608  1.00  0.00    -0.394 OA
HETATM   15  H26 UNL     1       5.046  11.046  18.650  1.00  0.00     0.210 HD
ENDBRANCH   5  14
BRANCH   6  16
HETATM   16  C20 UNL     1       3.377  13.459  22.961  1.00  0.00     0.012 C 
BRANCH  16  17
HETATM   17  C21 UNL     1       3.638  14.947  22.752  1.00  0.00     0.027 C 
BRANCH  17  18
HETATM   18  C22 UNL     1       2.677  15.631  21.790  1.00  0.00     0.164 C 
BRANCH  18  19
HETATM   19  O2  UNL     1       1.339  15.393  22.212  1.00  0.00    -0.401 OA
HETATM   20  H34 UNL     1       1.227  15.802  23.087  1.00  0.00     0.209 HD
ENDBRANCH  18  19
ENDBRANCH  17  18
ENDBRANCH  16  17
ENDBRANCH   6  16
BRANCH  12  21
HETATM   21  O4  UNL     1       2.571   8.875  21.215  1.00  0.00    -0.389 OA
HETATM   22  H46 UNL     1       1.608   8.878  21.351  1.00  0.00     0.210 HD
ENDBRANCH  12  21
BRANCH   1  23
HETATM   23  C2  UNL     1       2.552  12.275  17.619  1.00  0.00    -0.061 C 
HETATM   24  C1  UNL     1       2.776  13.270  16.740  1.00  0.00     0.019 C 
BRANCH  23  25
HETATM   25  C3  UNL     1       1.961  11.038  17.095  1.00  0.00     0.007 C 
HETATM   26  C4  UNL     1       0.684  10.636  17.201  1.00  0.00     0.001 C 
BRANCH  26  27
HETATM   27  C5  UNL     1       0.209   9.388  16.637  1.00  0.00     0.002 C 
HETATM   28  C6  UNL     1      -1.054   9.091  16.272  1.00  0.00    -0.084 C 
HETATM   29  C7  UNL     1      -2.250   9.997  16.425  1.00  0.00     0.043 C 
BRANCH  28  30
HETATM   30  C8  UNL     1      -1.368   7.725  15.682  1.00  0.00     0.037 C 
BRANCH  30  31
HETATM   31  C9  UNL     1      -2.830   7.310  15.893  1.00  0.00     0.031 C 
BRANCH  31  32
HETATM   32  C10 UNL     1      -3.198   6.129  15.035  1.00  0.00    -0.024 C 
HETATM   33  C11 UNL     1      -3.838   6.141  13.849  1.00  0.00    -0.091 C 
HETATM   34  C12 UNL     1      -4.084   4.861  13.096  1.00  0.00     0.042 C 
HETATM   35  C13 UNL     1      -4.369   7.372  13.168  1.00  0.00     0.042 C 
ENDBRANCH  31  32
ENDBRANCH  30  31
ENDBRANCH  28  30
ENDBRANCH  26  27
ENDBRANCH  23  25
ENDBRANCH   1  23
BRANCH   8  36
HETATM   36  C26 UNL     1       6.634  13.988  22.052  1.00  0.00     0.265 C 
HETATM   37  O3  UNL     1       6.729  14.196  20.847  1.00  0.00    -0.302 OA
ENDBRANCH   8  36
TORSDOF 13
ENDMDL
MODEL 8
REMARK minimizedAffinity -6.31767321
REMARK CNNscore 0.277230024
REMARK CNNaffinity 5.45311737
REMARK  13 active torsions:
REMARK  status: ('A' for Active; 'I' for Inactive)
REMARK    1  A    between atoms: C2_2  and  C3_3 
REMARK    2  A    between atoms: C2_2  and  C14_14 
REMARK    3  A    between atoms: C4_4  and  C5_5 
REMARK    4  A    between atoms: C6_6  and  C8_8 
REMARK    5  A    between atoms: C8_8  and  C9_9 
REMARK    6  A    between atoms: C9_9  and  C10_10 
REMARK    7  A    between atoms: C18_18  and  O1_19 
REMARK    8  A    between atoms: C19_20  and  C20_21 
REMARK    9  A    between atoms: C20_21  and  C21_22 
REMARK   10  A    between atoms: C21_22  and  C22_23 
REMARK   11  A    between atoms: C22_23  and  O2_24 
REMARK   12  A    between atoms: C24_26  and  C26_28 
REMARK   13  A    between atoms: C29_32  and  O4_34 
ROOT
HETATM    1  C14 UNL     1     -16.921   1.292  15.373  1.00  0.00     0.047 C 
HETATM    2  C15 UNL     1     -18.317   0.779  15.760  1.00  0.00     0.013 C 
HETATM    3  C16 UNL     1     -18.841  -0.017  14.566  1.00  0.00     0.017 C 
HETATM    4  C17 UNL     1     -17.614  -0.459  13.726  1.00  0.00     0.024 C 
HETATM    5  C18 UNL     1     -16.752   0.858  13.892  1.00  0.00     0.138 C 
HETATM    6  C19 UNL     1     -16.814  -1.704  14.332  1.00  0.00     0.029 C 
HETATM    7  C23 UNL     1     -15.824  -2.417  13.382  1.00  0.00    -0.066 C 
HETATM    8  C24 UNL     1     -14.660  -2.998  13.788  1.00  0.00    -0.021 C 
HETATM    9  C25 UNL     1     -13.728  -3.790  12.901  1.00  0.00     0.052 C 
HETATM   10  C27 UNL     1     -16.181  -2.403  11.903  1.00  0.00     0.038 C 
HETATM   11  C28 UNL     1     -16.789  -1.102  11.404  1.00  0.00     0.042 C 
HETATM   12  C29 UNL     1     -18.008  -0.665  12.216  1.00  0.00     0.065 C 
HETATM   13  C30 UNL     1     -19.170  -1.639  11.965  1.00  0.00     0.047 C 
ENDROOT
BRANCH   5  14
HETATM   14  O1  UNL     1     -15.372   0.666  13.599  1.00  0.00    -0.394 OA
HETATM   15  H26 UNL     1     -14.938   1.531  13.704  1.00  0.00     0.210 HD
ENDBRANCH   5  14
BRANCH   6  16
HETATM   16  C20 UNL     1     -17.573  -2.682  15.285  1.00  0.00     0.012 C 
BRANCH  16  17
HETATM   17  C21 UNL     1     -17.099  -2.938  16.711  1.00  0.00     0.027 C 
BRANCH  17  18
HETATM   18  C22 UNL     1     -16.629  -1.697  17.456  1.00  0.00     0.164 C 
BRANCH  18  19
HETATM   19  O2  UNL     1     -16.476  -2.004  18.837  1.00  0.00    -0.401 OA
HETATM   20  H34 UNL     1     -15.780  -2.679  18.914  1.00  0.00     0.209 HD
ENDBRANCH  18  19
ENDBRANCH  17  18
ENDBRANCH  16  17
ENDBRANCH   6  16
BRANCH  12  21
HETATM   21  O4  UNL     1     -18.438   0.583  11.637  1.00  0.00    -0.389 OA
HETATM   22  H46 UNL     1     -19.377   0.725  11.844  1.00  0.00     0.210 HD
ENDBRANCH  12  21
BRANCH   1  23
HETATM   23  C2  UNL     1     -16.714   2.766  15.731  1.00  0.00    -0.061 C 
HETATM   24  C1  UNL     1     -17.464   3.430  16.631  1.00  0.00     0.019 C 
BRANCH  23  25
HETATM   25  C3  UNL     1     -15.658   3.524  15.050  1.00  0.00     0.007 C 
HETATM   26  C4  UNL     1     -15.520   4.859  14.991  1.00  0.00     0.001 C 
BRANCH  26  27
HETATM   27  C5  UNL     1     -14.427   5.500  14.287  1.00  0.00     0.002 C 
HETATM   28  C6  UNL     1     -14.443   6.709  13.692  1.00  0.00    -0.084 C 
HETATM   29  C7  UNL     1     -15.635   7.628  13.600  1.00  0.00     0.043 C 
BRANCH  28  30
HETATM   30  C8  UNL     1     -13.189   7.231  13.007  1.00  0.00     0.037 C 
BRANCH  30  31
HETATM   31  C9  UNL     1     -12.039   7.485  13.989  1.00  0.00     0.031 C 
BRANCH  31  32
HETATM   32  C10 UNL     1     -10.807   6.709  13.608  1.00  0.00    -0.024 C 
HETATM   33  C11 UNL     1      -9.552   6.878  14.071  1.00  0.00    -0.091 C 
HETATM   34  C12 UNL     1      -8.437   5.975  13.617  1.00  0.00     0.042 C 
HETATM   35  C13 UNL     1      -9.128   7.942  15.046  1.00  0.00     0.042 C 
ENDBRANCH  31  32
ENDBRANCH  30  31
ENDBRANCH  28  30
ENDBRANCH  26  27
ENDBRANCH  23  25
ENDBRANCH   1  23
BRANCH   8  36
HETATM   36  C26 UNL     1     -14.160  -2.930  15.203  1.00  0.00     0.265 C 
HETATM   37  O3  UNL     1     -13.013  -3.224  15.522  1.00  0.00    -0.302 OA
ENDBRANCH   8  36
TORSDOF 13
ENDMDL
MODEL 9
REMARK minimizedAffinity -7.96222353
REMARK CNNscore 0.274303705
REMARK CNNaffinity 6.4123702
REMARK  13 active torsions:
REMARK  status: ('A' for Active; 'I' for Inactive)
REMARK    1  A    between atoms: C2_2  and  C3_3 
REMARK    2  A    between atoms: C2_2  and  C14_14 
REMARK    3  A    between atoms: C4_4  and  C5_5 
REMARK    4  A    between atoms: C6_6  and  C8_8 
REMARK    5  A    between atoms: C8_8  and  C9_9 
REMARK    6  A    between atoms: C9_9  and  C10_10 
REMARK    7  A    between atoms: C18_18  and  O1_19 
REMARK    8  A    between atoms: C19_20  and  C20_21 
REMARK    9  A    between atoms: C20_21  and  C21_22 
REMARK   10  A    between atoms: C21_22  and  C22_23 
REMARK   11  A    between atoms: C22_23  and  O2_24 
REMARK   12  A    between atoms: C24_26  and  C26_28 
REMARK   13  A    between atoms: C29_32  and  O4_34 
ROOT
HETATM    1  C14 UNL     1      -0.178   6.810  12.945  1.00  0.00     0.047 C 
HETATM    2  C15 UNL     1      -0.640   8.129  12.308  1.00  0.00     0.013 C 
HETATM    3  C16 UNL     1       0.459   9.157  12.575  1.00  0.00     0.017 C 
HETATM    4  C17 UNL     1       1.771   8.375  12.848  1.00  0.00     0.024 C 
HETATM    5  C18 UNL     1       1.143   7.179  13.672  1.00  0.00     0.138 C 
HETATM    6  C19 UNL     1       2.484   7.806  11.535  1.00  0.00     0.029 C 
HETATM    7  C23 UNL     1       3.953   7.347  11.691  1.00  0.00    -0.066 C 
HETATM    8  C24 UNL     1       4.509   6.318  10.992  1.00  0.00    -0.021 C 
HETATM    9  C25 UNL     1       5.965   5.916  11.048  1.00  0.00     0.052 C 
HETATM   10  C27 UNL     1       4.781   8.080  12.736  1.00  0.00     0.038 C 
HETATM   11  C28 UNL     1       4.034   8.427  14.015  1.00  0.00     0.042 C 
HETATM   12  C29 UNL     1       2.747   9.210  13.757  1.00  0.00     0.065 C 
HETATM   13  C30 UNL     1       3.093  10.614  13.238  1.00  0.00     0.047 C 
ENDROOT
BRANCH   5  14
HETATM   14  O1  UNL     1       1.992   6.038  13.740  1.00  0.00    -0.394 OA
HETATM   15  H26 UNL     1       1.532   5.375  14.284  1.00  0.00     0.210 HD
ENDBRANCH   5  14
BRANCH   6  16
HETATM   16  C20 UNL     1       2.197   8.508  10.169  1.00  0.00     0.012 C 
BRANCH  16  17
HETATM   17  C21 UNL     1       1.313   7.861   9.107  1.00  0.00     0.027 C 
BRANCH  17  18
HETATM   18  C22 UNL     1       1.931   7.803   7.718  1.00  0.00     0.164 C 
BRANCH  18  19
HETATM   19  O2  UNL     1       2.957   8.784   7.615  1.00  0.00    -0.401 OA
HETATM   20  H34 UNL     1       3.649   8.556   8.259  1.00  0.00     0.209 HD
ENDBRANCH  18  19
ENDBRANCH  17  18
ENDBRANCH  16  17
ENDBRANCH   6  16
BRANCH  12  21
HETATM   21  O4  UNL     1       2.156   9.429  15.054  1.00  0.00    -0.389 OA
HETATM   22  H46 UNL     1       1.565  10.200  15.011  1.00  0.00     0.210 HD
ENDBRANCH  12  21
BRANCH   1  23
HETATM   23  C2  UNL     1      -1.287   6.122  13.747  1.00  0.00    -0.061 C 
HETATM   24  C1  UNL     1      -1.236   5.927  15.077  1.00  0.00     0.019 C 
BRANCH  23  25
HETATM   25  C3  UNL     1      -2.471   5.620  13.040  1.00  0.00     0.007 C 
HETATM   26  C4  UNL     1      -3.252   4.584  13.390  1.00  0.00     0.001 C 
BRANCH  26  27
HETATM   27  C5  UNL     1      -4.406   4.178  12.612  1.00  0.00     0.002 C 
HETATM   28  C6  UNL     1      -4.568   3.018  11.946  1.00  0.00    -0.084 C 
HETATM   29  C7  UNL     1      -3.546   1.915  11.838  1.00  0.00     0.043 C 
BRANCH  28  30
HETATM   30  C8  UNL     1      -5.861   2.757  11.188  1.00  0.00     0.037 C 
BRANCH  30  31
HETATM   31  C9  UNL     1      -7.003   2.303  12.105  1.00  0.00     0.031 C 
BRANCH  31  32
HETATM   32  C10 UNL     1      -7.119   3.184  13.320  1.00  0.00    -0.024 C 
HETATM   33  C11 UNL     1      -7.704   4.395  13.405  1.00  0.00    -0.091 C 
HETATM   34  C12 UNL     1      -7.774   5.124  14.721  1.00  0.00     0.042 C 
HETATM   35  C13 UNL     1      -8.324   5.137  12.253  1.00  0.00     0.042 C 
ENDBRANCH  31  32
ENDBRANCH  30  31
ENDBRANCH  28  30
ENDBRANCH  26  27
ENDBRANCH  23  25
ENDBRANCH   1  23
BRANCH   8  36
HETATM   36  C26 UNL     1       3.726   5.448  10.050  1.00  0.00     0.265 C 
HETATM   37  O3  UNL     1       4.242   4.829   9.126  1.00  0.00    -0.302 OA
ENDBRANCH   8  36
TORSDOF 13
ENDMDL
