MODEL 1
REMARK minimizedAffinity -7.76798201
REMARK CNNscore 0.439777523
REMARK CNNaffinity 6.07006645
REMARK  6 active torsions:
REMARK  status: ('A' for Active; 'I' for Inactive)
REMARK    1  A    between atoms: C2_2  and  C4_4 
REMARK    2  A    between atoms: C10_11  and  O2_12 
REMARK    3  A    between atoms: C26_29  and  C27_30 
REMARK    4  A    between atoms: C27_30  and  O3_33 
REMARK    5  A    between atoms: C30_34  and  O4_35 
REMARK    6  A    between atoms: C37_43  and  O6_44 
ROOT
HETATM    1  C4  UNL     1      -7.454  47.124 -28.715  1.00  0.00     0.181 C 
HETATM    2  O1  UNL     1      -7.938  45.974 -28.005  1.00  0.00    -0.370 OA
HETATM    3  C5  UNL     1      -8.815  45.143 -28.787  1.00  0.00     0.163 C 
HETATM    4  C6  UNL     1      -8.961  43.870 -27.948  1.00  0.00     0.036 C 
HETATM    5  C7  UNL     1     -10.343  43.242 -27.920  1.00  0.00     0.016 C 
HETATM    6  C8  UNL     1     -11.466  44.287 -27.712  1.00  0.00     0.007 C 
HETATM    7  C9  UNL     1     -11.155  45.126 -26.417  1.00  0.00     0.020 C 
HETATM    8  C10 UNL     1     -11.450  45.248 -28.961  1.00  0.00     0.103 C 
HETATM    9  C11 UNL     1     -12.636  46.259 -28.908  1.00  0.00     0.046 C 
HETATM   10  C12 UNL     1     -14.013  45.620 -28.677  1.00  0.00     0.038 C 
HETATM   11  C13 UNL     1     -13.956  44.670 -27.532  1.00  0.00    -0.064 A 
HETATM   12  C14 UNL     1     -14.627  44.654 -26.350  1.00  0.00     0.018 A 
HETATM   13  C15 UNL     1     -14.122  43.629 -25.503  1.00  0.00     0.001 A 
HETATM   14  C16 UNL     1     -13.127  43.006 -26.206  1.00  0.00     0.034 A 
HETATM   15  N1  UNL     1     -12.643  41.974 -25.493  1.00  0.00    -0.357 N 
HETATM   16  C17 UNL     1     -13.325  41.930 -24.287  1.00  0.00     0.044 A 
HETATM   17  C18 UNL     1     -13.173  40.989 -23.268  1.00  0.00     0.031 A 
HETATM   18  C19 UNL     1     -14.002  41.097 -22.164  1.00  0.00     0.010 A 
HETATM   19  C20 UNL     1     -14.891  42.170 -22.035  1.00  0.00    -0.044 A 
HETATM   20  C21 UNL     1     -15.839  42.146 -20.857  1.00  0.00     0.073 C 
HETATM   21  C22 UNL     1     -16.341  43.488 -20.424  1.00  0.00    -0.078 C 
HETATM   22  C23 UNL     1     -16.400  43.840 -19.130  1.00  0.00     0.015 C 
HETATM   23  C24 UNL     1     -16.823  44.417 -21.500  1.00  0.00     0.054 C 
HETATM   24  C25 UNL     1     -16.534  45.921 -21.316  1.00  0.00     0.023 C 
HETATM   25  C26 UNL     1     -15.205  45.741 -22.086  1.00  0.00     0.060 C 
HETATM   26  C30 UNL     1     -15.895  44.484 -22.811  1.00  0.00     0.100 C 
HETATM   27  C31 UNL     1     -14.989  43.191 -23.030  1.00  0.00    -0.003 A 
HETATM   28  C32 UNL     1     -14.239  43.015 -24.230  1.00  0.00     0.013 A 
HETATM   29  C33 UNL     1     -12.869  43.566 -27.569  1.00  0.00     0.033 A 
HETATM   30  C34 UNL     1     -13.222  42.484 -28.613  1.00  0.00     0.028 C 
HETATM   31  C35 UNL     1     -10.071  45.928 -29.116  1.00  0.00     0.147 A 
HETATM   32  O5  UNL     1      -9.951  46.562 -30.430  1.00  0.00    -0.360 OA
HETATM   33  C36 UNL     1      -9.919  47.437 -29.308  1.00  0.00     0.194 A 
HETATM   34  C37 UNL     1      -8.603  48.118 -29.099  1.00  0.00     0.183 C 
HETATM   35  H21 UNL     1     -11.936  41.315 -25.783  1.00  0.00     0.166 HD
ENDROOT
BRANCH  25  36
HETATM   36  C27 UNL     1     -14.732  47.008 -22.820  1.00  0.00     0.057 C 
HETATM   37  C28 UNL     1     -15.743  47.439 -23.878  1.00  0.00     0.046 C 
HETATM   38  C29 UNL     1     -13.383  46.745 -23.505  1.00  0.00     0.046 C 
BRANCH  36  39
HETATM   39  O3  UNL     1     -14.539  48.067 -21.896  1.00  0.00    -0.390 OA
HETATM   40  H38 UNL     1     -15.234  48.010 -21.211  1.00  0.00     0.210 HD
ENDBRANCH  36  39
ENDBRANCH  25  36
BRANCH  26  41
HETATM   41  O4  UNL     1     -16.657  44.839 -24.003  1.00  0.00    -0.384 OA
HETATM   42  H39 UNL     1     -17.004  43.994 -24.324  1.00  0.00     0.211 HD
ENDBRANCH  26  41
BRANCH   8  43
HETATM   43  O2  UNL     1     -11.641  44.483 -30.165  1.00  0.00    -0.386 OA
HETATM   44  H15 UNL     1     -11.416  45.090 -30.898  1.00  0.00     0.210 HD
ENDBRANCH   8  43
BRANCH  34  45
HETATM   45  O6  UNL     1      -8.814  49.156 -28.130  1.00  0.00    -0.390 OA
HETATM   46  H45 UNL     1      -9.254  49.890 -28.592  1.00  0.00     0.210 HD
ENDBRANCH  34  45
BRANCH   1  47
HETATM   47  C2  UNL     1      -6.309  47.684 -27.875  1.00  0.00    -0.062 C 
HETATM   48  C1  UNL     1      -5.169  48.176 -28.417  1.00  0.00     0.016 C 
HETATM   49  C3  UNL     1      -6.475  47.625 -26.369  1.00  0.00     0.045 C 
ENDBRANCH   1  47
TORSDOF 6
ENDMDL
MODEL 2
REMARK minimizedAffinity -7.63130903
REMARK CNNscore 0.371312201
REMARK CNNaffinity 6.28876162
REMARK  6 active torsions:
REMARK  status: ('A' for Active; 'I' for Inactive)
REMARK    1  A    between atoms: C2_2  and  C4_4 
REMARK    2  A    between atoms: C10_11  and  O2_12 
REMARK    3  A    between atoms: C26_29  and  C27_30 
REMARK    4  A    between atoms: C27_30  and  O3_33 
REMARK    5  A    between atoms: C30_34  and  O4_35 
REMARK    6  A    between atoms: C37_43  and  O6_44 
ROOT
HETATM    1  C4  UNL     1       4.758  55.391  -2.402  1.00  0.00     0.181 C 
HETATM    2  O1  UNL     1       5.004  54.434  -3.443  1.00  0.00    -0.370 OA
HETATM    3  C5  UNL     1       5.828  54.943  -4.509  1.00  0.00     0.163 C 
HETATM    4  C6  UNL     1       6.185  53.697  -5.325  1.00  0.00     0.036 C 
HETATM    5  C7  UNL     1       6.207  53.869  -6.833  1.00  0.00     0.016 C 
HETATM    6  C8  UNL     1       4.983  54.656  -7.358  1.00  0.00     0.007 C 
HETATM    7  C9  UNL     1       3.666  53.963  -6.845  1.00  0.00     0.020 C 
HETATM    8  C10 UNL     1       5.066  56.110  -6.754  1.00  0.00     0.103 C 
HETATM    9  C11 UNL     1       3.944  57.024  -7.332  1.00  0.00     0.046 C 
HETATM   10  C12 UNL     1       3.848  57.031  -8.865  1.00  0.00     0.038 C 
HETATM   11  C13 UNL     1       3.844  55.637  -9.388  1.00  0.00    -0.064 A 
HETATM   12  C14 UNL     1       2.920  54.960 -10.122  1.00  0.00     0.018 A 
HETATM   13  C15 UNL     1       3.290  53.593 -10.252  1.00  0.00     0.001 A 
HETATM   14  C16 UNL     1       4.477  53.452  -9.586  1.00  0.00     0.034 A 
HETATM   15  N1  UNL     1       4.929  52.193  -9.722  1.00  0.00    -0.357 N 
HETATM   16  C17 UNL     1       4.007  51.487 -10.481  1.00  0.00     0.044 A 
HETATM   17  C18 UNL     1       4.103  50.161 -10.902  1.00  0.00     0.031 A 
HETATM   18  C19 UNL     1       3.091  49.667 -11.707  1.00  0.00     0.010 A 
HETATM   19  C20 UNL     1       1.966  50.444 -12.005  1.00  0.00    -0.044 A 
HETATM   20  C21 UNL     1       0.967  49.870 -12.985  1.00  0.00     0.073 C 
HETATM   21  C22 UNL     1      -0.425  50.404 -12.853  1.00  0.00    -0.078 C 
HETATM   22  C23 UNL     1      -1.500  49.601 -12.891  1.00  0.00     0.015 C 
HETATM   23  C24 UNL     1      -0.575  51.892 -12.721  1.00  0.00     0.054 C 
HETATM   24  C25 UNL     1      -1.693  52.408 -11.791  1.00  0.00     0.023 C 
HETATM   25  C26 UNL     1      -0.685  52.420 -10.618  1.00  0.00     0.060 C 
HETATM   26  C30 UNL     1       0.468  52.599 -11.723  1.00  0.00     0.100 C 
HETATM   27  C31 UNL     1       1.813  51.773 -11.503  1.00  0.00    -0.003 A 
HETATM   28  C32 UNL     1       2.910  52.336 -10.786  1.00  0.00     0.013 A 
HETATM   29  C33 UNL     1       4.994  54.699  -8.941  1.00  0.00     0.033 A 
HETATM   30  C34 UNL     1       6.319  55.089  -9.633  1.00  0.00     0.028 C 
HETATM   31  C35 UNL     1       5.084  56.064  -5.209  1.00  0.00     0.147 A 
HETATM   32  O5  UNL     1       5.476  57.363  -4.658  1.00  0.00    -0.360 OA
HETATM   33  C36 UNL     1       4.156  56.926  -4.354  1.00  0.00     0.194 A 
HETATM   34  C37 UNL     1       3.930  56.622  -2.906  1.00  0.00     0.183 C 
HETATM   35  H21 UNL     1       5.799  51.819  -9.374  1.00  0.00     0.166 HD
ENDROOT
BRANCH  25  36
HETATM   36  C27 UNL     1      -1.005  53.460  -9.530  1.00  0.00     0.057 C 
HETATM   37  C28 UNL     1      -1.145  54.856 -10.129  1.00  0.00     0.046 C 
HETATM   38  C29 UNL     1       0.115  53.484  -8.480  1.00  0.00     0.046 C 
BRANCH  36  39
HETATM   39  O3  UNL     1      -2.206  53.114  -8.860  1.00  0.00    -0.390 OA
HETATM   40  H38 UNL     1      -2.828  52.738  -9.514  1.00  0.00     0.210 HD
ENDBRANCH  36  39
ENDBRANCH  25  36
BRANCH  26  41
HETATM   41  O4  UNL     1       0.720  53.988 -12.090  1.00  0.00    -0.384 OA
HETATM   42  H39 UNL     1       1.427  53.935 -12.750  1.00  0.00     0.211 HD
ENDBRANCH  26  41
BRANCH   8  43
HETATM   43  O2  UNL     1       6.309  56.725  -7.137  1.00  0.00    -0.386 OA
HETATM   44  H15 UNL     1       6.391  57.520  -6.573  1.00  0.00     0.210 HD
ENDBRANCH   8  43
BRANCH  34  45
HETATM   45  O6  UNL     1       2.513  56.477  -2.722  1.00  0.00    -0.390 OA
HETATM   46  H45 UNL     1       2.135  57.374  -2.714  1.00  0.00     0.210 HD
ENDBRANCH  34  45
BRANCH   1  47
HETATM   47  C2  UNL     1       4.175  54.600  -1.234  1.00  0.00    -0.062 C 
HETATM   48  C1  UNL     1       4.226  55.033   0.048  1.00  0.00     0.016 C 
HETATM   49  C3  UNL     1       3.565  53.250  -1.560  1.00  0.00     0.045 C 
ENDBRANCH   1  47
TORSDOF 6
ENDMDL
MODEL 3
REMARK minimizedAffinity -9.90497971
REMARK CNNscore 0.314818978
REMARK CNNaffinity 6.64499521
REMARK  6 active torsions:
REMARK  status: ('A' for Active; 'I' for Inactive)
REMARK    1  A    between atoms: C2_2  and  C4_4 
REMARK    2  A    between atoms: C10_11  and  O2_12 
REMARK    3  A    between atoms: C26_29  and  C27_30 
REMARK    4  A    between atoms: C27_30  and  O3_33 
REMARK    5  A    between atoms: C30_34  and  O4_35 
REMARK    6  A    between atoms: C37_43  and  O6_44 
ROOT
HETATM    1  C4  UNL     1      -9.329  44.507 -30.745  1.00  0.00     0.181 C 
HETATM    2  O1  UNL     1      -8.964  44.173 -29.398  1.00  0.00    -0.370 OA
HETATM    3  C5  UNL     1      -9.927  44.604 -28.418  1.00  0.00     0.163 C 
HETATM    4  C6  UNL     1      -9.482  43.902 -27.132  1.00  0.00     0.036 C 
HETATM    5  C7  UNL     1      -9.596  44.712 -25.853  1.00  0.00     0.016 C 
HETATM    6  C8  UNL     1      -9.066  46.157 -26.017  1.00  0.00     0.007 C 
HETATM    7  C9  UNL     1      -7.595  46.106 -26.573  1.00  0.00     0.020 C 
HETATM    8  C10 UNL     1      -9.989  46.878 -27.072  1.00  0.00     0.103 C 
HETATM    9  C11 UNL     1      -9.616  48.386 -27.208  1.00  0.00     0.046 C 
HETATM   10  C12 UNL     1      -9.539  49.149 -25.878  1.00  0.00     0.038 C 
HETATM   11  C13 UNL     1      -8.715  48.393 -24.896  1.00  0.00    -0.064 A 
HETATM   12  C14 UNL     1      -7.568  48.726 -24.246  1.00  0.00     0.018 A 
HETATM   13  C15 UNL     1      -7.064  47.613 -23.519  1.00  0.00     0.001 A 
HETATM   14  C16 UNL     1      -7.943  46.586 -23.731  1.00  0.00     0.034 A 
HETATM   15  N1  UNL     1      -7.570  45.510 -23.017  1.00  0.00    -0.357 N 
HETATM   16  C17 UNL     1      -6.407  45.834 -22.333  1.00  0.00     0.044 A 
HETATM   17  C18 UNL     1      -5.705  45.026 -21.439  1.00  0.00     0.031 A 
HETATM   18  C19 UNL     1      -4.593  45.571 -20.818  1.00  0.00     0.010 A 
HETATM   19  C20 UNL     1      -4.138  46.851 -21.152  1.00  0.00    -0.044 A 
HETATM   20  C21 UNL     1      -2.990  47.411 -20.342  1.00  0.00     0.073 C 
HETATM   21  C22 UNL     1      -2.178  48.457 -21.041  1.00  0.00    -0.078 C 
HETATM   22  C23 UNL     1      -0.835  48.457 -21.001  1.00  0.00     0.015 C 
HETATM   23  C24 UNL     1      -2.929  49.542 -21.754  1.00  0.00     0.054 C 
HETATM   24  C25 UNL     1      -2.331  50.063 -23.077  1.00  0.00     0.023 C 
HETATM   25  C26 UNL     1      -3.157  49.005 -23.846  1.00  0.00     0.060 C 
HETATM   26  C30 UNL     1      -4.192  49.046 -22.617  1.00  0.00     0.100 C 
HETATM   27  C31 UNL     1      -4.796  47.652 -22.135  1.00  0.00    -0.003 A 
HETATM   28  C32 UNL     1      -6.017  47.155 -22.680  1.00  0.00     0.013 A 
HETATM   29  C33 UNL     1      -9.097  46.915 -24.626  1.00  0.00     0.033 A 
HETATM   30  C34 UNL     1     -10.396  46.827 -23.796  1.00  0.00     0.028 C 
HETATM   31  C35 UNL     1      -9.981  46.121 -28.419  1.00  0.00     0.147 A 
HETATM   32  O5  UNL     1     -11.063  46.595 -29.285  1.00  0.00    -0.360 OA
HETATM   33  C36 UNL     1      -9.738  46.826 -29.754  1.00  0.00     0.194 A 
HETATM   34  C37 UNL     1      -9.381  46.055 -30.985  1.00  0.00     0.183 C 
HETATM   35  H21 UNL     1      -8.055  44.629 -22.948  1.00  0.00     0.166 HD
ENDROOT
BRANCH  25  36
HETATM   36  C27 UNL     1      -3.512  49.414 -25.285  1.00  0.00     0.057 C 
HETATM   37  C28 UNL     1      -4.312  48.320 -25.986  1.00  0.00     0.046 C 
HETATM   38  C29 UNL     1      -2.229  49.678 -26.088  1.00  0.00     0.046 C 
BRANCH  36  39
HETATM   39  O3  UNL     1      -4.265  50.616 -25.282  1.00  0.00    -0.390 OA
HETATM   40  H38 UNL     1      -4.864  50.603 -24.510  1.00  0.00     0.210 HD
ENDBRANCH  36  39
ENDBRANCH  25  36
BRANCH  26  41
HETATM   41  O4  UNL     1      -5.211  50.083 -22.741  1.00  0.00    -0.384 OA
HETATM   42  H39 UNL     1      -5.750  49.983 -21.943  1.00  0.00     0.211 HD
ENDBRANCH  26  41
BRANCH   8  43
HETATM   43  O2  UNL     1     -11.356  46.852 -26.622  1.00  0.00    -0.386 OA
HETATM   44  H15 UNL     1     -11.891  47.118 -27.395  1.00  0.00     0.210 HD
ENDBRANCH   8  43
BRANCH  34  45
HETATM   45  O6  UNL     1      -8.150  46.601 -31.483  1.00  0.00    -0.390 OA
HETATM   46  H45 UNL     1      -8.371  47.438 -31.928  1.00  0.00     0.210 HD
ENDBRANCH  34  45
BRANCH   1  47
HETATM   47  C2  UNL     1      -8.397  43.701 -31.645  1.00  0.00    -0.062 C 
HETATM   48  C1  UNL     1      -8.690  43.404 -32.934  1.00  0.00     0.016 C 
HETATM   49  C3  UNL     1      -7.117  43.185 -31.015  1.00  0.00     0.045 C 
ENDBRANCH   1  47
TORSDOF 6
ENDMDL
MODEL 4
REMARK minimizedAffinity -7.76672602
REMARK CNNscore 0.303158998
REMARK CNNaffinity 6.21889067
REMARK  6 active torsions:
REMARK  status: ('A' for Active; 'I' for Inactive)
REMARK    1  A    between atoms: C2_2  and  C4_4 
REMARK    2  A    between atoms: C10_11  and  O2_12 
REMARK    3  A    between atoms: C26_29  and  C27_30 
REMARK    4  A    between atoms: C27_30  and  O3_33 
REMARK    5  A    between atoms: C30_34  and  O4_35 
REMARK    6  A    between atoms: C37_43  and  O6_44 
ROOT
HETATM    1  C4  UNL     1       1.536  45.406 -11.072  1.00  0.00     0.181 C 
HETATM    2  O1  UNL     1       0.834  46.583 -10.646  1.00  0.00    -0.370 OA
HETATM    3  C5  UNL     1       0.368  47.401 -11.735  1.00  0.00     0.163 C 
HETATM    4  C6  UNL     1      -0.573  48.406 -11.064  1.00  0.00     0.036 C 
HETATM    5  C7  UNL     1      -0.517  49.828 -11.592  1.00  0.00     0.016 C 
HETATM    6  C8  UNL     1       0.932  50.333 -11.791  1.00  0.00     0.007 C 
HETATM    7  C9  UNL     1       1.728  50.153 -10.445  1.00  0.00     0.020 C 
HETATM    8  C10 UNL     1       1.594  49.431 -12.901  1.00  0.00     0.103 C 
HETATM    9  C11 UNL     1       3.018  49.946 -13.269  1.00  0.00     0.046 C 
HETATM   10  C12 UNL     1       3.091  51.442 -13.608  1.00  0.00     0.038 C 
HETATM   11  C13 UNL     1       2.392  52.242 -12.564  1.00  0.00    -0.064 A 
HETATM   12  C14 UNL     1       2.846  53.216 -11.731  1.00  0.00     0.018 A 
HETATM   13  C15 UNL     1       1.840  53.581 -10.795  1.00  0.00     0.001 A 
HETATM   14  C16 UNL     1       0.747  52.810 -11.085  1.00  0.00     0.034 A 
HETATM   15  N1  UNL     1      -0.276  53.147 -10.281  1.00  0.00    -0.357 N 
HETATM   16  C17 UNL     1       0.162  54.151  -9.431  1.00  0.00     0.044 A 
HETATM   17  C18 UNL     1      -0.590  54.825  -8.467  1.00  0.00     0.031 A 
HETATM   18  C19 UNL     1       0.033  55.841  -7.763  1.00  0.00     0.010 A 
HETATM   19  C20 UNL     1       1.393  56.114  -7.944  1.00  0.00    -0.044 A 
HETATM   20  C21 UNL     1       1.961  57.315  -7.221  1.00  0.00     0.073 C 
HETATM   21  C22 UNL     1       3.434  57.257  -6.964  1.00  0.00    -0.078 C 
HETATM   22  C23 UNL     1       3.962  57.603  -5.778  1.00  0.00     0.015 C 
HETATM   23  C24 UNL     1       4.311  56.837  -8.106  1.00  0.00     0.054 C 
HETATM   24  C25 UNL     1       5.545  55.973  -7.769  1.00  0.00     0.023 C 
HETATM   25  C26 UNL     1       4.688  54.702  -7.977  1.00  0.00     0.060 C 
HETATM   26  C30 UNL     1       3.772  55.585  -8.958  1.00  0.00     0.100 C 
HETATM   27  C31 UNL     1       2.195  55.368  -8.861  1.00  0.00    -0.003 A 
HETATM   28  C32 UNL     1       1.534  54.412  -9.687  1.00  0.00     0.013 A 
HETATM   29  C33 UNL     1       0.931  51.856 -12.224  1.00  0.00     0.033 A 
HETATM   30  C34 UNL     1      -0.026  52.271 -13.363  1.00  0.00     0.028 C 
HETATM   31  C35 UNL     1       1.568  47.941 -12.490  1.00  0.00     0.147 A 
HETATM   32  O5  UNL     1       1.884  47.083 -13.634  1.00  0.00    -0.360 OA
HETATM   33  C36 UNL     1       2.810  47.053 -12.552  1.00  0.00     0.194 A 
HETATM   34  C37 UNL     1       2.865  45.744 -11.830  1.00  0.00     0.183 C 
HETATM   35  H21 UNL     1      -1.213  52.774 -10.302  1.00  0.00     0.166 HD
ENDROOT
BRANCH  25  36
HETATM   36  C27 UNL     1       5.495  53.471  -8.426  1.00  0.00     0.057 C 
HETATM   37  C28 UNL     1       5.925  52.629  -7.228  1.00  0.00     0.046 C 
HETATM   38  C29 UNL     1       6.750  53.916  -9.191  1.00  0.00     0.046 C 
BRANCH  36  39
HETATM   39  O3  UNL     1       4.722  52.673  -9.307  1.00  0.00    -0.390 OA
HETATM   40  H38 UNL     1       3.793  52.688  -9.003  1.00  0.00     0.210 HD
ENDBRANCH  36  39
ENDBRANCH  25  36
BRANCH  26  41
HETATM   41  O4  UNL     1       4.246  55.615 -10.337  1.00  0.00    -0.384 OA
HETATM   42  H39 UNL     1       3.603  56.173 -10.798  1.00  0.00     0.211 HD
ENDBRANCH  26  41
BRANCH   8  43
HETATM   43  O2  UNL     1       0.823  49.510 -14.114  1.00  0.00    -0.386 OA
HETATM   44  H15 UNL     1       1.155  48.786 -14.682  1.00  0.00     0.210 HD
ENDBRANCH   8  43
BRANCH  34  45
HETATM   45  O6  UNL     1       4.020  45.781 -10.977  1.00  0.00    -0.390 OA
HETATM   46  H45 UNL     1       4.797  45.635 -11.545  1.00  0.00     0.210 HD
ENDBRANCH  34  45
BRANCH   1  47
HETATM   47  C2  UNL     1       1.653  44.516  -9.838  1.00  0.00    -0.062 C 
HETATM   48  C1  UNL     1       1.646  45.005  -8.574  1.00  0.00     0.016 C 
HETATM   49  C3  UNL     1       1.834  43.031 -10.081  1.00  0.00     0.045 C 
ENDBRANCH   1  47
TORSDOF 6
ENDMDL
MODEL 5
REMARK minimizedAffinity -11.6749783
REMARK CNNscore 0.292164743
REMARK CNNaffinity 7.1484437
REMARK  6 active torsions:
REMARK  status: ('A' for Active; 'I' for Inactive)
REMARK    1  A    between atoms: C2_2  and  C4_4 
REMARK    2  A    between atoms: C10_11  and  O2_12 
REMARK    3  A    between atoms: C26_29  and  C27_30 
REMARK    4  A    between atoms: C27_30  and  O3_33 
REMARK    5  A    between atoms: C30_34  and  O4_35 
REMARK    6  A    between atoms: C37_43  and  O6_44 
ROOT
HETATM    1  C4  UNL     1      -0.152  51.765 -26.679  1.00  0.00     0.181 C 
HETATM    2  O1  UNL     1      -0.697  50.561 -26.118  1.00  0.00    -0.370 OA
HETATM    3  C5  UNL     1      -2.136  50.559 -26.053  1.00  0.00     0.163 C 
HETATM    4  C6  UNL     1      -2.486  49.108 -25.709  1.00  0.00     0.036 C 
HETATM    5  C7  UNL     1      -3.631  48.910 -24.732  1.00  0.00     0.016 C 
HETATM    6  C8  UNL     1      -3.545  49.861 -23.515  1.00  0.00     0.007 C 
HETATM    7  C9  UNL     1      -2.135  49.700 -22.835  1.00  0.00     0.020 C 
HETATM    8  C10 UNL     1      -3.687  51.334 -24.059  1.00  0.00     0.103 C 
HETATM    9  C11 UNL     1      -3.746  52.362 -22.889  1.00  0.00     0.046 C 
HETATM   10  C12 UNL     1      -4.779  52.038 -21.801  1.00  0.00     0.038 C 
HETATM   11  C13 UNL     1      -4.648  50.618 -21.372  1.00  0.00    -0.064 A 
HETATM   12  C14 UNL     1      -4.368  50.072 -20.159  1.00  0.00     0.018 A 
HETATM   13  C15 UNL     1      -4.194  48.665 -20.272  1.00  0.00     0.001 A 
HETATM   14  C16 UNL     1      -4.390  48.359 -21.591  1.00  0.00     0.034 A 
HETATM   15  N1  UNL     1      -4.309  47.029 -21.768  1.00  0.00    -0.357 N 
HETATM   16  C17 UNL     1      -4.037  46.450 -20.537  1.00  0.00     0.044 A 
HETATM   17  C18 UNL     1      -3.919  45.089 -20.256  1.00  0.00     0.031 A 
HETATM   18  C19 UNL     1      -3.701  44.722 -18.938  1.00  0.00     0.010 A 
HETATM   19  C20 UNL     1      -3.509  45.689 -17.945  1.00  0.00    -0.044 A 
HETATM   20  C21 UNL     1      -3.395  45.201 -16.518  1.00  0.00     0.073 C 
HETATM   21  C22 UNL     1      -2.649  46.117 -15.597  1.00  0.00    -0.078 C 
HETATM   22  C23 UNL     1      -1.737  45.658 -14.725  1.00  0.00     0.015 C 
HETATM   23  C24 UNL     1      -2.997  47.575 -15.655  1.00  0.00     0.054 C 
HETATM   24  C25 UNL     1      -1.844  48.584 -15.469  1.00  0.00     0.023 C 
HETATM   25  C26 UNL     1      -1.625  48.589 -17.000  1.00  0.00     0.060 C 
HETATM   26  C30 UNL     1      -3.173  48.178 -17.135  1.00  0.00     0.100 C 
HETATM   27  C31 UNL     1      -3.536  47.086 -18.239  1.00  0.00    -0.003 A 
HETATM   28  C32 UNL     1      -3.893  47.474 -19.564  1.00  0.00     0.013 A 
HETATM   29  C33 UNL     1      -4.692  49.529 -22.474  1.00  0.00     0.033 A 
HETATM   30  C34 UNL     1      -6.126  49.363 -23.025  1.00  0.00     0.028 C 
HETATM   31  C35 UNL     1      -2.585  51.647 -25.096  1.00  0.00     0.147 A 
HETATM   32  O5  UNL     1      -2.896  52.877 -25.826  1.00  0.00    -0.360 OA
HETATM   33  C36 UNL     1      -1.723  52.907 -25.020  1.00  0.00     0.194 A 
HETATM   34  C37 UNL     1      -0.449  53.025 -25.796  1.00  0.00     0.183 C 
HETATM   35  H21 UNL     1      -4.455  46.521 -22.627  1.00  0.00     0.166 HD
ENDROOT
BRANCH  25  36
HETATM   36  C27 UNL     1      -1.031  49.901 -17.542  1.00  0.00     0.057 C 
HETATM   37  C28 UNL     1      -0.835  49.832 -19.053  1.00  0.00     0.046 C 
HETATM   38  C29 UNL     1       0.327  50.176 -16.880  1.00  0.00     0.046 C 
BRANCH  36  39
HETATM   39  O3  UNL     1      -1.884  50.991 -17.229  1.00  0.00    -0.390 OA
HETATM   40  H38 UNL     1      -2.811  50.690 -17.305  1.00  0.00     0.210 HD
ENDBRANCH  36  39
ENDBRANCH  25  36
BRANCH  26  41
HETATM   41  O4  UNL     1      -4.084  49.317 -17.157  1.00  0.00    -0.384 OA
HETATM   42  H39 UNL     1      -4.963  48.918 -17.243  1.00  0.00     0.211 HD
ENDBRANCH  26  41
BRANCH   8  43
HETATM   43  O2  UNL     1      -4.933  51.473 -24.766  1.00  0.00    -0.386 OA
HETATM   44  H15 UNL     1      -4.867  52.322 -25.246  1.00  0.00     0.210 HD
ENDBRANCH   8  43
BRANCH  34  45
HETATM   45  O6  UNL     1       0.592  53.326 -24.854  1.00  0.00    -0.390 OA
HETATM   46  H45 UNL     1       0.505  54.268 -24.627  1.00  0.00     0.210 HD
ENDBRANCH  34  45
BRANCH   1  47
HETATM   47  C2  UNL     1       1.314  51.462 -26.976  1.00  0.00    -0.062 C 
HETATM   48  C1  UNL     1       2.163  50.948 -26.053  1.00  0.00     0.016 C 
HETATM   49  C3  UNL     1       1.816  51.811 -28.364  1.00  0.00     0.045 C 
ENDBRANCH   1  47
TORSDOF 6
ENDMDL
MODEL 6
REMARK minimizedAffinity -8.08166027
REMARK CNNscore 0.291943401
REMARK CNNaffinity 6.01843405
REMARK  6 active torsions:
REMARK  status: ('A' for Active; 'I' for Inactive)
REMARK    1  A    between atoms: C2_2  and  C4_4 
REMARK    2  A    between atoms: C10_11  and  O2_12 
REMARK    3  A    between atoms: C26_29  and  C27_30 
REMARK    4  A    between atoms: C27_30  and  O3_33 
REMARK    5  A    between atoms: C30_34  and  O4_35 
REMARK    6  A    between atoms: C37_43  and  O6_44 
ROOT
HETATM    1  C4  UNL     1     -10.296  44.877 -33.483  1.00  0.00     0.181 C 
HETATM    2  O1  UNL     1     -10.635  45.541 -32.256  1.00  0.00    -0.370 OA
HETATM    3  C5  UNL     1      -9.996  44.970 -31.099  1.00  0.00     0.163 C 
HETATM    4  C6  UNL     1     -10.264  45.992 -29.989  1.00  0.00     0.036 C 
HETATM    5  C7  UNL     1     -10.578  45.422 -28.618  1.00  0.00     0.016 C 
HETATM    6  C8  UNL     1     -11.589  44.252 -28.677  1.00  0.00     0.007 C 
HETATM    7  C9  UNL     1     -12.878  44.724 -29.448  1.00  0.00     0.020 C 
HETATM    8  C10 UNL     1     -10.907  43.084 -29.487  1.00  0.00     0.103 C 
HETATM    9  C11 UNL     1     -11.799  41.805 -29.489  1.00  0.00     0.046 C 
HETATM   10  C12 UNL     1     -12.277  41.355 -28.102  1.00  0.00     0.038 C 
HETATM   11  C13 UNL     1     -12.848  42.509 -27.353  1.00  0.00    -0.064 A 
HETATM   12  C14 UNL     1     -14.091  42.717 -26.844  1.00  0.00     0.018 A 
HETATM   13  C15 UNL     1     -14.211  44.042 -26.343  1.00  0.00     0.001 A 
HETATM   14  C16 UNL     1     -12.997  44.641 -26.548  1.00  0.00     0.034 A 
HETATM   15  N1  UNL     1     -13.009  45.884 -26.036  1.00  0.00    -0.357 N 
HETATM   16  C17 UNL     1     -14.266  46.112 -25.497  1.00  0.00     0.044 A 
HETATM   17  C18 UNL     1     -14.698  47.255 -24.823  1.00  0.00     0.031 A 
HETATM   18  C19 UNL     1     -15.984  47.251 -24.311  1.00  0.00     0.010 A 
HETATM   19  C20 UNL     1     -16.850  46.177 -24.548  1.00  0.00    -0.044 A 
HETATM   20  C21 UNL     1     -18.193  46.205 -23.854  1.00  0.00     0.073 C 
HETATM   21  C22 UNL     1     -19.267  45.411 -24.529  1.00  0.00    -0.078 C 
HETATM   22  C23 UNL     1     -20.511  45.892 -24.689  1.00  0.00     0.015 C 
HETATM   23  C24 UNL     1     -18.910  44.026 -24.983  1.00  0.00     0.054 C 
HETATM   24  C25 UNL     1     -19.534  43.534 -26.306  1.00  0.00     0.023 C 
HETATM   25  C26 UNL     1     -18.307  44.086 -27.069  1.00  0.00     0.060 C 
HETATM   26  C30 UNL     1     -17.480  43.890 -25.705  1.00  0.00     0.100 C 
HETATM   27  C31 UNL     1     -16.448  45.042 -25.316  1.00  0.00    -0.003 A 
HETATM   28  C32 UNL     1     -15.085  44.976 -25.731  1.00  0.00     0.013 A 
HETATM   29  C33 UNL     1     -11.971  43.779 -27.215  1.00  0.00     0.033 A 
HETATM   30  C34 UNL     1     -10.815  43.542 -26.219  1.00  0.00     0.028 C 
HETATM   31  C35 UNL     1     -10.508  43.555 -30.904  1.00  0.00     0.147 A 
HETATM   32  O5  UNL     1      -9.605  42.591 -31.535  1.00  0.00    -0.360 OA
HETATM   33  C36 UNL     1     -10.871  42.767 -32.162  1.00  0.00     0.194 A 
HETATM   34  C37 UNL     1     -10.801  43.393 -33.519  1.00  0.00     0.183 C 
HETATM   35  H21 UNL     1     -12.239  46.535 -26.005  1.00  0.00     0.166 HD
ENDROOT
BRANCH  25  36
HETATM   36  C27 UNL     1     -17.998  43.340 -28.378  1.00  0.00     0.057 C 
HETATM   37  C28 UNL     1     -16.694  43.833 -28.997  1.00  0.00     0.046 C 
HETATM   38  C29 UNL     1     -19.135  43.557 -29.388  1.00  0.00     0.046 C 
BRANCH  36  39
HETATM   39  O3  UNL     1     -17.905  41.945 -28.138  1.00  0.00    -0.390 OA
HETATM   40  H38 UNL     1     -17.478  41.809 -27.270  1.00  0.00     0.210 HD
ENDBRANCH  36  39
ENDBRANCH  25  36
BRANCH  26  41
HETATM   41  O4  UNL     1     -16.912  42.556 -25.547  1.00  0.00    -0.384 OA
HETATM   42  H39 UNL     1     -16.451  42.592 -24.697  1.00  0.00     0.211 HD
ENDBRANCH  26  41
BRANCH   8  43
HETATM   43  O2  UNL     1      -9.676  42.702 -28.847  1.00  0.00    -0.386 OA
HETATM   44  H15 UNL     1      -9.210  42.137 -29.494  1.00  0.00     0.210 HD
ENDBRANCH   8  43
BRANCH  34  45
HETATM   45  O6  UNL     1     -12.095  43.241 -34.121  1.00  0.00    -0.390 OA
HETATM   46  H45 UNL     1     -12.161  42.318 -34.422  1.00  0.00     0.210 HD
ENDBRANCH  34  45
BRANCH   1  47
HETATM   47  C2  UNL     1     -10.775  45.795 -34.603  1.00  0.00    -0.062 C 
HETATM   48  C1  UNL     1     -12.048  46.250 -34.690  1.00  0.00     0.016 C 
HETATM   49  C3  UNL     1      -9.763  46.152 -35.674  1.00  0.00     0.045 C 
ENDBRANCH   1  47
TORSDOF 6
ENDMDL
MODEL 7
REMARK minimizedAffinity -8.48875046
REMARK CNNscore 0.29073292
REMARK CNNaffinity 6.62868166
REMARK  6 active torsions:
REMARK  status: ('A' for Active; 'I' for Inactive)
REMARK    1  A    between atoms: C2_2  and  C4_4 
REMARK    2  A    between atoms: C10_11  and  O2_12 
REMARK    3  A    between atoms: C26_29  and  C27_30 
REMARK    4  A    between atoms: C27_30  and  O3_33 
REMARK    5  A    between atoms: C30_34  and  O4_35 
REMARK    6  A    between atoms: C37_43  and  O6_44 
ROOT
HETATM    1  C4  UNL     1      -0.697  50.450 -18.841  1.00  0.00     0.181 C 
HETATM    2  O1  UNL     1      -1.249  49.195 -19.263  1.00  0.00    -0.370 OA
HETATM    3  C5  UNL     1      -1.692  49.192 -20.633  1.00  0.00     0.163 C 
HETATM    4  C6  UNL     1      -1.958  47.714 -20.931  1.00  0.00     0.036 C 
HETATM    5  C7  UNL     1      -3.176  47.414 -21.787  1.00  0.00     0.016 C 
HETATM    6  C8  UNL     1      -4.422  48.221 -21.351  1.00  0.00     0.007 C 
HETATM    7  C9  UNL     1      -4.683  47.976 -19.818  1.00  0.00     0.020 C 
HETATM    8  C10 UNL     1      -4.097  49.746 -21.579  1.00  0.00     0.103 C 
HETATM    9  C11 UNL     1      -5.344  50.636 -21.292  1.00  0.00     0.046 C 
HETATM   10  C12 UNL     1      -6.625  50.196 -22.014  1.00  0.00     0.038 C 
HETATM   11  C13 UNL     1      -6.849  48.736 -21.826  1.00  0.00    -0.064 A 
HETATM   12  C14 UNL     1      -7.878  48.055 -21.256  1.00  0.00     0.018 A 
HETATM   13  C15 UNL     1      -7.573  46.669 -21.168  1.00  0.00     0.001 A 
HETATM   14  C16 UNL     1      -6.327  46.515 -21.714  1.00  0.00     0.034 A 
HETATM   15  N1  UNL     1      -5.994  45.213 -21.730  1.00  0.00    -0.357 N 
HETATM   16  C17 UNL     1      -7.039  44.497 -21.165  1.00  0.00     0.044 A 
HETATM   17  C18 UNL     1      -7.131  43.112 -21.025  1.00  0.00     0.031 A 
HETATM   18  C19 UNL     1      -8.296  42.598 -20.482  1.00  0.00     0.010 A 
HETATM   19  C20 UNL     1      -9.302  43.445 -20.003  1.00  0.00    -0.044 A 
HETATM   20  C21 UNL     1     -10.587  42.798 -19.535  1.00  0.00     0.073 C 
HETATM   21  C22 UNL     1     -11.369  43.600 -18.542  1.00  0.00    -0.078 C 
HETATM   22  C23 UNL     1     -11.914  43.040 -17.450  1.00  0.00     0.015 C 
HETATM   23  C24 UNL     1     -11.563  45.057 -18.841  1.00  0.00     0.054 C 
HETATM   24  C25 UNL     1     -11.545  46.032 -17.645  1.00  0.00     0.023 C 
HETATM   25  C26 UNL     1     -10.020  46.209 -17.836  1.00  0.00     0.060 C 
HETATM   26  C30 UNL     1     -10.256  45.825 -19.378  1.00  0.00     0.100 C 
HETATM   27  C31 UNL     1      -9.177  44.867 -20.056  1.00  0.00    -0.003 A 
HETATM   28  C32 UNL     1      -8.043  45.404 -20.734  1.00  0.00     0.013 A 
HETATM   29  C33 UNL     1      -5.687  47.779 -22.196  1.00  0.00     0.033 A 
HETATM   30  C34 UNL     1      -5.521  47.685 -23.729  1.00  0.00     0.028 C 
HETATM   31  C35 UNL     1      -2.845  50.168 -20.776  1.00  0.00     0.147 A 
HETATM   32  O5  UNL     1      -2.359  51.475 -21.224  1.00  0.00    -0.360 OA
HETATM   33  C36 UNL     1      -2.825  51.406 -19.881  1.00  0.00     0.194 A 
HETATM   34  C37 UNL     1      -1.757  51.604 -18.852  1.00  0.00     0.183 C 
HETATM   35  H21 UNL     1      -5.154  44.806 -22.113  1.00  0.00     0.166 HD
ENDROOT
BRANCH  25  36
HETATM   36  C27 UNL     1      -9.485  47.570 -17.358  1.00  0.00     0.057 C 
HETATM   37  C28 UNL     1      -9.857  48.680 -18.337  1.00  0.00     0.046 C 
HETATM   38  C29 UNL     1      -7.956  47.518 -17.230  1.00  0.00     0.046 C 
BRANCH  36  39
HETATM   39  O3  UNL     1     -10.008  47.880 -16.077  1.00  0.00    -0.390 OA
HETATM   40  H38 UNL     1     -10.932  47.565 -16.035  1.00  0.00     0.210 HD
ENDBRANCH  36  39
ENDBRANCH  25  36
BRANCH  26  41
HETATM   41  O4  UNL     1     -10.599  46.964 -20.222  1.00  0.00    -0.384 OA
HETATM   42  H39 UNL     1     -10.706  46.582 -21.106  1.00  0.00     0.211 HD
ENDBRANCH  26  41
BRANCH   8  43
HETATM   43  O2  UNL     1      -3.764  49.972 -22.960  1.00  0.00    -0.386 OA
HETATM   44  H15 UNL     1      -3.378  50.869 -22.993  1.00  0.00     0.210 HD
ENDBRANCH   8  43
BRANCH  34  45
HETATM   45  O6  UNL     1      -2.416  51.791 -17.590  1.00  0.00    -0.390 OA
HETATM   46  H45 UNL     1      -2.758  52.702 -17.581  1.00  0.00     0.210 HD
ENDBRANCH  34  45
BRANCH   1  47
HETATM   47  C2  UNL     1       0.009  50.174 -17.516  1.00  0.00    -0.062 C 
HETATM   48  C1  UNL     1      -0.168  49.032 -16.811  1.00  0.00     0.016 C 
HETATM   49  C3  UNL     1       0.901  51.275 -16.975  1.00  0.00     0.045 C 
ENDBRANCH   1  47
TORSDOF 6
ENDMDL
MODEL 8
REMARK minimizedAffinity -8.50801563
REMARK CNNscore 0.283681422
REMARK CNNaffinity 6.48776197
REMARK  6 active torsions:
REMARK  status: ('A' for Active; 'I' for Inactive)
REMARK    1  A    between atoms: C2_2  and  C4_4 
REMARK    2  A    between atoms: C10_11  and  O2_12 
REMARK    3  A    between atoms: C26_29  and  C27_30 
REMARK    4  A    between atoms: C27_30  and  O3_33 
REMARK    5  A    between atoms: C30_34  and  O4_35 
REMARK    6  A    between atoms: C37_43  and  O6_44 
ROOT
HETATM    1  C4  UNL     1       7.303  53.184  -5.344  1.00  0.00     0.181 C 
HETATM    2  O1  UNL     1       6.879  52.914  -6.688  1.00  0.00    -0.370 OA
HETATM    3  C5  UNL     1       6.689  54.102  -7.480  1.00  0.00     0.163 C 
HETATM    4  C6  UNL     1       6.531  53.570  -8.908  1.00  0.00     0.036 C 
HETATM    5  C7  UNL     1       5.498  54.271  -9.771  1.00  0.00     0.016 C 
HETATM    6  C8  UNL     1       4.166  54.518  -9.023  1.00  0.00     0.007 C 
HETATM    7  C9  UNL     1       3.644  53.153  -8.439  1.00  0.00     0.020 C 
HETATM    8  C10 UNL     1       4.474  55.501  -7.830  1.00  0.00     0.103 C 
HETATM    9  C11 UNL     1       3.166  55.917  -7.092  1.00  0.00     0.046 C 
HETATM   10  C12 UNL     1       2.051  56.439  -8.009  1.00  0.00     0.038 C 
HETATM   11  C13 UNL     1       1.848  55.511  -9.155  1.00  0.00    -0.064 A 
HETATM   12  C14 UNL     1       0.757  54.802  -9.549  1.00  0.00     0.018 A 
HETATM   13  C15 UNL     1       1.089  53.928 -10.620  1.00  0.00     0.001 A 
HETATM   14  C16 UNL     1       2.417  54.130 -10.883  1.00  0.00     0.034 A 
HETATM   15  N1  UNL     1       2.793  53.384 -11.936  1.00  0.00    -0.357 N 
HETATM   16  C17 UNL     1       1.689  52.662 -12.364  1.00  0.00     0.044 A 
HETATM   17  C18 UNL     1       1.622  51.797 -13.457  1.00  0.00     0.031 A 
HETATM   18  C19 UNL     1       0.397  51.219 -13.743  1.00  0.00     0.010 A 
HETATM   19  C20 UNL     1      -0.707  51.421 -12.907  1.00  0.00    -0.044 A 
HETATM   20  C21 UNL     1      -2.032  50.848 -13.359  1.00  0.00     0.073 C 
HETATM   21  C22 UNL     1      -3.008  50.572 -12.258  1.00  0.00    -0.078 C 
HETATM   22  C23 UNL     1      -3.720  49.434 -12.210  1.00  0.00     0.015 C 
HETATM   23  C24 UNL     1      -3.195  51.645 -11.226  1.00  0.00     0.054 C 
HETATM   24  C25 UNL     1      -3.425  51.191  -9.769  1.00  0.00     0.023 C 
HETATM   25  C26 UNL     1      -1.898  51.246  -9.530  1.00  0.00     0.060 C 
HETATM   26  C30 UNL     1      -1.840  52.338 -10.707  1.00  0.00     0.100 C 
HETATM   27  C31 UNL     1      -0.625  52.230 -11.733  1.00  0.00    -0.003 A 
HETATM   28  C32 UNL     1       0.593  52.936 -11.504  1.00  0.00     0.013 A 
HETATM   29  C33 UNL     1       3.090  55.138 -10.005  1.00  0.00     0.033 A 
HETATM   30  C34 UNL     1       3.531  56.330 -10.884  1.00  0.00     0.028 C 
HETATM   31  C35 UNL     1       5.547  54.907  -6.889  1.00  0.00     0.147 A 
HETATM   32  O5  UNL     1       6.059  55.931  -5.976  1.00  0.00    -0.360 OA
HETATM   33  C36 UNL     1       5.363  54.846  -5.373  1.00  0.00     0.194 A 
HETATM   34  C37 UNL     1       6.222  53.965  -4.521  1.00  0.00     0.183 C 
HETATM   35  H21 UNL     1       3.701  53.367 -12.375  1.00  0.00     0.166 HD
ENDROOT
BRANCH  25  36
HETATM   36  C27 UNL     1      -1.505  51.530  -8.070  1.00  0.00     0.057 C 
HETATM   37  C28 UNL     1      -1.939  52.929  -7.646  1.00  0.00     0.046 C 
HETATM   38  C29 UNL     1       0.018  51.415  -7.904  1.00  0.00     0.046 C 
BRANCH  36  39
HETATM   39  O3  UNL     1      -2.098  50.573  -7.207  1.00  0.00    -0.390 OA
HETATM   40  H38 UNL     1      -2.992  50.365  -7.545  1.00  0.00     0.210 HD
ENDBRANCH  36  39
ENDBRANCH  25  36
BRANCH  26  41
HETATM   41  O4  UNL     1      -2.065  53.706 -10.252  1.00  0.00    -0.384 OA
HETATM   42  H39 UNL     1      -1.999  54.239 -11.057  1.00  0.00     0.211 HD
ENDBRANCH  26  41
BRANCH   8  43
HETATM   43  O2  UNL     1       5.041  56.722  -8.340  1.00  0.00    -0.386 OA
HETATM   44  H15 UNL     1       5.396  57.191  -7.559  1.00  0.00     0.210 HD
ENDBRANCH   8  43
BRANCH  34  45
HETATM   45  O6  UNL     1       5.341  53.113  -3.773  1.00  0.00    -0.390 OA
HETATM   46  H45 UNL     1       4.972  53.651  -3.051  1.00  0.00     0.210 HD
ENDBRANCH  34  45
BRANCH   1  47
HETATM   47  C2  UNL     1       7.769  51.846  -4.775  1.00  0.00    -0.062 C 
HETATM   48  C1  UNL     1       8.522  51.745  -3.653  1.00  0.00     0.016 C 
HETATM   49  C3  UNL     1       7.392  50.603  -5.556  1.00  0.00     0.045 C 
ENDBRANCH   1  47
TORSDOF 6
ENDMDL
MODEL 9
REMARK minimizedAffinity -9.59242535
REMARK CNNscore 0.277198911
REMARK CNNaffinity 6.7337203
REMARK  6 active torsions:
REMARK  status: ('A' for Active; 'I' for Inactive)
REMARK    1  A    between atoms: C2_2  and  C4_4 
REMARK    2  A    between atoms: C10_11  and  O2_12 
REMARK    3  A    between atoms: C26_29  and  C27_30 
REMARK    4  A    between atoms: C27_30  and  O3_33 
REMARK    5  A    between atoms: C30_34  and  O4_35 
REMARK    6  A    between atoms: C37_43  and  O6_44 
ROOT
HETATM    1  C4  UNL     1       2.154  45.083 -12.648  1.00  0.00     0.181 C 
HETATM    2  O1  UNL     1       2.468  46.317 -13.310  1.00  0.00    -0.370 OA
HETATM    3  C5  UNL     1       1.810  47.461 -12.734  1.00  0.00     0.163 C 
HETATM    4  C6  UNL     1       2.505  48.656 -13.394  1.00  0.00     0.036 C 
HETATM    5  C7  UNL     1       1.612  49.826 -13.766  1.00  0.00     0.016 C 
HETATM    6  C8  UNL     1       0.301  49.379 -14.455  1.00  0.00     0.007 C 
HETATM    7  C9  UNL     1       0.653  48.469 -15.690  1.00  0.00     0.020 C 
HETATM    8  C10 UNL     1      -0.513  48.527 -13.407  1.00  0.00     0.103 C 
HETATM    9  C11 UNL     1      -1.915  48.139 -13.965  1.00  0.00     0.046 C 
HETATM   10  C12 UNL     1      -2.730  49.314 -14.524  1.00  0.00     0.038 C 
HETATM   11  C13 UNL     1      -1.896  50.125 -15.453  1.00  0.00    -0.064 A 
HETATM   12  C14 UNL     1      -2.052  50.417 -16.772  1.00  0.00     0.018 A 
HETATM   13  C15 UNL     1      -0.910  51.103 -17.271  1.00  0.00     0.001 A 
HETATM   14  C16 UNL     1      -0.051  51.237 -16.214  1.00  0.00     0.034 A 
HETATM   15  N1  UNL     1       1.031  51.940 -16.591  1.00  0.00    -0.357 N 
HETATM   16  C17 UNL     1       0.885  52.261 -17.932  1.00  0.00     0.044 A 
HETATM   17  C18 UNL     1       1.753  53.024 -18.714  1.00  0.00     0.031 A 
HETATM   18  C19 UNL     1       1.385  53.275 -20.025  1.00  0.00     0.010 A 
HETATM   19  C20 UNL     1       0.232  52.700 -20.571  1.00  0.00    -0.044 A 
HETATM   20  C21 UNL     1      -0.156  53.120 -21.971  1.00  0.00     0.073 C 
HETATM   21  C22 UNL     1      -0.992  52.128 -22.718  1.00  0.00    -0.078 C 
HETATM   22  C23 UNL     1      -0.748  51.819 -24.002  1.00  0.00     0.015 C 
HETATM   23  C24 UNL     1      -2.152  51.522 -21.984  1.00  0.00     0.054 C 
HETATM   24  C25 UNL     1      -2.474  50.041 -22.273  1.00  0.00     0.023 C 
HETATM   25  C26 UNL     1      -1.541  49.630 -21.110  1.00  0.00     0.060 C 
HETATM   26  C30 UNL     1      -1.845  51.073 -20.471  1.00  0.00     0.100 C 
HETATM   27  C31 UNL     1      -0.616  51.841 -19.806  1.00  0.00    -0.003 A 
HETATM   28  C32 UNL     1      -0.319  51.686 -18.420  1.00  0.00     0.013 A 
HETATM   29  C33 UNL     1      -0.531  50.640 -14.928  1.00  0.00     0.033 A 
HETATM   30  C34 UNL     1      -0.732  51.783 -13.909  1.00  0.00     0.028 C 
HETATM   31  C35 UNL     1       0.312  47.312 -12.925  1.00  0.00     0.147 A 
HETATM   32  O5  UNL     1      -0.299  46.710 -11.738  1.00  0.00    -0.360 OA
HETATM   33  C36 UNL     1      -0.255  45.893 -12.903  1.00  0.00     0.194 A 
HETATM   34  C37 UNL     1       0.640  44.701 -12.782  1.00  0.00     0.183 C 
HETATM   35  H21 UNL     1       1.802  52.226 -16.008  1.00  0.00     0.166 HD
ENDROOT
BRANCH  25  36
HETATM   36  C27 UNL     1      -1.922  48.296 -20.446  1.00  0.00     0.057 C 
HETATM   37  C28 UNL     1      -1.708  47.126 -21.401  1.00  0.00     0.046 C 
HETATM   38  C29 UNL     1      -3.397  48.322 -20.021  1.00  0.00     0.046 C 
BRANCH  36  39
HETATM   39  O3  UNL     1      -1.147  48.093 -19.275  1.00  0.00    -0.390 OA
HETATM   40  H38 UNL     1      -0.245  48.432 -19.438  1.00  0.00     0.210 HD
ENDBRANCH  36  39
ENDBRANCH  25  36
BRANCH  26  41
HETATM   41  O4  UNL     1      -3.041  51.107 -19.637  1.00  0.00    -0.384 OA
HETATM   42  H39 UNL     1      -3.089  52.024 -19.328  1.00  0.00     0.211 HD
ENDBRANCH  26  41
BRANCH   8  43
HETATM   43  O2  UNL     1      -0.764  49.316 -12.230  1.00  0.00    -0.386 OA
HETATM   44  H15 UNL     1      -1.077  48.683 -11.554  1.00  0.00     0.210 HD
ENDBRANCH   8  43
BRANCH  34  45
HETATM   45  O6  UNL     1       0.359  43.846 -13.901  1.00  0.00    -0.390 OA
HETATM   46  H45 UNL     1      -0.476  43.387 -13.704  1.00  0.00     0.210 HD
ENDBRANCH  34  45
BRANCH   1  47
HETATM   47  C2  UNL     1       3.170  44.064 -13.158  1.00  0.00    -0.062 C 
HETATM   48  C1  UNL     1       2.993  43.354 -14.298  1.00  0.00     0.016 C 
HETATM   49  C3  UNL     1       4.394  43.829 -12.294  1.00  0.00     0.045 C 
ENDBRANCH   1  47
TORSDOF 6
ENDMDL
