MODEL 1
REMARK minimizedAffinity -8.39990902
REMARK CNNscore 0.429150432
REMARK CNNaffinity 6.28895378
REMARK  10 active torsions:
REMARK  status: ('A' for Active; 'I' for Inactive)
REMARK    1  A    between atoms: C3_3  and  C4_4 
REMARK    2  A    between atoms: C4_4  and  O1_5 
REMARK    3  A    between atoms: O1_5  and  C5_6 
REMARK    4  A    between atoms: C6_8  and  C7_9 
REMARK    5  A    between atoms: C7_9  and  O3_10 
REMARK    6  A    between atoms: C8_11  and  O4_12 
REMARK    7  A    between atoms: C9_13  and  O5_14 
REMARK    8  A    between atoms: C10_15  and  O6_16 
REMARK    9  A    between atoms: C12_20  and  C13_21 
REMARK   10  A    between atoms: C13_21  and  C15_23 
ROOT
HETATM    1  C1  UNL     1      -3.175  -9.674   4.589  1.00  0.00     0.044 C 
HETATM    2  C2  UNL     1      -4.566 -10.211   4.427  1.00  0.00    -0.067 C 
HETATM    3  C3  UNL     1      -5.276 -10.821   5.404  1.00  0.00     0.043 C 
HETATM    4  C11 UNL     1      -6.623 -11.377   5.092  1.00  0.00     0.292 C 
HETATM    5  O7  UNL     1      -7.166 -12.203   5.819  1.00  0.00    -0.260 OA
HETATM    6  O8  UNL     1      -7.221 -10.955   3.946  1.00  0.00    -0.311 OA
HETATM    7  C12 UNL     1      -6.692  -9.814   3.227  1.00  0.00     0.140 C 
HETATM    8  C34 UNL     1      -5.182 -10.002   3.067  1.00  0.00     0.067 C 
ENDROOT
BRANCH   7   9
HETATM    9  C13 UNL     1      -7.473  -9.702   1.874  1.00  0.00     0.016 C 
HETATM   10  C14 UNL     1      -8.969  -9.495   2.116  1.00  0.00     0.013 C 
BRANCH   9  11
HETATM   11  C15 UNL     1      -7.148 -10.938   0.970  1.00  0.00     0.000 C 
HETATM   12  C16 UNL     1      -8.228 -12.033   1.006  1.00  0.00     0.006 C 
HETATM   13  C17 UNL     1      -8.961 -11.906  -0.311  1.00  0.00     0.006 C 
HETATM   14  C18 UNL     1      -7.844 -11.629  -1.324  1.00  0.00    -0.002 C 
HETATM   15  C19 UNL     1      -8.375 -11.077  -2.661  1.00  0.00    -0.004 C 
HETATM   16  C32 UNL     1      -6.817 -10.746  -0.568  1.00  0.00    -0.036 C 
HETATM   17  C20 UNL     1      -7.336 -11.221  -3.787  1.00  0.00     0.006 C 
HETATM   18  C29 UNL     1      -8.921  -9.631  -2.535  1.00  0.00     0.006 C 
HETATM   19  C21 UNL     1      -7.832 -10.672  -5.125  1.00  0.00     0.006 C 
HETATM   20  C22 UNL     1      -8.292  -9.219  -4.967  1.00  0.00     0.001 C 
HETATM   21  C23 UNL     1      -8.636  -8.590  -6.325  1.00  0.00     0.006 C 
HETATM   22  C27 UNL     1      -9.435  -9.089  -3.925  1.00  0.00     0.024 C 
HETATM   23  C24 UNL     1      -8.941  -7.108  -6.140  1.00  0.00     0.008 C 
HETATM   24  C25 UNL     1     -10.081  -6.874  -5.163  1.00  0.00     0.079 C 
HETATM   25  C26 UNL     1      -9.901  -7.621  -3.852  1.00  0.00     0.136 C 
HETATM   26  O9  UNL     1     -10.269  -7.102  -2.798  1.00  0.00    -0.297 OA
HETATM   27  C28 UNL     1     -10.710  -9.871  -4.337  1.00  0.00     0.024 C 
HETATM   28  C30 UNL     1      -7.926  -8.686  -1.828  1.00  0.00     0.007 C 
HETATM   29  C31 UNL     1      -6.712  -9.307  -1.125  1.00  0.00     0.010 C 
HETATM   30  C33 UNL     1      -5.409 -11.381  -0.765  1.00  0.00     0.016 C 
ENDBRANCH   9  11
ENDBRANCH   7   9
BRANCH   3  31
HETATM   31  C4  UNL     1      -4.791 -11.066   6.809  1.00  0.00     0.216 C 
BRANCH  31  32
HETATM   32  O1  UNL     1      -5.900 -10.924   7.700  1.00  0.00    -0.354 OA
BRANCH  32  33
HETATM   33  C5  UNL     1      -5.756  -9.867   8.654  1.00  0.00     0.291 C 
HETATM   34  O2  UNL     1      -7.000  -9.801   9.357  1.00  0.00    -0.348 OA
HETATM   35  C6  UNL     1      -7.041  -8.826  10.405  1.00  0.00     0.179 C 
HETATM   36  C8  UNL     1      -5.994  -9.147  11.476  1.00  0.00     0.180 C 
HETATM   37  C9  UNL     1      -4.622  -9.189  10.813  1.00  0.00     0.183 C 
HETATM   38  C10 UNL     1      -4.585 -10.143   9.623  1.00  0.00     0.204 C 
BRANCH  35  39
HETATM   39  C7  UNL     1      -8.456  -8.834  11.001  1.00  0.00     0.198 C 
BRANCH  39  40
HETATM   40  O3  UNL     1      -8.453  -8.511  12.391  1.00  0.00    -0.398 OA
HETATM   41  H10 UNL     1      -7.520  -8.482  12.691  1.00  0.00     0.209 HD
ENDBRANCH  39  40
ENDBRANCH  35  39
BRANCH  36  42
HETATM   42  O4  UNL     1      -5.961  -8.140  12.494  1.00  0.00    -0.390 OA
HETATM   43  H12 UNL     1      -6.560  -8.422  13.209  1.00  0.00     0.210 HD
ENDBRANCH  36  42
BRANCH  37  44
HETATM   44  O5  UNL     1      -3.630  -9.603  11.765  1.00  0.00    -0.390 OA
HETATM   45  H14 UNL     1      -3.578  -8.884  12.420  1.00  0.00     0.210 HD
ENDBRANCH  37  44
BRANCH  38  46
HETATM   46  O6  UNL     1      -3.310  -9.966   8.983  1.00  0.00    -0.388 OA
HETATM   47  H16 UNL     1      -2.646 -10.165   9.676  1.00  0.00     0.210 HD
ENDBRANCH  38  46
ENDBRANCH  32  33
ENDBRANCH  31  32
ENDBRANCH   3  31
TORSDOF 10
ENDMDL
MODEL 2
REMARK minimizedAffinity -8.80581665
REMARK CNNscore 0.327707767
REMARK CNNaffinity 7.20171976
REMARK  10 active torsions:
REMARK  status: ('A' for Active; 'I' for Inactive)
REMARK    1  A    between atoms: C3_3  and  C4_4 
REMARK    2  A    between atoms: C4_4  and  O1_5 
REMARK    3  A    between atoms: O1_5  and  C5_6 
REMARK    4  A    between atoms: C6_8  and  C7_9 
REMARK    5  A    between atoms: C7_9  and  O3_10 
REMARK    6  A    between atoms: C8_11  and  O4_12 
REMARK    7  A    between atoms: C9_13  and  O5_14 
REMARK    8  A    between atoms: C10_15  and  O6_16 
REMARK    9  A    between atoms: C12_20  and  C13_21 
REMARK   10  A    between atoms: C13_21  and  C15_23 
ROOT
HETATM    1  C1  UNL     1      -7.777   5.191  12.358  1.00  0.00     0.044 C 
HETATM    2  C2  UNL     1      -8.259   5.859  13.612  1.00  0.00    -0.067 C 
HETATM    3  C3  UNL     1      -7.480   6.157  14.676  1.00  0.00     0.043 C 
HETATM    4  C11 UNL     1      -8.099   6.755  15.892  1.00  0.00     0.292 C 
HETATM    5  O7  UNL     1      -7.529   6.749  16.979  1.00  0.00    -0.260 OA
HETATM    6  O8  UNL     1      -9.343   7.287  15.760  1.00  0.00    -0.311 OA
HETATM    7  C12 UNL     1      -9.905   7.509  14.443  1.00  0.00     0.140 C 
HETATM    8  C34 UNL     1      -9.720   6.232  13.619  1.00  0.00     0.067 C 
ENDROOT
BRANCH   7   9
HETATM    9  C13 UNL     1     -11.397   7.944  14.629  1.00  0.00     0.016 C 
HETATM   10  C14 UNL     1     -12.320   7.171  13.686  1.00  0.00     0.013 C 
BRANCH   9  11
HETATM   11  C15 UNL     1     -11.518   9.498  14.491  1.00  0.00     0.000 C 
HETATM   12  C16 UNL     1     -12.955   9.989  14.243  1.00  0.00     0.006 C 
HETATM   13  C17 UNL     1     -13.400  10.583  15.561  1.00  0.00     0.006 C 
HETATM   14  C18 UNL     1     -12.157  11.326  16.065  1.00  0.00    -0.002 C 
HETATM   15  C19 UNL     1     -12.239  11.680  17.561  1.00  0.00    -0.004 C 
HETATM   16  C32 UNL     1     -10.953  10.453  15.623  1.00  0.00    -0.036 C 
HETATM   17  C20 UNL     1     -11.231  12.779  17.941  1.00  0.00     0.006 C 
HETATM   18  C29 UNL     1     -12.134  10.432  18.476  1.00  0.00     0.006 C 
HETATM   19  C21 UNL     1     -11.282  13.143  19.425  1.00  0.00     0.006 C 
HETATM   20  C22 UNL     1     -11.101  11.892  20.289  1.00  0.00     0.001 C 
HETATM   21  C23 UNL     1     -10.980  12.251  21.777  1.00  0.00     0.006 C 
HETATM   22  C27 UNL     1     -12.199  10.833  20.001  1.00  0.00     0.024 C 
HETATM   23  C24 UNL     1     -10.651  10.997  22.580  1.00  0.00     0.008 C 
HETATM   24  C25 UNL     1     -11.694   9.908  22.399  1.00  0.00     0.079 C 
HETATM   25  C26 UNL     1     -12.006   9.624  20.940  1.00  0.00     0.136 C 
HETATM   26  O9  UNL     1     -12.245   8.471  20.580  1.00  0.00    -0.297 OA
HETATM   27  C28 UNL     1     -13.625  11.346  20.334  1.00  0.00     0.024 C 
HETATM   28  C30 UNL     1     -10.927   9.540  18.118  1.00  0.00     0.007 C 
HETATM   29  C31 UNL     1     -10.183   9.820  16.806  1.00  0.00     0.010 C 
HETATM   30  C33 UNL     1      -9.932  11.382  14.902  1.00  0.00     0.016 C 
ENDBRANCH   9  11
ENDBRANCH   7   9
BRANCH   3  31
HETATM   31  C4  UNL     1      -6.005   5.865  14.785  1.00  0.00     0.216 C 
BRANCH  31  32
HETATM   32  O1  UNL     1      -5.422   6.004  13.487  1.00  0.00    -0.354 OA
BRANCH  32  33
HETATM   33  C5  UNL     1      -4.147   5.372  13.344  1.00  0.00     0.291 C 
HETATM   34  O2  UNL     1      -4.310   4.383  12.323  1.00  0.00    -0.348 OA
HETATM   35  C6  UNL     1      -3.116   3.667  11.991  1.00  0.00     0.179 C 
HETATM   36  C8  UNL     1      -2.049   4.624  11.453  1.00  0.00     0.180 C 
HETATM   37  C9  UNL     1      -1.779   5.690  12.509  1.00  0.00     0.183 C 
HETATM   38  C10 UNL     1      -3.055   6.395  12.958  1.00  0.00     0.204 C 
BRANCH  35  39
HETATM   39  C7  UNL     1      -3.480   2.605  10.944  1.00  0.00     0.198 C 
BRANCH  39  40
HETATM   40  O3  UNL     1      -3.366   1.280  11.463  1.00  0.00    -0.398 OA
HETATM   41  H10 UNL     1      -2.949   1.339  12.348  1.00  0.00     0.209 HD
ENDBRANCH  39  40
ENDBRANCH  35  39
BRANCH  36  42
HETATM   42  O4  UNL     1      -0.818   3.941  11.190  1.00  0.00    -0.390 OA
HETATM   43  H12 UNL     1      -0.826   3.664  10.257  1.00  0.00     0.210 HD
ENDBRANCH  36  42
BRANCH  37  44
HETATM   44  O5  UNL     1      -0.868   6.673  11.992  1.00  0.00    -0.390 OA
HETATM   45  H14 UNL     1      -0.021   6.208  11.871  1.00  0.00     0.210 HD
ENDBRANCH  37  44
BRANCH  38  46
HETATM   46  O6  UNL     1      -2.700   7.241  14.065  1.00  0.00    -0.388 OA
HETATM   47  H16 UNL     1      -2.013   7.844  13.715  1.00  0.00     0.210 HD
ENDBRANCH  38  46
ENDBRANCH  32  33
ENDBRANCH  31  32
ENDBRANCH   3  31
TORSDOF 10
ENDMDL
MODEL 3
REMARK minimizedAffinity -9.14797878
REMARK CNNscore 0.284448683
REMARK CNNaffinity 6.98450327
REMARK  10 active torsions:
REMARK  status: ('A' for Active; 'I' for Inactive)
REMARK    1  A    between atoms: C3_3  and  C4_4 
REMARK    2  A    between atoms: C4_4  and  O1_5 
REMARK    3  A    between atoms: O1_5  and  C5_6 
REMARK    4  A    between atoms: C6_8  and  C7_9 
REMARK    5  A    between atoms: C7_9  and  O3_10 
REMARK    6  A    between atoms: C8_11  and  O4_12 
REMARK    7  A    between atoms: C9_13  and  O5_14 
REMARK    8  A    between atoms: C10_15  and  O6_16 
REMARK    9  A    between atoms: C12_20  and  C13_21 
REMARK   10  A    between atoms: C13_21  and  C15_23 
ROOT
HETATM    1  C1  UNL     1      -8.928   7.560  16.499  1.00  0.00     0.044 C 
HETATM    2  C2  UNL     1      -8.199   6.740  15.475  1.00  0.00    -0.067 C 
HETATM    3  C3  UNL     1      -8.757   6.242  14.348  1.00  0.00     0.043 C 
HETATM    4  C11 UNL     1      -7.940   5.379  13.448  1.00  0.00     0.292 C 
HETATM    5  O7  UNL     1      -8.457   4.650  12.607  1.00  0.00    -0.260 OA
HETATM    6  O8  UNL     1      -6.591   5.407  13.614  1.00  0.00    -0.311 OA
HETATM    7  C12 UNL     1      -5.978   6.435  14.430  1.00  0.00     0.140 C 
HETATM    8  C34 UNL     1      -6.736   6.513  15.757  1.00  0.00     0.067 C 
ENDROOT
BRANCH   7   9
HETATM    9  C13 UNL     1      -4.459   6.083  14.575  1.00  0.00     0.016 C 
HETATM   10  C14 UNL     1      -3.976   6.305  16.009  1.00  0.00     0.013 C 
BRANCH   9  11
HETATM   11  C15 UNL     1      -3.629   6.866  13.504  1.00  0.00     0.000 C 
HETATM   12  C16 UNL     1      -4.404   8.016  12.839  1.00  0.00     0.006 C 
HETATM   13  C17 UNL     1      -3.841   9.278  13.455  1.00  0.00     0.006 C 
HETATM   14  C18 UNL     1      -2.337   9.000  13.545  1.00  0.00    -0.002 C 
HETATM   15  C19 UNL     1      -1.606   9.971  14.491  1.00  0.00    -0.004 C 
HETATM   16  C32 UNL     1      -2.219   7.489  13.875  1.00  0.00    -0.036 C 
HETATM   17  C20 UNL     1      -0.088   9.976  14.239  1.00  0.00     0.006 C 
HETATM   18  C29 UNL     1      -1.963   9.733  15.981  1.00  0.00     0.006 C 
HETATM   19  C21 UNL     1       0.665  10.924  15.173  1.00  0.00     0.006 C 
HETATM   20  C22 UNL     1       0.339  10.604  16.634  1.00  0.00     0.001 C 
HETATM   21  C23 UNL     1       1.209  11.428  17.596  1.00  0.00     0.006 C 
HETATM   22  C27 UNL     1      -1.181  10.729  16.924  1.00  0.00     0.024 C 
HETATM   23  C24 UNL     1       0.961  10.971  19.029  1.00  0.00     0.008 C 
HETATM   24  C25 UNL     1      -0.500  11.094  19.427  1.00  0.00     0.079 C 
HETATM   25  C26 UNL     1      -1.444  10.458  18.420  1.00  0.00     0.136 C 
HETATM   26  O9  UNL     1      -2.460   9.885  18.813  1.00  0.00    -0.297 OA
HETATM   27  C28 UNL     1      -1.715  12.169  16.700  1.00  0.00     0.024 C 
HETATM   28  C30 UNL     1      -1.824   8.251  16.390  1.00  0.00     0.007 C 
HETATM   29  C31 UNL     1      -1.637   7.209  15.281  1.00  0.00     0.010 C 
HETATM   30  C33 UNL     1      -1.215   6.859  12.866  1.00  0.00     0.016 C 
ENDBRANCH   9  11
ENDBRANCH   7   9
BRANCH   3  31
HETATM   31  C4  UNL     1     -10.195   6.420  13.934  1.00  0.00     0.216 C 
BRANCH  31  32
HETATM   32  O1  UNL     1     -10.369   7.764  13.480  1.00  0.00    -0.354 OA
BRANCH  32  33
HETATM   33  C5  UNL     1     -11.733   8.191  13.415  1.00  0.00     0.291 C 
HETATM   34  O2  UNL     1     -12.192   8.248  14.768  1.00  0.00    -0.348 OA
HETATM   35  C6  UNL     1     -13.538   8.712  14.922  1.00  0.00     0.179 C 
HETATM   36  C8  UNL     1     -13.675  10.143  14.393  1.00  0.00     0.180 C 
HETATM   37  C9  UNL     1     -13.248  10.160  12.930  1.00  0.00     0.183 C 
HETATM   38  C10 UNL     1     -11.856   9.570  12.728  1.00  0.00     0.204 C 
BRANCH  35  39
HETATM   39  C7  UNL     1     -13.894   8.641  16.414  1.00  0.00     0.198 C 
BRANCH  39  40
HETATM   40  O3  UNL     1     -14.370   7.349  16.789  1.00  0.00    -0.398 OA
HETATM   41  H10 UNL     1     -14.489   6.823  15.972  1.00  0.00     0.209 HD
ENDBRANCH  39  40
ENDBRANCH  35  39
BRANCH  36  42
HETATM   42  O4  UNL     1     -15.031  10.598  14.462  1.00  0.00    -0.390 OA
HETATM   43  H12 UNL     1     -15.146  11.060  15.311  1.00  0.00     0.210 HD
ENDBRANCH  36  42
BRANCH  37  44
HETATM   44  O5  UNL     1     -13.252  11.508  12.434  1.00  0.00    -0.390 OA
HETATM   45  H14 UNL     1     -14.186  11.785  12.433  1.00  0.00     0.210 HD
ENDBRANCH  37  44
BRANCH  38  46
HETATM   46  O6  UNL     1     -11.639   9.481  11.310  1.00  0.00    -0.388 OA
HETATM   47  H16 UNL     1     -11.737  10.398  10.979  1.00  0.00     0.210 HD
ENDBRANCH  38  46
ENDBRANCH  32  33
ENDBRANCH  31  32
ENDBRANCH   3  31
TORSDOF 10
ENDMDL
MODEL 4
REMARK minimizedAffinity -8.7072916
REMARK CNNscore 0.250685066
REMARK CNNaffinity 7.0717411
REMARK  10 active torsions:
REMARK  status: ('A' for Active; 'I' for Inactive)
REMARK    1  A    between atoms: C3_3  and  C4_4 
REMARK    2  A    between atoms: C4_4  and  O1_5 
REMARK    3  A    between atoms: O1_5  and  C5_6 
REMARK    4  A    between atoms: C6_8  and  C7_9 
REMARK    5  A    between atoms: C7_9  and  O3_10 
REMARK    6  A    between atoms: C8_11  and  O4_12 
REMARK    7  A    between atoms: C9_13  and  O5_14 
REMARK    8  A    between atoms: C10_15  and  O6_16 
REMARK    9  A    between atoms: C12_20  and  C13_21 
REMARK   10  A    between atoms: C13_21  and  C15_23 
ROOT
HETATM    1  C1  UNL     1      -7.180   3.369  12.947  1.00  0.00     0.044 C 
HETATM    2  C2  UNL     1      -6.944   4.661  13.672  1.00  0.00    -0.067 C 
HETATM    3  C3  UNL     1      -5.729   5.224  13.870  1.00  0.00     0.043 C 
HETATM    4  C11 UNL     1      -5.625   6.475  14.673  1.00  0.00     0.292 C 
HETATM    5  O7  UNL     1      -4.559   6.848  15.152  1.00  0.00    -0.260 OA
HETATM    6  O8  UNL     1      -6.769   7.179  14.881  1.00  0.00    -0.311 OA
HETATM    7  C12 UNL     1      -7.963   6.871  14.120  1.00  0.00     0.140 C 
HETATM    8  C34 UNL     1      -8.187   5.357  14.166  1.00  0.00     0.067 C 
ENDROOT
BRANCH   7   9
HETATM    9  C13 UNL     1      -9.139   7.714  14.719  1.00  0.00     0.016 C 
HETATM   10  C14 UNL     1      -9.382   7.358  16.186  1.00  0.00     0.013 C 
BRANCH   9  11
HETATM   11  C15 UNL     1     -10.410   7.565  13.818  1.00  0.00     0.000 C 
HETATM   12  C16 UNL     1     -11.350   6.428  14.255  1.00  0.00     0.006 C 
HETATM   13  C17 UNL     1     -12.523   7.120  14.913  1.00  0.00     0.006 C 
HETATM   14  C18 UNL     1     -12.772   8.343  14.025  1.00  0.00    -0.002 C 
HETATM   15  C19 UNL     1     -13.656   9.405  14.704  1.00  0.00    -0.004 C 
HETATM   16  C32 UNL     1     -11.364   8.804  13.562  1.00  0.00    -0.036 C 
HETATM   17  C20 UNL     1     -14.252  10.388  13.681  1.00  0.00     0.006 C 
HETATM   18  C29 UNL     1     -12.932  10.126  15.872  1.00  0.00     0.006 C 
HETATM   19  C21 UNL     1     -15.127  11.462  14.330  1.00  0.00     0.006 C 
HETATM   20  C22 UNL     1     -14.347  12.195  15.425  1.00  0.00     0.001 C 
HETATM   21  C23 UNL     1     -15.143  13.387  15.977  1.00  0.00     0.006 C 
HETATM   22  C27 UNL     1     -13.857  11.221  16.531  1.00  0.00     0.024 C 
HETATM   23  C24 UNL     1     -14.274  14.175  16.951  1.00  0.00     0.008 C 
HETATM   24  C25 UNL     1     -13.775  13.316  18.100  1.00  0.00     0.079 C 
HETATM   25  C26 UNL     1     -13.135  12.019  17.636  1.00  0.00     0.136 C 
HETATM   26  O9  UNL     1     -12.164  11.566  18.243  1.00  0.00    -0.297 OA
HETATM   27  C28 UNL     1     -15.028  10.522  17.272  1.00  0.00     0.024 C 
HETATM   28  C30 UNL     1     -11.538  10.650  15.465  1.00  0.00     0.007 C 
HETATM   29  C31 UNL     1     -10.951  10.183  14.128  1.00  0.00     0.010 C 
HETATM   30  C33 UNL     1     -11.406   8.976  12.015  1.00  0.00     0.016 C 
ENDBRANCH   9  11
ENDBRANCH   7   9
BRANCH   3  31
HETATM   31  C4  UNL     1      -4.417   4.649  13.404  1.00  0.00     0.216 C 
BRANCH  31  32
HETATM   32  O1  UNL     1      -4.091   5.236  12.142  1.00  0.00    -0.354 OA
BRANCH  32  33
HETATM   33  C5  UNL     1      -3.107   4.515  11.394  1.00  0.00     0.291 C 
HETATM   34  O2  UNL     1      -1.847   4.833  11.993  1.00  0.00    -0.348 OA
HETATM   35  C6  UNL     1      -0.725   4.159  11.412  1.00  0.00     0.179 C 
HETATM   36  C8  UNL     1      -0.871   2.643  11.570  1.00  0.00     0.180 C 
HETATM   37  C9  UNL     1      -2.176   2.212  10.911  1.00  0.00     0.183 C 
HETATM   38  C10 UNL     1      -3.375   2.994  11.438  1.00  0.00     0.204 C 
BRANCH  35  39
HETATM   39  C7  UNL     1       0.543   4.665  12.114  1.00  0.00     0.198 C 
BRANCH  39  40
HETATM   40  O3  UNL     1       0.795   6.042  11.837  1.00  0.00    -0.398 OA
HETATM   41  H10 UNL     1       0.164   6.330  11.144  1.00  0.00     0.209 HD
ENDBRANCH  39  40
ENDBRANCH  35  39
BRANCH  36  42
HETATM   42  O4  UNL     1       0.200   1.944  10.924  1.00  0.00    -0.390 OA
HETATM   43  H12 UNL     1       0.898   1.796  11.587  1.00  0.00     0.210 HD
ENDBRANCH  36  42
BRANCH  37  44
HETATM   44  O5  UNL     1      -2.403   0.813  11.141  1.00  0.00    -0.390 OA
HETATM   45  H14 UNL     1      -1.701   0.348  10.651  1.00  0.00     0.210 HD
ENDBRANCH  37  44
BRANCH  38  46
HETATM   46  O6  UNL     1      -4.505   2.627  10.628  1.00  0.00    -0.388 OA
HETATM   47  H16 UNL     1      -4.586   1.656  10.728  1.00  0.00     0.210 HD
ENDBRANCH  38  46
ENDBRANCH  32  33
ENDBRANCH  31  32
ENDBRANCH   3  31
TORSDOF 10
ENDMDL
MODEL 5
REMARK minimizedAffinity -8.43286705
REMARK CNNscore 0.231573075
REMARK CNNaffinity 6.43153381
REMARK  10 active torsions:
REMARK  status: ('A' for Active; 'I' for Inactive)
REMARK    1  A    between atoms: C3_3  and  C4_4 
REMARK    2  A    between atoms: C4_4  and  O1_5 
REMARK    3  A    between atoms: O1_5  and  C5_6 
REMARK    4  A    between atoms: C6_8  and  C7_9 
REMARK    5  A    between atoms: C7_9  and  O3_10 
REMARK    6  A    between atoms: C8_11  and  O4_12 
REMARK    7  A    between atoms: C9_13  and  O5_14 
REMARK    8  A    between atoms: C10_15  and  O6_16 
REMARK    9  A    between atoms: C12_20  and  C13_21 
REMARK   10  A    between atoms: C13_21  and  C15_23 
ROOT
HETATM    1  C1  UNL     1      -6.957   5.062  12.439  1.00  0.00     0.044 C 
HETATM    2  C2  UNL     1      -7.634   5.731  13.599  1.00  0.00    -0.067 C 
HETATM    3  C3  UNL     1      -6.995   6.241  14.677  1.00  0.00     0.043 C 
HETATM    4  C11 UNL     1      -7.792   6.815  15.798  1.00  0.00     0.292 C 
HETATM    5  O7  UNL     1      -7.308   6.991  16.911  1.00  0.00    -0.260 OA
HETATM    6  O8  UNL     1      -9.095   7.112  15.546  1.00  0.00    -0.311 OA
HETATM    7  C12 UNL     1      -9.588   7.131  14.185  1.00  0.00     0.140 C 
HETATM    8  C34 UNL     1      -9.134   5.846  13.489  1.00  0.00     0.067 C 
ENDROOT
BRANCH   7   9
HETATM    9  C13 UNL     1     -11.142   7.315  14.245  1.00  0.00     0.016 C 
HETATM   10  C14 UNL     1     -11.754   7.308  12.844  1.00  0.00     0.013 C 
BRANCH   9  11
HETATM   11  C15 UNL     1     -11.493   8.593  15.077  1.00  0.00     0.000 C 
HETATM   12  C16 UNL     1     -10.911   9.892  14.493  1.00  0.00     0.006 C 
HETATM   13  C17 UNL     1     -12.089  10.602  13.862  1.00  0.00     0.006 C 
HETATM   14  C18 UNL     1     -13.230  10.371  14.859  1.00  0.00    -0.002 C 
HETATM   15  C19 UNL     1     -14.617  10.661  14.256  1.00  0.00    -0.004 C 
HETATM   16  C32 UNL     1     -13.000   8.943  15.420  1.00  0.00    -0.036 C 
HETATM   17  C20 UNL     1     -15.682  10.857  15.348  1.00  0.00     0.006 C 
HETATM   18  C29 UNL     1     -15.037   9.610  13.195  1.00  0.00     0.006 C 
HETATM   19  C21 UNL     1     -17.073  11.135  14.777  1.00  0.00     0.006 C 
HETATM   20  C22 UNL     1     -17.475  10.034  13.793  1.00  0.00     0.001 C 
HETATM   21  C23 UNL     1     -18.931  10.198  13.333  1.00  0.00     0.006 C 
HETATM   22  C27 UNL     1     -16.470   9.923  12.614  1.00  0.00     0.024 C 
HETATM   23  C24 UNL     1     -19.336   9.002  12.477  1.00  0.00     0.008 C 
HETATM   24  C25 UNL     1     -18.433   8.830  11.268  1.00  0.00     0.079 C 
HETATM   25  C26 UNL     1     -16.956   8.845  11.623  1.00  0.00     0.136 C 
HETATM   26  O9  UNL     1     -16.173   8.117  11.012  1.00  0.00    -0.297 OA
HETATM   27  C28 UNL     1     -16.404  11.218  11.763  1.00  0.00     0.024 C 
HETATM   28  C30 UNL     1     -14.875   8.162  13.706  1.00  0.00     0.007 C 
HETATM   29  C31 UNL     1     -14.102   7.937  15.011  1.00  0.00     0.010 C 
HETATM   30  C33 UNL     1     -13.058   9.028  16.973  1.00  0.00     0.016 C 
ENDBRANCH   9  11
ENDBRANCH   7   9
BRANCH   3  31
HETATM   31  C4  UNL     1      -5.504   6.218  14.896  1.00  0.00     0.216 C 
BRANCH  31  32
HETATM   32  O1  UNL     1      -4.877   6.888  13.800  1.00  0.00    -0.354 OA
BRANCH  32  33
HETATM   33  C5  UNL     1      -3.592   7.439  14.104  1.00  0.00     0.291 C 
HETATM   34  O2  UNL     1      -3.792   8.309  15.222  1.00  0.00    -0.348 OA
HETATM   35  C6  UNL     1      -2.599   8.925  15.717  1.00  0.00     0.179 C 
HETATM   36  C8  UNL     1      -1.612   7.863  16.210  1.00  0.00     0.180 C 
HETATM   37  C9  UNL     1      -1.306   6.916  15.055  1.00  0.00     0.183 C 
HETATM   38  C10 UNL     1      -2.572   6.328  14.440  1.00  0.00     0.204 C 
BRANCH  35  39
HETATM   39  C7  UNL     1      -2.998   9.874  16.857  1.00  0.00     0.198 C 
BRANCH  39  40
HETATM   40  O3  UNL     1      -2.839   9.267  18.139  1.00  0.00    -0.398 OA
HETATM   41  H10 UNL     1      -2.631   8.320  18.000  1.00  0.00     0.209 HD
ENDBRANCH  39  40
ENDBRANCH  35  39
BRANCH  36  42
HETATM   42  O4  UNL     1      -0.378   8.453  16.635  1.00  0.00    -0.390 OA
HETATM   43  H12 UNL     1      -0.444   8.620  17.592  1.00  0.00     0.210 HD
ENDBRANCH  36  42
BRANCH  37  44
HETATM   44  O5  UNL     1      -0.474   5.838  15.512  1.00  0.00    -0.390 OA
HETATM   45  H14 UNL     1       0.380   6.245  15.745  1.00  0.00     0.210 HD
ENDBRANCH  37  44
BRANCH  38  46
HETATM   46  O6  UNL     1      -2.170   5.601  13.267  1.00  0.00    -0.388 OA
HETATM   47  H16 UNL     1      -1.533   4.929  13.589  1.00  0.00     0.210 HD
ENDBRANCH  38  46
ENDBRANCH  32  33
ENDBRANCH  31  32
ENDBRANCH   3  31
TORSDOF 10
ENDMDL
MODEL 6
REMARK minimizedAffinity -8.84344673
REMARK CNNscore 0.223970175
REMARK CNNaffinity 5.01384783
REMARK  10 active torsions:
REMARK  status: ('A' for Active; 'I' for Inactive)
REMARK    1  A    between atoms: C3_3  and  C4_4 
REMARK    2  A    between atoms: C4_4  and  O1_5 
REMARK    3  A    between atoms: O1_5  and  C5_6 
REMARK    4  A    between atoms: C6_8  and  C7_9 
REMARK    5  A    between atoms: C7_9  and  O3_10 
REMARK    6  A    between atoms: C8_11  and  O4_12 
REMARK    7  A    between atoms: C9_13  and  O5_14 
REMARK    8  A    between atoms: C10_15  and  O6_16 
REMARK    9  A    between atoms: C12_20  and  C13_21 
REMARK   10  A    between atoms: C13_21  and  C15_23 
ROOT
HETATM    1  C1  UNL     1       0.722  13.660  20.378  1.00  0.00     0.044 C 
HETATM    2  C2  UNL     1       1.613  12.463  20.221  1.00  0.00    -0.067 C 
HETATM    3  C3  UNL     1       1.613  11.636  19.150  1.00  0.00     0.043 C 
HETATM    4  C11 UNL     1       2.498  10.437  19.152  1.00  0.00     0.292 C 
HETATM    5  O7  UNL     1       2.316   9.498  18.383  1.00  0.00    -0.260 OA
HETATM    6  O8  UNL     1       3.506  10.408  20.064  1.00  0.00    -0.311 OA
HETATM    7  C12 UNL     1       3.862  11.607  20.795  1.00  0.00     0.140 C 
HETATM    8  C34 UNL     1       2.581  12.230  21.354  1.00  0.00     0.067 C 
ENDROOT
BRANCH   7   9
HETATM    9  C13 UNL     1       4.911  11.205  21.886  1.00  0.00     0.016 C 
HETATM   10  C14 UNL     1       4.224  10.661  23.139  1.00  0.00     0.013 C 
BRANCH   9  11
HETATM   11  C15 UNL     1       5.871  12.408  22.168  1.00  0.00     0.000 C 
HETATM   12  C16 UNL     1       6.915  12.125  23.262  1.00  0.00     0.006 C 
HETATM   13  C17 UNL     1       8.217  11.922  22.519  1.00  0.00     0.006 C 
HETATM   14  C18 UNL     1       8.179  12.988  21.419  1.00  0.00    -0.002 C 
HETATM   15  C19 UNL     1       9.204  12.727  20.300  1.00  0.00    -0.004 C 
HETATM   16  C32 UNL     1       6.691  13.079  20.990  1.00  0.00    -0.036 C 
HETATM   17  C20 UNL     1       9.464  13.990  19.461  1.00  0.00     0.006 C 
HETATM   18  C29 UNL     1       8.836  11.498  19.428  1.00  0.00     0.006 C 
HETATM   19  C21 UNL     1      10.472  13.758  18.334  1.00  0.00     0.006 C 
HETATM   20  C22 UNL     1      10.029  12.583  17.457  1.00  0.00     0.001 C 
HETATM   21  C23 UNL     1      10.931  12.434  16.223  1.00  0.00     0.006 C 
HETATM   22  C27 UNL     1       9.894  11.273  18.279  1.00  0.00     0.024 C 
HETATM   23  C24 UNL     1      10.367  11.356  15.305  1.00  0.00     0.008 C 
HETATM   24  C25 UNL     1      10.234  10.015  16.007  1.00  0.00     0.079 C 
HETATM   25  C26 UNL     1       9.509  10.113  17.338  1.00  0.00     0.136 C 
HETATM   26  O9  UNL     1       8.761   9.201  17.694  1.00  0.00    -0.297 OA
HETATM   27  C28 UNL     1      11.240  10.820  18.906  1.00  0.00     0.024 C 
HETATM   28  C30 UNL     1       7.376  11.547  18.929  1.00  0.00     0.007 C 
HETATM   29  C31 UNL     1       6.436  12.591  19.544  1.00  0.00     0.010 C 
HETATM   30  C33 UNL     1       6.282  14.581  21.009  1.00  0.00     0.016 C 
ENDBRANCH   9  11
ENDBRANCH   7   9
BRANCH   3  31
HETATM   31  C4  UNL     1       0.721  11.773  17.944  1.00  0.00     0.216 C 
BRANCH  31  32
HETATM   32  O1  UNL     1      -0.484  11.045  18.190  1.00  0.00    -0.354 OA
BRANCH  32  33
HETATM   33  C5  UNL     1      -1.100  10.510  17.015  1.00  0.00     0.291 C 
HETATM   34  O2  UNL     1      -0.341   9.348  16.668  1.00  0.00    -0.348 OA
HETATM   35  C6  UNL     1      -0.836   8.631  15.532  1.00  0.00     0.179 C 
HETATM   36  C8  UNL     1      -2.254   8.116  15.800  1.00  0.00     0.180 C 
HETATM   37  C9  UNL     1      -3.145   9.307  16.133  1.00  0.00     0.183 C 
HETATM   38  C10 UNL     1      -2.580  10.150  17.273  1.00  0.00     0.204 C 
BRANCH  35  39
HETATM   39  C7  UNL     1       0.127   7.467  15.253  1.00  0.00     0.198 C 
BRANCH  39  40
HETATM   40  O3  UNL     1      -0.309   6.254  15.865  1.00  0.00    -0.398 OA
HETATM   41  H10 UNL     1      -1.071   6.465  16.444  1.00  0.00     0.209 HD
ENDBRANCH  39  40
ENDBRANCH  35  39
BRANCH  36  42
HETATM   42  O4  UNL     1      -2.800   7.465  14.648  1.00  0.00    -0.390 OA
HETATM   43  H12 UNL     1      -2.602   6.514  14.723  1.00  0.00     0.210 HD
ENDBRANCH  36  42
BRANCH  37  44
HETATM   44  O5  UNL     1      -4.454   8.850  16.505  1.00  0.00    -0.390 OA
HETATM   45  H14 UNL     1      -4.836   8.460  15.698  1.00  0.00     0.210 HD
ENDBRANCH  37  44
BRANCH  38  46
HETATM   46  O6  UNL     1      -3.405  11.323  17.375  1.00  0.00    -0.388 OA
HETATM   47  H16 UNL     1      -4.309  10.986  17.539  1.00  0.00     0.210 HD
ENDBRANCH  38  46
ENDBRANCH  32  33
ENDBRANCH  31  32
ENDBRANCH   3  31
TORSDOF 10
ENDMDL
MODEL 7
REMARK minimizedAffinity -8.6066885
REMARK CNNscore 0.215673104
REMARK CNNaffinity 6.8953805
REMARK  10 active torsions:
REMARK  status: ('A' for Active; 'I' for Inactive)
REMARK    1  A    between atoms: C3_3  and  C4_4 
REMARK    2  A    between atoms: C4_4  and  O1_5 
REMARK    3  A    between atoms: O1_5  and  C5_6 
REMARK    4  A    between atoms: C6_8  and  C7_9 
REMARK    5  A    between atoms: C7_9  and  O3_10 
REMARK    6  A    between atoms: C8_11  and  O4_12 
REMARK    7  A    between atoms: C9_13  and  O5_14 
REMARK    8  A    between atoms: C10_15  and  O6_16 
REMARK    9  A    between atoms: C12_20  and  C13_21 
REMARK   10  A    between atoms: C13_21  and  C15_23 
ROOT
HETATM    1  C1  UNL     1      -7.888   4.800  12.098  1.00  0.00     0.044 C 
HETATM    2  C2  UNL     1      -8.223   5.491  13.387  1.00  0.00    -0.067 C 
HETATM    3  C3  UNL     1      -7.325   5.809  14.348  1.00  0.00     0.043 C 
HETATM    4  C11 UNL     1      -7.801   6.430  15.617  1.00  0.00     0.292 C 
HETATM    5  O7  UNL     1      -7.108   6.444  16.629  1.00  0.00    -0.260 OA
HETATM    6  O8  UNL     1      -9.053   6.959  15.619  1.00  0.00    -0.311 OA
HETATM    7  C12 UNL     1      -9.764   7.156  14.372  1.00  0.00     0.140 C 
HETATM    8  C34 UNL     1      -9.674   5.864  13.556  1.00  0.00     0.067 C 
ENDROOT
BRANCH   7   9
HETATM    9  C13 UNL     1     -11.226   7.595  14.723  1.00  0.00     0.016 C 
HETATM   10  C14 UNL     1     -12.252   6.757  13.959  1.00  0.00     0.013 C 
BRANCH   9  11
HETATM   11  C15 UNL     1     -11.384   9.136  14.503  1.00  0.00     0.000 C 
HETATM   12  C16 UNL     1     -12.827   9.573  14.195  1.00  0.00     0.006 C 
HETATM   13  C17 UNL     1     -13.321  10.221  15.470  1.00  0.00     0.006 C 
HETATM   14  C18 UNL     1     -12.112  11.023  15.964  1.00  0.00    -0.002 C 
HETATM   15  C19 UNL     1     -12.242  11.450  17.438  1.00  0.00    -0.004 C 
HETATM   16  C32 UNL     1     -10.874  10.163  15.597  1.00  0.00    -0.036 C 
HETATM   17  C20 UNL     1     -11.273  12.594  17.785  1.00  0.00     0.006 C 
HETATM   18  C29 UNL     1     -12.127  10.253  18.418  1.00  0.00     0.006 C 
HETATM   19  C21 UNL     1     -11.372  13.032  19.247  1.00  0.00     0.006 C 
HETATM   20  C22 UNL     1     -11.179  11.831  20.178  1.00  0.00     0.001 C 
HETATM   21  C23 UNL     1     -11.106  12.268  21.648  1.00  0.00     0.006 C 
HETATM   22  C27 UNL     1     -12.241  10.728  19.919  1.00  0.00     0.024 C 
HETATM   23  C24 UNL     1     -10.764  11.067  22.523  1.00  0.00     0.008 C 
HETATM   24  C25 UNL     1     -11.772   9.941  22.372  1.00  0.00     0.079 C 
HETATM   25  C26 UNL     1     -12.040   9.575  20.922  1.00  0.00     0.136 C 
HETATM   26  O9  UNL     1     -12.239   8.398  20.617  1.00  0.00    -0.297 OA
HETATM   27  C28 UNL     1     -13.688  11.218  20.190  1.00  0.00     0.024 C 
HETATM   28  C30 UNL     1     -10.887   9.378  18.135  1.00  0.00     0.007 C 
HETATM   29  C31 UNL     1     -10.118   9.612  16.829  1.00  0.00     0.010 C 
HETATM   30  C33 UNL     1      -9.861  11.083  14.854  1.00  0.00     0.016 C 
ENDBRANCH   9  11
ENDBRANCH   7   9
BRANCH   3  31
HETATM   31  C4  UNL     1      -5.848   5.519  14.290  1.00  0.00     0.216 C 
BRANCH  31  32
HETATM   32  O1  UNL     1      -5.273   6.315  13.251  1.00  0.00    -0.354 OA
BRANCH  32  33
HETATM   33  C5  UNL     1      -4.044   6.953  13.608  1.00  0.00     0.291 C 
HETATM   34  O2  UNL     1      -4.378   7.912  14.617  1.00  0.00    -0.348 OA
HETATM   35  C6  UNL     1      -3.259   8.628  15.150  1.00  0.00     0.179 C 
HETATM   36  C8  UNL     1      -2.278   7.664  15.825  1.00  0.00     0.180 C 
HETATM   37  C9  UNL     1      -1.833   6.630  14.797  1.00  0.00     0.183 C 
HETATM   38  C10 UNL     1      -3.015   5.928  14.135  1.00  0.00     0.204 C 
BRANCH  35  39
HETATM   39  C7  UNL     1      -3.795   9.658  16.155  1.00  0.00     0.198 C 
BRANCH  39  40
HETATM   40  O3  UNL     1      -4.892  10.401  15.625  1.00  0.00    -0.398 OA
HETATM   41  H10 UNL     1      -4.978  10.175  14.676  1.00  0.00     0.209 HD
ENDBRANCH  39  40
ENDBRANCH  35  39
BRANCH  36  42
HETATM   42  O4  UNL     1      -1.111   8.349  16.295  1.00  0.00    -0.390 OA
HETATM   43  H12 UNL     1      -1.270   8.600  17.223  1.00  0.00     0.210 HD
ENDBRANCH  36  42
BRANCH  37  44
HETATM   44  O5  UNL     1      -1.003   5.641  15.425  1.00  0.00    -0.390 OA
HETATM   45  H14 UNL     1      -0.190   6.108  15.689  1.00  0.00     0.210 HD
ENDBRANCH  37  44
BRANCH  38  46
HETATM   46  O6  UNL     1      -2.480   5.116  13.076  1.00  0.00    -0.388 OA
HETATM   47  H16 UNL     1      -1.849   4.508  13.514  1.00  0.00     0.210 HD
ENDBRANCH  38  46
ENDBRANCH  32  33
ENDBRANCH  31  32
ENDBRANCH   3  31
TORSDOF 10
ENDMDL
MODEL 8
REMARK minimizedAffinity -11.2163849
REMARK CNNscore 0.212134212
REMARK CNNaffinity 6.23048782
REMARK  10 active torsions:
REMARK  status: ('A' for Active; 'I' for Inactive)
REMARK    1  A    between atoms: C3_3  and  C4_4 
REMARK    2  A    between atoms: C4_4  and  O1_5 
REMARK    3  A    between atoms: O1_5  and  C5_6 
REMARK    4  A    between atoms: C6_8  and  C7_9 
REMARK    5  A    between atoms: C7_9  and  O3_10 
REMARK    6  A    between atoms: C8_11  and  O4_12 
REMARK    7  A    between atoms: C9_13  and  O5_14 
REMARK    8  A    between atoms: C10_15  and  O6_16 
REMARK    9  A    between atoms: C12_20  and  C13_21 
REMARK   10  A    between atoms: C13_21  and  C15_23 
ROOT
HETATM    1  C1  UNL     1      -1.327   3.883  12.155  1.00  0.00     0.044 C 
HETATM    2  C2  UNL     1      -1.416   5.380  12.109  1.00  0.00    -0.067 C 
HETATM    3  C3  UNL     1      -2.059   6.143  13.023  1.00  0.00     0.043 C 
HETATM    4  C11 UNL     1      -2.136   7.618  12.821  1.00  0.00     0.292 C 
HETATM    5  O7  UNL     1      -2.955   8.310  13.417  1.00  0.00    -0.260 OA
HETATM    6  O8  UNL     1      -1.276   8.169  11.923  1.00  0.00    -0.311 OA
HETATM    7  C12 UNL     1      -0.164   7.396  11.410  1.00  0.00     0.140 C 
HETATM    8  C34 UNL     1      -0.691   6.032  10.959  1.00  0.00     0.067 C 
ENDROOT
BRANCH   7   9
HETATM    9  C13 UNL     1       0.512   8.233  10.272  1.00  0.00     0.016 C 
HETATM   10  C14 UNL     1      -0.532   8.791   9.303  1.00  0.00     0.013 C 
BRANCH   9  11
HETATM   11  C15 UNL     1       1.624   7.380   9.575  1.00  0.00     0.000 C 
HETATM   12  C16 UNL     1       2.271   8.076   8.365  1.00  0.00     0.006 C 
HETATM   13  C17 UNL     1       3.633   8.522   8.850  1.00  0.00     0.006 C 
HETATM   14  C18 UNL     1       4.115   7.350   9.712  1.00  0.00    -0.002 C 
HETATM   15  C19 UNL     1       5.295   7.727  10.626  1.00  0.00    -0.004 C 
HETATM   16  C32 UNL     1       2.841   6.806  10.411  1.00  0.00    -0.036 C 
HETATM   17  C20 UNL     1       6.039   6.480  11.137  1.00  0.00     0.006 C 
HETATM   18  C29 UNL     1       4.880   8.685  11.772  1.00  0.00     0.006 C 
HETATM   19  C21 UNL     1       7.211   6.825  12.057  1.00  0.00     0.006 C 
HETATM   20  C22 UNL     1       6.739   7.710  13.213  1.00  0.00     0.001 C 
HETATM   21  C23 UNL     1       7.857   7.932  14.242  1.00  0.00     0.006 C 
HETATM   22  C27 UNL     1       6.106   9.033  12.702  1.00  0.00     0.024 C 
HETATM   23  C24 UNL     1       7.304   8.688  15.445  1.00  0.00     0.008 C 
HETATM   24  C25 UNL     1       6.696  10.024  15.054  1.00  0.00     0.079 C 
HETATM   25  C26 UNL     1       5.707   9.911  13.905  1.00  0.00     0.136 C 
HETATM   26  O9  UNL     1       4.705  10.626  13.890  1.00  0.00    -0.297 OA
HETATM   27  C28 UNL     1       7.114   9.909  11.911  1.00  0.00     0.024 C 
HETATM   28  C30 UNL     1       3.640   8.180  12.541  1.00  0.00     0.007 C 
HETATM   29  C31 UNL     1       2.845   7.012  11.944  1.00  0.00     0.010 C 
HETATM   30  C33 UNL     1       2.799   5.265  10.190  1.00  0.00     0.016 C 
ENDBRANCH   9  11
ENDBRANCH   7   9
BRANCH   3  31
HETATM   31  C4  UNL     1      -2.795   5.622  14.230  1.00  0.00     0.216 C 
BRANCH  31  32
HETATM   32  O1  UNL     1      -3.985   4.968  13.784  1.00  0.00    -0.354 OA
BRANCH  32  33
HETATM   33  C5  UNL     1      -5.173   5.757  13.908  1.00  0.00     0.291 C 
HETATM   34  O2  UNL     1      -6.231   4.961  13.366  1.00  0.00    -0.348 OA
HETATM   35  C6  UNL     1      -7.528   5.562  13.447  1.00  0.00     0.179 C 
HETATM   36  C8  UNL     1      -7.917   5.802  14.909  1.00  0.00     0.180 C 
HETATM   37  C9  UNL     1      -6.856   6.689  15.551  1.00  0.00     0.183 C 
HETATM   38  C10 UNL     1      -5.450   6.121  15.383  1.00  0.00     0.204 C 
BRANCH  35  39
HETATM   39  C7  UNL     1      -8.527   4.619  12.761  1.00  0.00     0.198 C 
BRANCH  39  40
HETATM   40  O3  UNL     1      -8.477   3.300  13.303  1.00  0.00    -0.398 OA
HETATM   41  H10 UNL     1      -7.712   3.255  13.914  1.00  0.00     0.209 HD
ENDBRANCH  39  40
ENDBRANCH  35  39
BRANCH  36  42
HETATM   42  O4  UNL     1      -9.176   6.477  15.011  1.00  0.00    -0.390 OA
HETATM   43  H12 UNL     1      -9.870   5.798  15.094  1.00  0.00     0.210 HD
ENDBRANCH  36  42
BRANCH  37  44
HETATM   44  O5  UNL     1      -7.127   6.840  16.953  1.00  0.00    -0.390 OA
HETATM   45  H14 UNL     1      -7.956   7.348  17.008  1.00  0.00     0.210 HD
ENDBRANCH  37  44
BRANCH  38  46
HETATM   46  O6  UNL     1      -4.535   7.118  15.868  1.00  0.00    -0.388 OA
HETATM   47  H16 UNL     1      -4.795   7.272  16.800  1.00  0.00     0.210 HD
ENDBRANCH  38  46
ENDBRANCH  32  33
ENDBRANCH  31  32
ENDBRANCH   3  31
TORSDOF 10
ENDMDL
MODEL 9
REMARK minimizedAffinity -9.45952606
REMARK CNNscore 0.208040833
REMARK CNNaffinity 5.02394724
REMARK  10 active torsions:
REMARK  status: ('A' for Active; 'I' for Inactive)
REMARK    1  A    between atoms: C3_3  and  C4_4 
REMARK    2  A    between atoms: C4_4  and  O1_5 
REMARK    3  A    between atoms: O1_5  and  C5_6 
REMARK    4  A    between atoms: C6_8  and  C7_9 
REMARK    5  A    between atoms: C7_9  and  O3_10 
REMARK    6  A    between atoms: C8_11  and  O4_12 
REMARK    7  A    between atoms: C9_13  and  O5_14 
REMARK    8  A    between atoms: C10_15  and  O6_16 
REMARK    9  A    between atoms: C12_20  and  C13_21 
REMARK   10  A    between atoms: C13_21  and  C15_23 
ROOT
HETATM    1  C1  UNL     1      -1.239  11.830  18.887  1.00  0.00     0.044 C 
HETATM    2  C2  UNL     1       0.055  11.087  18.735  1.00  0.00    -0.067 C 
HETATM    3  C3  UNL     1       0.630  10.775  17.551  1.00  0.00     0.043 C 
HETATM    4  C11 UNL     1       1.883   9.968  17.536  1.00  0.00     0.292 C 
HETATM    5  O7  UNL     1       2.267   9.389  16.525  1.00  0.00    -0.260 OA
HETATM    6  O8  UNL     1       2.575   9.871  18.702  1.00  0.00    -0.311 OA
HETATM    7  C12 UNL     1       2.254  10.741  19.815  1.00  0.00     0.140 C 
HETATM    8  C34 UNL     1       0.738  10.715  20.026  1.00  0.00     0.067 C 
ENDROOT
BRANCH   7   9
HETATM    9  C13 UNL     1       3.085  10.258  21.051  1.00  0.00     0.016 C 
HETATM   10  C14 UNL     1       2.314   9.214  21.860  1.00  0.00     0.013 C 
BRANCH   9  11
HETATM   11  C15 UNL     1       3.545  11.493  21.896  1.00  0.00     0.000 C 
HETATM   12  C16 UNL     1       4.212  11.117  23.230  1.00  0.00     0.006 C 
HETATM   13  C17 UNL     1       5.689  11.360  23.012  1.00  0.00     0.006 C 
HETATM   14  C18 UNL     1       5.730  12.658  22.200  1.00  0.00    -0.002 C 
HETATM   15  C19 UNL     1       7.093  12.899  21.525  1.00  0.00    -0.004 C 
HETATM   16  C32 UNL     1       4.494  12.593  21.264  1.00  0.00    -0.036 C 
HETATM   17  C20 UNL     1       7.266  14.367  21.100  1.00  0.00     0.006 C 
HETATM   18  C29 UNL     1       7.368  11.906  20.366  1.00  0.00     0.006 C 
HETATM   19  C21 UNL     1       8.608  14.633  20.417  1.00  0.00     0.006 C 
HETATM   20  C22 UNL     1       8.802  13.680  19.235  1.00  0.00     0.001 C 
HETATM   21  C23 UNL     1      10.061  14.035  18.430  1.00  0.00     0.006 C 
HETATM   22  C27 UNL     1       8.762  12.194  19.683  1.00  0.00     0.024 C 
HETATM   23  C24 UNL     1      10.134  13.162  17.182  1.00  0.00     0.008 C 
HETATM   24  C25 UNL     1      10.142  11.680  17.517  1.00  0.00     0.079 C 
HETATM   25  C26 UNL     1       9.025  11.282  18.467  1.00  0.00     0.136 C 
HETATM   26  O9  UNL     1       8.472  10.189  18.336  1.00  0.00    -0.297 OA
HETATM   27  C28 UNL     1       9.899  11.839  20.676  1.00  0.00     0.024 C 
HETATM   28  C30 UNL     1       6.192  11.824  19.369  1.00  0.00     0.007 C 
HETATM   29  C31 UNL     1       4.861  12.477  19.765  1.00  0.00     0.010 C 
HETATM   30  C33 UNL     1       3.718  13.935  21.407  1.00  0.00     0.016 C 
ENDBRANCH   9  11
ENDBRANCH   7   9
BRANCH   3  31
HETATM   31  C4  UNL     1       0.069  11.113  16.194  1.00  0.00     0.216 C 
BRANCH  31  32
HETATM   32  O1  UNL     1      -0.148   9.894  15.480  1.00  0.00    -0.354 OA
BRANCH  32  33
HETATM   33  C5  UNL     1      -1.170   9.061  16.035  1.00  0.00     0.291 C 
HETATM   34  O2  UNL     1      -2.411   9.592  15.562  1.00  0.00    -0.348 OA
HETATM   35  C6  UNL     1      -3.568   8.856  15.970  1.00  0.00     0.179 C 
HETATM   36  C8  UNL     1      -3.513   7.426  15.424  1.00  0.00     0.180 C 
HETATM   37  C9  UNL     1      -2.233   6.767  15.926  1.00  0.00     0.183 C 
HETATM   38  C10 UNL     1      -0.993   7.590  15.595  1.00  0.00     0.204 C 
BRANCH  35  39
HETATM   39  C7  UNL     1      -4.807   9.596  15.446  1.00  0.00     0.198 C 
BRANCH  39  40
HETATM   40  O3  UNL     1      -4.596  11.006  15.370  1.00  0.00    -0.398 OA
HETATM   41  H10 UNL     1      -3.738  11.205  15.799  1.00  0.00     0.209 HD
ENDBRANCH  39  40
ENDBRANCH  35  39
BRANCH  36  42
HETATM   42  O4  UNL     1      -4.622   6.646  15.888  1.00  0.00    -0.390 OA
HETATM   43  H12 UNL     1      -5.330   6.713  15.222  1.00  0.00     0.210 HD
ENDBRANCH  36  42
BRANCH  37  44
HETATM   44  O5  UNL     1      -2.091   5.464  15.338  1.00  0.00    -0.390 OA
HETATM   45  H14 UNL     1      -2.817   4.929  15.705  1.00  0.00     0.210 HD
ENDBRANCH  37  44
BRANCH  38  46
HETATM   46  O6  UNL     1       0.116   6.964  16.262  1.00  0.00    -0.388 OA
HETATM   47  H16 UNL     1       0.140   6.048  15.914  1.00  0.00     0.210 HD
ENDBRANCH  38  46
ENDBRANCH  32  33
ENDBRANCH  31  32
ENDBRANCH   3  31
TORSDOF 10
ENDMDL
