MODEL 1
REMARK minimizedAffinity -9.63924789
REMARK  4 active torsions:
REMARK  status: ('A' for Active; 'I' for Inactive)
REMARK    1  A    between atoms: C4_4  and  C5_5 
REMARK    2  A    between atoms: C5_5  and  C6_7 
REMARK    3  A    between atoms: C6_7  and  C7_8 
REMARK    4  A    between atoms: C7_8  and  C9_10 
ROOT
HETATM    1  C9  UNL     1       0.907   6.400  12.287  1.00  0.00    -0.001 C 
HETATM    2  C10 UNL     1       0.957   4.899  11.875  1.00  0.00     0.007 C 
HETATM    3  C11 UNL     1      -0.432   4.295  12.167  1.00  0.00     0.015 C 
HETATM    4  C12 UNL     1      -1.148   5.355  13.027  1.00  0.00    -0.013 C 
HETATM    5  C13 UNL     1      -0.665   5.120  14.497  1.00  0.00     0.021 C 
HETATM    6  C14 UNL     1      -2.674   5.330  13.076  1.00  0.00    -0.070 C 
HETATM    7  C15 UNL     1      -3.375   4.182  13.029  1.00  0.00    -0.022 C 
HETATM    8  C16 UNL     1      -4.864   4.087  13.192  1.00  0.00     0.034 C 
HETATM    9  C17 UNL     1      -5.589   5.451  13.154  1.00  0.00     0.013 C 
HETATM   10  C18 UNL     1      -7.141   5.399  13.427  1.00  0.00     0.018 C 
HETATM   11  C19 UNL     1      -7.638   4.013  13.895  1.00  0.00     0.023 C 
HETATM   12  C20 UNL     1      -7.902   5.740  12.125  1.00  0.00     0.023 C 
HETATM   13  C21 UNL     1      -7.597   6.436  14.466  1.00  0.00     0.135 C 
HETATM   14  O2  UNL     1      -8.521   6.209  15.251  1.00  0.00    -0.297 OA
HETATM   15  C22 UNL     1      -6.968   7.809  14.460  1.00  0.00     0.080 C 
HETATM   16  C23 UNL     1      -5.577   7.858  13.849  1.00  0.00     0.017 C 
HETATM   17  C24 UNL     1      -4.789   6.532  13.965  1.00  0.00    -0.031 C 
HETATM   18  C25 UNL     1      -4.620   6.143  15.454  1.00  0.00     0.016 C 
HETATM   19  C26 UNL     1      -3.380   6.681  13.263  1.00  0.00     0.024 C 
HETATM   20  C27 UNL     1      -2.451   7.750  13.890  1.00  0.00     0.010 C 
HETATM   21  C28 UNL     1      -1.052   7.881  13.239  1.00  0.00     0.011 C 
HETATM   22  C29 UNL     1      -0.631   6.680  12.363  1.00  0.00    -0.029 C 
HETATM   23  C30 UNL     1      -1.157   6.900  10.908  1.00  0.00     0.016 C 
ENDROOT
BRANCH   1  24
HETATM   24  C7  UNL     1       1.807   7.294  11.388  1.00  0.00    -0.007 C 
HETATM   25  C8  UNL     1       1.736   8.780  11.754  1.00  0.00     0.011 C 
BRANCH  24  26
HETATM   26  C6  UNL     1       3.279   6.819  11.338  1.00  0.00     0.087 C 
BRANCH  26  27
HETATM   27  C5  UNL     1       3.740   6.167  10.042  1.00  0.00     0.149 C 
HETATM   28  O1  UNL     1       4.835   5.632   9.906  1.00  0.00    -0.293 OA
BRANCH  27  29
HETATM   29  C4  UNL     1       2.780   6.270   8.898  1.00  0.00     0.052 C 
HETATM   30  C2  UNL     1       2.597   7.357   8.124  1.00  0.00    -0.084 C 
HETATM   31  C1  UNL     1       1.554   7.353   7.037  1.00  0.00     0.043 C 
HETATM   32  C3  UNL     1       3.370   8.644   8.240  1.00  0.00     0.043 C 
ENDBRANCH  27  29
ENDBRANCH  26  27
ENDBRANCH  24  26
ENDBRANCH   1  24
TORSDOF 4
ENDMDL
MODEL 2
REMARK minimizedAffinity -9.0391922
REMARK  4 active torsions:
REMARK  status: ('A' for Active; 'I' for Inactive)
REMARK    1  A    between atoms: C4_4  and  C5_5 
REMARK    2  A    between atoms: C5_5  and  C6_7 
REMARK    3  A    between atoms: C6_7  and  C7_8 
REMARK    4  A    between atoms: C7_8  and  C9_10 
ROOT
HETATM    1  C9  UNL     1      -4.811   7.644  15.424  1.00  0.00    -0.001 C 
HETATM    2  C10 UNL     1      -4.565   9.161  15.676  1.00  0.00     0.007 C 
HETATM    3  C11 UNL     1      -3.172   9.501  15.109  1.00  0.00     0.015 C 
HETATM    4  C12 UNL     1      -2.514   8.134  14.834  1.00  0.00    -0.013 C 
HETATM    5  C13 UNL     1      -1.914   7.659  16.198  1.00  0.00     0.021 C 
HETATM    6  C14 UNL     1      -1.368   8.077  13.827  1.00  0.00    -0.070 C 
HETATM    7  C15 UNL     1      -0.484   9.082  13.688  1.00  0.00    -0.022 C 
HETATM    8  C16 UNL     1       0.727   9.033  12.803  1.00  0.00     0.034 C 
HETATM    9  C17 UNL     1       0.753   7.826  11.838  1.00  0.00     0.013 C 
HETATM   10  C18 UNL     1       2.061   7.685  10.968  1.00  0.00     0.018 C 
HETATM   11  C19 UNL     1       3.184   8.662  11.381  1.00  0.00     0.023 C 
HETATM   12  C20 UNL     1       1.725   7.977   9.488  1.00  0.00     0.023 C 
HETATM   13  C21 UNL     1       2.642   6.263  10.996  1.00  0.00     0.135 C 
HETATM   14  O2  UNL     1       3.858   6.054  10.947  1.00  0.00    -0.297 OA
HETATM   15  C22 UNL     1       1.700   5.082  10.979  1.00  0.00     0.080 C 
HETATM   16  C23 UNL     1       0.312   5.381  11.519  1.00  0.00     0.017 C 
HETATM   17  C24 UNL     1       0.273   6.519  12.565  1.00  0.00    -0.031 C 
HETATM   18  C25 UNL     1       1.166   6.158  13.777  1.00  0.00     0.016 C 
HETATM   19  C26 UNL     1      -1.218   6.775  13.027  1.00  0.00     0.024 C 
HETATM   20  C27 UNL     1      -1.897   5.571  13.726  1.00  0.00     0.010 C 
HETATM   21  C28 UNL     1      -3.344   5.817  14.219  1.00  0.00     0.011 C 
HETATM   22  C29 UNL     1      -3.747   7.304  14.327  1.00  0.00    -0.029 C 
HETATM   23  C30 UNL     1      -4.302   7.784  12.947  1.00  0.00     0.016 C 
ENDROOT
BRANCH   1  24
HETATM   24  C7  UNL     1      -6.309   7.320  15.165  1.00  0.00    -0.007 C 
HETATM   25  C8  UNL     1      -7.187   8.571  15.057  1.00  0.00     0.011 C 
BRANCH  24  26
HETATM   26  C6  UNL     1      -6.529   6.399  13.940  1.00  0.00     0.087 C 
BRANCH  26  27
HETATM   27  C5  UNL     1      -7.937   5.852  13.745  1.00  0.00     0.149 C 
HETATM   28  O1  UNL     1      -8.942   6.555  13.745  1.00  0.00    -0.293 OA
BRANCH  27  29
HETATM   29  C4  UNL     1      -8.032   4.364  13.609  1.00  0.00     0.052 C 
HETATM   30  C2  UNL     1      -7.185   3.586  12.909  1.00  0.00    -0.084 C 
HETATM   31  C1  UNL     1      -7.424   2.103  12.802  1.00  0.00     0.043 C 
HETATM   32  C3  UNL     1      -5.957   4.072  12.184  1.00  0.00     0.043 C 
ENDBRANCH  27  29
ENDBRANCH  26  27
ENDBRANCH  24  26
ENDBRANCH   1  24
TORSDOF 4
ENDMDL
MODEL 3
REMARK minimizedAffinity -9.00222874
REMARK  4 active torsions:
REMARK  status: ('A' for Active; 'I' for Inactive)
REMARK    1  A    between atoms: C4_4  and  C5_5 
REMARK    2  A    between atoms: C5_5  and  C6_7 
REMARK    3  A    between atoms: C6_7  and  C7_8 
REMARK    4  A    between atoms: C7_8  and  C9_10 
ROOT
HETATM    1  C9  UNL     1      -3.959   6.733  14.381  1.00  0.00    -0.001 C 
HETATM    2  C10 UNL     1      -4.571   7.970  13.660  1.00  0.00     0.007 C 
HETATM    3  C11 UNL     1      -3.511   8.499  12.673  1.00  0.00     0.015 C 
HETATM    4  C12 UNL     1      -2.210   7.770  13.065  1.00  0.00    -0.013 C 
HETATM    5  C13 UNL     1      -1.600   8.581  14.256  1.00  0.00     0.021 C 
HETATM    6  C14 UNL     1      -1.104   7.661  12.019  1.00  0.00    -0.070 C 
HETATM    7  C15 UNL     1      -0.867   8.634  11.120  1.00  0.00    -0.022 C 
HETATM    8  C16 UNL     1       0.277   8.635  10.148  1.00  0.00     0.034 C 
HETATM    9  C17 UNL     1       1.034   7.291  10.066  1.00  0.00     0.013 C 
HETATM   10  C18 UNL     1       2.307   7.288   9.135  1.00  0.00     0.018 C 
HETATM   11  C19 UNL     1       2.701   8.692   8.626  1.00  0.00     0.023 C 
HETATM   12  C20 UNL     1       2.028   6.414   7.890  1.00  0.00     0.023 C 
HETATM   13  C21 UNL     1       3.539   6.672   9.815  1.00  0.00     0.135 C 
HETATM   14  O2  UNL     1       4.681   7.083   9.590  1.00  0.00    -0.297 OA
HETATM   15  C22 UNL     1       3.362   5.465  10.704  1.00  0.00     0.080 C 
HETATM   16  C23 UNL     1       1.975   5.330  11.308  1.00  0.00     0.017 C 
HETATM   17  C24 UNL     1       1.234   6.674  11.496  1.00  0.00    -0.031 C 
HETATM   18  C25 UNL     1       2.048   7.603  12.429  1.00  0.00     0.016 C 
HETATM   19  C26 UNL     1      -0.210   6.414  12.088  1.00  0.00     0.024 C 
HETATM   20  C27 UNL     1      -0.228   5.752  13.488  1.00  0.00     0.010 C 
HETATM   21  C28 UNL     1      -1.634   5.526  14.099  1.00  0.00     0.011 C 
HETATM   22  C29 UNL     1      -2.764   6.351  13.444  1.00  0.00    -0.029 C 
HETATM   23  C30 UNL     1      -3.337   5.554  12.227  1.00  0.00     0.016 C 
ENDROOT
BRANCH   1  24
HETATM   24  C7  UNL     1      -5.028   5.662  14.736  1.00  0.00    -0.007 C 
HETATM   25  C8  UNL     1      -6.246   6.244  15.462  1.00  0.00     0.011 C 
BRANCH  24  26
HETATM   26  C6  UNL     1      -5.478   4.824  13.515  1.00  0.00     0.087 C 
BRANCH  26  27
HETATM   27  C5  UNL     1      -6.944   4.416  13.474  1.00  0.00     0.149 C 
HETATM   28  O1  UNL     1      -7.466   3.683  14.306  1.00  0.00    -0.293 OA
BRANCH  27  29
HETATM   29  C4  UNL     1      -7.717   4.925  12.296  1.00  0.00     0.052 C 
HETATM   30  C2  UNL     1      -8.751   5.786  12.351  1.00  0.00    -0.084 C 
HETATM   31  C1  UNL     1      -9.485   6.177  11.096  1.00  0.00     0.043 C 
HETATM   32  C3  UNL     1      -9.276   6.434  13.606  1.00  0.00     0.043 C 
ENDBRANCH  27  29
ENDBRANCH  26  27
ENDBRANCH  24  26
ENDBRANCH   1  24
TORSDOF 4
ENDMDL
MODEL 4
REMARK minimizedAffinity -8.97755337
REMARK  4 active torsions:
REMARK  status: ('A' for Active; 'I' for Inactive)
REMARK    1  A    between atoms: C4_4  and  C5_5 
REMARK    2  A    between atoms: C5_5  and  C6_7 
REMARK    3  A    between atoms: C6_7  and  C7_8 
REMARK    4  A    between atoms: C7_8  and  C9_10 
ROOT
HETATM    1  C9  UNL     1       1.217   7.216  11.867  1.00  0.00    -0.001 C 
HETATM    2  C10 UNL     1       1.097   6.006  10.896  1.00  0.00     0.007 C 
HETATM    3  C11 UNL     1      -0.259   5.325  11.175  1.00  0.00     0.015 C 
HETATM    4  C12 UNL     1      -0.746   5.947  12.499  1.00  0.00    -0.013 C 
HETATM    5  C13 UNL     1      -0.035   5.149  13.641  1.00  0.00     0.021 C 
HETATM    6  C14 UNL     1      -2.239   5.892  12.812  1.00  0.00    -0.070 C 
HETATM    7  C15 UNL     1      -3.012   4.853  12.446  1.00  0.00    -0.022 C 
HETATM    8  C16 UNL     1      -4.454   4.690  12.828  1.00  0.00     0.034 C 
HETATM    9  C17 UNL     1      -5.083   5.949  13.464  1.00  0.00     0.013 C 
HETATM   10  C18 UNL     1      -6.566   5.780  13.975  1.00  0.00     0.018 C 
HETATM   11  C19 UNL     1      -7.066   4.319  13.940  1.00  0.00     0.023 C 
HETATM   12  C20 UNL     1      -7.514   6.607  13.075  1.00  0.00     0.023 C 
HETATM   13  C21 UNL     1      -6.768   6.312  15.402  1.00  0.00     0.135 C 
HETATM   14  O2  UNL     1      -7.557   5.783  16.189  1.00  0.00    -0.297 OA
HETATM   15  C22 UNL     1      -6.059   7.578  15.822  1.00  0.00     0.080 C 
HETATM   16  C23 UNL     1      -4.794   7.878  15.037  1.00  0.00     0.017 C 
HETATM   17  C24 UNL     1      -4.087   6.623  14.475  1.00  0.00    -0.031 C 
HETATM   18  C25 UNL     1      -3.691   5.673  15.632  1.00  0.00     0.016 C 
HETATM   19  C26 UNL     1      -2.811   7.051  13.643  1.00  0.00     0.024 C 
HETATM   20  C27 UNL     1      -1.721   7.788  14.459  1.00  0.00     0.010 C 
HETATM   21  C28 UNL     1      -0.448   8.179  13.667  1.00  0.00     0.011 C 
HETATM   22  C29 UNL     1      -0.263   7.431  12.328  1.00  0.00    -0.029 C 
HETATM   23  C30 UNL     1      -1.015   8.210  11.201  1.00  0.00     0.016 C 
ENDROOT
BRANCH   1  24
HETATM   24  C7  UNL     1       2.007   8.402  11.245  1.00  0.00    -0.007 C 
HETATM   25  C8  UNL     1       2.769   9.231  12.285  1.00  0.00     0.011 C 
BRANCH  24  26
HETATM   26  C6  UNL     1       2.955   7.968  10.101  1.00  0.00     0.087 C 
BRANCH  26  27
HETATM   27  C5  UNL     1       4.010   6.927  10.452  1.00  0.00     0.149 C 
HETATM   28  O1  UNL     1       4.256   5.951   9.752  1.00  0.00    -0.293 OA
BRANCH  27  29
HETATM   29  C4  UNL     1       4.705   7.137  11.761  1.00  0.00     0.052 C 
HETATM   30  C2  UNL     1       5.998   6.858  12.015  1.00  0.00    -0.084 C 
HETATM   31  C1  UNL     1       6.564   7.061  13.396  1.00  0.00     0.043 C 
HETATM   32  C3  UNL     1       6.988   6.337  11.007  1.00  0.00     0.043 C 
ENDBRANCH  27  29
ENDBRANCH  26  27
ENDBRANCH  24  26
ENDBRANCH   1  24
TORSDOF 4
ENDMDL
MODEL 5
REMARK minimizedAffinity -8.83190823
REMARK  4 active torsions:
REMARK  status: ('A' for Active; 'I' for Inactive)
REMARK    1  A    between atoms: C4_4  and  C5_5 
REMARK    2  A    between atoms: C5_5  and  C6_7 
REMARK    3  A    between atoms: C6_7  and  C7_8 
REMARK    4  A    between atoms: C7_8  and  C9_10 
ROOT
HETATM    1  C9  UNL     1      -3.235   6.839  14.320  1.00  0.00    -0.001 C 
HETATM    2  C10 UNL     1      -3.477   5.577  13.441  1.00  0.00     0.007 C 
HETATM    3  C11 UNL     1      -5.003   5.389  13.316  1.00  0.00     0.015 C 
HETATM    4  C12 UNL     1      -5.603   6.338  14.373  1.00  0.00    -0.013 C 
HETATM    5  C13 UNL     1      -5.553   5.563  15.731  1.00  0.00     0.021 C 
HETATM    6  C14 UNL     1      -7.052   6.786  14.197  1.00  0.00    -0.070 C 
HETATM    7  C15 UNL     1      -7.993   5.980  13.671  1.00  0.00    -0.022 C 
HETATM    8  C16 UNL     1      -9.452   6.322  13.583  1.00  0.00     0.034 C 
HETATM    9  C17 UNL     1      -9.774   7.799  13.903  1.00  0.00     0.013 C 
HETATM   10  C18 UNL     1     -11.307   8.168  13.923  1.00  0.00     0.018 C 
HETATM   11  C19 UNL     1     -12.237   6.938  13.825  1.00  0.00     0.023 C 
HETATM   12  C20 UNL     1     -11.630   9.080  12.718  1.00  0.00     0.023 C 
HETATM   13  C21 UNL     1     -11.710   8.963  15.175  1.00  0.00     0.135 C 
HETATM   14  O2  UNL     1     -12.818   8.832  15.701  1.00  0.00    -0.297 OA
HETATM   15  C22 UNL     1     -10.766  10.010  15.717  1.00  0.00     0.080 C 
HETATM   16  C23 UNL     1      -9.307   9.783  15.359  1.00  0.00     0.017 C 
HETATM   17  C24 UNL     1      -8.935   8.299  15.133  1.00  0.00    -0.031 C 
HETATM   18  C25 UNL     1      -9.223   7.478  16.414  1.00  0.00     0.016 C 
HETATM   19  C26 UNL     1      -7.411   8.182  14.725  1.00  0.00     0.024 C 
HETATM   20  C27 UNL     1      -6.412   8.683  15.797  1.00  0.00     0.010 C 
HETATM   21  C28 UNL     1      -4.914   8.539  15.430  1.00  0.00     0.011 C 
HETATM   22  C29 UNL     1      -4.623   7.560  14.271  1.00  0.00    -0.029 C 
HETATM   23  C30 UNL     1      -4.721   8.332  12.915  1.00  0.00     0.016 C 
ENDROOT
BRANCH   1  24
HETATM   24  C7  UNL     1      -1.952   7.615  13.907  1.00  0.00    -0.007 C 
HETATM   25  C8  UNL     1      -0.837   7.538  14.956  1.00  0.00     0.011 C 
BRANCH  24  26
HETATM   26  C6  UNL     1      -1.414   7.202  12.516  1.00  0.00     0.087 C 
BRANCH  26  27
HETATM   27  C5  UNL     1      -0.873   8.321  11.637  1.00  0.00     0.149 C 
HETATM   28  O1  UNL     1      -1.512   9.329  11.356  1.00  0.00    -0.293 OA
BRANCH  27  29
HETATM   29  C4  UNL     1       0.493   8.087  11.071  1.00  0.00     0.052 C 
HETATM   30  C2  UNL     1       0.811   8.094   9.763  1.00  0.00    -0.084 C 
HETATM   31  C1  UNL     1       2.217   7.785   9.318  1.00  0.00     0.043 C 
HETATM   32  C3  UNL     1      -0.145   8.395   8.639  1.00  0.00     0.043 C 
ENDBRANCH  27  29
ENDBRANCH  26  27
ENDBRANCH  24  26
ENDBRANCH   1  24
TORSDOF 4
ENDMDL
MODEL 6
REMARK minimizedAffinity -8.8274622
REMARK  4 active torsions:
REMARK  status: ('A' for Active; 'I' for Inactive)
REMARK    1  A    between atoms: C4_4  and  C5_5 
REMARK    2  A    between atoms: C5_5  and  C6_7 
REMARK    3  A    between atoms: C6_7  and  C7_8 
REMARK    4  A    between atoms: C7_8  and  C9_10 
ROOT
HETATM    1  C9  UNL     1      -0.845   5.642  12.177  1.00  0.00    -0.001 C 
HETATM    2  C10 UNL     1       0.480   5.366  12.945  1.00  0.00     0.007 C 
HETATM    3  C11 UNL     1       0.599   6.430  14.055  1.00  0.00     0.015 C 
HETATM    4  C12 UNL     1      -0.477   7.479  13.711  1.00  0.00    -0.013 C 
HETATM    5  C13 UNL     1       0.165   8.426  12.644  1.00  0.00     0.021 C 
HETATM    6  C14 UNL     1      -0.982   8.386  14.830  1.00  0.00    -0.070 C 
HETATM    7  C15 UNL     1      -0.180   8.815  15.823  1.00  0.00    -0.022 C 
HETATM    8  C16 UNL     1      -0.588   9.799  16.881  1.00  0.00     0.034 C 
HETATM    9  C17 UNL     1      -2.104  10.096  16.913  1.00  0.00     0.013 C 
HETATM   10  C18 UNL     1      -2.554  11.205  17.940  1.00  0.00     0.018 C 
HETATM   11  C19 UNL     1      -1.372  11.954  18.594  1.00  0.00     0.023 C 
HETATM   12  C20 UNL     1      -3.362  10.546  19.082  1.00  0.00     0.023 C 
HETATM   13  C21 UNL     1      -3.486  12.253  17.314  1.00  0.00     0.135 C 
HETATM   14  O2  UNL     1      -3.464  13.436  17.664  1.00  0.00    -0.297 OA
HETATM   15  C22 UNL     1      -4.528  11.808  16.316  1.00  0.00     0.080 C 
HETATM   16  C23 UNL     1      -4.192  10.516  15.593  1.00  0.00     0.017 C 
HETATM   17  C24 UNL     1      -2.675  10.244  15.457  1.00  0.00    -0.031 C 
HETATM   18  C25 UNL     1      -1.997  11.394  14.673  1.00  0.00     0.016 C 
HETATM   19  C26 UNL     1      -2.440   8.859  14.730  1.00  0.00     0.024 C 
HETATM   20  C27 UNL     1      -2.987   8.782  13.284  1.00  0.00     0.010 C 
HETATM   21  C28 UNL     1      -2.730   7.446  12.545  1.00  0.00     0.011 C 
HETATM   22  C29 UNL     1      -1.631   6.560  13.172  1.00  0.00    -0.029 C 
HETATM   23  C30 UNL     1      -2.273   5.650  14.269  1.00  0.00     0.016 C 
ENDROOT
BRANCH   1  24
HETATM   24  C7  UNL     1      -1.509   4.339  11.648  1.00  0.00    -0.007 C 
HETATM   25  C8  UNL     1      -0.573   3.126  11.690  1.00  0.00     0.011 C 
BRANCH  24  26
HETATM   26  C6  UNL     1      -2.848   4.011  12.352  1.00  0.00     0.087 C 
BRANCH  26  27
HETATM   27  C5  UNL     1      -4.043   3.741  11.447  1.00  0.00     0.149 C 
HETATM   28  O1  UNL     1      -3.963   3.666  10.226  1.00  0.00    -0.293 OA
BRANCH  27  29
HETATM   29  C4  UNL     1      -5.363   3.629  12.146  1.00  0.00     0.052 C 
HETATM   30  C2  UNL     1      -6.210   2.586  12.058  1.00  0.00    -0.084 C 
HETATM   31  C1  UNL     1      -7.538   2.621  12.767  1.00  0.00     0.043 C 
HETATM   32  C3  UNL     1      -5.951   1.321  11.283  1.00  0.00     0.043 C 
ENDBRANCH  27  29
ENDBRANCH  26  27
ENDBRANCH  24  26
ENDBRANCH   1  24
TORSDOF 4
ENDMDL
MODEL 7
REMARK minimizedAffinity -8.58189011
REMARK  4 active torsions:
REMARK  status: ('A' for Active; 'I' for Inactive)
REMARK    1  A    between atoms: C4_4  and  C5_5 
REMARK    2  A    between atoms: C5_5  and  C6_7 
REMARK    3  A    between atoms: C6_7  and  C7_8 
REMARK    4  A    between atoms: C7_8  and  C9_10 
ROOT
HETATM    1  C9  UNL     1      -4.052   5.080  12.540  1.00  0.00    -0.001 C 
HETATM    2  C10 UNL     1      -2.874   4.293  13.187  1.00  0.00     0.007 C 
HETATM    3  C11 UNL     1      -2.187   5.239  14.193  1.00  0.00     0.015 C 
HETATM    4  C12 UNL     1      -2.766   6.634  13.881  1.00  0.00    -0.013 C 
HETATM    5  C13 UNL     1      -1.930   7.194  12.684  1.00  0.00     0.021 C 
HETATM    6  C14 UNL     1      -2.705   7.698  14.973  1.00  0.00    -0.070 C 
HETATM    7  C15 UNL     1      -1.679   7.778  15.841  1.00  0.00    -0.022 C 
HETATM    8  C16 UNL     1      -1.507   8.871  16.856  1.00  0.00     0.034 C 
HETATM    9  C17 UNL     1      -2.746   9.778  17.021  1.00  0.00     0.013 C 
HETATM   10  C18 UNL     1      -2.563  11.001  18.000  1.00  0.00     0.018 C 
HETATM   11  C19 UNL     1      -1.105  11.202  18.468  1.00  0.00     0.023 C 
HETATM   12  C20 UNL     1      -3.421  10.774  19.267  1.00  0.00     0.023 C 
HETATM   13  C21 UNL     1      -3.049  12.326  17.394  1.00  0.00     0.135 C 
HETATM   14  O2  UNL     1      -2.496  13.400  17.646  1.00  0.00    -0.297 OA
HETATM   15  C22 UNL     1      -4.299  12.333  16.546  1.00  0.00     0.080 C 
HETATM   16  C23 UNL     1      -4.622  10.999  15.895  1.00  0.00     0.017 C 
HETATM   17  C24 UNL     1      -3.384  10.112  15.625  1.00  0.00    -0.031 C 
HETATM   18  C25 UNL     1      -2.396  10.850  14.688  1.00  0.00     0.016 C 
HETATM   19  C26 UNL     1      -3.837   8.737  14.988  1.00  0.00     0.024 C 
HETATM   20  C27 UNL     1      -4.545   8.858  13.616  1.00  0.00     0.010 C 
HETATM   21  C28 UNL     1      -4.959   7.517  12.960  1.00  0.00     0.011 C 
HETATM   22  C29 UNL     1      -4.255   6.269  13.537  1.00  0.00    -0.029 C 
HETATM   23  C30 UNL     1      -5.071   5.743  14.762  1.00  0.00     0.016 C 
ENDROOT
BRANCH   1  24
HETATM   24  C7  UNL     1      -5.256   4.162  12.186  1.00  0.00    -0.007 C 
HETATM   25  C8  UNL     1      -4.831   2.793  11.643  1.00  0.00     0.011 C 
BRANCH  24  26
HETATM   26  C6  UNL     1      -6.254   3.991  13.357  1.00  0.00     0.087 C 
BRANCH  26  27
HETATM   27  C5  UNL     1      -7.679   3.603  12.984  1.00  0.00     0.149 C 
HETATM   28  O1  UNL     1      -8.121   2.465  13.095  1.00  0.00    -0.293 OA
BRANCH  27  29
HETATM   29  C4  UNL     1      -8.511   4.705  12.403  1.00  0.00     0.052 C 
HETATM   30  C2  UNL     1      -8.929   5.802  13.062  1.00  0.00    -0.084 C 
HETATM   31  C1  UNL     1      -9.813   6.812  12.379  1.00  0.00     0.043 C 
HETATM   32  C3  UNL     1      -8.583   6.142  14.488  1.00  0.00     0.043 C 
ENDBRANCH  27  29
ENDBRANCH  26  27
ENDBRANCH  24  26
ENDBRANCH   1  24
TORSDOF 4
ENDMDL
MODEL 8
REMARK minimizedAffinity -8.51407909
REMARK  4 active torsions:
REMARK  status: ('A' for Active; 'I' for Inactive)
REMARK    1  A    between atoms: C4_4  and  C5_5 
REMARK    2  A    between atoms: C5_5  and  C6_7 
REMARK    3  A    between atoms: C6_7  and  C7_8 
REMARK    4  A    between atoms: C7_8  and  C9_10 
ROOT
HETATM    1  C9  UNL     1      -1.858   6.298  12.552  1.00  0.00    -0.001 C 
HETATM    2  C10 UNL     1      -1.625   4.992  11.737  1.00  0.00     0.007 C 
HETATM    3  C11 UNL     1      -0.149   4.986  11.289  1.00  0.00     0.015 C 
HETATM    4  C12 UNL     1       0.353   6.417  11.571  1.00  0.00    -0.013 C 
HETATM    5  C13 UNL     1      -0.085   7.280  10.342  1.00  0.00     0.021 C 
HETATM    6  C14 UNL     1       1.856   6.634  11.724  1.00  0.00    -0.070 C 
HETATM    7  C15 UNL     1       2.759   5.929  11.018  1.00  0.00    -0.022 C 
HETATM    8  C16 UNL     1       4.239   6.180  11.040  1.00  0.00     0.034 C 
HETATM    9  C17 UNL     1       4.697   7.151  12.151  1.00  0.00     0.013 C 
HETATM   10  C18 UNL     1       6.230   7.520  12.136  1.00  0.00     0.018 C 
HETATM   11  C19 UNL     1       6.975   7.009  10.883  1.00  0.00     0.023 C 
HETATM   12  C20 UNL     1       6.920   6.886  13.366  1.00  0.00     0.023 C 
HETATM   13  C21 UNL     1       6.479   9.032  12.246  1.00  0.00     0.135 C 
HETATM   14  O2  UNL     1       7.425   9.580  11.674  1.00  0.00    -0.297 OA
HETATM   15  C22 UNL     1       5.604   9.857  13.160  1.00  0.00     0.080 C 
HETATM   16  C23 UNL     1       4.232   9.260  13.421  1.00  0.00     0.017 C 
HETATM   17  C24 UNL     1       3.705   8.362  12.277  1.00  0.00    -0.031 C 
HETATM   18  C25 UNL     1       3.604   9.179  10.966  1.00  0.00     0.016 C 
HETATM   19  C26 UNL     1       2.296   7.761  12.671  1.00  0.00     0.024 C 
HETATM   20  C27 UNL     1       1.181   8.812  12.896  1.00  0.00     0.010 C 
HETATM   21  C28 UNL     1      -0.214   8.237  13.244  1.00  0.00     0.011 C 
HETATM   22  C29 UNL     1      -0.400   6.740  12.910  1.00  0.00    -0.029 C 
HETATM   23  C30 UNL     1       0.083   5.883  14.125  1.00  0.00     0.016 C 
ENDROOT
BRANCH   1  24
HETATM   24  C7  UNL     1      -2.904   6.112  13.687  1.00  0.00    -0.007 C 
HETATM   25  C8  UNL     1      -2.602   6.958  14.929  1.00  0.00     0.011 C 
BRANCH  24  26
HETATM   26  C6  UNL     1      -4.360   6.347  13.216  1.00  0.00     0.087 C 
BRANCH  26  27
HETATM   27  C5  UNL     1      -5.332   5.192  13.413  1.00  0.00     0.149 C 
HETATM   28  O1  UNL     1      -6.184   5.168  14.295  1.00  0.00    -0.293 OA
BRANCH  27  29
HETATM   29  C4  UNL     1      -5.145   4.032  12.485  1.00  0.00     0.052 C 
HETATM   30  C2  UNL     1      -6.050   3.064  12.248  1.00  0.00    -0.084 C 
HETATM   31  C1  UNL     1      -5.717   1.915  11.333  1.00  0.00     0.043 C 
HETATM   32  C3  UNL     1      -7.437   3.009  12.834  1.00  0.00     0.043 C 
ENDBRANCH  27  29
ENDBRANCH  26  27
ENDBRANCH  24  26
ENDBRANCH   1  24
TORSDOF 4
ENDMDL
MODEL 9
REMARK minimizedAffinity -8.34398174
REMARK  4 active torsions:
REMARK  status: ('A' for Active; 'I' for Inactive)
REMARK    1  A    between atoms: C4_4  and  C5_5 
REMARK    2  A    between atoms: C5_5  and  C6_7 
REMARK    3  A    between atoms: C6_7  and  C7_8 
REMARK    4  A    between atoms: C7_8  and  C9_10 
ROOT
HETATM    1  C9  UNL     1      -5.390   6.204  13.625  1.00  0.00    -0.001 C 
HETATM    2  C10 UNL     1      -4.090   5.555  13.066  1.00  0.00     0.007 C 
HETATM    3  C11 UNL     1      -2.907   6.437  13.513  1.00  0.00     0.015 C 
HETATM    4  C12 UNL     1      -3.558   7.732  14.037  1.00  0.00    -0.013 C 
HETATM    5  C13 UNL     1      -3.831   8.622  12.780  1.00  0.00     0.021 C 
HETATM    6  C14 UNL     1      -2.755   8.601  15.002  1.00  0.00    -0.070 C 
HETATM    7  C15 UNL     1      -1.418   8.728  14.911  1.00  0.00    -0.022 C 
HETATM    8  C16 UNL     1      -0.593   9.657  15.753  1.00  0.00     0.034 C 
HETATM    9  C17 UNL     1      -1.360  10.282  16.939  1.00  0.00     0.013 C 
HETATM   10  C18 UNL     1      -0.555  11.344  17.781  1.00  0.00     0.018 C 
HETATM   11  C19 UNL     1       0.800  11.733  17.148  1.00  0.00     0.023 C 
HETATM   12  C20 UNL     1      -0.253  10.763  19.182  1.00  0.00     0.023 C 
HETATM   13  C21 UNL     1      -1.349  12.637  18.023  1.00  0.00     0.135 C 
HETATM   14  O2  UNL     1      -0.797  13.740  18.077  1.00  0.00    -0.297 OA
HETATM   15  C22 UNL     1      -2.830  12.550  18.304  1.00  0.00     0.080 C 
HETATM   16  C23 UNL     1      -3.499  11.301  17.754  1.00  0.00     0.017 C 
HETATM   17  C24 UNL     1      -2.807  10.712  16.503  1.00  0.00    -0.031 C 
HETATM   18  C25 UNL     1      -2.790  11.760  15.363  1.00  0.00     0.016 C 
HETATM   19  C26 UNL     1      -3.556   9.397  16.043  1.00  0.00     0.024 C 
HETATM   20  C27 UNL     1      -5.032   9.605  15.620  1.00  0.00     0.010 C 
HETATM   21  C28 UNL     1      -5.768   8.334  15.129  1.00  0.00     0.011 C 
HETATM   22  C29 UNL     1      -4.843   7.160  14.736  1.00  0.00    -0.029 C 
HETATM   23  C30 UNL     1      -4.537   6.304  16.007  1.00  0.00     0.016 C 
ENDROOT
BRANCH   1  24
HETATM   24  C7  UNL     1      -6.474   5.149  13.986  1.00  0.00    -0.007 C 
HETATM   25  C8  UNL     1      -7.471   5.646  15.039  1.00  0.00     0.011 C 
BRANCH  24  26
HETATM   26  C6  UNL     1      -7.225   4.601  12.749  1.00  0.00     0.087 C 
BRANCH  26  27
HETATM   27  C5  UNL     1      -7.336   3.087  12.637  1.00  0.00     0.149 C 
HETATM   28  O1  UNL     1      -8.404   2.485  12.641  1.00  0.00    -0.293 OA
BRANCH  27  29
HETATM   29  C4  UNL     1      -6.032   2.352  12.581  1.00  0.00     0.052 C 
HETATM   30  C2  UNL     1      -5.188   2.333  11.533  1.00  0.00    -0.084 C 
HETATM   31  C1  UNL     1      -3.931   1.504  11.581  1.00  0.00     0.043 C 
HETATM   32  C3  UNL     1      -5.381   3.097  10.249  1.00  0.00     0.043 C 
ENDBRANCH  27  29
ENDBRANCH  26  27
ENDBRANCH  24  26
ENDBRANCH   1  24
TORSDOF 4
ENDMDL
