MODEL 1
REMARK minimizedAffinity -10.3489561
REMARK CNNscore 0.435395718
REMARK CNNaffinity 7.4721961
REMARK  12 active torsions:
REMARK  status: ('A' for Active; 'I' for Inactive)
REMARK    1  A    between atoms: C3_3  and  O1_4 
REMARK    2  A    between atoms: N1_14  and  O2_16 
REMARK    3  A    between atoms: O2_16  and  C13_17 
REMARK    4  A    between atoms: C13_17  and  C14_18 
REMARK       I    between atoms: C14_18  and  N2_20 
REMARK    5  A    between atoms: N2_20  and  C15_21 
REMARK    6  A    between atoms: C15_21  and  C16_22 
REMARK    7  A    between atoms: C15_21  and  C27_38 
REMARK       I    between atoms: C16_22  and  N3_24 
REMARK    8  A    between atoms: N3_24  and  C17_25 
REMARK    9  A    between atoms: C17_25  and  C18_26 
REMARK   10  A    between atoms: C17_25  and  C20_30 
REMARK   11  A    between atoms: C18_26  and  C19_27 
REMARK   12  A    between atoms: C19_27  and  O6_29 
ROOT
HETATM    1  C1  UNL     1      -3.452  49.752 -27.724  1.00  0.00     0.015 C 
HETATM    2  C2  UNL     1      -3.113  50.700 -27.067  1.00  0.00    -0.078 C 
HETATM    3  C3  UNL     1      -2.734  51.896 -26.283  1.00  0.00     0.128 C 
HETATM    4  C4  UNL     1      -3.836  52.181 -25.246  1.00  0.00     0.052 C 
HETATM    5  C5  UNL     1      -3.387  51.490 -23.947  1.00  0.00     0.010 C 
HETATM    6  C6  UNL     1      -1.995  50.883 -24.219  1.00  0.00     0.002 C 
HETATM    7  C7  UNL     1      -1.045  50.810 -23.010  1.00  0.00    -0.004 C 
HETATM    8  C8  UNL     1      -1.692  50.060 -21.837  1.00  0.00     0.010 C 
HETATM    9  C9  UNL     1      -0.696  49.846 -20.704  1.00  0.00     0.035 C 
HETATM   10  C10 UNL     1      -0.079  51.141 -20.225  1.00  0.00    -0.069 C 
HETATM   11  C11 UNL     1       0.027  51.375 -18.903  1.00  0.00     0.030 C 
HETATM   12  C12 UNL     1       0.740  52.568 -18.370  1.00  0.00     0.032 C 
HETATM   13  N1  UNL     1       0.971  52.831 -17.124  1.00  0.00    -0.271 N 
ATOM     14  H1  UNL     1       1.450  53.673 -16.805  1.00  0.00     0.194 HD
HETATM   15  C30 UNL     1       1.326  53.543 -19.368  1.00  0.00     0.060 C 
HETATM   16  C31 UNL     1       0.598  53.513 -20.698  1.00  0.00     0.020 C 
HETATM   17  C32 UNL     1       0.458  52.090 -21.305  1.00  0.00    -0.016 C 
HETATM   18  C33 UNL     1       1.849  51.560 -21.723  1.00  0.00     0.020 C 
HETATM   19  C34 UNL     1      -0.527  52.188 -22.542  1.00  0.00     0.002 C 
HETATM   20  C35 UNL     1       0.075  52.953 -23.742  1.00  0.00     0.007 C 
HETATM   21  C36 UNL     1      -0.902  53.074 -24.911  1.00  0.00     0.014 C 
HETATM   22  C37 UNL     1      -1.451  51.708 -25.409  1.00  0.00     0.003 C 
HETATM   23  C38 UNL     1      -0.323  50.965 -26.152  1.00  0.00     0.020 C 
ENDROOT
BRANCH   3  24
HETATM   24  O1  UNL     1      -2.579  52.969 -27.199  1.00  0.00    -0.377 OA
HETATM   25  H2  UNL     1      -2.781  53.803 -26.741  1.00  0.00     0.211 HD
ENDBRANCH   3  24
BRANCH  13  26
HETATM   26  O2  UNL     1       0.493  51.838 -16.256  1.00  0.00    -0.271 OA
BRANCH  26  27
HETATM   27  C13 UNL     1       1.003  52.112 -14.953  1.00  0.00     0.303 C 
BRANCH  27  28
HETATM   28  C14 UNL     1      -0.082  52.072 -13.880  1.00  0.00     0.244 C 
HETATM   29  O3  UNL     1      -1.078  51.356 -13.987  1.00  0.00    -0.271 OA
HETATM   30  N2  UNL     1       0.152  52.860 -12.771  1.00  0.00    -0.346 N 
HETATM   31  H16 UNL     1       1.125  53.142 -12.655  1.00  0.00     0.163 HD
BRANCH  30  32
HETATM   32  C15 UNL     1      -0.602  52.623 -11.547  1.00  0.00     0.180 C 
BRANCH  32  33
HETATM   33  C16 UNL     1       0.408  52.242 -10.443  1.00  0.00     0.241 C 
HETATM   34  O4  UNL     1       0.049  51.895  -9.316  1.00  0.00    -0.271 OA
HETATM   35  N3  UNL     1       1.733  52.291 -10.837  1.00  0.00    -0.354 N 
HETATM   36  H18 UNL     1       1.948  52.738 -11.722  1.00  0.00     0.162 HD
BRANCH  35  37
HETATM   37  C17 UNL     1       2.839  52.062  -9.896  1.00  0.00     0.098 C 
BRANCH  37  38
HETATM   38  C18 UNL     1       3.167  50.563  -9.935  1.00  0.00     0.135 C 
BRANCH  38  39
HETATM   39  C19 UNL     1       3.855  50.154 -11.208  1.00  0.00     0.141 C 
HETATM   40  O5  UNL     1       4.868  49.484 -11.318  1.00  0.00    -0.650 OA
BRANCH  39  41
HETATM   41  O6  UNL     1       3.181  50.566 -12.306  1.00  0.00    -0.776 OA
HETATM   42  H22 UNL     1       3.703  50.201 -13.054  1.00  0.00     0.167 HD
ENDBRANCH  39  41
ENDBRANCH  38  39
ENDBRANCH  37  38
BRANCH  37  43
HETATM   43  C20 UNL     1       4.055  52.960 -10.296  1.00  0.00     0.014 C 
HETATM   44  C21 UNL     1       4.975  53.308  -9.112  1.00  0.00     0.033 C 
HETATM   45  C22 UNL     1       5.769  54.576  -9.397  1.00  0.00     0.169 C 
HETATM   46  O7  UNL     1       4.933  55.723  -9.520  1.00  0.00    -0.381 OA
HETATM   47  C23 UNL     1       3.711  55.542 -10.247  1.00  0.00     0.054 C 
HETATM   48  C24 UNL     1       2.550  55.605  -9.247  1.00  0.00     0.045 C 
HETATM   49  C25 UNL     1       3.588  56.747 -11.194  1.00  0.00     0.045 C 
HETATM   50  C26 UNL     1       3.679  54.243 -11.074  1.00  0.00     0.044 C 
ENDBRANCH  37  43
ENDBRANCH  35  37
ENDBRANCH  32  33
BRANCH  32  51
HETATM   51  C27 UNL     1      -1.479  53.817 -11.116  1.00  0.00     0.009 C 
HETATM   52  C28 UNL     1      -0.687  54.766 -10.208  1.00  0.00     0.012 C 
HETATM   53  C29 UNL     1      -2.783  53.412 -10.423  1.00  0.00     0.012 C 
ENDBRANCH  32  51
ENDBRANCH  30  32
ENDBRANCH  27  28
ENDBRANCH  26  27
ENDBRANCH  13  26
TORSDOF 12
ENDMDL
MODEL 2
REMARK minimizedAffinity -9.38749599
REMARK CNNscore 0.352498084
REMARK CNNaffinity 6.69982195
REMARK  12 active torsions:
REMARK  status: ('A' for Active; 'I' for Inactive)
REMARK    1  A    between atoms: C3_3  and  O1_4 
REMARK    2  A    between atoms: N1_14  and  O2_16 
REMARK    3  A    between atoms: O2_16  and  C13_17 
REMARK    4  A    between atoms: C13_17  and  C14_18 
REMARK       I    between atoms: C14_18  and  N2_20 
REMARK    5  A    between atoms: N2_20  and  C15_21 
REMARK    6  A    between atoms: C15_21  and  C16_22 
REMARK    7  A    between atoms: C15_21  and  C27_38 
REMARK       I    between atoms: C16_22  and  N3_24 
REMARK    8  A    between atoms: N3_24  and  C17_25 
REMARK    9  A    between atoms: C17_25  and  C18_26 
REMARK   10  A    between atoms: C17_25  and  C20_30 
REMARK   11  A    between atoms: C18_26  and  C19_27 
REMARK   12  A    between atoms: C19_27  and  O6_29 
ROOT
HETATM    1  C1  UNL     1       2.530  51.460 -26.604  1.00  0.00     0.015 C 
HETATM    2  C2  UNL     1       1.423  51.904 -26.452  1.00  0.00    -0.078 C 
HETATM    3  C3  UNL     1       0.067  52.479 -26.312  1.00  0.00     0.128 C 
HETATM    4  C4  UNL     1      -0.846  51.871 -27.393  1.00  0.00     0.052 C 
HETATM    5  C5  UNL     1      -1.551  50.676 -26.729  1.00  0.00     0.010 C 
HETATM    6  C6  UNL     1      -1.105  50.653 -25.253  1.00  0.00     0.002 C 
HETATM    7  C7  UNL     1      -2.133  50.105 -24.247  1.00  0.00    -0.004 C 
HETATM    8  C8  UNL     1      -2.607  48.699 -24.643  1.00  0.00     0.010 C 
HETATM    9  C9  UNL     1      -3.497  48.094 -23.565  1.00  0.00     0.035 C 
HETATM   10  C10 UNL     1      -4.681  48.974 -23.232  1.00  0.00    -0.069 C 
HETATM   11  C11 UNL     1      -5.903  48.422 -23.110  1.00  0.00     0.030 C 
HETATM   12  C12 UNL     1      -7.081  49.212 -22.658  1.00  0.00     0.032 C 
HETATM   13  N1  UNL     1      -8.270  48.752 -22.426  1.00  0.00    -0.271 N 
ATOM     14  H1  UNL     1      -9.052  49.338 -22.132  1.00  0.00     0.194 HD
HETATM   15  C30 UNL     1      -6.873  50.681 -22.362  1.00  0.00     0.060 C 
HETATM   16  C31 UNL     1      -5.707  51.265 -23.136  1.00  0.00     0.020 C 
HETATM   17  C32 UNL     1      -4.388  50.460 -22.983  1.00  0.00    -0.016 C 
HETATM   18  C33 UNL     1      -3.865  50.581 -21.532  1.00  0.00     0.020 C 
HETATM   19  C34 UNL     1      -3.347  51.036 -24.029  1.00  0.00     0.002 C 
HETATM   20  C35 UNL     1      -2.857  52.459 -23.682  1.00  0.00     0.007 C 
HETATM   21  C36 UNL     1      -1.886  53.016 -24.723  1.00  0.00     0.014 C 
HETATM   22  C37 UNL     1      -0.651  52.105 -24.975  1.00  0.00     0.003 C 
HETATM   23  C38 UNL     1       0.281  52.189 -23.750  1.00  0.00     0.020 C 
ENDROOT
BRANCH   3  24
HETATM   24  O1  UNL     1       0.189  53.886 -26.454  1.00  0.00    -0.377 OA
HETATM   25  H2  UNL     1      -0.643  54.238 -26.814  1.00  0.00     0.211 HD
ENDBRANCH   3  24
BRANCH  13  26
HETATM   26  O2  UNL     1      -8.369  47.366 -22.619  1.00  0.00    -0.271 OA
BRANCH  26  27
HETATM   27  C13 UNL     1      -9.158  46.832 -21.557  1.00  0.00     0.303 C 
BRANCH  27  28
HETATM   28  C14 UNL     1     -10.386  46.079 -22.063  1.00  0.00     0.244 C 
HETATM   29  O3  UNL     1     -10.351  44.875 -22.320  1.00  0.00    -0.271 OA
HETATM   30  N2  UNL     1     -11.538  46.830 -22.173  1.00  0.00    -0.346 N 
HETATM   31  H16 UNL     1     -11.523  47.700 -21.641  1.00  0.00     0.163 HD
BRANCH  30  32
HETATM   32  C15 UNL     1     -12.827  46.159 -22.277  1.00  0.00     0.180 C 
BRANCH  32  33
HETATM   33  C16 UNL     1     -13.804  46.871 -21.317  1.00  0.00     0.241 C 
HETATM   34  O4  UNL     1     -13.984  48.090 -21.348  1.00  0.00    -0.271 OA
HETATM   35  N3  UNL     1     -14.476  46.025 -20.453  1.00  0.00    -0.354 N 
HETATM   36  H18 UNL     1     -14.155  45.066 -20.382  1.00  0.00     0.162 HD
BRANCH  35  37
HETATM   37  C17 UNL     1     -15.369  46.530 -19.399  1.00  0.00     0.098 C 
BRANCH  37  38
HETATM   38  C18 UNL     1     -14.626  47.662 -18.676  1.00  0.00     0.135 C 
BRANCH  38  39
HETATM   39  C19 UNL     1     -13.709  47.154 -17.598  1.00  0.00     0.141 C 
HETATM   40  O5  UNL     1     -13.953  47.055 -16.407  1.00  0.00    -0.650 OA
BRANCH  39  41
HETATM   41  O6  UNL     1     -12.527  46.727 -18.095  1.00  0.00    -0.776 OA
HETATM   42  H22 UNL     1     -12.049  46.384 -17.308  1.00  0.00     0.167 HD
ENDBRANCH  39  41
ENDBRANCH  38  39
ENDBRANCH  37  38
BRANCH  37  43
HETATM   43  C20 UNL     1     -16.715  46.999 -20.041  1.00  0.00     0.014 C 
HETATM   44  C21 UNL     1     -17.681  47.649 -19.033  1.00  0.00     0.033 C 
HETATM   45  C22 UNL     1     -19.117  47.572 -19.533  1.00  0.00     0.169 C 
HETATM   46  O7  UNL     1     -19.587  46.230 -19.628  1.00  0.00    -0.381 OA
HETATM   47  C23 UNL     1     -18.662  45.271 -20.155  1.00  0.00     0.054 C 
HETATM   48  C24 UNL     1     -18.226  44.351 -19.008  1.00  0.00     0.045 C 
HETATM   49  C25 UNL     1     -19.446  44.425 -21.171  1.00  0.00     0.045 C 
HETATM   50  C26 UNL     1     -17.452  45.913 -20.860  1.00  0.00     0.044 C 
ENDBRANCH  37  43
ENDBRANCH  35  37
ENDBRANCH  32  33
BRANCH  32  51
HETATM   51  C27 UNL     1     -13.389  46.112 -23.714  1.00  0.00     0.009 C 
HETATM   52  C28 UNL     1     -12.337  46.595 -24.719  1.00  0.00     0.012 C 
HETATM   53  C29 UNL     1     -14.683  46.908 -23.902  1.00  0.00     0.012 C 
ENDBRANCH  32  51
ENDBRANCH  30  32
ENDBRANCH  27  28
ENDBRANCH  26  27
ENDBRANCH  13  26
TORSDOF 12
ENDMDL
MODEL 3
REMARK minimizedAffinity -9.56583214
REMARK CNNscore 0.311933368
REMARK CNNaffinity 6.48295832
REMARK  12 active torsions:
REMARK  status: ('A' for Active; 'I' for Inactive)
REMARK    1  A    between atoms: C3_3  and  O1_4 
REMARK    2  A    between atoms: N1_14  and  O2_16 
REMARK    3  A    between atoms: O2_16  and  C13_17 
REMARK    4  A    between atoms: C13_17  and  C14_18 
REMARK       I    between atoms: C14_18  and  N2_20 
REMARK    5  A    between atoms: N2_20  and  C15_21 
REMARK    6  A    between atoms: C15_21  and  C16_22 
REMARK    7  A    between atoms: C15_21  and  C27_38 
REMARK       I    between atoms: C16_22  and  N3_24 
REMARK    8  A    between atoms: N3_24  and  C17_25 
REMARK    9  A    between atoms: C17_25  and  C18_26 
REMARK   10  A    between atoms: C17_25  and  C20_30 
REMARK   11  A    between atoms: C18_26  and  C19_27 
REMARK   12  A    between atoms: C19_27  and  O6_29 
ROOT
HETATM    1  C1  UNL     1       2.523  51.733 -27.035  1.00  0.00     0.015 C 
HETATM    2  C2  UNL     1       1.471  52.194 -26.679  1.00  0.00    -0.078 C 
HETATM    3  C3  UNL     1       0.186  52.806 -26.271  1.00  0.00     0.128 C 
HETATM    4  C4  UNL     1      -0.779  52.782 -27.471  1.00  0.00     0.052 C 
HETATM    5  C5  UNL     1      -1.620  51.504 -27.314  1.00  0.00     0.010 C 
HETATM    6  C6  UNL     1      -1.192  50.845 -25.987  1.00  0.00     0.002 C 
HETATM    7  C7  UNL     1      -2.285  50.052 -25.246  1.00  0.00    -0.004 C 
HETATM    8  C8  UNL     1      -2.910  48.982 -26.152  1.00  0.00     0.010 C 
HETATM    9  C9  UNL     1      -3.872  48.094 -25.373  1.00  0.00     0.035 C 
HETATM   10  C10 UNL     1      -4.953  48.888 -24.674  1.00  0.00    -0.069 C 
HETATM   11  C11 UNL     1      -6.230  48.467 -24.738  1.00  0.00     0.030 C 
HETATM   12  C12 UNL     1      -7.317  49.130 -23.966  1.00  0.00     0.032 C 
HETATM   13  N1  UNL     1      -8.551  48.745 -23.893  1.00  0.00    -0.271 N 
ATOM     14  H1  UNL     1      -9.266  49.244 -23.362  1.00  0.00     0.194 HD
HETATM   15  C30 UNL     1      -6.948  50.326 -23.117  1.00  0.00     0.060 C 
HETATM   16  C31 UNL     1      -5.717  51.043 -23.635  1.00  0.00     0.020 C 
HETATM   17  C32 UNL     1      -4.497  50.109 -23.864  1.00  0.00    -0.016 C 
HETATM   18  C33 UNL     1      -3.978  49.583 -22.505  1.00  0.00     0.020 C 
HETATM   19  C34 UNL     1      -3.389  50.941 -24.631  1.00  0.00     0.002 C 
HETATM   20  C35 UNL     1      -2.745  52.046 -23.763  1.00  0.00     0.007 C 
HETATM   21  C36 UNL     1      -1.709  52.866 -24.530  1.00  0.00     0.014 C 
HETATM   22  C37 UNL     1      -0.582  52.007 -25.169  1.00  0.00     0.003 C 
HETATM   23  C38 UNL     1       0.343  51.494 -24.047  1.00  0.00     0.020 C 
ENDROOT
BRANCH   3  24
HETATM   24  O1  UNL     1       0.467  54.131 -25.845  1.00  0.00    -0.377 OA
HETATM   25  H2  UNL     1      -0.317  54.683 -26.005  1.00  0.00     0.211 HD
ENDBRANCH   3  24
BRANCH  13  26
HETATM   26  O2  UNL     1      -8.804  47.571 -24.619  1.00  0.00    -0.271 OA
BRANCH  26  27
HETATM   27  C13 UNL     1      -9.909  46.908 -24.009  1.00  0.00     0.303 C 
BRANCH  27  28
HETATM   28  C14 UNL     1     -11.170  46.963 -24.867  1.00  0.00     0.244 C 
HETATM   29  O3  UNL     1     -11.356  47.856 -25.695  1.00  0.00    -0.271 OA
HETATM   30  N2  UNL     1     -12.060  45.925 -24.680  1.00  0.00    -0.346 N 
HETATM   31  H16 UNL     1     -11.658  45.106 -24.224  1.00  0.00     0.163 HD
BRANCH  30  32
HETATM   32  C15 UNL     1     -13.087  45.668 -25.681  1.00  0.00     0.180 C 
BRANCH  32  33
HETATM   33  C16 UNL     1     -14.362  46.422 -25.246  1.00  0.00     0.241 C 
HETATM   34  O4  UNL     1     -14.464  47.647 -25.335  1.00  0.00    -0.271 OA
HETATM   35  N3  UNL     1     -15.379  45.607 -24.783  1.00  0.00    -0.354 N 
HETATM   36  H18 UNL     1     -15.158  44.636 -24.590  1.00  0.00     0.162 HD
BRANCH  35  37
HETATM   37  C17 UNL     1     -16.629  46.150 -24.230  1.00  0.00     0.098 C 
BRANCH  37  38
HETATM   38  C18 UNL     1     -17.756  45.781 -25.203  1.00  0.00     0.135 C 
BRANCH  38  39
HETATM   39  C19 UNL     1     -19.081  46.367 -24.802  1.00  0.00     0.141 C 
HETATM   40  O5  UNL     1     -20.088  45.762 -24.472  1.00  0.00    -0.650 OA
BRANCH  39  41
HETATM   41  O6  UNL     1     -19.052  47.718 -24.772  1.00  0.00    -0.776 OA
HETATM   42  H22 UNL     1     -19.949  47.967 -24.456  1.00  0.00     0.167 HD
ENDBRANCH  39  41
ENDBRANCH  38  39
ENDBRANCH  37  38
BRANCH  37  43
HETATM   43  C20 UNL     1     -16.853  45.575 -22.794  1.00  0.00     0.014 C 
HETATM   44  C21 UNL     1     -17.596  46.543 -21.855  1.00  0.00     0.033 C 
HETATM   45  C22 UNL     1     -17.304  46.215 -20.397  1.00  0.00     0.169 C 
HETATM   46  O7  UNL     1     -15.933  46.409 -20.061  1.00  0.00    -0.381 OA
HETATM   47  C23 UNL     1     -14.975  45.971 -21.031  1.00  0.00     0.054 C 
HETATM   48  C24 UNL     1     -14.327  47.213 -21.654  1.00  0.00     0.045 C 
HETATM   49  C25 UNL     1     -13.889  45.208 -20.255  1.00  0.00     0.045 C 
HETATM   50  C26 UNL     1     -15.573  45.042 -22.105  1.00  0.00     0.044 C 
ENDBRANCH  37  43
ENDBRANCH  35  37
ENDBRANCH  32  33
BRANCH  32  51
HETATM   51  C27 UNL     1     -12.669  46.057 -27.115  1.00  0.00     0.009 C 
HETATM   52  C28 UNL     1     -13.904  46.238 -28.005  1.00  0.00     0.012 C 
HETATM   53  C29 UNL     1     -11.703  45.065 -27.770  1.00  0.00     0.012 C 
ENDBRANCH  32  51
ENDBRANCH  30  32
ENDBRANCH  27  28
ENDBRANCH  26  27
ENDBRANCH  13  26
TORSDOF 12
ENDMDL
MODEL 4
REMARK minimizedAffinity -9.02210426
REMARK CNNscore 0.309407473
REMARK CNNaffinity 7.31562424
REMARK  12 active torsions:
REMARK  status: ('A' for Active; 'I' for Inactive)
REMARK    1  A    between atoms: C3_3  and  O1_4 
REMARK    2  A    between atoms: N1_14  and  O2_16 
REMARK    3  A    between atoms: O2_16  and  C13_17 
REMARK    4  A    between atoms: C13_17  and  C14_18 
REMARK       I    between atoms: C14_18  and  N2_20 
REMARK    5  A    between atoms: N2_20  and  C15_21 
REMARK    6  A    between atoms: C15_21  and  C16_22 
REMARK    7  A    between atoms: C15_21  and  C27_38 
REMARK       I    between atoms: C16_22  and  N3_24 
REMARK    8  A    between atoms: N3_24  and  C17_25 
REMARK    9  A    between atoms: C17_25  and  C18_26 
REMARK   10  A    between atoms: C17_25  and  C20_30 
REMARK   11  A    between atoms: C18_26  and  C19_27 
REMARK   12  A    between atoms: C19_27  and  O6_29 
ROOT
HETATM    1  C1  UNL     1      -3.653  48.946 -27.532  1.00  0.00     0.015 C 
HETATM    2  C2  UNL     1      -3.388  49.945 -26.920  1.00  0.00    -0.078 C 
HETATM    3  C3  UNL     1      -3.105  51.201 -26.189  1.00  0.00     0.128 C 
HETATM    4  C4  UNL     1      -4.181  51.400 -25.106  1.00  0.00     0.052 C 
HETATM    5  C5  UNL     1      -3.597  50.804 -23.813  1.00  0.00     0.010 C 
HETATM    6  C6  UNL     1      -2.162  50.343 -24.139  1.00  0.00     0.002 C 
HETATM    7  C7  UNL     1      -1.152  50.412 -22.979  1.00  0.00    -0.004 C 
HETATM    8  C8  UNL     1      -1.656  49.636 -21.753  1.00  0.00     0.010 C 
HETATM    9  C9  UNL     1      -0.590  49.569 -20.668  1.00  0.00     0.035 C 
HETATM   10  C10 UNL     1      -0.096  50.938 -20.257  1.00  0.00    -0.069 C 
HETATM   11  C11 UNL     1       0.048  51.226 -18.949  1.00  0.00     0.030 C 
HETATM   12  C12 UNL     1       0.650  52.506 -18.487  1.00  0.00     0.032 C 
HETATM   13  N1  UNL     1       0.910  52.833 -17.262  1.00  0.00    -0.271 N 
ATOM     14  H1  UNL     1       1.310  53.732 -16.992  1.00  0.00     0.194 HD
HETATM   15  C30 UNL     1       1.078  53.504 -19.541  1.00  0.00     0.060 C 
HETATM   16  C31 UNL     1       0.294  53.352 -20.830  1.00  0.00     0.020 C 
HETATM   17  C32 UNL     1       0.281  51.903 -21.389  1.00  0.00    -0.016 C 
HETATM   18  C33 UNL     1       1.701  51.512 -21.863  1.00  0.00     0.020 C 
HETATM   19  C34 UNL     1      -0.766  51.853 -22.576  1.00  0.00     0.002 C 
HETATM   20  C35 UNL     1      -0.310  52.639 -23.826  1.00  0.00     0.007 C 
HETATM   21  C36 UNL     1      -1.350  52.615 -24.946  1.00  0.00     0.014 C 
HETATM   22  C37 UNL     1      -1.769  51.182 -25.378  1.00  0.00     0.003 C 
HETATM   23  C38 UNL     1      -0.604  50.541 -26.157  1.00  0.00     0.020 C 
ENDROOT
BRANCH   3  24
HETATM   24  O1  UNL     1      -3.113  52.254 -27.142  1.00  0.00    -0.377 OA
HETATM   25  H2  UNL     1      -3.383  53.075 -26.697  1.00  0.00     0.211 HD
ENDBRANCH   3  24
BRANCH  13  26
HETATM   26  O2  UNL     1       0.586  51.823 -16.343  1.00  0.00    -0.271 OA
BRANCH  26  27
HETATM   27  C13 UNL     1       1.280  52.097 -15.128  1.00  0.00     0.303 C 
BRANCH  27  28
HETATM   28  C14 UNL     1       0.376  51.991 -13.902  1.00  0.00     0.244 C 
HETATM   29  O3  UNL     1       0.044  52.981 -13.249  1.00  0.00    -0.271 OA
HETATM   30  N2  UNL     1      -0.072  50.720 -13.605  1.00  0.00    -0.346 N 
HETATM   31  H16 UNL     1       0.001  50.059 -14.378  1.00  0.00     0.163 HD
BRANCH  30  32
HETATM   32  C15 UNL     1      -1.212  50.549 -12.714  1.00  0.00     0.180 C 
BRANCH  32  33
HETATM   33  C16 UNL     1      -0.670  50.488 -11.269  1.00  0.00     0.241 C 
HETATM   34  O4  UNL     1      -1.266  49.894 -10.368  1.00  0.00    -0.271 OA
HETATM   35  N3  UNL     1       0.544  51.124 -11.086  1.00  0.00    -0.354 N 
HETATM   36  H18 UNL     1       0.885  51.721 -11.832  1.00  0.00     0.162 HD
BRANCH  35  37
HETATM   37  C17 UNL     1       1.166  51.260  -9.760  1.00  0.00     0.098 C 
BRANCH  37  38
HETATM   38  C18 UNL     1       2.473  50.455  -9.786  1.00  0.00     0.135 C 
BRANCH  38  39
HETATM   39  C19 UNL     1       2.668  49.710 -11.077  1.00  0.00     0.141 C 
HETATM   40  O5  UNL     1       3.258  50.097 -12.071  1.00  0.00    -0.650 OA
BRANCH  39  41
HETATM   41  O6  UNL     1       2.153  48.460 -11.027  1.00  0.00    -0.776 OA
HETATM   42  H22 UNL     1       2.385  48.074 -11.900  1.00  0.00     0.167 HD
ENDBRANCH  39  41
ENDBRANCH  38  39
ENDBRANCH  37  38
BRANCH  37  43
HETATM   43  C20 UNL     1       1.391  52.774  -9.446  1.00  0.00     0.014 C 
HETATM   44  C21 UNL     1       1.456  53.084  -7.939  1.00  0.00     0.033 C 
HETATM   45  C22 UNL     1       1.114  54.543  -7.671  1.00  0.00     0.169 C 
HETATM   46  O7  UNL     1      -0.232  54.858  -8.020  1.00  0.00    -0.381 OA
HETATM   47  C23 UNL     1      -0.720  54.288  -9.241  1.00  0.00     0.054 C 
HETATM   48  C24 UNL     1      -1.748  53.208  -8.883  1.00  0.00     0.045 C 
HETATM   49  C25 UNL     1      -1.454  55.417  -9.983  1.00  0.00     0.045 C 
HETATM   50  C26 UNL     1       0.397  53.732 -10.145  1.00  0.00     0.044 C 
ENDBRANCH  37  43
ENDBRANCH  35  37
ENDBRANCH  32  33
BRANCH  32  51
HETATM   51  C27 UNL     1      -2.288  51.645 -12.863  1.00  0.00     0.009 C 
HETATM   52  C28 UNL     1      -3.259  51.611 -11.677  1.00  0.00     0.012 C 
HETATM   53  C29 UNL     1      -3.074  51.569 -14.174  1.00  0.00     0.012 C 
ENDBRANCH  32  51
ENDBRANCH  30  32
ENDBRANCH  27  28
ENDBRANCH  26  27
ENDBRANCH  13  26
TORSDOF 12
ENDMDL
MODEL 5
REMARK minimizedAffinity -9.20326138
REMARK CNNscore 0.27002728
REMARK CNNaffinity 7.05482817
REMARK  12 active torsions:
REMARK  status: ('A' for Active; 'I' for Inactive)
REMARK    1  A    between atoms: C3_3  and  O1_4 
REMARK    2  A    between atoms: N1_14  and  O2_16 
REMARK    3  A    between atoms: O2_16  and  C13_17 
REMARK    4  A    between atoms: C13_17  and  C14_18 
REMARK       I    between atoms: C14_18  and  N2_20 
REMARK    5  A    between atoms: N2_20  and  C15_21 
REMARK    6  A    between atoms: C15_21  and  C16_22 
REMARK    7  A    between atoms: C15_21  and  C27_38 
REMARK       I    between atoms: C16_22  and  N3_24 
REMARK    8  A    between atoms: N3_24  and  C17_25 
REMARK    9  A    between atoms: C17_25  and  C18_26 
REMARK   10  A    between atoms: C17_25  and  C20_30 
REMARK   11  A    between atoms: C18_26  and  C19_27 
REMARK   12  A    between atoms: C19_27  and  O6_29 
ROOT
HETATM    1  C1  UNL     1      -7.198  47.148 -23.146  1.00  0.00     0.015 C 
HETATM    2  C2  UNL     1      -6.628  48.206 -23.143  1.00  0.00    -0.078 C 
HETATM    3  C3  UNL     1      -5.973  49.533 -23.154  1.00  0.00     0.128 C 
HETATM    4  C4  UNL     1      -6.498  50.357 -21.964  1.00  0.00     0.052 C 
HETATM    5  C5  UNL     1      -5.490  50.143 -20.822  1.00  0.00     0.010 C 
HETATM    6  C6  UNL     1      -4.353  49.266 -21.385  1.00  0.00     0.002 C 
HETATM    7  C7  UNL     1      -2.957  49.503 -20.778  1.00  0.00    -0.004 C 
HETATM    8  C8  UNL     1      -2.982  49.361 -19.250  1.00  0.00     0.010 C 
HETATM    9  C9  UNL     1      -1.576  49.434 -18.667  1.00  0.00     0.035 C 
HETATM   10  C10 UNL     1      -0.850  50.699 -19.067  1.00  0.00    -0.069 C 
HETATM   11  C11 UNL     1      -0.166  51.392 -18.137  1.00  0.00     0.030 C 
HETATM   12  C12 UNL     1       0.673  52.569 -18.492  1.00  0.00     0.032 C 
HETATM   13  N1  UNL     1       1.433  53.241 -17.687  1.00  0.00    -0.271 N 
ATOM     14  H1  UNL     1       1.978  54.054 -17.975  1.00  0.00     0.194 HD
HETATM   15  C30 UNL     1       0.715  52.991 -19.944  1.00  0.00     0.060 C 
HETATM   16  C31 UNL     1      -0.533  52.580 -20.700  1.00  0.00     0.020 C 
HETATM   17  C32 UNL     1      -0.887  51.075 -20.554  1.00  0.00    -0.016 C 
HETATM   18  C33 UNL     1       0.182  50.214 -21.267  1.00  0.00     0.020 C 
HETATM   19  C34 UNL     1      -2.326  50.856 -21.178  1.00  0.00     0.002 C 
HETATM   20  C35 UNL     1      -2.355  51.009 -22.716  1.00  0.00     0.007 C 
HETATM   21  C36 UNL     1      -3.757  50.835 -23.298  1.00  0.00     0.014 C 
HETATM   22  C37 UNL     1      -4.430  49.487 -22.914  1.00  0.00     0.003 C 
HETATM   23  C38 UNL     1      -3.736  48.351 -23.691  1.00  0.00     0.020 C 
ENDROOT
BRANCH   3  24
HETATM   24  O1  UNL     1      -6.282  50.145 -24.397  1.00  0.00    -0.377 OA
HETATM   25  H2  UNL     1      -6.281  51.110 -24.280  1.00  0.00     0.211 HD
ENDBRANCH   3  24
BRANCH  13  26
HETATM   26  O2  UNL     1       1.429  52.735 -16.378  1.00  0.00    -0.271 OA
BRANCH  26  27
HETATM   27  C13 UNL     1       2.712  52.166 -16.125  1.00  0.00     0.303 C 
BRANCH  27  28
HETATM   28  C14 UNL     1       2.836  51.612 -14.708  1.00  0.00     0.244 C 
HETATM   29  O3  UNL     1       3.877  51.094 -14.300  1.00  0.00    -0.271 OA
HETATM   30  N2  UNL     1       1.720  51.767 -13.911  1.00  0.00    -0.346 N 
HETATM   31  H16 UNL     1       1.064  52.474 -14.242  1.00  0.00     0.163 HD
BRANCH  30  32
HETATM   32  C15 UNL     1       1.843  51.626 -12.466  1.00  0.00     0.180 C 
BRANCH  32  33
HETATM   33  C16 UNL     1       1.393  52.957 -11.826  1.00  0.00     0.241 C 
HETATM   34  O4  UNL     1       0.255  53.405 -11.972  1.00  0.00    -0.271 OA
HETATM   35  N3  UNL     1       2.362  53.578 -11.058  1.00  0.00    -0.354 N 
HETATM   36  H18 UNL     1       3.312  53.231 -11.121  1.00  0.00     0.162 HD
BRANCH  35  37
HETATM   37  C17 UNL     1       2.152  54.903 -10.454  1.00  0.00     0.098 C 
BRANCH  37  38
HETATM   38  C18 UNL     1       1.455  54.684  -9.105  1.00  0.00     0.135 C 
BRANCH  38  39
HETATM   39  C19 UNL     1       0.146  55.416  -9.006  1.00  0.00     0.141 C 
HETATM   40  O5  UNL     1      -0.249  56.101  -8.077  1.00  0.00    -0.650 OA
BRANCH  39  41
HETATM   41  O6  UNL     1      -0.590  55.301 -10.134  1.00  0.00    -0.776 OA
HETATM   42  H22 UNL     1      -1.383  55.853  -9.958  1.00  0.00     0.167 HD
ENDBRANCH  39  41
ENDBRANCH  38  39
ENDBRANCH  37  38
BRANCH  37  43
HETATM   43  C20 UNL     1       3.528  55.633 -10.316  1.00  0.00     0.014 C 
HETATM   44  C21 UNL     1       4.725  54.670 -10.210  1.00  0.00     0.033 C 
HETATM   45  C22 UNL     1       5.908  55.349  -9.536  1.00  0.00     0.169 C 
HETATM   46  O7  UNL     1       5.635  55.693  -8.180  1.00  0.00    -0.381 OA
HETATM   47  C23 UNL     1       4.336  56.233  -7.912  1.00  0.00     0.054 C 
HETATM   48  C24 UNL     1       3.538  55.184  -7.128  1.00  0.00     0.045 C 
HETATM   49  C25 UNL     1       4.551  57.449  -6.996  1.00  0.00     0.045 C 
HETATM   50  C26 UNL     1       3.588  56.684  -9.182  1.00  0.00     0.044 C 
ENDBRANCH  37  43
ENDBRANCH  35  37
ENDBRANCH  32  33
BRANCH  32  51
HETATM   51  C27 UNL     1       1.052  50.432 -11.889  1.00  0.00     0.009 C 
HETATM   52  C28 UNL     1      -0.221  50.185 -12.706  1.00  0.00     0.012 C 
HETATM   53  C29 UNL     1       0.691  50.585 -10.408  1.00  0.00     0.012 C 
ENDBRANCH  32  51
ENDBRANCH  30  32
ENDBRANCH  27  28
ENDBRANCH  26  27
ENDBRANCH  13  26
TORSDOF 12
ENDMDL
MODEL 6
REMARK minimizedAffinity -10.4738913
REMARK CNNscore 0.259679705
REMARK CNNaffinity 7.38374758
REMARK  12 active torsions:
REMARK  status: ('A' for Active; 'I' for Inactive)
REMARK    1  A    between atoms: C3_3  and  O1_4 
REMARK    2  A    between atoms: N1_14  and  O2_16 
REMARK    3  A    between atoms: O2_16  and  C13_17 
REMARK    4  A    between atoms: C13_17  and  C14_18 
REMARK       I    between atoms: C14_18  and  N2_20 
REMARK    5  A    between atoms: N2_20  and  C15_21 
REMARK    6  A    between atoms: C15_21  and  C16_22 
REMARK    7  A    between atoms: C15_21  and  C27_38 
REMARK       I    between atoms: C16_22  and  N3_24 
REMARK    8  A    between atoms: N3_24  and  C17_25 
REMARK    9  A    between atoms: C17_25  and  C18_26 
REMARK   10  A    between atoms: C17_25  and  C20_30 
REMARK   11  A    between atoms: C18_26  and  C19_27 
REMARK   12  A    between atoms: C19_27  and  O6_29 
ROOT
HETATM    1  C1  UNL     1      -3.409  49.777 -27.903  1.00  0.00     0.015 C 
HETATM    2  C2  UNL     1      -3.045  50.725 -27.260  1.00  0.00    -0.078 C 
HETATM    3  C3  UNL     1      -2.635  51.924 -26.495  1.00  0.00     0.128 C 
HETATM    4  C4  UNL     1      -3.746  52.276 -25.488  1.00  0.00     0.052 C 
HETATM    5  C5  UNL     1      -3.350  51.598 -24.165  1.00  0.00     0.010 C 
HETATM    6  C6  UNL     1      -1.978  50.932 -24.395  1.00  0.00     0.002 C 
HETATM    7  C7  UNL     1      -1.055  50.850 -23.164  1.00  0.00    -0.004 C 
HETATM    8  C8  UNL     1      -1.754  50.153 -21.988  1.00  0.00     0.010 C 
HETATM    9  C9  UNL     1      -0.790  49.927 -20.831  1.00  0.00     0.035 C 
HETATM   10  C10 UNL     1      -0.133  51.208 -20.368  1.00  0.00    -0.069 C 
HETATM   11  C11 UNL     1      -0.044  51.469 -19.050  1.00  0.00     0.030 C 
HETATM   12  C12 UNL     1       0.705  52.645 -18.529  1.00  0.00     0.032 C 
HETATM   13  N1  UNL     1       0.921  52.928 -17.284  1.00  0.00    -0.271 N 
ATOM     14  H1  UNL     1       1.427  53.758 -16.975  1.00  0.00     0.194 HD
HETATM   15  C30 UNL     1       1.348  53.573 -19.537  1.00  0.00     0.060 C 
HETATM   16  C31 UNL     1       0.646  53.540 -20.880  1.00  0.00     0.020 C 
HETATM   17  C32 UNL     1       0.462  52.110 -21.458  1.00  0.00    -0.016 C 
HETATM   18  C33 UNL     1       1.840  51.516 -21.835  1.00  0.00     0.020 C 
HETATM   19  C34 UNL     1      -0.493  52.217 -22.717  1.00  0.00     0.002 C 
HETATM   20  C35 UNL     1       0.162  52.931 -23.921  1.00  0.00     0.007 C 
HETATM   21  C36 UNL     1      -0.786  53.062 -25.112  1.00  0.00     0.014 C 
HETATM   22  C37 UNL     1      -1.379  51.707 -25.591  1.00  0.00     0.003 C 
HETATM   23  C38 UNL     1      -0.266  50.904 -26.294  1.00  0.00     0.020 C 
ENDROOT
BRANCH   3  24
HETATM   24  O1  UNL     1      -2.421  52.969 -27.432  1.00  0.00    -0.377 OA
HETATM   25  H2  UNL     1      -2.598  53.820 -26.997  1.00  0.00     0.211 HD
ENDBRANCH   3  24
BRANCH  13  26
HETATM   26  O2  UNL     1       0.387  51.974 -16.405  1.00  0.00    -0.271 OA
BRANCH  26  27
HETATM   27  C13 UNL     1       1.460  51.156 -15.943  1.00  0.00     0.303 C 
BRANCH  27  28
HETATM   28  C14 UNL     1       1.611  51.192 -14.425  1.00  0.00     0.244 C 
HETATM   29  O3  UNL     1       0.873  50.543 -13.681  1.00  0.00    -0.271 OA
HETATM   30  N2  UNL     1       2.651  51.965 -13.950  1.00  0.00    -0.346 N 
HETATM   31  H16 UNL     1       3.364  52.181 -14.647  1.00  0.00     0.163 HD
BRANCH  30  32
HETATM   32  C15 UNL     1       3.119  51.781 -12.583  1.00  0.00     0.180 C 
BRANCH  32  33
HETATM   33  C16 UNL     1       1.980  52.218 -11.636  1.00  0.00     0.241 C 
HETATM   34  O4  UNL     1       1.403  51.423 -10.892  1.00  0.00    -0.271 OA
HETATM   35  N3  UNL     1       1.691  53.570 -11.675  1.00  0.00    -0.354 N 
HETATM   36  H18 UNL     1       2.096  54.120 -12.424  1.00  0.00     0.162 HD
BRANCH  35  37
HETATM   37  C17 UNL     1       0.572  54.153 -10.921  1.00  0.00     0.098 C 
BRANCH  37  38
HETATM   38  C18 UNL     1      -0.602  53.168 -11.012  1.00  0.00     0.135 C 
BRANCH  38  39
HETATM   39  C19 UNL     1      -1.860  53.708 -10.390  1.00  0.00     0.141 C 
HETATM   40  O5  UNL     1      -2.505  53.214  -9.481  1.00  0.00    -0.650 OA
BRANCH  39  41
HETATM   41  O6  UNL     1      -2.213  54.903 -10.913  1.00  0.00    -0.776 OA
HETATM   42  H22 UNL     1      -3.008  55.162 -10.397  1.00  0.00     0.167 HD
ENDBRANCH  39  41
ENDBRANCH  38  39
ENDBRANCH  37  38
BRANCH  37  43
HETATM   43  C20 UNL     1       1.023  54.427  -9.450  1.00  0.00     0.014 C 
HETATM   44  C21 UNL     1       0.481  55.749  -8.878  1.00  0.00     0.033 C 
HETATM   45  C22 UNL     1       1.352  56.240  -7.730  1.00  0.00     0.169 C 
HETATM   46  O7  UNL     1       2.671  56.575  -8.154  1.00  0.00    -0.381 OA
HETATM   47  C23 UNL     1       3.278  55.684  -9.097  1.00  0.00     0.054 C 
HETATM   48  C24 UNL     1       3.359  56.405 -10.448  1.00  0.00     0.045 C 
HETATM   49  C25 UNL     1       4.713  55.442  -8.602  1.00  0.00     0.045 C 
HETATM   50  C26 UNL     1       2.550  54.332  -9.217  1.00  0.00     0.044 C 
ENDBRANCH  37  43
ENDBRANCH  35  37
ENDBRANCH  32  33
BRANCH  32  51
HETATM   51  C27 UNL     1       3.584  50.342 -12.273  1.00  0.00     0.009 C 
HETATM   52  C28 UNL     1       4.417  50.311 -10.986  1.00  0.00     0.012 C 
HETATM   53  C29 UNL     1       4.371  49.685 -13.411  1.00  0.00     0.012 C 
ENDBRANCH  32  51
ENDBRANCH  30  32
ENDBRANCH  27  28
ENDBRANCH  26  27
ENDBRANCH  13  26
TORSDOF 12
ENDMDL
MODEL 7
REMARK minimizedAffinity -10.3859634
REMARK CNNscore 0.251435846
REMARK CNNaffinity 7.18543053
REMARK  12 active torsions:
REMARK  status: ('A' for Active; 'I' for Inactive)
REMARK    1  A    between atoms: C3_3  and  O1_4 
REMARK    2  A    between atoms: N1_14  and  O2_16 
REMARK    3  A    between atoms: O2_16  and  C13_17 
REMARK    4  A    between atoms: C13_17  and  C14_18 
REMARK       I    between atoms: C14_18  and  N2_20 
REMARK    5  A    between atoms: N2_20  and  C15_21 
REMARK    6  A    between atoms: C15_21  and  C16_22 
REMARK    7  A    between atoms: C15_21  and  C27_38 
REMARK       I    between atoms: C16_22  and  N3_24 
REMARK    8  A    between atoms: N3_24  and  C17_25 
REMARK    9  A    between atoms: C17_25  and  C18_26 
REMARK   10  A    between atoms: C17_25  and  C20_30 
REMARK   11  A    between atoms: C18_26  and  C19_27 
REMARK   12  A    between atoms: C19_27  and  O6_29 
ROOT
HETATM    1  C1  UNL     1      -3.443  49.777 -27.866  1.00  0.00     0.015 C 
HETATM    2  C2  UNL     1      -3.069  50.719 -27.220  1.00  0.00    -0.078 C 
HETATM    3  C3  UNL     1      -2.646  51.910 -26.449  1.00  0.00     0.128 C 
HETATM    4  C4  UNL     1      -3.752  52.267 -25.438  1.00  0.00     0.052 C 
HETATM    5  C5  UNL     1      -3.360  51.579 -24.120  1.00  0.00     0.010 C 
HETATM    6  C6  UNL     1      -1.995  50.901 -24.355  1.00  0.00     0.002 C 
HETATM    7  C7  UNL     1      -1.070  50.804 -23.127  1.00  0.00    -0.004 C 
HETATM    8  C8  UNL     1      -1.774  50.108 -21.953  1.00  0.00     0.010 C 
HETATM    9  C9  UNL     1      -0.810  49.867 -20.799  1.00  0.00     0.035 C 
HETATM   10  C10 UNL     1      -0.139  51.140 -20.331  1.00  0.00    -0.069 C 
HETATM   11  C11 UNL     1      -0.045  51.392 -19.011  1.00  0.00     0.030 C 
HETATM   12  C12 UNL     1       0.716  52.559 -18.487  1.00  0.00     0.032 C 
HETATM   13  N1  UNL     1       0.937  52.834 -17.241  1.00  0.00    -0.271 N 
ATOM     14  H1  UNL     1       1.451  53.657 -16.928  1.00  0.00     0.194 HD
HETATM   15  C30 UNL     1       1.366  53.486 -19.491  1.00  0.00     0.060 C 
HETATM   16  C31 UNL     1       0.660  53.467 -20.833  1.00  0.00     0.020 C 
HETATM   17  C32 UNL     1       0.462  52.041 -21.417  1.00  0.00    -0.016 C 
HETATM   18  C33 UNL     1       1.834  51.437 -21.800  1.00  0.00     0.020 C 
HETATM   19  C34 UNL     1      -0.494  52.164 -22.674  1.00  0.00     0.002 C 
HETATM   20  C35 UNL     1       0.165  52.877 -23.876  1.00  0.00     0.007 C 
HETATM   21  C36 UNL     1      -0.784  53.023 -25.064  1.00  0.00     0.014 C 
HETATM   22  C37 UNL     1      -1.390  51.676 -25.549  1.00  0.00     0.003 C 
HETATM   23  C38 UNL     1      -0.287  50.867 -26.258  1.00  0.00     0.020 C 
ENDROOT
BRANCH   3  24
HETATM   24  O1  UNL     1      -2.424  52.957 -27.381  1.00  0.00    -0.377 OA
HETATM   25  H2  UNL     1      -2.593  53.808 -26.942  1.00  0.00     0.211 HD
ENDBRANCH   3  24
BRANCH  13  26
HETATM   26  O2  UNL     1       0.396  51.880 -16.365  1.00  0.00    -0.271 OA
BRANCH  26  27
HETATM   27  C13 UNL     1       1.378  51.591 -15.372  1.00  0.00     0.303 C 
BRANCH  27  28
HETATM   28  C14 UNL     1       0.789  50.880 -14.157  1.00  0.00     0.244 C 
HETATM   29  O3  UNL     1       1.282  49.846 -13.704  1.00  0.00    -0.271 OA
HETATM   30  N2  UNL     1      -0.304  51.496 -13.581  1.00  0.00    -0.346 N 
HETATM   31  H16 UNL     1      -0.413  52.477 -13.836  1.00  0.00     0.163 HD
BRANCH  30  32
HETATM   32  C15 UNL     1      -0.708  51.130 -12.230  1.00  0.00     0.180 C 
BRANCH  32  33
HETATM   33  C16 UNL     1      -0.064  52.143 -11.259  1.00  0.00     0.241 C 
HETATM   34  O4  UNL     1       0.486  51.793 -10.213  1.00  0.00    -0.271 OA
HETATM   35  N3  UNL     1      -0.129  53.459 -11.680  1.00  0.00    -0.354 N 
HETATM   36  H18 UNL     1      -0.734  53.678 -12.464  1.00  0.00     0.162 HD
BRANCH  35  37
HETATM   37  C17 UNL     1       0.339  54.574 -10.841  1.00  0.00     0.098 C 
BRANCH  37  38
HETATM   38  C18 UNL     1      -0.902  55.222 -10.211  1.00  0.00     0.135 C 
BRANCH  38  39
HETATM   39  C19 UNL     1      -2.084  54.294 -10.178  1.00  0.00     0.141 C 
HETATM   40  O5  UNL     1      -2.366  53.487  -9.308  1.00  0.00    -0.650 OA
BRANCH  39  41
HETATM   41  O6  UNL     1      -2.906  54.478 -11.236  1.00  0.00    -0.776 OA
HETATM   42  H22 UNL     1      -3.647  53.854 -11.071  1.00  0.00     0.167 HD
ENDBRANCH  39  41
ENDBRANCH  38  39
ENDBRANCH  37  38
BRANCH  37  43
HETATM   43  C20 UNL     1       1.349  54.034  -9.778  1.00  0.00     0.014 C 
HETATM   44  C21 UNL     1       1.229  54.729  -8.410  1.00  0.00     0.033 C 
HETATM   45  C22 UNL     1       2.524  54.601  -7.621  1.00  0.00     0.169 C 
HETATM   46  O7  UNL     1       3.610  55.281  -8.247  1.00  0.00    -0.381 OA
HETATM   47  C23 UNL     1       3.699  55.155  -9.671  1.00  0.00     0.054 C 
HETATM   48  C24 UNL     1       3.340  56.510 -10.291  1.00  0.00     0.045 C 
HETATM   49  C25 UNL     1       5.175  54.862  -9.988  1.00  0.00     0.045 C 
HETATM   50  C26 UNL     1       2.826  54.020 -10.240  1.00  0.00     0.044 C 
ENDBRANCH  37  43
ENDBRANCH  35  37
ENDBRANCH  32  33
BRANCH  32  51
HETATM   51  C27 UNL     1      -2.238  51.063 -12.036  1.00  0.00     0.009 C 
HETATM   52  C28 UNL     1      -2.585  50.271 -10.770  1.00  0.00     0.012 C 
HETATM   53  C29 UNL     1      -2.991  50.476 -13.233  1.00  0.00     0.012 C 
ENDBRANCH  32  51
ENDBRANCH  30  32
ENDBRANCH  27  28
ENDBRANCH  26  27
ENDBRANCH  13  26
TORSDOF 12
ENDMDL
MODEL 8
REMARK minimizedAffinity -9.75977325
REMARK CNNscore 0.235850811
REMARK CNNaffinity 7.27981043
REMARK  12 active torsions:
REMARK  status: ('A' for Active; 'I' for Inactive)
REMARK    1  A    between atoms: C3_3  and  O1_4 
REMARK    2  A    between atoms: N1_14  and  O2_16 
REMARK    3  A    between atoms: O2_16  and  C13_17 
REMARK    4  A    between atoms: C13_17  and  C14_18 
REMARK       I    between atoms: C14_18  and  N2_20 
REMARK    5  A    between atoms: N2_20  and  C15_21 
REMARK    6  A    between atoms: C15_21  and  C16_22 
REMARK    7  A    between atoms: C15_21  and  C27_38 
REMARK       I    between atoms: C16_22  and  N3_24 
REMARK    8  A    between atoms: N3_24  and  C17_25 
REMARK    9  A    between atoms: C17_25  and  C18_26 
REMARK   10  A    between atoms: C17_25  and  C20_30 
REMARK   11  A    between atoms: C18_26  and  C19_27 
REMARK   12  A    between atoms: C19_27  and  O6_29 
ROOT
HETATM    1  C1  UNL     1      -3.437  49.784 -27.854  1.00  0.00     0.015 C 
HETATM    2  C2  UNL     1      -3.080  50.723 -27.194  1.00  0.00    -0.078 C 
HETATM    3  C3  UNL     1      -2.678  51.910 -26.407  1.00  0.00     0.128 C 
HETATM    4  C4  UNL     1      -3.794  52.238 -25.397  1.00  0.00     0.052 C 
HETATM    5  C5  UNL     1      -3.398  51.539 -24.085  1.00  0.00     0.010 C 
HETATM    6  C6  UNL     1      -2.022  50.884 -24.322  1.00  0.00     0.002 C 
HETATM    7  C7  UNL     1      -1.102  50.785 -23.091  1.00  0.00    -0.004 C 
HETATM    8  C8  UNL     1      -1.801  50.064 -21.929  1.00  0.00     0.010 C 
HETATM    9  C9  UNL     1      -0.839  49.822 -20.773  1.00  0.00     0.035 C 
HETATM   10  C10 UNL     1      -0.189  51.098 -20.286  1.00  0.00    -0.069 C 
HETATM   11  C11 UNL     1      -0.104  51.336 -18.963  1.00  0.00     0.030 C 
HETATM   12  C12 UNL     1       0.637  52.507 -18.420  1.00  0.00     0.032 C 
HETATM   13  N1  UNL     1       0.848  52.768 -17.170  1.00  0.00    -0.271 N 
ATOM     14  H1  UNL     1       1.349  53.595 -16.845  1.00  0.00     0.194 HD
HETATM   15  C30 UNL     1       1.278  53.455 -19.410  1.00  0.00     0.060 C 
HETATM   16  C31 UNL     1       0.579  53.443 -20.755  1.00  0.00     0.020 C 
HETATM   17  C32 UNL     1       0.404  52.023 -21.358  1.00  0.00    -0.016 C 
HETATM   18  C33 UNL     1       1.786  51.443 -21.742  1.00  0.00     0.020 C 
HETATM   19  C34 UNL     1      -0.548  52.147 -22.618  1.00  0.00     0.002 C 
HETATM   20  C35 UNL     1       0.107  52.885 -23.807  1.00  0.00     0.007 C 
HETATM   21  C36 UNL     1      -0.839  53.033 -24.999  1.00  0.00     0.014 C 
HETATM   22  C37 UNL     1      -1.423  51.683 -25.503  1.00  0.00     0.003 C 
HETATM   23  C38 UNL     1      -0.305  50.899 -26.217  1.00  0.00     0.020 C 
ENDROOT
BRANCH   3  24
HETATM   24  O1  UNL     1      -2.467  52.972 -27.324  1.00  0.00    -0.377 OA
HETATM   25  H2  UNL     1      -2.650  53.815 -26.875  1.00  0.00     0.211 HD
ENDBRANCH   3  24
BRANCH  13  26
HETATM   26  O2  UNL     1       0.317  51.796 -16.309  1.00  0.00    -0.271 OA
BRANCH  26  27
HETATM   27  C13 UNL     1       1.351  50.860 -16.015  1.00  0.00     0.303 C 
BRANCH  27  28
HETATM   28  C14 UNL     1       2.267  51.334 -14.890  1.00  0.00     0.244 C 
HETATM   29  O3  UNL     1       3.243  52.054 -15.104  1.00  0.00    -0.271 OA
HETATM   30  N2  UNL     1       1.902  50.934 -13.620  1.00  0.00    -0.346 N 
HETATM   31  H16 UNL     1       0.933  50.628 -13.540  1.00  0.00     0.163 HD
BRANCH  30  32
HETATM   32  C15 UNL     1       2.462  51.617 -12.462  1.00  0.00     0.180 C 
BRANCH  32  33
HETATM   33  C16 UNL     1       1.353  51.708 -11.392  1.00  0.00     0.241 C 
HETATM   34  O4  UNL     1       0.928  50.715 -10.799  1.00  0.00    -0.271 OA
HETATM   35  N3  UNL     1       0.907  52.993 -11.138  1.00  0.00    -0.354 N 
HETATM   36  H18 UNL     1       1.189  53.728 -11.777  1.00  0.00     0.162 HD
BRANCH  35  37
HETATM   37  C17 UNL     1      -0.214  53.268 -10.227  1.00  0.00     0.098 C 
BRANCH  37  38
HETATM   38  C18 UNL     1       0.122  54.559  -9.467  1.00  0.00     0.135 C 
BRANCH  38  39
HETATM   39  C19 UNL     1       0.997  54.313  -8.269  1.00  0.00     0.141 C 
HETATM   40  O5  UNL     1       0.726  54.530  -7.100  1.00  0.00    -0.650 OA
BRANCH  39  41
HETATM   41  O6  UNL     1       2.170  53.732  -8.606  1.00  0.00    -0.776 OA
HETATM   42  H22 UNL     1       2.618  53.586  -7.744  1.00  0.00     0.167 HD
ENDBRANCH  39  41
ENDBRANCH  38  39
ENDBRANCH  37  38
BRANCH  37  43
HETATM   43  C20 UNL     1      -1.538  53.375 -11.051  1.00  0.00     0.014 C 
HETATM   44  C21 UNL     1      -2.621  54.225 -10.363  1.00  0.00     0.033 C 
HETATM   45  C22 UNL     1      -4.006  53.856 -10.877  1.00  0.00     0.169 C 
HETATM   46  O7  UNL     1      -4.369  52.518 -10.545  1.00  0.00    -0.381 OA
HETATM   47  C23 UNL     1      -3.340  51.530 -10.680  1.00  0.00     0.054 C 
HETATM   48  C24 UNL     1      -2.928  51.079  -9.273  1.00  0.00     0.045 C 
HETATM   49  C25 UNL     1      -3.983  50.330 -11.394  1.00  0.00     0.045 C 
HETATM   50  C26 UNL     1      -2.130  52.017 -11.499  1.00  0.00     0.044 C 
ENDBRANCH  37  43
ENDBRANCH  35  37
ENDBRANCH  32  33
BRANCH  32  51
HETATM   51  C27 UNL     1       3.731  50.944 -11.896  1.00  0.00     0.009 C 
HETATM   52  C28 UNL     1       3.650  49.421 -12.056  1.00  0.00     0.012 C 
HETATM   53  C29 UNL     1       4.020  51.293 -10.433  1.00  0.00     0.012 C 
ENDBRANCH  32  51
ENDBRANCH  30  32
ENDBRANCH  27  28
ENDBRANCH  26  27
ENDBRANCH  13  26
TORSDOF 12
ENDMDL
MODEL 9
REMARK minimizedAffinity -9.7303524
REMARK CNNscore 0.228964359
REMARK CNNaffinity 6.6709671
REMARK  12 active torsions:
REMARK  status: ('A' for Active; 'I' for Inactive)
REMARK    1  A    between atoms: C3_3  and  O1_4 
REMARK    2  A    between atoms: N1_14  and  O2_16 
REMARK    3  A    between atoms: O2_16  and  C13_17 
REMARK    4  A    between atoms: C13_17  and  C14_18 
REMARK       I    between atoms: C14_18  and  N2_20 
REMARK    5  A    between atoms: N2_20  and  C15_21 
REMARK    6  A    between atoms: C15_21  and  C16_22 
REMARK    7  A    between atoms: C15_21  and  C27_38 
REMARK       I    between atoms: C16_22  and  N3_24 
REMARK    8  A    between atoms: N3_24  and  C17_25 
REMARK    9  A    between atoms: C17_25  and  C18_26 
REMARK   10  A    between atoms: C17_25  and  C20_30 
REMARK   11  A    between atoms: C18_26  and  C19_27 
REMARK   12  A    between atoms: C19_27  and  O6_29 
ROOT
HETATM    1  C1  UNL     1       2.531  51.774 -27.328  1.00  0.00     0.015 C 
HETATM    2  C2  UNL     1       1.506  52.234 -26.901  1.00  0.00    -0.078 C 
HETATM    3  C3  UNL     1       0.252  52.845 -26.406  1.00  0.00     0.128 C 
HETATM    4  C4  UNL     1      -0.778  52.864 -27.551  1.00  0.00     0.052 C 
HETATM    5  C5  UNL     1      -1.622  51.589 -27.383  1.00  0.00     0.010 C 
HETATM    6  C6  UNL     1      -1.129  50.889 -26.100  1.00  0.00     0.002 C 
HETATM    7  C7  UNL     1      -2.188  50.086 -25.322  1.00  0.00    -0.004 C 
HETATM    8  C8  UNL     1      -2.873  49.047 -26.222  1.00  0.00     0.010 C 
HETATM    9  C9  UNL     1      -3.799  48.146 -25.416  1.00  0.00     0.035 C 
HETATM   10  C10 UNL     1      -4.832  48.930 -24.636  1.00  0.00    -0.069 C 
HETATM   11  C11 UNL     1      -6.115  48.522 -24.641  1.00  0.00     0.030 C 
HETATM   12  C12 UNL     1      -7.150  49.172 -23.792  1.00  0.00     0.032 C 
HETATM   13  N1  UNL     1      -8.383  48.797 -23.661  1.00  0.00    -0.271 N 
ATOM     14  H1  UNL     1      -9.062  49.287 -23.078  1.00  0.00     0.194 HD
HETATM   15  C30 UNL     1      -6.723  50.341 -22.931  1.00  0.00     0.060 C 
HETATM   16  C31 UNL     1      -5.515  51.062 -23.497  1.00  0.00     0.020 C 
HETATM   17  C32 UNL     1      -4.320  50.123 -23.819  1.00  0.00    -0.016 C 
HETATM   18  C33 UNL     1      -3.731  49.555 -22.506  1.00  0.00     0.020 C 
HETATM   19  C34 UNL     1      -3.247  50.967 -24.623  1.00  0.00     0.002 C 
HETATM   20  C35 UNL     1      -2.545  52.041 -23.762  1.00  0.00     0.007 C 
HETATM   21  C36 UNL     1      -1.543  52.873 -24.562  1.00  0.00     0.014 C 
HETATM   22  C37 UNL     1      -0.462  52.022 -25.286  1.00  0.00     0.003 C 
HETATM   23  C38 UNL     1       0.517  51.469 -24.231  1.00  0.00     0.020 C 
ENDROOT
BRANCH   3  24
HETATM   24  O1  UNL     1       0.570  54.155 -25.960  1.00  0.00    -0.377 OA
HETATM   25  H2  UNL     1      -0.216  54.718 -26.060  1.00  0.00     0.211 HD
ENDBRANCH   3  24
BRANCH  13  26
HETATM   26  O2  UNL     1      -8.688  47.647 -24.404  1.00  0.00    -0.271 OA
BRANCH  26  27
HETATM   27  C13 UNL     1      -9.697  46.926 -23.701  1.00  0.00     0.303 C 
BRANCH  27  28
HETATM   28  C14 UNL     1     -10.570  46.085 -24.630  1.00  0.00     0.244 C 
HETATM   29  O3  UNL     1     -10.470  44.858 -24.684  1.00  0.00    -0.271 OA
HETATM   30  N2  UNL     1     -11.499  46.789 -25.369  1.00  0.00    -0.346 N 
HETATM   31  H16 UNL     1     -11.700  47.722 -25.010  1.00  0.00     0.163 HD
BRANCH  30  32
HETATM   32  C15 UNL     1     -12.611  46.081 -25.988  1.00  0.00     0.180 C 
BRANCH  32  33
HETATM   33  C16 UNL     1     -13.903  46.517 -25.264  1.00  0.00     0.241 C 
HETATM   34  O4  UNL     1     -14.428  47.615 -25.460  1.00  0.00    -0.271 OA
HETATM   35  N3  UNL     1     -14.430  45.564 -24.410  1.00  0.00    -0.354 N 
HETATM   36  H18 UNL     1     -13.855  44.760 -24.185  1.00  0.00     0.162 HD
BRANCH  35  37
HETATM   37  C17 UNL     1     -15.597  45.836 -23.558  1.00  0.00     0.098 C 
BRANCH  37  38
HETATM   38  C18 UNL     1     -15.446  47.265 -23.019  1.00  0.00     0.135 C 
BRANCH  38  39
HETATM   39  C19 UNL     1     -14.978  47.297 -21.591  1.00  0.00     0.141 C 
HETATM   40  O5  UNL     1     -15.538  46.817 -20.619  1.00  0.00    -0.650 OA
BRANCH  39  41
HETATM   41  O6  UNL     1     -13.769  47.889 -21.464  1.00  0.00    -0.776 OA
HETATM   42  H22 UNL     1     -13.563  47.804 -20.507  1.00  0.00     0.167 HD
ENDBRANCH  39  41
ENDBRANCH  38  39
ENDBRANCH  37  38
BRANCH  37  43
HETATM   43  C20 UNL     1     -16.905  45.635 -24.390  1.00  0.00     0.014 C 
HETATM   44  C21 UNL     1     -17.743  46.919 -24.533  1.00  0.00     0.033 C 
HETATM   45  C22 UNL     1     -19.199  46.585 -24.829  1.00  0.00     0.169 C 
HETATM   46  O7  UNL     1     -19.827  45.893 -23.753  1.00  0.00    -0.381 OA
HETATM   47  C23 UNL     1     -19.044  44.881 -23.109  1.00  0.00     0.054 C 
HETATM   48  C24 UNL     1     -18.671  45.387 -21.710  1.00  0.00     0.045 C 
HETATM   49  C25 UNL     1     -19.966  43.662 -22.942  1.00  0.00     0.045 C 
HETATM   50  C26 UNL     1     -17.799  44.465 -23.915  1.00  0.00     0.044 C 
ENDBRANCH  37  43
ENDBRANCH  35  37
ENDBRANCH  32  33
BRANCH  32  51
HETATM   51  C27 UNL     1     -12.721  46.306 -27.512  1.00  0.00     0.009 C 
HETATM   52  C28 UNL     1     -12.181  47.690 -27.892  1.00  0.00     0.012 C 
HETATM   53  C29 UNL     1     -14.139  46.137 -28.064  1.00  0.00     0.012 C 
ENDBRANCH  32  51
ENDBRANCH  30  32
ENDBRANCH  27  28
ENDBRANCH  26  27
ENDBRANCH  13  26
TORSDOF 12
ENDMDL
