MODEL 1
REMARK minimizedAffinity -5.75486994
REMARK CNNscore 0.526285887
REMARK CNNaffinity 6.49428988
REMARK  5 active torsions:
REMARK  status: ('A' for Active; 'I' for Inactive)
REMARK    1  A    between atoms: C2_2  and  C4_4 
REMARK    2  A    between atoms: C7_7  and  C8_8 
REMARK    3  A    between atoms: C8_8  and  O2_10 
REMARK    4  A    between atoms: C22_25  and  C24_27 
REMARK    5  A    between atoms: C24_27  and  O4_28 
ROOT
HETATM    1  C4  UNL     1      12.721  -7.129   7.153  1.00  0.00     0.019 C 
HETATM    2  C5  UNL     1      13.784  -8.118   7.636  1.00  0.00     0.011 C 
HETATM    3  C6  UNL     1      14.031  -9.042   6.449  1.00  0.00     0.021 C 
HETATM    4  C7  UNL     1      13.583  -8.292   5.171  1.00  0.00     0.050 C 
HETATM    5  C9  UNL     1      14.743  -8.126   4.169  1.00  0.00     0.022 C 
HETATM    6  C10 UNL     1      15.829  -7.164   4.650  1.00  0.00     0.011 C 
HETATM    7  C11 UNL     1      15.332  -5.722   4.979  1.00  0.00    -0.032 C 
HETATM    8  C12 UNL     1      15.924  -5.378   6.375  1.00  0.00     0.016 C 
HETATM    9  C13 UNL     1      13.763  -5.695   5.019  1.00  0.00     0.000 C 
HETATM   10  C14 UNL     1      13.223  -4.308   5.392  1.00  0.00     0.006 C 
HETATM   11  C15 UNL     1      13.715  -3.221   4.428  1.00  0.00     0.006 C 
HETATM   12  C16 UNL     1      15.255  -3.195   4.269  1.00  0.00     0.003 C 
HETATM   13  C17 UNL     1      15.801  -1.941   3.451  1.00  0.00    -0.035 C 
HETATM   14  C18 UNL     1      15.186  -1.846   2.036  1.00  0.00     0.016 C 
HETATM   15  C19 UNL     1      15.366  -0.639   4.210  1.00  0.00     0.017 C 
HETATM   16  C20 UNL     1      16.328   0.539   4.118  1.00  0.00     0.080 C 
HETATM   17  C21 UNL     1      17.231   0.491   2.913  1.00  0.00     0.137 C 
HETATM   18  O3  UNL     1      17.387   1.493   2.214  1.00  0.00    -0.297 OA
HETATM   19  C22 UNL     1      18.065  -0.777   2.703  1.00  0.00     0.042 C 
HETATM   20  C23 UNL     1      18.290  -1.005   1.193  1.00  0.00     0.026 C 
HETATM   21  C25 UNL     1      17.371  -1.987   3.433  1.00  0.00     0.012 C 
HETATM   22  C26 UNL     1      17.916  -3.354   2.975  1.00  0.00     0.007 C 
HETATM   23  C27 UNL     1      17.388  -4.504   3.835  1.00  0.00     0.011 C 
HETATM   24  C28 UNL     1      15.834  -4.617   3.874  1.00  0.00    -0.032 C 
HETATM   25  C29 UNL     1      15.363  -5.054   2.454  1.00  0.00     0.016 C 
HETATM   26  C30 UNL     1      13.003  -6.911   5.642  1.00  0.00     0.017 C 
ENDROOT
BRANCH   4  27
HETATM   27  C8  UNL     1      12.481  -9.133   4.512  1.00  0.00     0.149 C 
HETATM   28  O1  UNL     1      11.716  -8.787   3.624  1.00  0.00    -0.649 OA
BRANCH  27  29
HETATM   29  O2  UNL     1      12.364 -10.369   5.036  1.00  0.00    -0.776 OA
HETATM   30  H11 UNL     1      11.617 -10.761   4.540  1.00  0.00     0.167 HD
ENDBRANCH  27  29
ENDBRANCH   4  27
BRANCH   1  31
HETATM   31  C2  UNL     1      12.406  -5.941   8.036  1.00  0.00    -0.088 C 
HETATM   32  C1  UNL     1      12.771  -4.676   7.787  1.00  0.00     0.014 C 
HETATM   33  C3  UNL     1      11.702  -6.280   9.327  1.00  0.00     0.043 C 
ENDBRANCH   1  31
BRANCH  19  34
HETATM   34  C24 UNL     1      19.433  -0.479   3.376  1.00  0.00     0.181 C 
BRANCH  34  35
HETATM   35  O4  UNL     1      19.972   0.779   2.985  1.00  0.00    -0.400 OA
HETATM   36  H37 UNL     1      19.296   1.466   3.166  1.00  0.00     0.209 HD
ENDBRANCH  34  35
ENDBRANCH  19  34
TORSDOF 5
ENDMDL
MODEL 2
REMARK minimizedAffinity -8.07433319
REMARK CNNscore 0.470622778
REMARK CNNaffinity 6.73391581
REMARK  5 active torsions:
REMARK  status: ('A' for Active; 'I' for Inactive)
REMARK    1  A    between atoms: C2_2  and  C4_4 
REMARK    2  A    between atoms: C7_7  and  C8_8 
REMARK    3  A    between atoms: C8_8  and  O2_10 
REMARK    4  A    between atoms: C22_25  and  C24_27 
REMARK    5  A    between atoms: C24_27  and  O4_28 
ROOT
HETATM    1  C4  UNL     1       4.084   7.438   9.921  1.00  0.00     0.019 C 
HETATM    2  C5  UNL     1       4.927   6.390  10.650  1.00  0.00     0.011 C 
HETATM    3  C6  UNL     1       5.676   7.167  11.728  1.00  0.00     0.021 C 
HETATM    4  C7  UNL     1       4.887   8.471  11.997  1.00  0.00     0.050 C 
HETATM    5  C9  UNL     1       4.433   8.572  13.467  1.00  0.00     0.022 C 
HETATM    6  C10 UNL     1       3.358   7.553  13.843  1.00  0.00     0.011 C 
HETATM    7  C11 UNL     1       2.057   7.622  12.984  1.00  0.00    -0.032 C 
HETATM    8  C12 UNL     1       1.761   6.160  12.547  1.00  0.00     0.016 C 
HETATM    9  C13 UNL     1       2.294   8.539  11.732  1.00  0.00     0.000 C 
HETATM   10  C14 UNL     1       1.059   8.597  10.824  1.00  0.00     0.006 C 
HETATM   11  C15 UNL     1      -0.184   9.091  11.574  1.00  0.00     0.006 C 
HETATM   12  C16 UNL     1      -0.480   8.288  12.864  1.00  0.00     0.003 C 
HETATM   13  C17 UNL     1      -1.881   8.636  13.538  1.00  0.00    -0.035 C 
HETATM   14  C18 UNL     1      -2.013  10.137  13.885  1.00  0.00     0.016 C 
HETATM   15  C19 UNL     1      -3.012   8.321  12.498  1.00  0.00     0.017 C 
HETATM   16  C20 UNL     1      -4.337   7.839  13.077  1.00  0.00     0.080 C 
HETATM   17  C21 UNL     1      -4.557   8.251  14.509  1.00  0.00     0.137 C 
HETATM   18  O3  UNL     1      -5.635   8.736  14.856  1.00  0.00    -0.297 OA
HETATM   19  C22 UNL     1      -3.471   7.888  15.527  1.00  0.00     0.042 C 
HETATM   20  C23 UNL     1      -3.434   8.950  16.646  1.00  0.00     0.026 C 
HETATM   21  C25 UNL     1      -2.097   7.701  14.782  1.00  0.00     0.012 C 
HETATM   22  C26 UNL     1      -0.891   7.707  15.740  1.00  0.00     0.007 C 
HETATM   23  C27 UNL     1       0.410   7.316  15.036  1.00  0.00     0.011 C 
HETATM   24  C28 UNL     1       0.781   8.222  13.823  1.00  0.00    -0.032 C 
HETATM   25  C29 UNL     1       1.147   9.629  14.386  1.00  0.00     0.016 C 
HETATM   26  C30 UNL     1       3.674   8.476  11.000  1.00  0.00     0.017 C 
ENDROOT
BRANCH   4  27
HETATM   27  C8  UNL     1       5.829   9.644  11.692  1.00  0.00     0.149 C 
HETATM   28  O1  UNL     1       5.519  10.807  11.479  1.00  0.00    -0.649 OA
BRANCH  27  29
HETATM   29  O2  UNL     1       7.126   9.287  11.626  1.00  0.00    -0.776 OA
HETATM   30  H11 UNL     1       7.585  10.121  11.402  1.00  0.00     0.167 HD
ENDBRANCH  27  29
ENDBRANCH   4  27
BRANCH   1  31
HETATM   31  C2  UNL     1       3.057   6.951   8.921  1.00  0.00    -0.088 C 
HETATM   32  C1  UNL     1       2.558   5.708   8.872  1.00  0.00     0.014 C 
HETATM   33  C3  UNL     1       2.670   7.960   7.867  1.00  0.00     0.043 C 
ENDBRANCH   1  31
BRANCH  19  34
HETATM   34  C24 UNL     1      -3.922   6.532  16.134  1.00  0.00     0.181 C 
BRANCH  34  35
HETATM   35  O4  UNL     1      -5.322   6.311  15.998  1.00  0.00    -0.400 OA
HETATM   36  H37 UNL     1      -5.551   6.403  15.049  1.00  0.00     0.209 HD
ENDBRANCH  34  35
ENDBRANCH  19  34
TORSDOF 5
ENDMDL
MODEL 3
REMARK minimizedAffinity -6.19945002
REMARK CNNscore 0.379513621
REMARK CNNaffinity 5.80698156
REMARK  5 active torsions:
REMARK  status: ('A' for Active; 'I' for Inactive)
REMARK    1  A    between atoms: C2_2  and  C4_4 
REMARK    2  A    between atoms: C7_7  and  C8_8 
REMARK    3  A    between atoms: C8_8  and  O2_10 
REMARK    4  A    between atoms: C22_25  and  C24_27 
REMARK    5  A    between atoms: C24_27  and  O4_28 
ROOT
HETATM    1  C4  UNL     1     -22.546   3.347   9.945  1.00  0.00     0.019 C 
HETATM    2  C5  UNL     1     -23.725   2.377  10.053  1.00  0.00     0.011 C 
HETATM    3  C6  UNL     1     -23.373   1.223   9.121  1.00  0.00     0.021 C 
HETATM    4  C7  UNL     1     -21.837   1.227   8.931  1.00  0.00     0.050 C 
HETATM    5  C9  UNL     1     -21.201  -0.099   9.394  1.00  0.00     0.022 C 
HETATM    6  C10 UNL     1     -21.260  -0.307  10.907  1.00  0.00     0.011 C 
HETATM    7  C11 UNL     1     -20.582   0.816  11.753  1.00  0.00    -0.032 C 
HETATM    8  C12 UNL     1     -21.614   1.199  12.852  1.00  0.00     0.016 C 
HETATM    9  C13 UNL     1     -20.261   2.051  10.838  1.00  0.00     0.000 C 
HETATM   10  C14 UNL     1     -19.642   3.207  11.634  1.00  0.00     0.006 C 
HETATM   11  C15 UNL     1     -18.361   2.781  12.364  1.00  0.00     0.006 C 
HETATM   12  C16 UNL     1     -18.552   1.530  13.256  1.00  0.00     0.003 C 
HETATM   13  C17 UNL     1     -17.302   1.203  14.189  1.00  0.00    -0.035 C 
HETATM   14  C18 UNL     1     -15.998   1.004  13.382  1.00  0.00     0.016 C 
HETATM   15  C19 UNL     1     -17.059   2.438  15.126  1.00  0.00     0.017 C 
HETATM   16  C20 UNL     1     -16.514   2.125  16.514  1.00  0.00     0.080 C 
HETATM   17  C21 UNL     1     -15.786   0.809  16.597  1.00  0.00     0.137 C 
HETATM   18  O3  UNL     1     -14.691   0.740  17.157  1.00  0.00    -0.297 OA
HETATM   19  C22 UNL     1     -16.529  -0.444  16.121  1.00  0.00     0.042 C 
HETATM   20  C23 UNL     1     -15.517  -1.464  15.557  1.00  0.00     0.026 C 
HETATM   21  C25 UNL     1     -17.652  -0.030  15.098  1.00  0.00     0.012 C 
HETATM   22  C26 UNL     1     -18.195  -1.223  14.290  1.00  0.00     0.007 C 
HETATM   23  C27 UNL     1     -19.422  -0.847  13.457  1.00  0.00     0.011 C 
HETATM   24  C28 UNL     1     -19.183   0.320  12.451  1.00  0.00    -0.032 C 
HETATM   25  C29 UNL     1     -18.213  -0.205  11.350  1.00  0.00     0.016 C 
HETATM   26  C30 UNL     1     -21.289   2.460   9.733  1.00  0.00     0.017 C 
ENDROOT
BRANCH   4  27
HETATM   27  C8  UNL     1     -21.564   1.406   7.431  1.00  0.00     0.149 C 
HETATM   28  O1  UNL     1     -20.619   1.982   6.914  1.00  0.00    -0.649 OA
BRANCH  27  29
HETATM   29  O2  UNL     1     -22.525   0.884   6.646  1.00  0.00    -0.776 OA
HETATM   30  H11 UNL     1     -22.226   1.099   5.739  1.00  0.00     0.167 HD
ENDBRANCH  27  29
ENDBRANCH   4  27
BRANCH   1  31
HETATM   31  C2  UNL     1     -22.491   4.506  10.916  1.00  0.00    -0.088 C 
HETATM   32  C1  UNL     1     -21.829   5.653  10.711  1.00  0.00     0.014 C 
HETATM   33  C3  UNL     1     -23.178   4.260  12.237  1.00  0.00     0.043 C 
ENDBRANCH   1  31
BRANCH  19  34
HETATM   34  C24 UNL     1     -17.183  -1.037  17.399  1.00  0.00     0.181 C 
BRANCH  34  35
HETATM   35  O4  UNL     1     -16.231  -1.323  18.418  1.00  0.00    -0.400 OA
HETATM   36  H37 UNL     1     -15.720  -0.504  18.592  1.00  0.00     0.209 HD
ENDBRANCH  34  35
ENDBRANCH  19  34
TORSDOF 5
ENDMDL
MODEL 4
REMARK minimizedAffinity -5.50590467
REMARK CNNscore 0.352669328
REMARK CNNaffinity 6.14190054
REMARK  5 active torsions:
REMARK  status: ('A' for Active; 'I' for Inactive)
REMARK    1  A    between atoms: C2_2  and  C4_4 
REMARK    2  A    between atoms: C7_7  and  C8_8 
REMARK    3  A    between atoms: C8_8  and  O2_10 
REMARK    4  A    between atoms: C22_25  and  C24_27 
REMARK    5  A    between atoms: C24_27  and  O4_28 
ROOT
HETATM    1  C4  UNL     1      -3.270  18.978   9.417  1.00  0.00     0.019 C 
HETATM    2  C5  UNL     1      -2.395  20.217   9.620  1.00  0.00     0.011 C 
HETATM    3  C6  UNL     1      -1.151  19.708  10.341  1.00  0.00     0.021 C 
HETATM    4  C7  UNL     1      -1.035  18.191  10.057  1.00  0.00     0.050 C 
HETATM    5  C9  UNL     1       0.292  17.841   9.355  1.00  0.00     0.022 C 
HETATM    6  C10 UNL     1       0.380  18.365   7.922  1.00  0.00     0.011 C 
HETATM    7  C11 UNL     1      -0.756  17.872   6.971  1.00  0.00    -0.032 C 
HETATM    8  C12 UNL     1      -1.291  19.146   6.257  1.00  0.00     0.016 C 
HETATM    9  C13 UNL     1      -1.892  17.186   7.809  1.00  0.00     0.000 C 
HETATM   10  C14 UNL     1      -3.060  16.731   6.924  1.00  0.00     0.006 C 
HETATM   11  C15 UNL     1      -2.604  15.768   5.821  1.00  0.00     0.006 C 
HETATM   12  C16 UNL     1      -1.441  16.325   4.964  1.00  0.00     0.003 C 
HETATM   13  C17 UNL     1      -1.101  15.443   3.681  1.00  0.00    -0.035 C 
HETATM   14  C18 UNL     1      -0.752  13.982   4.045  1.00  0.00     0.016 C 
HETATM   15  C19 UNL     1      -2.384  15.380   2.781  1.00  0.00     0.017 C 
HETATM   16  C20 UNL     1      -2.141  15.303   1.278  1.00  0.00     0.080 C 
HETATM   17  C21 UNL     1      -0.788  14.752   0.911  1.00  0.00     0.137 C 
HETATM   18  O3  UNL     1      -0.687  13.883   0.043  1.00  0.00    -0.297 OA
HETATM   19  C22 UNL     1       0.443  15.428   1.523  1.00  0.00     0.042 C 
HETATM   20  C23 UNL     1       1.570  14.389   1.700  1.00  0.00     0.026 C 
HETATM   21  C25 UNL     1       0.032  16.155   2.857  1.00  0.00     0.012 C 
HETATM   22  C26 UNL     1       1.244  16.537   3.729  1.00  0.00     0.007 C 
HETATM   23  C27 UNL     1       0.849  17.423   4.912  1.00  0.00     0.011 C 
HETATM   24  C28 UNL     1      -0.219  16.794   5.858  1.00  0.00    -0.032 C 
HETATM   25  C29 UNL     1       0.454  15.590   6.586  1.00  0.00     0.016 C 
HETATM   26  C30 UNL     1      -2.285  17.799   9.193  1.00  0.00     0.017 C 
ENDROOT
BRANCH   4  27
HETATM   27  C8  UNL     1      -1.080  17.470  11.412  1.00  0.00     0.149 C 
HETATM   28  O1  UNL     1      -1.890  16.632  11.778  1.00  0.00    -0.649 OA
BRANCH  27  29
HETATM   29  O2  UNL     1      -0.119  17.873  12.266  1.00  0.00    -0.776 OA
HETATM   30  H11 UNL     1      -0.295  17.353  13.075  1.00  0.00     0.167 HD
ENDBRANCH  27  29
ENDBRANCH   4  27
BRANCH   1  31
HETATM   31  C2  UNL     1      -4.493  19.112   8.537  1.00  0.00    -0.088 C 
HETATM   32  C1  UNL     1      -4.588  19.908   7.463  1.00  0.00     0.014 C 
HETATM   33  C3  UNL     1      -5.699  18.333   9.004  1.00  0.00     0.043 C 
ENDBRANCH   1  31
BRANCH  19  34
HETATM   34  C24 UNL     1       0.891  16.482   0.474  1.00  0.00     0.181 C 
BRANCH  34  35
HETATM   35  O4  UNL     1       2.302  16.507   0.291  1.00  0.00    -0.400 OA
HETATM   36  H37 UNL     1       2.595  15.597   0.072  1.00  0.00     0.209 HD
ENDBRANCH  34  35
ENDBRANCH  19  34
TORSDOF 5
ENDMDL
MODEL 5
REMARK minimizedAffinity -6.71818542
REMARK CNNscore 0.337514192
REMARK CNNaffinity 6.10965776
REMARK  5 active torsions:
REMARK  status: ('A' for Active; 'I' for Inactive)
REMARK    1  A    between atoms: C2_2  and  C4_4 
REMARK    2  A    between atoms: C7_7  and  C8_8 
REMARK    3  A    between atoms: C8_8  and  O2_10 
REMARK    4  A    between atoms: C22_25  and  C24_27 
REMARK    5  A    between atoms: C24_27  and  O4_28 
ROOT
HETATM    1  C4  UNL     1       4.705  10.731  22.136  1.00  0.00     0.019 C 
HETATM    2  C5  UNL     1       5.285  11.983  22.796  1.00  0.00     0.011 C 
HETATM    3  C6  UNL     1       6.141  12.638  21.717  1.00  0.00     0.021 C 
HETATM    4  C7  UNL     1       5.630  12.131  20.346  1.00  0.00     0.050 C 
HETATM    5  C9  UNL     1       5.156  13.292  19.448  1.00  0.00     0.022 C 
HETATM    6  C10 UNL     1       3.880  13.967  19.950  1.00  0.00     0.011 C 
HETATM    7  C11 UNL     1       2.653  13.016  20.112  1.00  0.00    -0.032 C 
HETATM    8  C12 UNL     1       2.075  13.309  21.526  1.00  0.00     0.016 C 
HETATM    9  C13 UNL     1       3.119  11.521  20.001  1.00  0.00     0.000 C 
HETATM   10  C14 UNL     1       1.956  10.543  20.208  1.00  0.00     0.006 C 
HETATM   11  C15 UNL     1       0.816  10.785  19.210  1.00  0.00     0.006 C 
HETATM   12  C16 UNL     1       0.315  12.249  19.196  1.00  0.00     0.003 C 
HETATM   13  C17 UNL     1      -1.006  12.474  18.335  1.00  0.00    -0.035 C 
HETATM   14  C18 UNL     1      -0.836  12.027  16.864  1.00  0.00     0.016 C 
HETATM   15  C19 UNL     1      -2.140  11.576  18.942  1.00  0.00     0.017 C 
HETATM   16  C20 UNL     1      -3.556  12.134  18.845  1.00  0.00     0.080 C 
HETATM   17  C21 UNL     1      -3.736  13.141  17.740  1.00  0.00     0.137 C 
HETATM   18  O3  UNL     1      -4.702  13.060  16.980  1.00  0.00    -0.297 OA
HETATM   19  C22 UNL     1      -2.786  14.342  17.713  1.00  0.00     0.042 C 
HETATM   20  C23 UNL     1      -2.569  14.798  16.254  1.00  0.00     0.026 C 
HETATM   21  C25 UNL     1      -1.455  13.974  18.469  1.00  0.00     0.012 C 
HETATM   22  C26 UNL     1      -0.309  14.961  18.178  1.00  0.00     0.007 C 
HETATM   23  C27 UNL     1       0.907  14.717  19.074  1.00  0.00     0.011 C 
HETATM   24  C28 UNL     1       1.500  13.278  18.975  1.00  0.00    -0.032 C 
HETATM   25  C29 UNL     1       2.130  13.131  17.556  1.00  0.00     0.016 C 
HETATM   26  C30 UNL     1       4.481  11.105  20.646  1.00  0.00     0.017 C 
ENDROOT
BRANCH   4  27
HETATM   27  C8  UNL     1       6.806  11.425  19.655  1.00  0.00     0.149 C 
HETATM   28  O1  UNL     1       6.749  10.502  18.856  1.00  0.00    -0.649 OA
BRANCH  27  29
HETATM   29  O2  UNL     1       8.011  11.889  20.040  1.00  0.00    -0.776 OA
HETATM   30  H11 UNL     1       8.643  11.331  19.543  1.00  0.00     0.167 HD
ENDBRANCH  27  29
ENDBRANCH   4  27
BRANCH   1  31
HETATM   31  C2  UNL     1       3.635   9.967  22.886  1.00  0.00    -0.088 C 
HETATM   32  C1  UNL     1       3.276   8.699  22.639  1.00  0.00     0.014 C 
HETATM   33  C3  UNL     1       2.887  10.773  23.920  1.00  0.00     0.043 C 
ENDBRANCH   1  31
BRANCH  19  34
HETATM   34  C24 UNL     1      -3.530  15.465  18.486  1.00  0.00     0.181 C 
BRANCH  34  35
HETATM   35  O4  UNL     1      -4.887  15.602  18.079  1.00  0.00    -0.400 OA
HETATM   36  H37 UNL     1      -5.318  14.725  18.165  1.00  0.00     0.209 HD
ENDBRANCH  34  35
ENDBRANCH  19  34
TORSDOF 5
ENDMDL
MODEL 6
REMARK minimizedAffinity -9.01496792
REMARK CNNscore 0.281801641
REMARK CNNaffinity 6.43979979
REMARK  5 active torsions:
REMARK  status: ('A' for Active; 'I' for Inactive)
REMARK    1  A    between atoms: C2_2  and  C4_4 
REMARK    2  A    between atoms: C7_7  and  C8_8 
REMARK    3  A    between atoms: C8_8  and  O2_10 
REMARK    4  A    between atoms: C22_25  and  C24_27 
REMARK    5  A    between atoms: C24_27  and  O4_28 
ROOT
HETATM    1  C4  UNL     1      -7.142   6.691  14.534  1.00  0.00     0.019 C 
HETATM    2  C5  UNL     1      -7.213   5.461  15.441  1.00  0.00     0.011 C 
HETATM    3  C6  UNL     1      -6.963   4.274  14.516  1.00  0.00     0.021 C 
HETATM    4  C7  UNL     1      -6.215   4.804  13.269  1.00  0.00     0.050 C 
HETATM    5  C9  UNL     1      -4.847   4.117  13.089  1.00  0.00     0.022 C 
HETATM    6  C10 UNL     1      -3.829   4.496  14.165  1.00  0.00     0.011 C 
HETATM    7  C11 UNL     1      -3.534   6.024  14.280  1.00  0.00    -0.032 C 
HETATM    8  C12 UNL     1      -3.644   6.363  15.794  1.00  0.00     0.016 C 
HETATM    9  C13 UNL     1      -4.592   6.836  13.451  1.00  0.00     0.000 C 
HETATM   10  C14 UNL     1      -4.378   8.350  13.577  1.00  0.00     0.006 C 
HETATM   11  C15 UNL     1      -2.971   8.770  13.134  1.00  0.00     0.006 C 
HETATM   12  C16 UNL     1      -1.844   7.988  13.853  1.00  0.00     0.003 C 
HETATM   13  C17 UNL     1      -0.382   8.556  13.575  1.00  0.00    -0.035 C 
HETATM   14  C18 UNL     1      -0.037   8.590  12.068  1.00  0.00     0.016 C 
HETATM   15  C19 UNL     1      -0.336  10.044  14.072  1.00  0.00     0.017 C 
HETATM   16  C20 UNL     1       1.003  10.523  14.620  1.00  0.00     0.080 C 
HETATM   17  C21 UNL     1       2.182   9.735  14.113  1.00  0.00     0.137 C 
HETATM   18  O3  UNL     1       3.185  10.318  13.699  1.00  0.00    -0.297 OA
HETATM   19  C22 UNL     1       2.149   8.214  14.295  1.00  0.00     0.042 C 
HETATM   20  C23 UNL     1       2.927   7.538  13.146  1.00  0.00     0.026 C 
HETATM   21  C25 UNL     1       0.655   7.733  14.421  1.00  0.00     0.012 C 
HETATM   22  C26 UNL     1       0.498   6.213  14.231  1.00  0.00     0.007 C 
HETATM   23  C27 UNL     1      -0.916   5.732  14.562  1.00  0.00     0.011 C 
HETATM   24  C28 UNL     1      -2.040   6.420  13.729  1.00  0.00    -0.032 C 
HETATM   25  C29 UNL     1      -1.889   5.938  12.254  1.00  0.00     0.016 C 
HETATM   26  C30 UNL     1      -6.081   6.357  13.452  1.00  0.00     0.017 C 
ENDROOT
BRANCH   4  27
HETATM   27  C8  UNL     1      -7.088   4.488  12.046  1.00  0.00     0.149 C 
HETATM   28  O1  UNL     1      -8.167   4.984  11.758  1.00  0.00    -0.649 OA
BRANCH  27  29
HETATM   29  O2  UNL     1      -6.577   3.522  11.258  1.00  0.00    -0.776 OA
HETATM   30  H11 UNL     1      -7.248   3.418  10.553  1.00  0.00     0.167 HD
ENDBRANCH  27  29
ENDBRANCH   4  27
BRANCH   1  31
HETATM   31  C2  UNL     1      -7.141   8.055  15.190  1.00  0.00    -0.088 C 
HETATM   32  C1  UNL     1      -6.048   8.713  15.600  1.00  0.00     0.014 C 
HETATM   33  C3  UNL     1      -8.510   8.630  15.459  1.00  0.00     0.043 C 
ENDBRANCH   1  31
BRANCH  19  34
HETATM   34  C24 UNL     1       2.895   7.950  15.632  1.00  0.00     0.181 C 
BRANCH  34  35
HETATM   35  O4  UNL     1       3.477   6.652  15.686  1.00  0.00    -0.400 OA
HETATM   36  H37 UNL     1       4.050   6.545  14.898  1.00  0.00     0.209 HD
ENDBRANCH  34  35
ENDBRANCH  19  34
TORSDOF 5
ENDMDL
MODEL 7
REMARK minimizedAffinity -5.66366005
REMARK CNNscore 0.245707124
REMARK CNNaffinity 5.61481476
REMARK  5 active torsions:
REMARK  status: ('A' for Active; 'I' for Inactive)
REMARK    1  A    between atoms: C2_2  and  C4_4 
REMARK    2  A    between atoms: C7_7  and  C8_8 
REMARK    3  A    between atoms: C8_8  and  O2_10 
REMARK    4  A    between atoms: C22_25  and  C24_27 
REMARK    5  A    between atoms: C24_27  and  O4_28 
ROOT
HETATM    1  C4  UNL     1       5.526  11.755  22.426  1.00  0.00     0.019 C 
HETATM    2  C5  UNL     1       5.937  13.107  23.014  1.00  0.00     0.011 C 
HETATM    3  C6  UNL     1       7.147  13.543  22.194  1.00  0.00     0.021 C 
HETATM    4  C7  UNL     1       7.091  12.789  20.843  1.00  0.00     0.050 C 
HETATM    5  C9  UNL     1       7.025  13.761  19.649  1.00  0.00     0.022 C 
HETATM    6  C10 UNL     1       5.704  14.525  19.558  1.00  0.00     0.011 C 
HETATM    7  C11 UNL     1       4.432  13.627  19.455  1.00  0.00    -0.032 C 
HETATM    8  C12 UNL     1       3.436  14.184  20.512  1.00  0.00     0.016 C 
HETATM    9  C13 UNL     1       4.804  12.136  19.774  1.00  0.00     0.000 C 
HETATM   10  C14 UNL     1       3.575  11.219  19.740  1.00  0.00     0.006 C 
HETATM   11  C15 UNL     1       2.855  11.274  18.386  1.00  0.00     0.006 C 
HETATM   12  C16 UNL     1       2.488  12.712  17.946  1.00  0.00     0.003 C 
HETATM   13  C17 UNL     1       1.550  12.777  16.659  1.00  0.00    -0.035 C 
HETATM   14  C18 UNL     1       2.171  12.059  15.438  1.00  0.00     0.016 C 
HETATM   15  C19 UNL     1       0.220  12.014  16.990  1.00  0.00     0.017 C 
HETATM   16  C20 UNL     1      -1.040  12.550  16.320  1.00  0.00     0.080 C 
HETATM   17  C21 UNL     1      -0.771  13.331  15.061  1.00  0.00     0.137 C 
HETATM   18  O3  UNL     1      -1.430  13.113  14.043  1.00  0.00    -0.297 OA
HETATM   19  C22 UNL     1       0.214  14.501  15.150  1.00  0.00     0.042 C 
HETATM   20  C23 UNL     1       0.937  14.674  13.797  1.00  0.00     0.026 C 
HETATM   21  C25 UNL     1       1.186  14.277  16.367  1.00  0.00     0.012 C 
HETATM   22  C26 UNL     1       2.428  15.186  16.316  1.00  0.00     0.007 C 
HETATM   23  C27 UNL     1       3.254  15.109  17.602  1.00  0.00     0.011 C 
HETATM   24  C28 UNL     1       3.747  13.675  17.965  1.00  0.00    -0.032 C 
HETATM   25  C29 UNL     1       4.804  13.261  16.897  1.00  0.00     0.016 C 
HETATM   26  C30 UNL     1       5.841  11.843  20.908  1.00  0.00     0.017 C 
ENDROOT
BRANCH   4  27
HETATM   27  C8  UNL     1       8.379  11.959  20.731  1.00  0.00     0.149 C 
HETATM   28  O1  UNL     1       8.800  11.375  19.744  1.00  0.00    -0.649 OA
BRANCH  27  29
HETATM   29  O2  UNL     1       9.059  11.868  21.890  1.00  0.00    -0.776 OA
HETATM   30  H11 UNL     1       9.822  11.297  21.666  1.00  0.00     0.167 HD
ENDBRANCH  27  29
ENDBRANCH   4  27
BRANCH   1  31
HETATM   31  C2  UNL     1       4.218  11.151  22.887  1.00  0.00    -0.088 C 
HETATM   32  C1  UNL     1       3.155  11.846  23.316  1.00  0.00     0.014 C 
HETATM   33  C3  UNL     1       4.198   9.642  22.933  1.00  0.00     0.043 C 
ENDBRANCH   1  31
BRANCH  19  34
HETATM   34  C24 UNL     1      -0.667  15.753  15.412  1.00  0.00     0.181 C 
BRANCH  34  35
HETATM   35  O4  UNL     1      -0.939  15.950  16.796  1.00  0.00    -0.400 OA
HETATM   36  H37 UNL     1      -0.081  15.977  17.271  1.00  0.00     0.209 HD
ENDBRANCH  34  35
ENDBRANCH  19  34
TORSDOF 5
ENDMDL
MODEL 8
REMARK minimizedAffinity -6.69417238
REMARK CNNscore 0.239830822
REMARK CNNaffinity 5.77772284
REMARK  5 active torsions:
REMARK  status: ('A' for Active; 'I' for Inactive)
REMARK    1  A    between atoms: C2_2  and  C4_4 
REMARK    2  A    between atoms: C7_7  and  C8_8 
REMARK    3  A    between atoms: C8_8  and  O2_10 
REMARK    4  A    between atoms: C22_25  and  C24_27 
REMARK    5  A    between atoms: C24_27  and  O4_28 
ROOT
HETATM    1  C4  UNL     1     -18.893  -1.614  15.230  1.00  0.00     0.019 C 
HETATM    2  C5  UNL     1     -18.323  -0.194  15.198  1.00  0.00     0.011 C 
HETATM    3  C6  UNL     1     -16.956  -0.302  15.867  1.00  0.00     0.021 C 
HETATM    4  C7  UNL     1     -16.504  -1.779  15.769  1.00  0.00     0.050 C 
HETATM    5  C9  UNL     1     -15.173  -1.919  15.004  1.00  0.00     0.022 C 
HETATM    6  C10 UNL     1     -15.290  -1.599  13.514  1.00  0.00     0.011 C 
HETATM    7  C11 UNL     1     -16.328  -2.464  12.735  1.00  0.00    -0.032 C 
HETATM    8  C12 UNL     1     -17.186  -1.459  11.915  1.00  0.00     0.016 C 
HETATM    9  C13 UNL     1     -17.225  -3.261  13.748  1.00  0.00     0.000 C 
HETATM   10  C14 UNL     1     -18.300  -4.088  13.032  1.00  0.00     0.006 C 
HETATM   11  C15 UNL     1     -17.693  -5.073  12.024  1.00  0.00     0.006 C 
HETATM   12  C16 UNL     1     -16.742  -4.397  11.006  1.00  0.00     0.003 C 
HETATM   13  C17 UNL     1     -16.276  -5.353   9.820  1.00  0.00    -0.035 C 
HETATM   14  C18 UNL     1     -15.575  -6.632  10.334  1.00  0.00     0.016 C 
HETATM   15  C19 UNL     1     -17.556  -5.831   9.050  1.00  0.00     0.017 C 
HETATM   16  C20 UNL     1     -17.385  -6.065   7.553  1.00  0.00     0.080 C 
HETATM   17  C21 UNL     1     -15.963  -6.345   7.143  1.00  0.00     0.137 C 
HETATM   18  O3  UNL     1     -15.709  -7.284   6.387  1.00  0.00    -0.297 OA
HETATM   19  C22 UNL     1     -14.893  -5.330   7.556  1.00  0.00     0.042 C 
HETATM   20  C23 UNL     1     -13.545  -6.053   7.765  1.00  0.00     0.026 C 
HETATM   21  C25 UNL     1     -15.388  -4.530   8.819  1.00  0.00     0.012 C 
HETATM   22  C26 UNL     1     -14.254  -3.766   9.526  1.00  0.00     0.007 C 
HETATM   23  C27 UNL     1     -14.779  -2.832  10.618  1.00  0.00     0.011 C 
HETATM   24  C28 UNL     1     -15.616  -3.543  11.725  1.00  0.00    -0.032 C 
HETATM   25  C29 UNL     1     -14.641  -4.447  12.538  1.00  0.00     0.016 C 
HETATM   26  C30 UNL     1     -17.674  -2.561  15.072  1.00  0.00     0.017 C 
ENDROOT
BRANCH   4  27
HETATM   27  C8  UNL     1     -16.304  -2.291  17.202  1.00  0.00     0.149 C 
HETATM   28  O1  UNL     1     -16.092  -3.441  17.556  1.00  0.00    -0.649 OA
BRANCH  27  29
HETATM   29  O2  UNL     1     -16.425  -1.328  18.137  1.00  0.00    -0.776 OA
HETATM   30  H11 UNL     1     -16.301  -1.807  18.981  1.00  0.00     0.167 HD
ENDBRANCH  27  29
ENDBRANCH   4  27
BRANCH   1  31
HETATM   31  C2  UNL     1     -20.160  -1.885  14.450  1.00  0.00    -0.088 C 
HETATM   32  C1  UNL     1     -20.552  -1.215  13.357  1.00  0.00     0.014 C 
HETATM   33  C3  UNL     1     -21.058  -2.943  15.045  1.00  0.00     0.043 C 
ENDBRANCH   1  31
BRANCH  19  34
HETATM   34  C24 UNL     1     -14.763  -4.363   6.347  1.00  0.00     0.181 C 
BRANCH  34  35
HETATM   35  O4  UNL     1     -13.919  -4.879   5.323  1.00  0.00    -0.400 OA
HETATM   36  H37 UNL     1     -14.254  -5.765   5.073  1.00  0.00     0.209 HD
ENDBRANCH  34  35
ENDBRANCH  19  34
TORSDOF 5
ENDMDL
MODEL 9
REMARK minimizedAffinity -5.03471756
REMARK CNNscore 0.22495985
REMARK CNNaffinity 6.17918539
REMARK  5 active torsions:
REMARK  status: ('A' for Active; 'I' for Inactive)
REMARK    1  A    between atoms: C2_2  and  C4_4 
REMARK    2  A    between atoms: C7_7  and  C8_8 
REMARK    3  A    between atoms: C8_8  and  O2_10 
REMARK    4  A    between atoms: C22_25  and  C24_27 
REMARK    5  A    between atoms: C24_27  and  O4_28 
ROOT
HETATM    1  C4  UNL     1      -5.518 -11.496   6.382  1.00  0.00     0.019 C 
HETATM    2  C5  UNL     1      -4.006 -11.287   6.281  1.00  0.00     0.011 C 
HETATM    3  C6  UNL     1      -3.475 -12.557   5.624  1.00  0.00     0.021 C 
HETATM    4  C7  UNL     1      -4.649 -13.212   4.858  1.00  0.00     0.050 C 
HETATM    5  C9  UNL     1      -4.343 -13.347   3.353  1.00  0.00     0.022 C 
HETATM    6  C10 UNL     1      -4.289 -12.007   2.619  1.00  0.00     0.011 C 
HETATM    7  C11 UNL     1      -5.588 -11.149   2.721  1.00  0.00    -0.032 C 
HETATM    8  C12 UNL     1      -5.122  -9.721   3.123  1.00  0.00     0.016 C 
HETATM    9  C13 UNL     1      -6.540 -11.750   3.815  1.00  0.00     0.000 C 
HETATM   10  C14 UNL     1      -7.811 -10.910   3.992  1.00  0.00     0.006 C 
HETATM   11  C15 UNL     1      -8.591 -10.763   2.680  1.00  0.00     0.006 C 
HETATM   12  C16 UNL     1      -7.729 -10.227   1.511  1.00  0.00     0.003 C 
HETATM   13  C17 UNL     1      -8.563  -9.859   0.205  1.00  0.00    -0.035 C 
HETATM   14  C18 UNL     1      -9.380 -11.057  -0.332  1.00  0.00     0.016 C 
HETATM   15  C19 UNL     1      -9.605  -8.751   0.590  1.00  0.00     0.017 C 
HETATM   16  C20 UNL     1      -9.941  -7.743  -0.502  1.00  0.00     0.080 C 
HETATM   17  C21 UNL     1      -9.681  -8.251  -1.896  1.00  0.00     0.137 C 
HETATM   18  O3  UNL     1     -10.529  -8.104  -2.777  1.00  0.00    -0.297 OA
HETATM   19  C22 UNL     1      -8.280  -8.787  -2.206  1.00  0.00     0.042 C 
HETATM   20  C23 UNL     1      -8.374  -9.893  -3.278  1.00  0.00     0.026 C 
HETATM   21  C25 UNL     1      -7.590  -9.253  -0.870  1.00  0.00     0.012 C 
HETATM   22  C26 UNL     1      -6.354 -10.139  -1.112  1.00  0.00     0.007 C 
HETATM   23  C27 UNL     1      -5.575 -10.411   0.177  1.00  0.00     0.011 C 
HETATM   24  C28 UNL     1      -6.413 -11.087   1.304  1.00  0.00    -0.032 C 
HETATM   25  C29 UNL     1      -6.743 -12.536   0.834  1.00  0.00     0.016 C 
HETATM   26  C30 UNL     1      -5.914 -12.322   5.129  1.00  0.00     0.017 C 
ENDROOT
BRANCH   4  27
HETATM   27  C8  UNL     1      -4.851 -14.615   5.446  1.00  0.00     0.149 C 
HETATM   28  O1  UNL     1      -3.995 -15.356   5.906  1.00  0.00    -0.649 OA
BRANCH  27  29
HETATM   29  O2  UNL     1      -6.128 -15.041   5.389  1.00  0.00    -0.776 OA
HETATM   30  H11 UNL     1      -6.089 -15.942   5.769  1.00  0.00     0.167 HD
ENDBRANCH  27  29
ENDBRANCH   4  27
BRANCH   1  31
HETATM   31  C2  UNL     1      -6.370 -10.317   6.802  1.00  0.00    -0.088 C 
HETATM   32  C1  UNL     1      -7.673 -10.378   7.110  1.00  0.00     0.014 C 
HETATM   33  C3  UNL     1      -5.666  -8.983   6.767  1.00  0.00     0.043 C 
ENDBRANCH   1  31
BRANCH  19  34
HETATM   34  C24 UNL     1      -7.505  -7.578  -2.796  1.00  0.00     0.181 C 
BRANCH  34  35
HETATM   35  O4  UNL     1      -7.379  -7.647  -4.213  1.00  0.00    -0.400 OA
HETATM   36  H37 UNL     1      -8.278  -7.750  -4.591  1.00  0.00     0.209 HD
ENDBRANCH  34  35
ENDBRANCH  19  34
TORSDOF 5
ENDMDL
