MODEL 1
REMARK minimizedAffinity -7.73779917
REMARK  8 active torsions:
REMARK  status: ('A' for Active; 'I' for Inactive)
REMARK    1  A    between atoms: O1_2  and  C2_3 
REMARK    2  A    between atoms: C2_3  and  C3_4 
REMARK    3  A    between atoms: C3_4  and  O2_5 
REMARK    4  A    between atoms: O2_5  and  C4_6 
REMARK    5  A    between atoms: C7_9  and  C8_10 
REMARK    6  A    between atoms: C9_14  and  C10_15 
REMARK    7  A    between atoms: N2_19  and  C14_20 
REMARK    8  A    between atoms: C14_20  and  C15_21 
ROOT
HETATM    1  C8  UNL     1      16.828  34.991  14.065  1.00  0.00     0.139 A 
HETATM    2  N1  UNL     1      17.401  35.171  15.266  1.00  0.00    -0.242 N 
ATOM      3  H1  UNL     1      18.333  34.887  15.568  1.00  0.00     0.196 HD
HETATM    4  O3  UNL     1      16.422  35.835  16.004  1.00  0.00    -0.220 OA
HETATM    5  C9  UNL     1      15.344  35.975  15.181  1.00  0.00     0.182 A 
HETATM    6  N4  UNL     1      15.535  35.458  13.986  1.00  0.00    -0.321 N 
ATOM      7  H4  UNL     1      14.888  35.415  13.198  1.00  0.00     0.169 HD
ENDROOT
BRANCH   5   8
HETATM    8  C10 UNL     1      14.137  36.655  15.764  1.00  0.00     0.299 C 
HETATM    9  C11 UNL     1      14.532  37.892  16.572  1.00  0.00     0.046 C 
HETATM   10  C12 UNL     1      14.618  37.423  18.019  1.00  0.00     0.033 C 
HETATM   11  C13 UNL     1      14.127  35.984  18.013  1.00  0.00     0.274 C 
HETATM   12  N2  UNL     1      13.433  35.779  16.733  1.00  0.00     0.105 N 
BRANCH  12  13
HETATM   13  C14 UNL     1      12.002  36.092  16.851  1.00  0.00     0.314 C 
BRANCH  13  14
HETATM   14  C15 UNL     1      11.408  35.416  18.051  1.00  0.00    -0.002 A 
HETATM   15  C16 UNL     1      12.031  34.470  18.846  1.00  0.00     0.100 A 
HETATM   16  N3  UNL     1      11.161  34.093  19.833  1.00  0.00    -0.360 N 
HETATM   17  C17 UNL     1      11.454  33.123  20.864  1.00  0.00     0.155 C 
HETATM   18  C18 UNL     1       9.967  34.768  19.705  1.00  0.00     0.044 A 
HETATM   19  C19 UNL     1       8.791  34.717  20.471  1.00  0.00     0.030 A 
HETATM   20  C23 UNL     1      10.094  35.605  18.593  1.00  0.00     0.000 A 
HETATM   21  C20 UNL     1       7.726  35.542  20.097  1.00  0.00     0.002 A 
HETATM   22  C21 UNL     1       7.827  36.386  18.997  1.00  0.00     0.001 A 
HETATM   23  C22 UNL     1       9.001  36.424  18.237  1.00  0.00     0.014 A 
ENDBRANCH  13  14
ENDBRANCH  12  13
ENDBRANCH   5   8
BRANCH   1  24
HETATM   24  C7  UNL     1      17.489  34.357  12.939  1.00  0.00     0.025 A 
HETATM   25  C6  UNL     1      17.123  33.089  12.475  1.00  0.00     0.021 A 
HETATM   26  C5  UNL     1      17.800  32.527  11.391  1.00  0.00     0.057 A 
HETATM   27  C4  UNL     1      18.824  33.250  10.803  1.00  0.00     0.141 A 
HETATM   28  N5  UNL     1      19.208  34.473  11.220  1.00  0.00    -0.346 N 
HETATM   29  C24 UNL     1      18.533  34.996  12.275  1.00  0.00     0.105 A 
ATOM     30  H5  UNL     1      19.968  34.979  10.766  1.00  0.00     0.167 HD
BRANCH  27  31
HETATM   31  O2  UNL     1      19.469  32.646   9.745  1.00  0.00    -0.334 OA
BRANCH  31  32
HETATM   32  C3  UNL     1      18.858  31.440   9.278  1.00  0.00     0.203 C 
BRANCH  32  33
HETATM   33  C2  UNL     1      18.438  31.553   7.810  1.00  0.00     0.193 C 
BRANCH  33  34
HETATM   34  O1  UNL     1      18.125  30.279   7.241  1.00  0.00    -0.394 OA
HETATM   35  C1  UNL     1      19.150  29.787   6.389  1.00  0.00     0.201 C 
ENDBRANCH  33  34
ENDBRANCH  32  33
ENDBRANCH  31  32
ENDBRANCH  27  31
ENDBRANCH   1  24
TORSDOF 8
ENDMDL
MODEL 2
REMARK minimizedAffinity -7.58557653
REMARK  8 active torsions:
REMARK  status: ('A' for Active; 'I' for Inactive)
REMARK    1  A    between atoms: O1_2  and  C2_3 
REMARK    2  A    between atoms: C2_3  and  C3_4 
REMARK    3  A    between atoms: C3_4  and  O2_5 
REMARK    4  A    between atoms: O2_5  and  C4_6 
REMARK    5  A    between atoms: C7_9  and  C8_10 
REMARK    6  A    between atoms: C9_14  and  C10_15 
REMARK    7  A    between atoms: N2_19  and  C14_20 
REMARK    8  A    between atoms: C14_20  and  C15_21 
ROOT
HETATM    1  C8  UNL     1      11.941  35.345  17.825  1.00  0.00     0.139 A 
HETATM    2  N1  UNL     1      12.301  35.916  16.663  1.00  0.00    -0.242 N 
ATOM      3  H1  UNL     1      11.715  36.433  16.008  1.00  0.00     0.196 HD
HETATM    4  O3  UNL     1      13.663  35.634  16.563  1.00  0.00    -0.220 OA
HETATM    5  C9  UNL     1      13.989  34.902  17.667  1.00  0.00     0.182 A 
HETATM    6  N4  UNL     1      12.965  34.683  18.464  1.00  0.00    -0.321 N 
ATOM      7  H4  UNL     1      12.937  34.154  19.336  1.00  0.00     0.169 HD
ENDROOT
BRANCH   5   8
HETATM    8  C10 UNL     1      15.420  34.457  17.779  1.00  0.00     0.299 C 
HETATM    9  C11 UNL     1      15.840  34.296  19.241  1.00  0.00     0.046 C 
HETATM   10  C12 UNL     1      16.514  35.609  19.617  1.00  0.00     0.033 C 
HETATM   11  C13 UNL     1      16.593  36.413  18.328  1.00  0.00     0.274 C 
HETATM   12  N2  UNL     1      16.351  35.471  17.226  1.00  0.00     0.105 N 
BRANCH  12  13
HETATM   13  C14 UNL     1      17.610  34.887  16.744  1.00  0.00     0.314 C 
BRANCH  13  14
HETATM   14  C15 UNL     1      17.686  34.952  15.247  1.00  0.00    -0.002 A 
HETATM   15  C16 UNL     1      17.879  33.882  14.391  1.00  0.00     0.100 A 
HETATM   16  N3  UNL     1      17.895  34.351  13.106  1.00  0.00    -0.360 N 
HETATM   17  C17 UNL     1      18.069  33.528  11.930  1.00  0.00     0.155 C 
HETATM   18  C18 UNL     1      17.723  35.718  13.091  1.00  0.00     0.044 A 
HETATM   19  C19 UNL     1      17.669  36.629  12.025  1.00  0.00     0.030 A 
HETATM   20  C23 UNL     1      17.591  36.122  14.423  1.00  0.00     0.000 A 
HETATM   21  C20 UNL     1      17.470  37.981  12.323  1.00  0.00     0.002 A 
HETATM   22  C21 UNL     1      17.333  38.410  13.639  1.00  0.00     0.001 A 
HETATM   23  C22 UNL     1      17.394  37.493  14.694  1.00  0.00     0.014 A 
ENDBRANCH  13  14
ENDBRANCH  12  13
ENDBRANCH   5   8
BRANCH   1  24
HETATM   24  C7  UNL     1      10.598  35.402  18.373  1.00  0.00     0.025 A 
HETATM   25  C6  UNL     1       9.566  36.112  17.751  1.00  0.00     0.021 A 
HETATM   26  C5  UNL     1       8.296  36.135  18.328  1.00  0.00     0.057 A 
HETATM   27  C4  UNL     1       8.094  35.447  19.513  1.00  0.00     0.141 A 
HETATM   28  N5  UNL     1       9.061  34.753  20.145  1.00  0.00    -0.346 N 
HETATM   29  C24 UNL     1      10.287  34.746  19.561  1.00  0.00     0.105 A 
ATOM     30  H5  UNL     1       8.881  34.258  21.018  1.00  0.00     0.167 HD
BRANCH  27  31
HETATM   31  O2  UNL     1       6.826  35.512  20.049  1.00  0.00    -0.334 OA
BRANCH  31  32
HETATM   32  C3  UNL     1       6.129  34.264  20.098  1.00  0.00     0.203 C 
BRANCH  32  33
HETATM   33  C2  UNL     1       5.498  33.918  18.746  1.00  0.00     0.193 C 
BRANCH  33  34
HETATM   34  O1  UNL     1       5.441  32.507  18.524  1.00  0.00    -0.394 OA
HETATM   35  C1  UNL     1       4.202  31.933  18.918  1.00  0.00     0.201 C 
ENDBRANCH  33  34
ENDBRANCH  32  33
ENDBRANCH  31  32
ENDBRANCH  27  31
ENDBRANCH   1  24
TORSDOF 8
ENDMDL
MODEL 3
REMARK minimizedAffinity -7.58216333
REMARK  8 active torsions:
REMARK  status: ('A' for Active; 'I' for Inactive)
REMARK    1  A    between atoms: O1_2  and  C2_3 
REMARK    2  A    between atoms: C2_3  and  C3_4 
REMARK    3  A    between atoms: C3_4  and  O2_5 
REMARK    4  A    between atoms: O2_5  and  C4_6 
REMARK    5  A    between atoms: C7_9  and  C8_10 
REMARK    6  A    between atoms: C9_14  and  C10_15 
REMARK    7  A    between atoms: N2_19  and  C14_20 
REMARK    8  A    between atoms: C14_20  and  C15_21 
ROOT
HETATM    1  C8  UNL     1      11.749  35.574  17.559  1.00  0.00     0.139 A 
HETATM    2  N1  UNL     1      12.022  36.136  16.370  1.00  0.00    -0.242 N 
ATOM      3  H1  UNL     1      11.377  36.597  15.728  1.00  0.00     0.196 HD
HETATM    4  O3  UNL     1      13.394  35.939  16.217  1.00  0.00    -0.220 OA
HETATM    5  C9  UNL     1      13.813  35.259  17.323  1.00  0.00     0.182 A 
HETATM    6  N4  UNL     1      12.840  34.995  18.168  1.00  0.00    -0.321 N 
ATOM      7  H4  UNL     1      12.882  34.489  19.053  1.00  0.00     0.169 HD
ENDROOT
BRANCH   5   8
HETATM    8  C10 UNL     1      15.274  34.909  17.383  1.00  0.00     0.299 C 
HETATM    9  C11 UNL     1      15.565  33.932  18.523  1.00  0.00     0.046 C 
HETATM   10  C12 UNL     1      16.013  34.796  19.694  1.00  0.00     0.033 C 
HETATM   11  C13 UNL     1      16.108  36.212  19.146  1.00  0.00     0.274 C 
HETATM   12  N2  UNL     1      16.108  36.099  17.680  1.00  0.00     0.105 N 
BRANCH  12  13
HETATM   13  C14 UNL     1      17.476  35.982  17.158  1.00  0.00     0.314 C 
BRANCH  13  14
HETATM   14  C15 UNL     1      17.593  36.652  15.821  1.00  0.00    -0.002 A 
HETATM   15  C16 UNL     1      17.866  37.990  15.600  1.00  0.00     0.100 A 
HETATM   16  N3  UNL     1      17.883  38.212  14.249  1.00  0.00    -0.360 N 
HETATM   17  C17 UNL     1      18.140  39.491  13.627  1.00  0.00     0.155 C 
HETATM   18  C18 UNL     1      17.619  37.044  13.567  1.00  0.00     0.044 A 
HETATM   19  C19 UNL     1      17.534  36.779  12.191  1.00  0.00     0.030 A 
HETATM   20  C23 UNL     1      17.432  36.048  14.530  1.00  0.00     0.000 A 
HETATM   21  C20 UNL     1      17.257  35.468  11.789  1.00  0.00     0.002 A 
HETATM   22  C21 UNL     1      17.069  34.458  12.727  1.00  0.00     0.001 A 
HETATM   23  C22 UNL     1      17.151  34.736  14.095  1.00  0.00     0.014 A 
ENDBRANCH  13  14
ENDBRANCH  12  13
ENDBRANCH   5   8
BRANCH   1  24
HETATM   24  C7  UNL     1      10.429  35.559  18.163  1.00  0.00     0.025 A 
HETATM   25  C6  UNL     1       9.310  36.110  17.529  1.00  0.00     0.021 A 
HETATM   26  C5  UNL     1       8.068  36.072  18.162  1.00  0.00     0.057 A 
HETATM   27  C4  UNL     1       7.979  35.482  19.412  1.00  0.00     0.141 A 
HETATM   28  N5  UNL     1       9.031  34.941  20.057  1.00  0.00    -0.346 N 
HETATM   29  C24 UNL     1      10.228  34.992  19.418  1.00  0.00     0.105 A 
ATOM     30  H5  UNL     1       8.933  34.515  20.979  1.00  0.00     0.167 HD
BRANCH  27  31
HETATM   31  O2  UNL     1       6.732  35.481  20.000  1.00  0.00    -0.334 OA
BRANCH  31  32
HETATM   32  C3  UNL     1       6.247  34.189  20.377  1.00  0.00     0.203 C 
BRANCH  32  33
HETATM   33  C2  UNL     1       5.477  33.521  19.234  1.00  0.00     0.193 C 
BRANCH  33  34
HETATM   34  O1  UNL     1       4.191  33.056  19.651  1.00  0.00    -0.394 OA
HETATM   35  C1  UNL     1       3.549  32.250  18.674  1.00  0.00     0.201 C 
ENDBRANCH  33  34
ENDBRANCH  32  33
ENDBRANCH  31  32
ENDBRANCH  27  31
ENDBRANCH   1  24
TORSDOF 8
ENDMDL
MODEL 4
REMARK minimizedAffinity -7.53546047
REMARK  8 active torsions:
REMARK  status: ('A' for Active; 'I' for Inactive)
REMARK    1  A    between atoms: O1_2  and  C2_3 
REMARK    2  A    between atoms: C2_3  and  C3_4 
REMARK    3  A    between atoms: C3_4  and  O2_5 
REMARK    4  A    between atoms: O2_5  and  C4_6 
REMARK    5  A    between atoms: C7_9  and  C8_10 
REMARK    6  A    between atoms: C9_14  and  C10_15 
REMARK    7  A    between atoms: N2_19  and  C14_20 
REMARK    8  A    between atoms: C14_20  and  C15_21 
ROOT
HETATM    1  C8  UNL     1      11.682  35.598  17.574  1.00  0.00     0.139 A 
HETATM    2  N1  UNL     1      11.852  36.069  16.327  1.00  0.00    -0.242 N 
ATOM      3  H1  UNL     1      11.143  36.421  15.685  1.00  0.00     0.196 HD
HETATM    4  O3  UNL     1      13.227  35.963  16.118  1.00  0.00    -0.220 OA
HETATM    5  C9  UNL     1      13.752  35.420  17.253  1.00  0.00     0.182 A 
HETATM    6  N4  UNL     1      12.844  35.161  18.170  1.00  0.00    -0.321 N 
ATOM      7  H4  UNL     1      12.969  34.741  19.092  1.00  0.00     0.169 HD
ENDROOT
BRANCH   5   8
HETATM    8  C10 UNL     1      15.237  35.187  17.263  1.00  0.00     0.299 C 
HETATM    9  C11 UNL     1      15.629  34.144  18.311  1.00  0.00     0.046 C 
HETATM   10  C12 UNL     1      16.030  34.940  19.546  1.00  0.00     0.033 C 
HETATM   11  C13 UNL     1      15.999  36.400  19.121  1.00  0.00     0.274 C 
HETATM   12  N2  UNL     1      15.977  36.412  17.651  1.00  0.00     0.105 N 
BRANCH  12  13
HETATM   13  C14 UNL     1      17.340  36.453  17.102  1.00  0.00     0.314 C 
BRANCH  13  14
HETATM   14  C15 UNL     1      17.324  36.920  15.677  1.00  0.00    -0.002 A 
HETATM   15  C16 UNL     1      17.623  36.154  14.564  1.00  0.00     0.100 A 
HETATM   16  N3  UNL     1      17.501  36.940  13.450  1.00  0.00    -0.360 N 
HETATM   17  C17 UNL     1      17.729  36.492  12.095  1.00  0.00     0.155 C 
HETATM   18  C18 UNL     1      17.131  38.220  13.804  1.00  0.00     0.044 A 
HETATM   19  C19 UNL     1      16.887  39.359  13.021  1.00  0.00     0.030 A 
HETATM   20  C23 UNL     1      17.014  38.235  15.197  1.00  0.00     0.000 A 
HETATM   21  C20 UNL     1      16.510  40.537  13.672  1.00  0.00     0.002 A 
HETATM   22  C21 UNL     1      16.383  40.579  15.057  1.00  0.00     0.001 A 
HETATM   23  C22 UNL     1      16.635  39.439  15.828  1.00  0.00     0.014 A 
ENDBRANCH  13  14
ENDBRANCH  12  13
ENDBRANCH   5   8
BRANCH   1  24
HETATM   24  C7  UNL     1      10.398  35.539  18.248  1.00  0.00     0.025 A 
HETATM   25  C6  UNL     1       9.258  36.172  17.743  1.00  0.00     0.021 A 
HETATM   26  C5  UNL     1       8.052  36.084  18.439  1.00  0.00     0.057 A 
HETATM   27  C4  UNL     1       8.021  35.365  19.623  1.00  0.00     0.141 A 
HETATM   28  N5  UNL     1       9.096  34.743  20.144  1.00  0.00    -0.346 N 
HETATM   29  C24 UNL     1      10.256  34.844  19.446  1.00  0.00     0.105 A 
ATOM     30  H5  UNL     1       9.041  34.223  21.020  1.00  0.00     0.167 HD
BRANCH  27  31
HETATM   31  O2  UNL     1       6.809  35.320  20.278  1.00  0.00    -0.334 OA
BRANCH  31  32
HETATM   32  C3  UNL     1       6.116  34.073  20.175  1.00  0.00     0.203 C 
BRANCH  32  33
HETATM   33  C2  UNL     1       5.436  33.918  18.813  1.00  0.00     0.193 C 
BRANCH  33  34
HETATM   34  O1  UNL     1       5.465  32.566  18.348  1.00  0.00    -0.394 OA
HETATM   35  C1  UNL     1       4.442  31.762  18.918  1.00  0.00     0.201 C 
ENDBRANCH  33  34
ENDBRANCH  32  33
ENDBRANCH  31  32
ENDBRANCH  27  31
ENDBRANCH   1  24
TORSDOF 8
ENDMDL
MODEL 5
REMARK minimizedAffinity -7.22188044
REMARK  8 active torsions:
REMARK  status: ('A' for Active; 'I' for Inactive)
REMARK    1  A    between atoms: O1_2  and  C2_3 
REMARK    2  A    between atoms: C2_3  and  C3_4 
REMARK    3  A    between atoms: C3_4  and  O2_5 
REMARK    4  A    between atoms: O2_5  and  C4_6 
REMARK    5  A    between atoms: C7_9  and  C8_10 
REMARK    6  A    between atoms: C9_14  and  C10_15 
REMARK    7  A    between atoms: N2_19  and  C14_20 
REMARK    8  A    between atoms: C14_20  and  C15_21 
ROOT
HETATM    1  C8  UNL     1      14.963  35.866  15.458  1.00  0.00     0.139 A 
HETATM    2  N1  UNL     1      13.677  36.216  15.292  1.00  0.00    -0.242 N 
ATOM      3  H1  UNL     1      13.153  36.294  14.420  1.00  0.00     0.196 HD
HETATM    4  O3  UNL     1      13.226  36.447  16.591  1.00  0.00    -0.220 OA
HETATM    5  C9  UNL     1      14.292  36.233  17.415  1.00  0.00     0.182 A 
HETATM    6  N4  UNL     1      15.386  35.892  16.768  1.00  0.00    -0.321 N 
ATOM      7  H4  UNL     1      16.314  35.696  17.143  1.00  0.00     0.169 HD
ENDROOT
BRANCH   5   8
HETATM    8  C10 UNL     1      14.057  36.441  18.885  1.00  0.00     0.299 C 
HETATM    9  C11 UNL     1      15.047  35.633  19.726  1.00  0.00     0.046 C 
HETATM   10  C12 UNL     1      14.321  34.342  20.080  1.00  0.00     0.033 C 
HETATM   11  C13 UNL     1      12.901  34.515  19.563  1.00  0.00     0.274 C 
HETATM   12  N2  UNL     1      12.719  35.950  19.298  1.00  0.00     0.105 N 
BRANCH  12  13
HETATM   13  C14 UNL     1      12.197  36.645  20.483  1.00  0.00     0.314 C 
BRANCH  13  14
HETATM   14  C15 UNL     1      10.848  36.107  20.861  1.00  0.00    -0.002 A 
HETATM   15  C16 UNL     1      10.545  35.401  22.012  1.00  0.00     0.100 A 
HETATM   16  N3  UNL     1       9.214  35.081  21.987  1.00  0.00    -0.360 N 
HETATM   17  C17 UNL     1       8.523  34.347  23.023  1.00  0.00     0.155 C 
HETATM   18  C18 UNL     1       8.628  35.558  20.835  1.00  0.00     0.044 A 
HETATM   19  C19 UNL     1       7.304  35.479  20.373  1.00  0.00     0.030 A 
HETATM   20  C23 UNL     1       9.631  36.206  20.109  1.00  0.00     0.000 A 
HETATM   21  C20 UNL     1       6.998  36.077  19.147  1.00  0.00     0.002 A 
HETATM   22  C21 UNL     1       7.977  36.730  18.406  1.00  0.00     0.001 A 
HETATM   23  C22 UNL     1       9.294  36.798  18.873  1.00  0.00     0.014 A 
ENDBRANCH  13  14
ENDBRANCH  12  13
ENDBRANCH   5   8
BRANCH   1  24
HETATM   24  C7  UNL     1      15.849  35.499  14.369  1.00  0.00     0.025 A 
HETATM   25  C6  UNL     1      15.422  34.720  13.288  1.00  0.00     0.021 A 
HETATM   26  C5  UNL     1      16.321  34.394  12.272  1.00  0.00     0.057 A 
HETATM   27  C4  UNL     1      17.624  34.855  12.367  1.00  0.00     0.141 A 
HETATM   28  N5  UNL     1      18.076  35.605  13.391  1.00  0.00    -0.346 N 
HETATM   29  C24 UNL     1      17.180  35.909  14.365  1.00  0.00     0.105 A 
ATOM     30  H5  UNL     1      19.042  35.928  13.433  1.00  0.00     0.167 HD
BRANCH  27  31
HETATM   31  O2  UNL     1      18.476  34.494  11.345  1.00  0.00    -0.334 OA
BRANCH  31  32
HETATM   32  C3  UNL     1      18.984  33.159  11.430  1.00  0.00     0.203 C 
BRANCH  32  33
HETATM   33  C2  UNL     1      18.700  32.366  10.152  1.00  0.00     0.193 C 
BRANCH  33  34
HETATM   34  O1  UNL     1      18.203  31.055  10.431  1.00  0.00    -0.394 OA
HETATM   35  C1  UNL     1      17.781  30.898  11.778  1.00  0.00     0.201 C 
ENDBRANCH  33  34
ENDBRANCH  32  33
ENDBRANCH  31  32
ENDBRANCH  27  31
ENDBRANCH   1  24
TORSDOF 8
ENDMDL
MODEL 6
REMARK minimizedAffinity -7.11808968
REMARK  8 active torsions:
REMARK  status: ('A' for Active; 'I' for Inactive)
REMARK    1  A    between atoms: O1_2  and  C2_3 
REMARK    2  A    between atoms: C2_3  and  C3_4 
REMARK    3  A    between atoms: C3_4  and  O2_5 
REMARK    4  A    between atoms: O2_5  and  C4_6 
REMARK    5  A    between atoms: C7_9  and  C8_10 
REMARK    6  A    between atoms: C9_14  and  C10_15 
REMARK    7  A    between atoms: N2_19  and  C14_20 
REMARK    8  A    between atoms: C14_20  and  C15_21 
ROOT
HETATM    1  C8  UNL     1      11.481  35.957  17.916  1.00  0.00     0.139 A 
HETATM    2  N1  UNL     1      11.687  35.749  16.605  1.00  0.00    -0.242 N 
ATOM      3  H1  UNL     1      11.020  35.421  15.907  1.00  0.00     0.196 HD
HETATM    4  O3  UNL     1      13.028  36.085  16.423  1.00  0.00    -0.220 OA
HETATM    5  C9  UNL     1      13.507  36.447  17.647  1.00  0.00     0.182 A 
HETATM    6  N4  UNL     1      12.603  36.368  18.600  1.00  0.00    -0.321 N 
ATOM      7  H4  UNL     1      12.707  36.563  19.596  1.00  0.00     0.169 HD
ENDROOT
BRANCH   5   8
HETATM    8  C10 UNL     1      14.957  36.840  17.712  1.00  0.00     0.299 C 
HETATM    9  C11 UNL     1      15.145  38.140  18.497  1.00  0.00     0.046 C 
HETATM   10  C12 UNL     1      15.183  39.245  17.450  1.00  0.00     0.033 C 
HETATM   11  C13 UNL     1      15.168  38.535  16.104  1.00  0.00     0.274 C 
HETATM   12  N2  UNL     1      15.504  37.127  16.364  1.00  0.00     0.105 N 
BRANCH  12  13
HETATM   13  C14 UNL     1      16.954  36.906  16.278  1.00  0.00     0.314 C 
BRANCH  13  14
HETATM   14  C15 UNL     1      17.283  35.988  15.138  1.00  0.00    -0.002 A 
HETATM   15  C16 UNL     1      16.380  35.438  14.246  1.00  0.00     0.100 A 
HETATM   16  N3  UNL     1      17.068  34.653  13.360  1.00  0.00    -0.360 N 
HETATM   17  C17 UNL     1      16.466  33.915  12.272  1.00  0.00     0.155 C 
HETATM   18  C18 UNL     1      18.414  34.667  13.651  1.00  0.00     0.044 A 
HETATM   19  C19 UNL     1      19.499  34.027  13.030  1.00  0.00     0.030 A 
HETATM   20  C23 UNL     1      18.578  35.497  14.764  1.00  0.00     0.000 A 
HETATM   21  C20 UNL     1      20.778  34.241  13.554  1.00  0.00     0.002 A 
HETATM   22  C21 UNL     1      20.969  35.064  14.659  1.00  0.00     0.001 A 
HETATM   23  C22 UNL     1      19.880  35.692  15.273  1.00  0.00     0.014 A 
ENDBRANCH  13  14
ENDBRANCH  12  13
ENDBRANCH   5   8
BRANCH   1  24
HETATM   24  C7  UNL     1      10.202  35.765  18.575  1.00  0.00     0.025 A 
HETATM   25  C6  UNL     1      10.044  34.894  19.659  1.00  0.00     0.021 A 
HETATM   26  C5  UNL     1       8.787  34.746  20.248  1.00  0.00     0.057 A 
HETATM   27  C4  UNL     1       7.725  35.473  19.736  1.00  0.00     0.141 A 
HETATM   28  N5  UNL     1       7.836  36.319  18.694  1.00  0.00    -0.346 N 
HETATM   29  C24 UNL     1       9.069  36.445  18.140  1.00  0.00     0.105 A 
ATOM     30  H5  UNL     1       7.033  36.839  18.339  1.00  0.00     0.167 HD
BRANCH  27  31
HETATM   31  O2  UNL     1       6.504  35.281  20.345  1.00  0.00    -0.334 OA
BRANCH  31  32
HETATM   32  C3  UNL     1       5.936  33.981  20.157  1.00  0.00     0.203 C 
BRANCH  32  33
HETATM   33  C2  UNL     1       5.446  33.784  18.720  1.00  0.00     0.193 C 
BRANCH  33  34
HETATM   34  O1  UNL     1       5.472  32.410  18.326  1.00  0.00    -0.394 OA
HETATM   35  C1  UNL     1       4.354  31.675  18.804  1.00  0.00     0.201 C 
ENDBRANCH  33  34
ENDBRANCH  32  33
ENDBRANCH  31  32
ENDBRANCH  27  31
ENDBRANCH   1  24
TORSDOF 8
ENDMDL
MODEL 7
REMARK minimizedAffinity -7.06450748
REMARK  8 active torsions:
REMARK  status: ('A' for Active; 'I' for Inactive)
REMARK    1  A    between atoms: O1_2  and  C2_3 
REMARK    2  A    between atoms: C2_3  and  C3_4 
REMARK    3  A    between atoms: C3_4  and  O2_5 
REMARK    4  A    between atoms: O2_5  and  C4_6 
REMARK    5  A    between atoms: C7_9  and  C8_10 
REMARK    6  A    between atoms: C9_14  and  C10_15 
REMARK    7  A    between atoms: N2_19  and  C14_20 
REMARK    8  A    between atoms: C14_20  and  C15_21 
ROOT
HETATM    1  C8  UNL     1      12.221  35.429  17.566  1.00  0.00     0.139 A 
HETATM    2  N1  UNL     1      12.531  36.054  16.418  1.00  0.00    -0.242 N 
ATOM      3  H1  UNL     1      11.917  36.598  15.811  1.00  0.00     0.196 HD
HETATM    4  O3  UNL     1      13.888  35.783  16.250  1.00  0.00    -0.220 OA
HETATM    5  C9  UNL     1      14.262  35.004  17.305  1.00  0.00     0.182 A 
HETATM    6  N4  UNL     1      13.272  34.743  18.132  1.00  0.00    -0.321 N 
ATOM      7  H4  UNL     1      13.281  34.175  18.979  1.00  0.00     0.169 HD
ENDROOT
BRANCH   5   8
HETATM    8  C10 UNL     1      15.698  34.560  17.337  1.00  0.00     0.299 C 
HETATM    9  C11 UNL     1      16.270  34.631  18.754  1.00  0.00     0.046 C 
HETATM   10  C12 UNL     1      16.977  35.977  18.840  1.00  0.00     0.033 C 
HETATM   11  C13 UNL     1      16.918  36.562  17.437  1.00  0.00     0.274 C 
HETATM   12  N2  UNL     1      16.564  35.458  16.533  1.00  0.00     0.105 N 
BRANCH  12  13
HETATM   13  C14 UNL     1      17.766  34.784  16.023  1.00  0.00     0.314 C 
BRANCH  13  14
HETATM   14  C15 UNL     1      18.059  35.216  14.616  1.00  0.00    -0.002 A 
HETATM   15  C16 UNL     1      18.361  36.501  14.203  1.00  0.00     0.100 A 
HETATM   16  N3  UNL     1      18.557  36.487  12.849  1.00  0.00    -0.360 N 
HETATM   17  C17 UNL     1      18.896  37.645  12.052  1.00  0.00     0.155 C 
HETATM   18  C18 UNL     1      18.383  35.214  12.352  1.00  0.00     0.044 A 
HETATM   19  C19 UNL     1      18.480  34.713  11.044  1.00  0.00     0.030 A 
HETATM   20  C23 UNL     1      18.069  34.395  13.440  1.00  0.00     0.000 A 
HETATM   21  C20 UNL     1      18.256  33.348  10.843  1.00  0.00     0.002 A 
HETATM   22  C21 UNL     1      17.944  32.510  11.909  1.00  0.00     0.001 A 
HETATM   23  C22 UNL     1      17.845  33.022  13.208  1.00  0.00     0.014 A 
ENDBRANCH  13  14
ENDBRANCH  12  13
ENDBRANCH   5   8
BRANCH   1  24
HETATM   24  C7  UNL     1      10.901  35.454  18.171  1.00  0.00     0.025 A 
HETATM   25  C6  UNL     1       9.824  36.127  17.585  1.00  0.00     0.021 A 
HETATM   26  C5  UNL     1       8.579  36.121  18.216  1.00  0.00     0.057 A 
HETATM   27  C4  UNL     1       8.448  35.441  19.416  1.00  0.00     0.141 A 
HETATM   28  N5  UNL     1       9.460  34.783  20.014  1.00  0.00    -0.346 N 
HETATM   29  C24 UNL     1      10.660  34.804  19.378  1.00  0.00     0.105 A 
ATOM     30  H5  UNL     1       9.332  34.294  20.899  1.00  0.00     0.167 HD
BRANCH  27  31
HETATM   31  O2  UNL     1       7.203  35.477  20.006  1.00  0.00    -0.334 OA
BRANCH  31  32
HETATM   32  C3  UNL     1       7.129  34.856  21.292  1.00  0.00     0.203 C 
BRANCH  32  33
HETATM   33  C2  UNL     1       7.272  35.881  22.421  1.00  0.00     0.193 C 
BRANCH  33  34
HETATM   34  O1  UNL     1       7.824  35.302  23.606  1.00  0.00    -0.394 OA
HETATM   35  C1  UNL     1       8.305  33.981  23.405  1.00  0.00     0.201 C 
ENDBRANCH  33  34
ENDBRANCH  32  33
ENDBRANCH  31  32
ENDBRANCH  27  31
ENDBRANCH   1  24
TORSDOF 8
ENDMDL
MODEL 8
REMARK minimizedAffinity -7.05491209
REMARK  8 active torsions:
REMARK  status: ('A' for Active; 'I' for Inactive)
REMARK    1  A    between atoms: O1_2  and  C2_3 
REMARK    2  A    between atoms: C2_3  and  C3_4 
REMARK    3  A    between atoms: C3_4  and  O2_5 
REMARK    4  A    between atoms: O2_5  and  C4_6 
REMARK    5  A    between atoms: C7_9  and  C8_10 
REMARK    6  A    between atoms: C9_14  and  C10_15 
REMARK    7  A    between atoms: N2_19  and  C14_20 
REMARK    8  A    between atoms: C14_20  and  C15_21 
ROOT
HETATM    1  C8  UNL     1      17.007  52.764   5.174  1.00  0.00     0.139 A 
HETATM    2  N1  UNL     1      18.304  52.830   4.832  1.00  0.00    -0.242 N 
ATOM      3  H1  UNL     1      18.775  53.550   4.284  1.00  0.00     0.196 HD
HETATM    4  O3  UNL     1      18.856  51.684   5.402  1.00  0.00    -0.220 OA
HETATM    5  C9  UNL     1      17.833  51.025   6.017  1.00  0.00     0.182 A 
HETATM    6  N4  UNL     1      16.674  51.637   5.891  1.00  0.00    -0.321 N 
ATOM      7  H4  UNL     1      15.759  51.349   6.238  1.00  0.00     0.169 HD
ENDROOT
BRANCH   5   8
HETATM    8  C10 UNL     1      18.179  49.731   6.698  1.00  0.00     0.299 C 
HETATM    9  C11 UNL     1      19.646  49.707   7.132  1.00  0.00     0.046 C 
HETATM   10  C12 UNL     1      20.390  48.991   6.012  1.00  0.00     0.033 C 
HETATM   11  C13 UNL     1      19.315  48.500   5.055  1.00  0.00     0.274 C 
HETATM   12  N2  UNL     1      18.037  48.576   5.778  1.00  0.00     0.105 N 
BRANCH  12  13
HETATM   13  C14 UNL     1      17.752  47.318   6.482  1.00  0.00     0.314 C 
BRANCH  13  14
HETATM   14  C15 UNL     1      17.795  46.157   5.531  1.00  0.00    -0.002 A 
HETATM   15  C16 UNL     1      18.665  45.083   5.593  1.00  0.00     0.100 A 
HETATM   16  N3  UNL     1      18.391  44.243   4.548  1.00  0.00    -0.360 N 
HETATM   17  C17 UNL     1      19.090  43.006   4.281  1.00  0.00     0.155 C 
HETATM   18  C18 UNL     1      17.357  44.743   3.787  1.00  0.00     0.044 A 
HETATM   19  C19 UNL     1      16.734  44.240   2.634  1.00  0.00     0.030 A 
HETATM   20  C23 UNL     1      16.964  45.946   4.381  1.00  0.00     0.000 A 
HETATM   21  C20 UNL     1      15.684  44.978   2.079  1.00  0.00     0.002 A 
HETATM   22  C21 UNL     1      15.271  46.176   2.651  1.00  0.00     0.001 A 
HETATM   23  C22 UNL     1      15.904  46.670   3.797  1.00  0.00     0.014 A 
ENDBRANCH  13  14
ENDBRANCH  12  13
ENDBRANCH   5   8
BRANCH   1  24
HETATM   24  C7  UNL     1      16.024  53.773   4.822  1.00  0.00     0.025 A 
HETATM   25  C6  UNL     1      16.377  54.975   4.200  1.00  0.00     0.021 A 
HETATM   26  C5  UNL     1      15.389  55.910   3.891  1.00  0.00     0.057 A 
HETATM   27  C4  UNL     1      14.074  55.616   4.213  1.00  0.00     0.141 A 
HETATM   28  N5  UNL     1      13.693  54.471   4.813  1.00  0.00    -0.346 N 
HETATM   29  C24 UNL     1      14.675  53.579   5.102  1.00  0.00     0.105 A 
ATOM     30  H5  UNL     1      12.716  54.285   5.039  1.00  0.00     0.167 HD
BRANCH  27  31
HETATM   31  O2  UNL     1      13.138  56.578   3.899  1.00  0.00    -0.334 OA
BRANCH  31  32
HETATM   32  C3  UNL     1      13.629  57.653   3.093  1.00  0.00     0.203 C 
BRANCH  32  33
HETATM   33  C2  UNL     1      13.157  57.532   1.642  1.00  0.00     0.193 C 
BRANCH  33  34
HETATM   34  O1  UNL     1      12.599  58.754   1.154  1.00  0.00    -0.394 OA
HETATM   35  C1  UNL     1      13.201  59.906   1.726  1.00  0.00     0.201 C 
ENDBRANCH  33  34
ENDBRANCH  32  33
ENDBRANCH  31  32
ENDBRANCH  27  31
ENDBRANCH   1  24
TORSDOF 8
ENDMDL
MODEL 9
REMARK minimizedAffinity -7.04865885
REMARK  8 active torsions:
REMARK  status: ('A' for Active; 'I' for Inactive)
REMARK    1  A    between atoms: O1_2  and  C2_3 
REMARK    2  A    between atoms: C2_3  and  C3_4 
REMARK    3  A    between atoms: C3_4  and  O2_5 
REMARK    4  A    between atoms: O2_5  and  C4_6 
REMARK    5  A    between atoms: C7_9  and  C8_10 
REMARK    6  A    between atoms: C9_14  and  C10_15 
REMARK    7  A    between atoms: N2_19  and  C14_20 
REMARK    8  A    between atoms: C14_20  and  C15_21 
ROOT
HETATM    1  C8  UNL     1      14.246  57.134   5.521  1.00  0.00     0.139 A 
HETATM    2  N1  UNL     1      13.550  57.687   4.515  1.00  0.00    -0.242 N 
ATOM      3  H1  UNL     1      13.466  57.358   3.552  1.00  0.00     0.196 HD
HETATM    4  O3  UNL     1      12.969  58.815   5.093  1.00  0.00    -0.220 OA
HETATM    5  C9  UNL     1      13.388  58.844   6.391  1.00  0.00     0.182 A 
HETATM    6  N4  UNL     1      14.187  57.845   6.699  1.00  0.00    -0.321 N 
ATOM      7  H4  UNL     1      14.648  57.646   7.587  1.00  0.00     0.169 HD
ENDROOT
BRANCH   5   8
HETATM    8  C10 UNL     1      12.903  59.995   7.228  1.00  0.00     0.299 C 
HETATM    9  C11 UNL     1      12.820  59.610   8.706  1.00  0.00     0.046 C 
HETATM   10  C12 UNL     1      11.373  59.198   8.938  1.00  0.00     0.033 C 
HETATM   11  C13 UNL     1      10.646  59.501   7.636  1.00  0.00     0.274 C 
HETATM   12  N2  UNL     1      11.522  60.391   6.861  1.00  0.00     0.105 N 
BRANCH  12  13
HETATM   13  C14 UNL     1      11.236  61.802   7.155  1.00  0.00     0.314 C 
BRANCH  13  14
HETATM   14  C15 UNL     1      11.806  62.692   6.090  1.00  0.00    -0.002 A 
HETATM   15  C16 UNL     1      12.317  62.283   4.872  1.00  0.00     0.100 A 
HETATM   16  N3  UNL     1      12.743  63.388   4.186  1.00  0.00    -0.360 N 
HETATM   17  C17 UNL     1      13.335  63.363   2.867  1.00  0.00     0.155 C 
HETATM   18  C18 UNL     1      12.529  64.527   4.931  1.00  0.00     0.044 A 
HETATM   19  C19 UNL     1      12.796  65.877   4.650  1.00  0.00     0.030 A 
HETATM   20  C23 UNL     1      11.942  64.120   6.132  1.00  0.00     0.000 A 
HETATM   21  C20 UNL     1      12.452  66.830   5.613  1.00  0.00     0.002 A 
HETATM   22  C21 UNL     1      11.865  66.452   6.816  1.00  0.00     0.001 A 
HETATM   23  C22 UNL     1      11.609  65.103   7.087  1.00  0.00     0.014 A 
ENDBRANCH  13  14
ENDBRANCH  12  13
ENDBRANCH   5   8
BRANCH   1  24
HETATM   24  C7  UNL     1      15.006  55.903   5.400  1.00  0.00     0.025 A 
HETATM   25  C6  UNL     1      14.391  54.661   5.206  1.00  0.00     0.021 A 
HETATM   26  C5  UNL     1      15.174  53.511   5.102  1.00  0.00     0.057 A 
HETATM   27  C4  UNL     1      16.550  53.635   5.196  1.00  0.00     0.141 A 
HETATM   28  N5  UNL     1      17.181  54.811   5.385  1.00  0.00    -0.346 N 
HETATM   29  C24 UNL     1      16.395  55.914   5.482  1.00  0.00     0.105 A 
ATOM     30  H5  UNL     1      18.197  54.869   5.452  1.00  0.00     0.167 HD
BRANCH  27  31
HETATM   31  O2  UNL     1      17.277  52.468   5.101  1.00  0.00    -0.334 OA
BRANCH  31  32
HETATM   32  C3  UNL     1      18.278  52.299   6.109  1.00  0.00     0.203 C 
BRANCH  32  33
HETATM   33  C2  UNL     1      18.229  50.898   6.723  1.00  0.00     0.193 C 
BRANCH  33  34
HETATM   34  O1  UNL     1      17.122  50.135   6.236  1.00  0.00    -0.394 OA
HETATM   35  C1  UNL     1      17.423  48.756   6.082  1.00  0.00     0.201 C 
ENDBRANCH  33  34
ENDBRANCH  32  33
ENDBRANCH  31  32
ENDBRANCH  27  31
ENDBRANCH   1  24
TORSDOF 8
ENDMDL
