MODEL 1
REMARK minimizedAffinity -7.40478373
REMARK CNNscore 0.592449665
REMARK CNNaffinity 7.29708481
REMARK  13 active torsions:
REMARK  status: ('A' for Active; 'I' for Inactive)
REMARK    1  A    between atoms: O1_2  and  C2_3 
REMARK    2  A    between atoms: C2_3  and  C5_6 
REMARK    3  A    between atoms: C6_7  and  C7_8 
REMARK    4  A    between atoms: C7_8  and  C8_9 
REMARK    5  A    between atoms: C8_9  and  C10_11 
REMARK    6  A    between atoms: C16_17  and  O2_18 
REMARK    7  A    between atoms: O2_18  and  C17_19 
REMARK    8  A    between atoms: C18_21  and  C19_22 
REMARK    9  A    between atoms: C19_22  and  O4_23 
REMARK   10  A    between atoms: C20_24  and  O5_25 
REMARK   11  A    between atoms: C21_26  and  O6_27 
REMARK   12  A    between atoms: C22_28  and  O7_29 
REMARK   13  A    between atoms: C32_39  and  C33_40 
ROOT
HETATM    1  C10 UNL     1       1.779  55.728  -8.628  1.00  0.00    -0.002 C 
HETATM    2  C11 UNL     1       2.666  55.897  -9.898  1.00  0.00     0.006 C 
HETATM    3  C12 UNL     1       2.419  54.673 -10.803  1.00  0.00     0.011 C 
HETATM    4  C13 UNL     1       1.166  53.990 -10.217  1.00  0.00    -0.029 C 
HETATM    5  C14 UNL     1      -0.047  54.783 -10.804  1.00  0.00     0.016 C 
HETATM    6  C15 UNL     1       1.052  52.458 -10.535  1.00  0.00     0.043 C 
HETATM    7  C16 UNL     1       0.817  52.156 -12.040  1.00  0.00     0.153 C 
HETATM    8  C23 UNL     1      -0.644  52.143 -12.389  1.00  0.00     0.009 C 
HETATM    9  C24 UNL     1      -1.567  51.566 -11.595  1.00  0.00    -0.068 C 
HETATM   10  C25 UNL     1      -1.035  50.838 -10.365  1.00  0.00     0.031 C 
HETATM   11  C26 UNL     1      -2.130  50.187  -9.494  1.00  0.00     0.010 C 
HETATM   12  C27 UNL     1      -3.449  50.943  -9.376  1.00  0.00     0.002 C 
HETATM   13  C28 UNL     1      -3.795  51.869 -10.540  1.00  0.00     0.013 C 
HETATM   14  C29 UNL     1      -3.071  51.571 -11.869  1.00  0.00    -0.024 C 
HETATM   15  C30 UNL     1      -3.517  50.223 -12.466  1.00  0.00     0.019 C 
HETATM   16  C31 UNL     1      -3.508  52.676 -12.867  1.00  0.00     0.019 C 
HETATM   17  C32 UNL     1       0.033  51.698  -9.571  1.00  0.00     0.027 C 
HETATM   18  C34 UNL     1      -0.668  52.646  -8.547  1.00  0.00     0.018 C 
HETATM   19  C35 UNL     1       0.146  53.791  -7.914  1.00  0.00     0.011 C 
HETATM   20  C36 UNL     1       1.410  54.206  -8.678  1.00  0.00    -0.032 C 
HETATM   21  C37 UNL     1       2.617  53.403  -8.102  1.00  0.00     0.016 C 
ENDROOT
BRANCH   7  22
HETATM   22  O2  UNL     1       1.295  50.852 -12.356  1.00  0.00    -0.349 OA
BRANCH  22  23
HETATM   23  C17 UNL     1       1.679  50.652 -13.714  1.00  0.00     0.292 C 
HETATM   24  O3  UNL     1       2.523  51.760 -14.057  1.00  0.00    -0.348 OA
HETATM   25  C18 UNL     1       2.940  51.736 -15.432  1.00  0.00     0.179 C 
HETATM   26  C20 UNL     1       1.706  51.943 -16.309  1.00  0.00     0.180 C 
HETATM   27  C21 UNL     1       0.722  50.795 -16.069  1.00  0.00     0.183 C 
HETATM   28  C22 UNL     1       0.401  50.609 -14.581  1.00  0.00     0.204 C 
BRANCH  25  29
HETATM   29  C19 UNL     1       3.973  52.849 -15.611  1.00  0.00     0.198 C 
BRANCH  29  30
HETATM   30  O4  UNL     1       5.064  52.351 -16.391  1.00  0.00    -0.398 OA
HETATM   31  H32 UNL     1       5.374  51.551 -15.921  1.00  0.00     0.209 HD
ENDBRANCH  29  30
ENDBRANCH  25  29
BRANCH  26  32
HETATM   32  O5  UNL     1       1.044  53.179 -15.985  1.00  0.00    -0.390 OA
HETATM   33  H34 UNL     1       1.130  53.315 -15.020  1.00  0.00     0.210 HD
ENDBRANCH  26  32
BRANCH  27  34
HETATM   34  O6  UNL     1      -0.500  51.041 -16.785  1.00  0.00    -0.390 OA
HETATM   35  H36 UNL     1      -0.641  52.010 -16.746  1.00  0.00     0.210 HD
ENDBRANCH  27  34
BRANCH  28  36
HETATM   36  O7  UNL     1      -0.275  49.347 -14.426  1.00  0.00    -0.388 OA
HETATM   37  H38 UNL     1      -1.105  49.441 -14.938  1.00  0.00     0.210 HD
ENDBRANCH  28  36
ENDBRANCH  22  23
ENDBRANCH   7  22
BRANCH  17  38
HETATM   38  C33 UNL     1       0.813  50.650  -8.757  1.00  0.00     0.241 C 
HETATM   39  O8  UNL     1       2.024  50.669  -8.560  1.00  0.00    -0.306 OA
ENDBRANCH  17  38
BRANCH   1  40
HETATM   40  C8  UNL     1       2.445  56.336  -7.356  1.00  0.00    -0.010 C 
HETATM   41  C9  UNL     1       1.622  57.495  -6.774  1.00  0.00     0.010 C 
BRANCH  40  42
HETATM   42  C7  UNL     1       3.878  56.836  -7.681  1.00  0.00     0.031 C 
BRANCH  42  43
HETATM   43  C6  UNL     1       4.814  56.765  -6.505  1.00  0.00    -0.027 C 
HETATM   44  C5  UNL     1       6.092  57.175  -6.539  1.00  0.00     0.006 C 
BRANCH  44  45
HETATM   45  C2  UNL     1       7.108  57.141  -5.412  1.00  0.00     0.070 C 
HETATM   46  C3  UNL     1       6.617  56.526  -4.091  1.00  0.00     0.050 C 
HETATM   47  C4  UNL     1       7.540  58.591  -5.133  1.00  0.00     0.050 C 
BRANCH  45  48
HETATM   48  O1  UNL     1       8.289  56.478  -5.891  1.00  0.00    -0.382 OA
HETATM   49  C1  UNL     1       8.922  55.587  -4.981  1.00  0.00     0.202 C 
ENDBRANCH  45  48
ENDBRANCH  44  45
ENDBRANCH  42  43
ENDBRANCH  40  42
ENDBRANCH   1  40
TORSDOF 13
ENDMDL
MODEL 2
REMARK minimizedAffinity -7.39369011
REMARK CNNscore 0.399740309
REMARK CNNaffinity 7.0893693
REMARK  13 active torsions:
REMARK  status: ('A' for Active; 'I' for Inactive)
REMARK    1  A    between atoms: O1_2  and  C2_3 
REMARK    2  A    between atoms: C2_3  and  C5_6 
REMARK    3  A    between atoms: C6_7  and  C7_8 
REMARK    4  A    between atoms: C7_8  and  C8_9 
REMARK    5  A    between atoms: C8_9  and  C10_11 
REMARK    6  A    between atoms: C16_17  and  O2_18 
REMARK    7  A    between atoms: O2_18  and  C17_19 
REMARK    8  A    between atoms: C18_21  and  C19_22 
REMARK    9  A    between atoms: C19_22  and  O4_23 
REMARK   10  A    between atoms: C20_24  and  O5_25 
REMARK   11  A    between atoms: C21_26  and  O6_27 
REMARK   12  A    between atoms: C22_28  and  O7_29 
REMARK   13  A    between atoms: C32_39  and  C33_40 
ROOT
HETATM    1  C10 UNL     1       4.499  55.377  -9.201  1.00  0.00    -0.002 C 
HETATM    2  C11 UNL     1       4.619  55.722 -10.715  1.00  0.00     0.006 C 
HETATM    3  C12 UNL     1       3.648  54.801 -11.480  1.00  0.00     0.011 C 
HETATM    4  C13 UNL     1       2.748  54.178 -10.393  1.00  0.00    -0.029 C 
HETATM    5  C14 UNL     1       1.648  55.252 -10.105  1.00  0.00     0.016 C 
HETATM    6  C15 UNL     1       2.110  52.800 -10.786  1.00  0.00     0.043 C 
HETATM    7  C16 UNL     1       1.070  52.908 -11.935  1.00  0.00     0.153 C 
HETATM    8  C23 UNL     1      -0.312  53.185 -11.417  1.00  0.00     0.009 C 
HETATM    9  C24 UNL     1      -0.808  52.567 -10.327  1.00  0.00    -0.068 C 
HETATM   10  C25 UNL     1       0.078  51.497  -9.700  1.00  0.00     0.031 C 
HETATM   11  C26 UNL     1      -0.537  50.814  -8.460  1.00  0.00     0.010 C 
HETATM   12  C27 UNL     1      -1.372  51.696  -7.538  1.00  0.00     0.002 C 
HETATM   13  C28 UNL     1      -2.022  52.915  -8.188  1.00  0.00     0.013 C 
HETATM   14  C29 UNL     1      -2.183  52.849  -9.721  1.00  0.00    -0.024 C 
HETATM   15  C30 UNL     1      -3.192  51.762 -10.138  1.00  0.00     0.019 C 
HETATM   16  C31 UNL     1      -2.778  54.212 -10.161  1.00  0.00     0.019 C 
HETATM   17  C32 UNL     1       1.577  51.980  -9.525  1.00  0.00     0.027 C 
HETATM   18  C34 UNL     1       1.762  52.740  -8.175  1.00  0.00     0.018 C 
HETATM   19  C35 UNL     1       3.041  53.573  -7.957  1.00  0.00     0.011 C 
HETATM   20  C36 UNL     1       3.790  53.979  -9.232  1.00  0.00    -0.032 C 
HETATM   21  C37 UNL     1       4.878  52.900  -9.527  1.00  0.00     0.016 C 
ENDROOT
BRANCH   7  22
HETATM   22  O2  UNL     1       0.976  51.665 -12.626  1.00  0.00    -0.349 OA
BRANCH  22  23
HETATM   23  C17 UNL     1      -0.001  51.612 -13.662  1.00  0.00     0.292 C 
HETATM   24  O3  UNL     1      -0.765  50.421 -13.428  1.00  0.00    -0.348 OA
HETATM   25  C18 UNL     1      -1.757  50.190 -14.442  1.00  0.00     0.179 C 
HETATM   26  C20 UNL     1      -1.038  49.900 -15.758  1.00  0.00     0.180 C 
HETATM   27  C21 UNL     1      -0.201  51.120 -16.151  1.00  0.00     0.183 C 
HETATM   28  C22 UNL     1       0.732  51.572 -15.022  1.00  0.00     0.204 C 
BRANCH  25  29
HETATM   29  C19 UNL     1      -2.614  49.012 -13.976  1.00  0.00     0.198 C 
BRANCH  29  30
HETATM   30  O4  UNL     1      -3.688  49.507 -13.173  1.00  0.00    -0.398 OA
HETATM   31  H32 UNL     1      -3.262  50.032 -12.465  1.00  0.00     0.209 HD
ENDBRANCH  29  30
ENDBRANCH  25  29
BRANCH  26  32
HETATM   32  O5  UNL     1      -0.153  48.772 -15.625  1.00  0.00    -0.390 OA
HETATM   33  H34 UNL     1       0.223  48.798 -14.723  1.00  0.00     0.210 HD
ENDBRANCH  26  32
BRANCH  27  34
HETATM   34  O6  UNL     1       0.586  50.819 -17.317  1.00  0.00    -0.390 OA
HETATM   35  H36 UNL     1       0.848  49.879 -17.225  1.00  0.00     0.210 HD
ENDBRANCH  27  34
BRANCH  28  36
HETATM   36  O7  UNL     1       1.243  52.875 -15.360  1.00  0.00    -0.388 OA
HETATM   37  H38 UNL     1       1.757  52.738 -16.184  1.00  0.00     0.210 HD
ENDBRANCH  28  36
ENDBRANCH  22  23
ENDBRANCH   7  22
BRANCH  17  38
HETATM   38  C33 UNL     1       2.375  50.667  -9.420  1.00  0.00     0.241 C 
HETATM   39  O8  UNL     1       2.956  50.119 -10.351  1.00  0.00    -0.306 OA
ENDBRANCH  17  38
BRANCH   1  40
HETATM   40  C8  UNL     1       5.849  55.559  -8.443  1.00  0.00    -0.010 C 
HETATM   41  C9  UNL     1       6.924  54.580  -8.939  1.00  0.00     0.010 C 
BRANCH  40  42
HETATM   42  C7  UNL     1       5.644  55.365  -6.917  1.00  0.00     0.031 C 
BRANCH  42  43
HETATM   43  C6  UNL     1       6.284  56.448  -6.089  1.00  0.00    -0.027 C 
HETATM   44  C5  UNL     1       7.572  56.438  -5.711  1.00  0.00     0.006 C 
BRANCH  44  45
HETATM   45  C2  UNL     1       8.303  57.476  -4.880  1.00  0.00     0.070 C 
HETATM   46  C3  UNL     1       8.415  57.168  -3.377  1.00  0.00     0.050 C 
HETATM   47  C4  UNL     1       7.553  58.810  -5.039  1.00  0.00     0.050 C 
BRANCH  45  48
HETATM   48  O1  UNL     1       9.596  57.694  -5.467  1.00  0.00    -0.382 OA
HETATM   49  C1  UNL     1      10.676  56.967  -4.896  1.00  0.00     0.202 C 
ENDBRANCH  45  48
ENDBRANCH  44  45
ENDBRANCH  42  43
ENDBRANCH  40  42
ENDBRANCH   1  40
TORSDOF 13
ENDMDL
MODEL 3
REMARK minimizedAffinity -7.30974674
REMARK CNNscore 0.204191148
REMARK CNNaffinity 6.62109518
REMARK  13 active torsions:
REMARK  status: ('A' for Active; 'I' for Inactive)
REMARK    1  A    between atoms: O1_2  and  C2_3 
REMARK    2  A    between atoms: C2_3  and  C5_6 
REMARK    3  A    between atoms: C6_7  and  C7_8 
REMARK    4  A    between atoms: C7_8  and  C8_9 
REMARK    5  A    between atoms: C8_9  and  C10_11 
REMARK    6  A    between atoms: C16_17  and  O2_18 
REMARK    7  A    between atoms: O2_18  and  C17_19 
REMARK    8  A    between atoms: C18_21  and  C19_22 
REMARK    9  A    between atoms: C19_22  and  O4_23 
REMARK   10  A    between atoms: C20_24  and  O5_25 
REMARK   11  A    between atoms: C21_26  and  O6_27 
REMARK   12  A    between atoms: C22_28  and  O7_29 
REMARK   13  A    between atoms: C32_39  and  C33_40 
ROOT
HETATM    1  C10 UNL     1      -0.995  50.825 -16.594  1.00  0.00    -0.002 C 
HETATM    2  C11 UNL     1      -2.151  49.785 -16.516  1.00  0.00     0.006 C 
HETATM    3  C12 UNL     1      -2.390  49.467 -15.026  1.00  0.00     0.011 C 
HETATM    4  C13 UNL     1      -1.615  50.556 -14.256  1.00  0.00    -0.029 C 
HETATM    5  C14 UNL     1      -2.563  51.800 -14.237  1.00  0.00     0.016 C 
HETATM    6  C15 UNL     1      -1.185  50.146 -12.804  1.00  0.00     0.043 C 
HETATM    7  C16 UNL     1      -2.384  49.964 -11.834  1.00  0.00     0.153 C 
HETATM    8  C23 UNL     1      -2.757  51.251 -11.155  1.00  0.00     0.009 C 
HETATM    9  C24 UNL     1      -1.831  52.107 -10.679  1.00  0.00    -0.068 C 
HETATM   10  C25 UNL     1      -0.380  51.651 -10.781  1.00  0.00     0.031 C 
HETATM   11  C26 UNL     1       0.641  52.661 -10.215  1.00  0.00     0.010 C 
HETATM   12  C27 UNL     1       0.327  54.139 -10.425  1.00  0.00     0.002 C 
HETATM   13  C28 UNL     1      -1.149  54.493 -10.583  1.00  0.00     0.013 C 
HETATM   14  C29 UNL     1      -2.149  53.455 -10.031  1.00  0.00    -0.024 C 
HETATM   15  C30 UNL     1      -2.067  53.351  -8.497  1.00  0.00     0.019 C 
HETATM   16  C31 UNL     1      -3.566  53.981 -10.376  1.00  0.00     0.019 C 
HETATM   17  C32 UNL     1      -0.028  51.073 -12.214  1.00  0.00     0.027 C 
HETATM   18  C34 UNL     1       0.398  52.218 -13.185  1.00  0.00     0.018 C 
HETATM   19  C35 UNL     1       0.461  51.927 -14.698  1.00  0.00     0.011 C 
HETATM   20  C36 UNL     1      -0.346  50.712 -15.172  1.00  0.00    -0.032 C 
HETATM   21  C37 UNL     1       0.596  49.468 -15.176  1.00  0.00     0.016 C 
ENDROOT
BRANCH   7  22
HETATM   22  O2  UNL     1      -2.030  49.068 -10.784  1.00  0.00    -0.349 OA
BRANCH  22  23
HETATM   23  C17 UNL     1      -3.030  48.118 -10.426  1.00  0.00     0.292 C 
HETATM   24  O3  UNL     1      -3.582  47.636 -11.660  1.00  0.00    -0.348 OA
HETATM   25  C18 UNL     1      -4.663  46.711 -11.460  1.00  0.00     0.179 C 
HETATM   26  C20 UNL     1      -5.827  47.465 -10.820  1.00  0.00     0.180 C 
HETATM   27  C21 UNL     1      -5.383  48.010  -9.460  1.00  0.00     0.183 C 
HETATM   28  C22 UNL     1      -4.091  48.830  -9.558  1.00  0.00     0.204 C 
BRANCH  25  29
HETATM   29  C19 UNL     1      -5.026  46.137 -12.831  1.00  0.00     0.198 C 
BRANCH  29  30
HETATM   30  O4  UNL     1      -4.862  47.158 -13.820  1.00  0.00    -0.398 OA
HETATM   31  H32 UNL     1      -5.411  47.907 -13.512  1.00  0.00     0.209 HD
ENDBRANCH  29  30
ENDBRANCH  25  29
BRANCH  26  32
HETATM   32  O5  UNL     1      -6.234  48.576 -11.639  1.00  0.00    -0.390 OA
HETATM   33  H34 UNL     1      -5.430  48.945 -12.056  1.00  0.00     0.210 HD
ENDBRANCH  26  32
BRANCH  27  34
HETATM   34  O6  UNL     1      -6.421  48.834  -8.901  1.00  0.00    -0.390 OA
HETATM   35  H36 UNL     1      -6.831  49.296  -9.661  1.00  0.00     0.210 HD
ENDBRANCH  27  34
BRANCH  28  36
HETATM   36  O7  UNL     1      -3.595  49.041  -8.222  1.00  0.00    -0.388 OA
HETATM   37  H38 UNL     1      -4.292  49.565  -7.774  1.00  0.00     0.210 HD
ENDBRANCH  28  36
ENDBRANCH  22  23
ENDBRANCH   7  22
BRANCH  17  38
HETATM   38  C33 UNL     1       1.218  50.205 -11.962  1.00  0.00     0.241 C 
HETATM   39  O8  UNL     1       2.333  50.420 -12.426  1.00  0.00    -0.306 OA
ENDBRANCH  17  38
BRANCH   1  40
HETATM   40  C8  UNL     1      -0.124  50.647 -17.874  1.00  0.00    -0.010 C 
HETATM   41  C9  UNL     1       0.434  51.985 -18.382  1.00  0.00     0.010 C 
BRANCH  40  42
HETATM   42  C7  UNL     1      -0.951  49.975 -19.003  1.00  0.00     0.031 C 
BRANCH  42  43
HETATM   43  C6  UNL     1      -1.162  50.867 -20.197  1.00  0.00    -0.027 C 
HETATM   44  C5  UNL     1      -1.002  50.466 -21.468  1.00  0.00     0.006 C 
BRANCH  44  45
HETATM   45  C2  UNL     1      -1.188  51.288 -22.730  1.00  0.00     0.070 C 
HETATM   46  C3  UNL     1      -0.144  52.393 -22.967  1.00  0.00     0.050 C 
HETATM   47  C4  UNL     1      -2.575  51.949 -22.654  1.00  0.00     0.050 C 
BRANCH  45  48
HETATM   48  O1  UNL     1      -1.258  50.387 -23.848  1.00  0.00    -0.382 OA
HETATM   49  C1  UNL     1      -2.563  50.019 -24.276  1.00  0.00     0.202 C 
ENDBRANCH  45  48
ENDBRANCH  44  45
ENDBRANCH  42  43
ENDBRANCH  40  42
ENDBRANCH   1  40
TORSDOF 13
ENDMDL
MODEL 4
REMARK minimizedAffinity -8.21905041
REMARK CNNscore 0.175255641
REMARK CNNaffinity 6.84421587
REMARK  13 active torsions:
REMARK  status: ('A' for Active; 'I' for Inactive)
REMARK    1  A    between atoms: O1_2  and  C2_3 
REMARK    2  A    between atoms: C2_3  and  C5_6 
REMARK    3  A    between atoms: C6_7  and  C7_8 
REMARK    4  A    between atoms: C7_8  and  C8_9 
REMARK    5  A    between atoms: C8_9  and  C10_11 
REMARK    6  A    between atoms: C16_17  and  O2_18 
REMARK    7  A    between atoms: O2_18  and  C17_19 
REMARK    8  A    between atoms: C18_21  and  C19_22 
REMARK    9  A    between atoms: C19_22  and  O4_23 
REMARK   10  A    between atoms: C20_24  and  O5_25 
REMARK   11  A    between atoms: C21_26  and  O6_27 
REMARK   12  A    between atoms: C22_28  and  O7_29 
REMARK   13  A    between atoms: C32_39  and  C33_40 
ROOT
HETATM    1  C10 UNL     1      -2.115  48.708 -21.466  1.00  0.00    -0.002 C 
HETATM    2  C11 UNL     1      -1.956  48.445 -19.939  1.00  0.00     0.006 C 
HETATM    3  C12 UNL     1      -3.348  48.081 -19.383  1.00  0.00     0.011 C 
HETATM    4  C13 UNL     1      -4.218  47.813 -20.629  1.00  0.00    -0.029 C 
HETATM    5  C14 UNL     1      -3.897  46.340 -21.044  1.00  0.00     0.016 C 
HETATM    6  C15 UNL     1      -5.756  48.020 -20.404  1.00  0.00     0.043 C 
HETATM    7  C16 UNL     1      -6.384  46.980 -19.436  1.00  0.00     0.153 C 
HETATM    8  C23 UNL     1      -6.848  45.748 -20.160  1.00  0.00     0.009 C 
HETATM    9  C24 UNL     1      -7.491  45.809 -21.343  1.00  0.00    -0.068 C 
HETATM   10  C25 UNL     1      -7.810  47.207 -21.863  1.00  0.00     0.031 C 
HETATM   11  C26 UNL     1      -8.555  47.223 -23.215  1.00  0.00     0.010 C 
HETATM   12  C27 UNL     1      -8.167  46.145 -24.221  1.00  0.00     0.002 C 
HETATM   13  C28 UNL     1      -7.599  44.855 -23.633  1.00  0.00     0.013 C 
HETATM   14  C29 UNL     1      -7.936  44.590 -22.151  1.00  0.00    -0.024 C 
HETATM   15  C30 UNL     1      -9.441  44.328 -21.952  1.00  0.00     0.019 C 
HETATM   16  C31 UNL     1      -7.193  43.288 -21.755  1.00  0.00     0.019 C 
HETATM   17  C32 UNL     1      -6.566  48.183 -21.770  1.00  0.00     0.027 C 
HETATM   18  C34 UNL     1      -5.665  48.057 -23.038  1.00  0.00     0.018 C 
HETATM   19  C35 UNL     1      -4.247  48.662 -23.008  1.00  0.00     0.011 C 
HETATM   20  C36 UNL     1      -3.662  48.908 -21.612  1.00  0.00    -0.032 C 
HETATM   21  C37 UNL     1      -3.995  50.373 -21.191  1.00  0.00     0.016 C 
ENDROOT
BRANCH   7  22
HETATM   22  O2  UNL     1      -7.550  47.525 -18.826  1.00  0.00    -0.349 OA
BRANCH  22  23
HETATM   23  C17 UNL     1      -8.294  46.622 -18.012  1.00  0.00     0.292 C 
HETATM   24  O3  UNL     1      -9.605  46.552 -18.590  1.00  0.00    -0.348 OA
HETATM   25  C18 UNL     1     -10.503  45.724 -17.833  1.00  0.00     0.179 C 
HETATM   26  C20 UNL     1     -10.745  46.393 -16.481  1.00  0.00     0.180 C 
HETATM   27  C21 UNL     1      -9.416  46.500 -15.730  1.00  0.00     0.183 C 
HETATM   28  C22 UNL     1      -8.328  47.178 -16.571  1.00  0.00     0.204 C 
BRANCH  25  29
HETATM   29  C19 UNL     1     -11.787  45.584 -18.651  1.00  0.00     0.198 C 
BRANCH  29  30
HETATM   30  O4  UNL     1     -12.058  46.825 -19.308  1.00  0.00    -0.398 OA
HETATM   31  H32 UNL     1     -12.076  47.496 -18.597  1.00  0.00     0.209 HD
ENDBRANCH  29  30
ENDBRANCH  25  29
BRANCH  26  32
HETATM   32  O5  UNL     1     -11.275  47.720 -16.650  1.00  0.00    -0.390 OA
HETATM   33  H34 UNL     1     -10.861  48.103 -17.450  1.00  0.00     0.210 HD
ENDBRANCH  26  32
BRANCH  27  34
HETATM   34  O6  UNL     1      -9.600  47.245 -14.513  1.00  0.00    -0.390 OA
HETATM   35  H36 UNL     1     -10.263  47.936 -14.723  1.00  0.00     0.210 HD
ENDBRANCH  27  34
BRANCH  28  36
HETATM   36  O7  UNL     1      -7.062  46.966 -15.916  1.00  0.00    -0.388 OA
HETATM   37  H38 UNL     1      -7.147  47.419 -15.051  1.00  0.00     0.210 HD
ENDBRANCH  28  36
ENDBRANCH  22  23
ENDBRANCH   7  22
BRANCH  17  38
HETATM   38  C33 UNL     1      -7.199  49.586 -21.802  1.00  0.00     0.241 C 
HETATM   39  O8  UNL     1      -7.298  50.293 -22.800  1.00  0.00    -0.306 OA
ENDBRANCH  17  38
BRANCH   1  40
HETATM   40  C8  UNL     1      -1.127  49.796 -21.985  1.00  0.00    -0.010 C 
HETATM   41  C9  UNL     1      -0.336  50.448 -20.841  1.00  0.00     0.010 C 
BRANCH  40  42
HETATM   42  C7  UNL     1      -1.894  50.894 -22.769  1.00  0.00     0.031 C 
BRANCH  42  43
HETATM   43  C6  UNL     1      -1.353  51.124 -24.154  1.00  0.00    -0.027 C 
HETATM   44  C5  UNL     1      -0.242  51.832 -24.416  1.00  0.00     0.006 C 
BRANCH  44  45
HETATM   45  C2  UNL     1       0.377  52.119 -25.771  1.00  0.00     0.070 C 
HETATM   46  C3  UNL     1      -0.139  53.378 -26.487  1.00  0.00     0.050 C 
HETATM   47  C4  UNL     1       0.096  50.906 -26.676  1.00  0.00     0.050 C 
BRANCH  45  48
HETATM   48  O1  UNL     1       1.805  52.153 -25.615  1.00  0.00    -0.382 OA
HETATM   49  C1  UNL     1       2.561  51.469 -26.606  1.00  0.00     0.202 C 
ENDBRANCH  45  48
ENDBRANCH  44  45
ENDBRANCH  42  43
ENDBRANCH  40  42
ENDBRANCH   1  40
TORSDOF 13
ENDMDL
MODEL 5
REMARK minimizedAffinity -8.99390602
REMARK CNNscore 0.171546414
REMARK CNNaffinity 6.31138563
REMARK  13 active torsions:
REMARK  status: ('A' for Active; 'I' for Inactive)
REMARK    1  A    between atoms: O1_2  and  C2_3 
REMARK    2  A    between atoms: C2_3  and  C5_6 
REMARK    3  A    between atoms: C6_7  and  C7_8 
REMARK    4  A    between atoms: C7_8  and  C8_9 
REMARK    5  A    between atoms: C8_9  and  C10_11 
REMARK    6  A    between atoms: C16_17  and  O2_18 
REMARK    7  A    between atoms: O2_18  and  C17_19 
REMARK    8  A    between atoms: C18_21  and  C19_22 
REMARK    9  A    between atoms: C19_22  and  O4_23 
REMARK   10  A    between atoms: C20_24  and  O5_25 
REMARK   11  A    between atoms: C21_26  and  O6_27 
REMARK   12  A    between atoms: C22_28  and  O7_29 
REMARK   13  A    between atoms: C32_39  and  C33_40 
ROOT
HETATM    1  C10 UNL     1      -3.453  50.520 -22.673  1.00  0.00    -0.002 C 
HETATM    2  C11 UNL     1      -4.360  50.747 -23.920  1.00  0.00     0.006 C 
HETATM    3  C12 UNL     1      -5.508  49.719 -23.852  1.00  0.00     0.011 C 
HETATM    4  C13 UNL     1      -5.444  49.143 -22.422  1.00  0.00    -0.029 C 
HETATM    5  C14 UNL     1      -6.198  50.181 -21.528  1.00  0.00     0.016 C 
HETATM    6  C15 UNL     1      -6.059  47.708 -22.271  1.00  0.00     0.043 C 
HETATM    7  C16 UNL     1      -7.597  47.669 -22.485  1.00  0.00     0.153 C 
HETATM    8  C23 UNL     1      -8.347  47.918 -21.208  1.00  0.00     0.009 C 
HETATM    9  C24 UNL     1      -7.973  47.368 -20.036  1.00  0.00    -0.068 C 
HETATM   10  C25 UNL     1      -6.799  46.397 -20.093  1.00  0.00     0.031 C 
HETATM   11  C26 UNL     1      -6.415  45.788 -18.728  1.00  0.00     0.010 C 
HETATM   12  C27 UNL     1      -6.544  46.699 -17.513  1.00  0.00     0.002 C 
HETATM   13  C28 UNL     1      -7.566  47.828 -17.629  1.00  0.00     0.013 C 
HETATM   14  C29 UNL     1      -8.663  47.629 -18.696  1.00  0.00    -0.024 C 
HETATM   15  C30 UNL     1      -9.601  46.463 -18.333  1.00  0.00     0.019 C 
HETATM   16  C31 UNL     1      -9.522  48.921 -18.692  1.00  0.00     0.019 C 
HETATM   17  C32 UNL     1      -5.586  46.967 -20.939  1.00  0.00     0.027 C 
HETATM   18  C34 UNL     1      -4.651  47.843 -20.047  1.00  0.00     0.018 C 
HETATM   19  C35 UNL     1      -3.610  48.754 -20.728  1.00  0.00     0.011 C 
HETATM   20  C36 UNL     1      -3.888  49.091 -22.199  1.00  0.00    -0.032 C 
HETATM   21  C37 UNL     1      -3.148  48.047 -23.091  1.00  0.00     0.016 C 
ENDROOT
BRANCH   7  22
HETATM   22  O2  UNL     1      -7.997  46.371 -22.915  1.00  0.00    -0.349 OA
BRANCH  22  23
HETATM   23  C17 UNL     1      -8.480  46.291 -24.253  1.00  0.00     0.292 C 
HETATM   24  O3  UNL     1      -7.508  46.962 -25.068  1.00  0.00    -0.348 OA
HETATM   25  C18 UNL     1      -7.893  47.025 -26.451  1.00  0.00     0.179 C 
HETATM   26  C20 UNL     1      -9.128  47.916 -26.565  1.00  0.00     0.180 C 
HETATM   27  C21 UNL     1     -10.271  47.291 -25.760  1.00  0.00     0.183 C 
HETATM   28  C22 UNL     1      -9.861  46.980 -24.316  1.00  0.00     0.204 C 
BRANCH  25  29
HETATM   29  C19 UNL     1      -6.699  47.585 -27.227  1.00  0.00     0.198 C 
BRANCH  29  30
HETATM   30  O4  UNL     1      -7.182  48.425 -28.279  1.00  0.00    -0.398 OA
HETATM   31  H32 UNL     1      -7.801  47.868 -28.792  1.00  0.00     0.209 HD
ENDBRANCH  29  30
ENDBRANCH  25  29
BRANCH  26  32
HETATM   32  O5  UNL     1      -8.869  49.228 -26.033  1.00  0.00    -0.390 OA
HETATM   33  H34 UNL     1      -8.266  49.122 -25.270  1.00  0.00     0.210 HD
ENDBRANCH  26  32
BRANCH  27  34
HETATM   34  O6  UNL     1     -11.402  48.180 -25.745  1.00  0.00    -0.390 OA
HETATM   35  H36 UNL     1     -11.028  49.085 -25.709  1.00  0.00     0.210 HD
ENDBRANCH  27  34
BRANCH  28  36
HETATM   36  O7  UNL     1     -10.875  46.137 -23.736  1.00  0.00    -0.388 OA
HETATM   37  H38 UNL     1     -11.689  46.681 -23.743  1.00  0.00     0.210 HD
ENDBRANCH  28  36
ENDBRANCH  22  23
ENDBRANCH   7  22
BRANCH  17  38
HETATM   38  C33 UNL     1      -4.790  45.709 -21.331  1.00  0.00     0.241 C 
HETATM   39  O8  UNL     1      -3.714  45.375 -20.844  1.00  0.00    -0.306 OA
ENDBRANCH  17  38
BRANCH   1  40
HETATM   40  C8  UNL     1      -1.955  50.831 -22.968  1.00  0.00    -0.010 C 
HETATM   41  C9  UNL     1      -1.632  52.323 -22.796  1.00  0.00     0.010 C 
BRANCH  40  42
HETATM   42  C7  UNL     1      -1.582  50.388 -24.408  1.00  0.00     0.031 C 
BRANCH  42  43
HETATM   43  C6  UNL     1      -0.631  51.332 -25.094  1.00  0.00    -0.027 C 
HETATM   44  C5  UNL     1       0.107  51.003 -26.166  1.00  0.00     0.006 C 
BRANCH  44  45
HETATM   45  C2  UNL     1       1.089  51.880 -26.920  1.00  0.00     0.070 C 
HETATM   46  C3  UNL     1       1.012  51.800 -28.454  1.00  0.00     0.050 C 
HETATM   47  C4  UNL     1       2.507  51.465 -26.491  1.00  0.00     0.050 C 
BRANCH  45  48
HETATM   48  O1  UNL     1       0.932  53.232 -26.458  1.00  0.00    -0.382 OA
HETATM   49  C1  UNL     1      -0.006  54.032 -27.166  1.00  0.00     0.202 C 
ENDBRANCH  45  48
ENDBRANCH  44  45
ENDBRANCH  42  43
ENDBRANCH  40  42
ENDBRANCH   1  40
TORSDOF 13
ENDMDL
MODEL 6
REMARK minimizedAffinity -9.15235615
REMARK CNNscore 0.169658229
REMARK CNNaffinity 6.69382429
REMARK  13 active torsions:
REMARK  status: ('A' for Active; 'I' for Inactive)
REMARK    1  A    between atoms: O1_2  and  C2_3 
REMARK    2  A    between atoms: C2_3  and  C5_6 
REMARK    3  A    between atoms: C6_7  and  C7_8 
REMARK    4  A    between atoms: C7_8  and  C8_9 
REMARK    5  A    between atoms: C8_9  and  C10_11 
REMARK    6  A    between atoms: C16_17  and  O2_18 
REMARK    7  A    between atoms: O2_18  and  C17_19 
REMARK    8  A    between atoms: C18_21  and  C19_22 
REMARK    9  A    between atoms: C19_22  and  O4_23 
REMARK   10  A    between atoms: C20_24  and  O5_25 
REMARK   11  A    between atoms: C21_26  and  O6_27 
REMARK   12  A    between atoms: C22_28  and  O7_29 
REMARK   13  A    between atoms: C32_39  and  C33_40 
ROOT
HETATM    1  C10 UNL     1      -2.444  50.908 -21.487  1.00  0.00    -0.002 C 
HETATM    2  C11 UNL     1      -3.175  51.662 -22.638  1.00  0.00     0.006 C 
HETATM    3  C12 UNL     1      -4.491  50.911 -22.924  1.00  0.00     0.011 C 
HETATM    4  C13 UNL     1      -4.666  49.946 -21.733  1.00  0.00    -0.029 C 
HETATM    5  C14 UNL     1      -5.300  50.809 -20.594  1.00  0.00     0.016 C 
HETATM    6  C15 UNL     1      -5.541  48.682 -22.044  1.00  0.00     0.043 C 
HETATM    7  C16 UNL     1      -7.034  49.016 -22.313  1.00  0.00     0.153 C 
HETATM    8  C23 UNL     1      -7.843  49.030 -21.047  1.00  0.00     0.009 C 
HETATM    9  C24 UNL     1      -7.686  48.101 -20.084  1.00  0.00    -0.068 C 
HETATM   10  C25 UNL     1      -6.706  46.974 -20.390  1.00  0.00     0.031 C 
HETATM   11  C26 UNL     1      -6.568  45.931 -19.261  1.00  0.00     0.010 C 
HETATM   12  C27 UNL     1      -6.643  46.459 -17.832  1.00  0.00     0.002 C 
HETATM   13  C28 UNL     1      -7.429  47.754 -17.638  1.00  0.00     0.013 C 
HETATM   14  C29 UNL     1      -8.439  48.097 -18.753  1.00  0.00    -0.024 C 
HETATM   15  C30 UNL     1      -9.602  47.088 -18.792  1.00  0.00     0.019 C 
HETATM   16  C31 UNL     1      -9.046  49.476 -18.389  1.00  0.00     0.019 C 
HETATM   17  C32 UNL     1      -5.337  47.509 -20.981  1.00  0.00     0.027 C 
HETATM   18  C34 UNL     1      -4.346  47.883 -19.835  1.00  0.00     0.018 C 
HETATM   19  C35 UNL     1      -3.099  48.724 -20.173  1.00  0.00     0.011 C 
HETATM   20  C36 UNL     1      -3.173  49.521 -21.481  1.00  0.00    -0.032 C 
HETATM   21  C37 UNL     1      -2.553  48.653 -22.621  1.00  0.00     0.016 C 
ENDROOT
BRANCH   7  22
HETATM   22  O2  UNL     1      -7.620  48.006 -23.128  1.00  0.00    -0.349 OA
BRANCH  22  23
HETATM   23  C17 UNL     1      -7.936  48.400 -24.461  1.00  0.00     0.292 C 
HETATM   24  O3  UNL     1      -9.281  47.963 -24.698  1.00  0.00    -0.348 OA
HETATM   25  C18 UNL     1      -9.724  48.231 -26.039  1.00  0.00     0.179 C 
HETATM   26  C20 UNL     1      -8.897  47.374 -26.996  1.00  0.00     0.180 C 
HETATM   27  C21 UNL     1      -7.422  47.765 -26.872  1.00  0.00     0.183 C 
HETATM   28  C22 UNL     1      -6.931  47.724 -25.421  1.00  0.00     0.204 C 
BRANCH  25  29
HETATM   29  C19 UNL     1     -11.215  47.896 -26.098  1.00  0.00     0.198 C 
BRANCH  29  30
HETATM   30  O4  UNL     1     -11.907  48.969 -26.742  1.00  0.00    -0.398 OA
HETATM   31  H32 UNL     1     -11.670  49.771 -26.235  1.00  0.00     0.209 HD
ENDBRANCH  29  30
ENDBRANCH  25  29
BRANCH  26  32
HETATM   32  O5  UNL     1      -9.020  45.976 -26.673  1.00  0.00    -0.390 OA
HETATM   33  H34 UNL     1      -9.088  45.904 -25.700  1.00  0.00     0.210 HD
ENDBRANCH  26  32
BRANCH  27  34
HETATM   34  O6  UNL     1      -6.613  46.880 -27.667  1.00  0.00    -0.390 OA
HETATM   35  H36 UNL     1      -7.039  46.000 -27.600  1.00  0.00     0.210 HD
ENDBRANCH  27  34
BRANCH  28  36
HETATM   36  O7  UNL     1      -5.652  48.384 -25.364  1.00  0.00    -0.388 OA
HETATM   37  H38 UNL     1      -5.064  47.844 -25.932  1.00  0.00     0.210 HD
ENDBRANCH  28  36
ENDBRANCH  22  23
ENDBRANCH   7  22
BRANCH  17  38
HETATM   38  C33 UNL     1      -4.749  46.284 -21.707  1.00  0.00     0.241 C 
HETATM   39  O8  UNL     1      -3.944  45.496 -21.221  1.00  0.00    -0.306 OA
ENDBRANCH  17  38
BRANCH   1  40
HETATM   40  C8  UNL     1      -0.893  50.984 -21.621  1.00  0.00    -0.010 C 
HETATM   41  C9  UNL     1      -0.201  51.070 -20.253  1.00  0.00     0.010 C 
BRANCH  40  42
HETATM   42  C7  UNL     1      -0.482  52.209 -22.482  1.00  0.00     0.031 C 
BRANCH  42  43
HETATM   43  C6  UNL     1      -0.361  51.892 -23.948  1.00  0.00    -0.027 C 
HETATM   44  C5  UNL     1       0.721  52.180 -24.689  1.00  0.00     0.006 C 
BRANCH  44  45
HETATM   45  C2  UNL     1       0.934  51.904 -26.166  1.00  0.00     0.070 C 
HETATM   46  C3  UNL     1       0.008  50.843 -26.786  1.00  0.00     0.050 C 
HETATM   47  C4  UNL     1       2.388  51.433 -26.345  1.00  0.00     0.050 C 
BRANCH  45  48
HETATM   48  O1  UNL     1       0.849  53.151 -26.874  1.00  0.00    -0.382 OA
HETATM   49  C1  UNL     1      -0.095  53.207 -27.936  1.00  0.00     0.202 C 
ENDBRANCH  45  48
ENDBRANCH  44  45
ENDBRANCH  42  43
ENDBRANCH  40  42
ENDBRANCH   1  40
TORSDOF 13
ENDMDL
MODEL 7
REMARK minimizedAffinity -7.39794493
REMARK CNNscore 0.165600225
REMARK CNNaffinity 6.37495422
REMARK  13 active torsions:
REMARK  status: ('A' for Active; 'I' for Inactive)
REMARK    1  A    between atoms: O1_2  and  C2_3 
REMARK    2  A    between atoms: C2_3  and  C5_6 
REMARK    3  A    between atoms: C6_7  and  C7_8 
REMARK    4  A    between atoms: C7_8  and  C8_9 
REMARK    5  A    between atoms: C8_9  and  C10_11 
REMARK    6  A    between atoms: C16_17  and  O2_18 
REMARK    7  A    between atoms: O2_18  and  C17_19 
REMARK    8  A    between atoms: C18_21  and  C19_22 
REMARK    9  A    between atoms: C19_22  and  O4_23 
REMARK   10  A    between atoms: C20_24  and  O5_25 
REMARK   11  A    between atoms: C21_26  and  O6_27 
REMARK   12  A    between atoms: C22_28  and  O7_29 
REMARK   13  A    between atoms: C32_39  and  C33_40 
ROOT
HETATM    1  C10 UNL     1      -1.096  50.980 -17.538  1.00  0.00    -0.002 C 
HETATM    2  C11 UNL     1      -2.230  49.962 -17.859  1.00  0.00     0.006 C 
HETATM    3  C12 UNL     1      -2.587  49.235 -16.547  1.00  0.00     0.011 C 
HETATM    4  C13 UNL     1      -1.906  50.060 -15.436  1.00  0.00    -0.029 C 
HETATM    5  C14 UNL     1      -2.881  51.249 -15.150  1.00  0.00     0.016 C 
HETATM    6  C15 UNL     1      -1.591  49.255 -14.127  1.00  0.00     0.043 C 
HETATM    7  C16 UNL     1      -2.864  48.807 -13.357  1.00  0.00     0.153 C 
HETATM    8  C23 UNL     1      -3.324  49.849 -12.378  1.00  0.00     0.009 C 
HETATM    9  C24 UNL     1      -2.462  50.534 -11.600  1.00  0.00    -0.068 C 
HETATM   10  C25 UNL     1      -0.997  50.124 -11.698  1.00  0.00     0.031 C 
HETATM   11  C26 UNL     1      -0.052  50.931 -10.782  1.00  0.00     0.010 C 
HETATM   12  C27 UNL     1      -0.382  52.407 -10.593  1.00  0.00     0.002 C 
HETATM   13  C28 UNL     1      -1.848  52.794 -10.774  1.00  0.00     0.013 C 
HETATM   14  C29 UNL     1      -2.865  51.644 -10.628  1.00  0.00    -0.024 C 
HETATM   15  C30 UNL     1      -2.912  51.108  -9.185  1.00  0.00     0.019 C 
HETATM   16  C31 UNL     1      -4.261  52.247 -10.934  1.00  0.00     0.019 C 
HETATM   17  C32 UNL     1      -0.511  49.975 -13.199  1.00  0.00     0.027 C 
HETATM   18  C34 UNL     1      -0.031  51.348 -13.766  1.00  0.00     0.018 C 
HETATM   19  C35 UNL     1       0.167  51.497 -15.287  1.00  0.00     0.011 C 
HETATM   20  C36 UNL     1      -0.568  50.467 -16.155  1.00  0.00    -0.032 C 
HETATM   21  C37 UNL     1       0.401  49.274 -16.427  1.00  0.00     0.016 C 
ENDROOT
BRANCH   7  22
HETATM   22  O2  UNL     1      -2.579  47.650 -12.576  1.00  0.00    -0.349 OA
BRANCH  22  23
HETATM   23  C17 UNL     1      -2.974  46.408 -13.154  1.00  0.00     0.292 C 
HETATM   24  O3  UNL     1      -1.794  45.854 -13.752  1.00  0.00    -0.348 OA
HETATM   25  C18 UNL     1      -2.048  44.620 -14.442  1.00  0.00     0.179 C 
HETATM   26  C20 UNL     1      -2.948  44.918 -15.640  1.00  0.00     0.180 C 
HETATM   27  C21 UNL     1      -4.277  45.489 -15.139  1.00  0.00     0.183 C 
HETATM   28  C22 UNL     1      -4.076  46.685 -14.200  1.00  0.00     0.204 C 
BRANCH  25  29
HETATM   29  C19 UNL     1      -0.693  44.049 -14.862  1.00  0.00     0.198 C 
BRANCH  29  30
HETATM   30  O4  UNL     1      -0.795  43.540 -16.195  1.00  0.00    -0.398 OA
HETATM   31  H32 UNL     1      -1.538  42.904 -16.173  1.00  0.00     0.209 HD
ENDBRANCH  29  30
ENDBRANCH  25  29
BRANCH  26  32
HETATM   32  O5  UNL     1      -2.341  45.890 -16.512  1.00  0.00    -0.390 OA
HETATM   33  H34 UNL     1      -1.850  46.523 -15.951  1.00  0.00     0.210 HD
ENDBRANCH  26  32
BRANCH  27  34
HETATM   34  O6  UNL     1      -5.086  45.900 -16.255  1.00  0.00    -0.390 OA
HETATM   35  H36 UNL     1      -4.459  46.253 -16.921  1.00  0.00     0.210 HD
ENDBRANCH  27  34
BRANCH  28  36
HETATM   36  O7  UNL     1      -5.333  46.959 -13.552  1.00  0.00    -0.388 OA
HETATM   37  H38 UNL     1      -5.944  47.202 -14.279  1.00  0.00     0.210 HD
ENDBRANCH  28  36
ENDBRANCH  22  23
ENDBRANCH   7  22
BRANCH  17  38
HETATM   38  C33 UNL     1       0.729  49.069 -13.093  1.00  0.00     0.241 C 
HETATM   39  O8  UNL     1       1.888  49.438 -13.259  1.00  0.00    -0.306 OA
ENDBRANCH  17  38
BRANCH   1  40
HETATM   40  C8  UNL     1      -0.115  51.171 -18.735  1.00  0.00    -0.010 C 
HETATM   41  C9  UNL     1       0.251  52.647 -18.949  1.00  0.00     0.010 C 
BRANCH  40  42
HETATM   42  C7  UNL     1      -0.735  50.602 -20.039  1.00  0.00     0.031 C 
BRANCH  42  43
HETATM   43  C6  UNL     1      -0.566  51.514 -21.225  1.00  0.00    -0.027 C 
HETATM   44  C5  UNL     1      -0.739  51.126 -22.498  1.00  0.00     0.006 C 
BRANCH  44  45
HETATM   45  C2  UNL     1      -0.590  51.966 -23.753  1.00  0.00     0.070 C 
HETATM   46  C3  UNL     1       0.481  53.068 -23.693  1.00  0.00     0.050 C 
HETATM   47  C4  UNL     1      -1.948  52.635 -24.028  1.00  0.00     0.050 C 
BRANCH  45  48
HETATM   48  O1  UNL     1      -0.370  51.082 -24.864  1.00  0.00    -0.382 OA
HETATM   49  C1  UNL     1       0.479  51.568 -25.895  1.00  0.00     0.202 C 
ENDBRANCH  45  48
ENDBRANCH  44  45
ENDBRANCH  42  43
ENDBRANCH  40  42
ENDBRANCH   1  40
TORSDOF 13
ENDMDL
MODEL 8
REMARK minimizedAffinity -8.18475437
REMARK CNNscore 0.158424258
REMARK CNNaffinity 6.47042847
REMARK  13 active torsions:
REMARK  status: ('A' for Active; 'I' for Inactive)
REMARK    1  A    between atoms: O1_2  and  C2_3 
REMARK    2  A    between atoms: C2_3  and  C5_6 
REMARK    3  A    between atoms: C6_7  and  C7_8 
REMARK    4  A    between atoms: C7_8  and  C8_9 
REMARK    5  A    between atoms: C8_9  and  C10_11 
REMARK    6  A    between atoms: C16_17  and  O2_18 
REMARK    7  A    between atoms: O2_18  and  C17_19 
REMARK    8  A    between atoms: C18_21  and  C19_22 
REMARK    9  A    between atoms: C19_22  and  O4_23 
REMARK   10  A    between atoms: C20_24  and  O5_25 
REMARK   11  A    between atoms: C21_26  and  O6_27 
REMARK   12  A    between atoms: C22_28  and  O7_29 
REMARK   13  A    between atoms: C32_39  and  C33_40 
ROOT
HETATM    1  C10 UNL     1      -1.880  51.819 -21.648  1.00  0.00    -0.002 C 
HETATM    2  C11 UNL     1      -2.647  52.407 -22.870  1.00  0.00     0.006 C 
HETATM    3  C12 UNL     1      -3.831  51.465 -23.171  1.00  0.00     0.011 C 
HETATM    4  C13 UNL     1      -3.933  50.545 -21.938  1.00  0.00    -0.029 C 
HETATM    5  C14 UNL     1      -4.737  51.366 -20.877  1.00  0.00     0.016 C 
HETATM    6  C15 UNL     1      -4.610  49.157 -22.216  1.00  0.00     0.043 C 
HETATM    7  C16 UNL     1      -6.118  49.266 -22.568  1.00  0.00     0.153 C 
HETATM    8  C23 UNL     1      -6.985  49.229 -21.342  1.00  0.00     0.009 C 
HETATM    9  C24 UNL     1      -6.752  48.379 -20.323  1.00  0.00    -0.068 C 
HETATM   10  C25 UNL     1      -5.612  47.386 -20.523  1.00  0.00     0.031 C 
HETATM   11  C26 UNL     1      -5.391  46.430 -19.332  1.00  0.00     0.010 C 
HETATM   12  C27 UNL     1      -5.610  47.011 -17.939  1.00  0.00     0.002 C 
HETATM   13  C28 UNL     1      -6.575  48.191 -17.852  1.00  0.00     0.013 C 
HETATM   14  C29 UNL     1      -7.564  48.334 -19.028  1.00  0.00    -0.024 C 
HETATM   15  C30 UNL     1      -8.574  47.172 -19.062  1.00  0.00     0.019 C 
HETATM   16  C31 UNL     1      -8.373  49.632 -18.769  1.00  0.00     0.019 C 
HETATM   17  C32 UNL     1      -4.301  48.077 -21.082  1.00  0.00     0.027 C 
HETATM   18  C34 UNL     1      -3.431  48.643 -19.915  1.00  0.00     0.018 C 
HETATM   19  C35 UNL     1      -2.295  49.632 -20.244  1.00  0.00     0.011 C 
HETATM   20  C36 UNL     1      -2.411  50.345 -21.597  1.00  0.00    -0.032 C 
HETATM   21  C37 UNL     1      -1.620  49.518 -22.658  1.00  0.00     0.016 C 
ENDROOT
BRANCH   7  22
HETATM   22  O2  UNL     1      -6.518  48.145 -23.351  1.00  0.00    -0.349 OA
BRANCH  22  23
HETATM   23  C17 UNL     1      -7.924  47.949 -23.469  1.00  0.00     0.292 C 
HETATM   24  O3  UNL     1      -8.158  46.560 -23.197  1.00  0.00    -0.348 OA
HETATM   25  C18 UNL     1      -9.538  46.190 -23.346  1.00  0.00     0.179 C 
HETATM   26  C20 UNL     1      -9.916  46.333 -24.819  1.00  0.00     0.180 C 
HETATM   27  C21 UNL     1      -9.747  47.795 -25.240  1.00  0.00     0.183 C 
HETATM   28  C22 UNL     1      -8.353  48.338 -24.901  1.00  0.00     0.204 C 
BRANCH  25  29
HETATM   29  C19 UNL     1      -9.676  44.750 -22.848  1.00  0.00     0.198 C 
BRANCH  29  30
HETATM   30  O4  UNL     1     -10.998  44.560 -22.335  1.00  0.00    -0.398 OA
HETATM   31  H32 UNL     1     -11.117  45.259 -21.660  1.00  0.00     0.209 HD
ENDBRANCH  29  30
ENDBRANCH  25  29
BRANCH  26  32
HETATM   32  O5  UNL     1      -9.065  45.524 -25.651  1.00  0.00    -0.390 OA
HETATM   33  H34 UNL     1      -8.172  45.529 -25.252  1.00  0.00     0.210 HD
ENDBRANCH  26  32
BRANCH  27  34
HETATM   34  O6  UNL     1      -9.970  47.926 -26.655  1.00  0.00    -0.390 OA
HETATM   35  H36 UNL     1      -9.609  47.109 -27.057  1.00  0.00     0.210 HD
ENDBRANCH  27  34
BRANCH  28  36
HETATM   36  O7  UNL     1      -8.385  49.770 -25.050  1.00  0.00    -0.388 OA
HETATM   37  H38 UNL     1      -8.581  49.921 -25.998  1.00  0.00     0.210 HD
ENDBRANCH  28  36
ENDBRANCH  22  23
ENDBRANCH   7  22
BRANCH  17  38
HETATM   38  C33 UNL     1      -3.514  46.913 -21.711  1.00  0.00     0.241 C 
HETATM   39  O8  UNL     1      -2.454  46.466 -21.284  1.00  0.00    -0.306 OA
ENDBRANCH  17  38
BRANCH   1  40
HETATM   40  C8  UNL     1      -0.349  52.104 -21.717  1.00  0.00    -0.010 C 
HETATM   41  C9  UNL     1       0.169  52.779 -20.439  1.00  0.00     0.010 C 
BRANCH  40  42
HETATM   42  C7  UNL     1      -0.020  53.001 -22.941  1.00  0.00     0.031 C 
BRANCH  42  43
HETATM   43  C6  UNL     1       0.552  52.235 -24.103  1.00  0.00    -0.027 C 
HETATM   44  C5  UNL     1       0.180  52.423 -25.379  1.00  0.00     0.006 C 
BRANCH  44  45
HETATM   45  C2  UNL     1       0.695  51.702 -26.611  1.00  0.00     0.070 C 
HETATM   46  C3  UNL     1       2.222  51.546 -26.703  1.00  0.00     0.050 C 
HETATM   47  C4  UNL     1       0.220  52.492 -27.844  1.00  0.00     0.050 C 
BRANCH  45  48
HETATM   48  O1  UNL     1       0.032  50.429 -26.698  1.00  0.00    -0.382 OA
HETATM   49  C1  UNL     1      -1.385  50.466 -26.805  1.00  0.00     0.202 C 
ENDBRANCH  45  48
ENDBRANCH  44  45
ENDBRANCH  42  43
ENDBRANCH  40  42
ENDBRANCH   1  40
TORSDOF 13
ENDMDL
MODEL 9
REMARK minimizedAffinity -7.36057949
REMARK CNNscore 0.158396661
REMARK CNNaffinity 6.18341589
REMARK  13 active torsions:
REMARK  status: ('A' for Active; 'I' for Inactive)
REMARK    1  A    between atoms: O1_2  and  C2_3 
REMARK    2  A    between atoms: C2_3  and  C5_6 
REMARK    3  A    between atoms: C6_7  and  C7_8 
REMARK    4  A    between atoms: C7_8  and  C8_9 
REMARK    5  A    between atoms: C8_9  and  C10_11 
REMARK    6  A    between atoms: C16_17  and  O2_18 
REMARK    7  A    between atoms: O2_18  and  C17_19 
REMARK    8  A    between atoms: C18_21  and  C19_22 
REMARK    9  A    between atoms: C19_22  and  O4_23 
REMARK   10  A    between atoms: C20_24  and  O5_25 
REMARK   11  A    between atoms: C21_26  and  O6_27 
REMARK   12  A    between atoms: C22_28  and  O7_29 
REMARK   13  A    between atoms: C32_39  and  C33_40 
ROOT
HETATM    1  C10 UNL     1     -13.510  46.247 -28.033  1.00  0.00    -0.002 C 
HETATM    2  C11 UNL     1     -13.399  47.458 -27.060  1.00  0.00     0.006 C 
HETATM    3  C12 UNL     1     -11.904  47.667 -26.747  1.00  0.00     0.011 C 
HETATM    4  C13 UNL     1     -11.154  46.806 -27.785  1.00  0.00    -0.029 C 
HETATM    5  C14 UNL     1     -11.100  47.681 -29.081  1.00  0.00     0.016 C 
HETATM    6  C15 UNL     1      -9.719  46.355 -27.342  1.00  0.00     0.043 C 
HETATM    7  C16 UNL     1      -8.712  47.531 -27.223  1.00  0.00     0.153 C 
HETATM    8  C23 UNL     1      -8.016  47.808 -28.525  1.00  0.00     0.009 C 
HETATM    9  C24 UNL     1      -7.566  46.820 -29.323  1.00  0.00    -0.068 C 
HETATM   10  C25 UNL     1      -7.716  45.401 -28.787  1.00  0.00     0.031 C 
HETATM   11  C26 UNL     1      -7.179  44.307 -29.733  1.00  0.00     0.010 C 
HETATM   12  C27 UNL     1      -7.372  44.542 -31.227  1.00  0.00     0.002 C 
HETATM   13  C28 UNL     1      -7.480  46.001 -31.666  1.00  0.00     0.013 C 
HETATM   14  C29 UNL     1      -6.902  47.039 -30.683  1.00  0.00    -0.024 C 
HETATM   15  C30 UNL     1      -5.371  46.915 -30.565  1.00  0.00     0.019 C 
HETATM   16  C31 UNL     1      -7.198  48.435 -31.291  1.00  0.00     0.019 C 
HETATM   17  C32 UNL     1      -9.162  45.129 -28.198  1.00  0.00     0.027 C 
HETATM   18  C34 UNL     1     -10.142  44.669 -29.323  1.00  0.00     0.018 C 
HETATM   19  C35 UNL     1     -11.656  44.671 -29.038  1.00  0.00     0.011 C 
HETATM   20  C36 UNL     1     -12.110  45.560 -27.874  1.00  0.00    -0.032 C 
HETATM   21  C37 UNL     1     -12.150  44.691 -26.579  1.00  0.00     0.016 C 
ENDROOT
BRANCH   7  22
HETATM   22  O2  UNL     1      -7.678  47.196 -26.302  1.00  0.00    -0.349 OA
BRANCH  22  23
HETATM   23  C17 UNL     1      -7.801  47.774 -25.005  1.00  0.00     0.292 C 
HETATM   24  O3  UNL     1      -6.712  48.699 -24.876  1.00  0.00    -0.348 OA
HETATM   25  C18 UNL     1      -6.660  49.318 -23.580  1.00  0.00     0.179 C 
HETATM   26  C20 UNL     1      -6.336  48.240 -22.547  1.00  0.00     0.180 C 
HETATM   27  C21 UNL     1      -7.451  47.191 -22.552  1.00  0.00     0.183 C 
HETATM   28  C22 UNL     1      -7.724  46.641 -23.957  1.00  0.00     0.204 C 
BRANCH  25  29
HETATM   29  C19 UNL     1      -5.587  50.406 -23.642  1.00  0.00     0.198 C 
BRANCH  29  30
HETATM   30  O4  UNL     1      -6.165  51.653 -23.249  1.00  0.00    -0.398 OA
HETATM   31  H32 UNL     1      -6.935  51.779 -23.839  1.00  0.00     0.209 HD
ENDBRANCH  29  30
ENDBRANCH  25  29
BRANCH  26  32
HETATM   32  O5  UNL     1      -5.096  47.581 -22.862  1.00  0.00    -0.390 OA
HETATM   33  H34 UNL     1      -5.032  47.524 -23.836  1.00  0.00     0.210 HD
ENDBRANCH  26  32
BRANCH  27  34
HETATM   34  O6  UNL     1      -7.100  46.101 -21.682  1.00  0.00    -0.390 OA
HETATM   35  H36 UNL     1      -6.131  45.990 -21.773  1.00  0.00     0.210 HD
ENDBRANCH  27  34
BRANCH  28  36
HETATM   36  O7  UNL     1      -8.962  45.905 -23.914  1.00  0.00    -0.388 OA
HETATM   37  H38 UNL     1      -8.794  45.167 -23.292  1.00  0.00     0.210 HD
ENDBRANCH  28  36
ENDBRANCH  22  23
ENDBRANCH   7  22
BRANCH  17  38
HETATM   38  C33 UNL     1      -8.954  43.927 -27.259  1.00  0.00     0.241 C 
HETATM   39  O8  UNL     1      -8.685  44.004 -26.064  1.00  0.00    -0.306 OA
ENDBRANCH  17  38
BRANCH   1  40
HETATM   40  C8  UNL     1     -14.818  45.428 -27.814  1.00  0.00    -0.010 C 
HETATM   41  C9  UNL     1     -15.367  45.592 -26.389  1.00  0.00     0.010 C 
BRANCH  40  42
HETATM   42  C7  UNL     1     -14.569  43.922 -28.097  1.00  0.00     0.031 C 
BRANCH  42  43
HETATM   43  C6  UNL     1     -15.829  43.160 -28.407  1.00  0.00    -0.027 C 
HETATM   44  C5  UNL     1     -16.927  43.715 -28.945  1.00  0.00     0.006 C 
BRANCH  44  45
HETATM   45  C2  UNL     1     -18.238  43.032 -29.289  1.00  0.00     0.070 C 
HETATM   46  C3  UNL     1     -18.738  43.237 -30.730  1.00  0.00     0.050 C 
HETATM   47  C4  UNL     1     -19.311  43.576 -28.330  1.00  0.00     0.050 C 
BRANCH  45  48
HETATM   48  O1  UNL     1     -18.116  41.636 -28.971  1.00  0.00    -0.382 OA
HETATM   49  C1  UNL     1     -18.909  41.168 -27.888  1.00  0.00     0.202 C 
ENDBRANCH  45  48
ENDBRANCH  44  45
ENDBRANCH  42  43
ENDBRANCH  40  42
ENDBRANCH   1  40
TORSDOF 13
ENDMDL
