MODEL 1
REMARK minimizedAffinity -7.22921133
REMARK CNNscore 0.625617445
REMARK CNNaffinity 6.92300463
REMARK  6 active torsions:
REMARK  status: ('A' for Active; 'I' for Inactive)
REMARK    1  A    between atoms: C4_4  and  C5_5 
REMARK    2  A    between atoms: C5_5  and  C6_6 
REMARK    3  A    between atoms: C6_6  and  C7_7 
REMARK    4  A    between atoms: C7_7  and  C9_9 
REMARK    5  A    between atoms: C24_24  and  O1_25 
REMARK    6  A    between atoms: C27_28  and  O2_29 
ROOT
HETATM    1  C9  UNL     1      -0.269  10.050  14.465  1.00  0.00    -0.002 C 
HETATM    2  C10 UNL     1       1.114   9.582  13.925  1.00  0.00     0.007 C 
HETATM    3  C11 UNL     1       0.901   8.231  13.215  1.00  0.00     0.015 C 
HETATM    4  C12 UNL     1      -0.622   8.118  13.037  1.00  0.00    -0.013 C 
HETATM    5  C13 UNL     1      -0.994   8.928  11.756  1.00  0.00     0.021 C 
HETATM    6  C14 UNL     1      -1.243   6.741  12.826  1.00  0.00    -0.065 C 
HETATM    7  C15 UNL     1      -2.527   6.514  13.207  1.00  0.00    -0.068 C 
HETATM    8  C16 UNL     1      -3.342   7.580  13.946  1.00  0.00     0.036 C 
HETATM    9  C17 UNL     1      -2.639   8.912  14.289  1.00  0.00     0.015 C 
HETATM   10  C18 UNL     1      -1.119   8.743  14.396  1.00  0.00    -0.029 C 
HETATM   11  C19 UNL     1      -0.803   7.853  15.638  1.00  0.00     0.016 C 
HETATM   12  C20 UNL     1      -3.213   5.151  12.970  1.00  0.00    -0.014 C 
HETATM   13  C21 UNL     1      -3.059   4.341  14.282  1.00  0.00     0.020 C 
HETATM   14  C22 UNL     1      -4.725   5.296  12.637  1.00  0.00     0.016 C 
HETATM   15  C23 UNL     1      -5.401   3.972  12.281  1.00  0.00     0.033 C 
HETATM   16  C24 UNL     1      -4.686   3.251  11.145  1.00  0.00     0.118 C 
HETATM   17  C25 UNL     1      -3.191   3.092  11.408  1.00  0.00     0.039 C 
HETATM   18  C26 UNL     1      -2.540   4.442  11.751  1.00  0.00     0.029 C 
HETATM   19  C27 UNL     1      -1.024   4.324  11.948  1.00  0.00     0.127 C 
HETATM   20  C28 UNL     1      -0.383   5.706  12.135  1.00  0.00     0.067 C 
ENDROOT
BRANCH   1  21
HETATM   21  C7  UNL     1      -0.143  10.814  15.813  1.00  0.00    -0.014 C 
HETATM   22  C8  UNL     1       0.905  10.196  16.746  1.00  0.00     0.010 C 
BRANCH  21  23
HETATM   23  C6  UNL     1      -1.494  10.946  16.565  1.00  0.00     0.008 C 
BRANCH  23  24
HETATM   24  C5  UNL     1      -1.602  12.147  17.511  1.00  0.00     0.028 C 
BRANCH  24  25
HETATM   25  C4  UNL     1      -2.929  12.147  18.224  1.00  0.00    -0.025 C 
HETATM   26  C2  UNL     1      -3.424  13.086  19.055  1.00  0.00    -0.091 C 
HETATM   27  C1  UNL     1      -4.776  12.904  19.694  1.00  0.00     0.042 C 
HETATM   28  C3  UNL     1      -2.735  14.371  19.429  1.00  0.00     0.042 C 
ENDBRANCH  24  25
ENDBRANCH  23  24
ENDBRANCH  21  23
ENDBRANCH   1  21
BRANCH  19  29
HETATM   29  O2  UNL     1      -0.419   3.680  10.824  1.00  0.00    -0.395 OA
HETATM   30  H44 UNL     1      -0.649   4.189  10.028  1.00  0.00     0.210 HD
ENDBRANCH  19  29
BRANCH  16  31
HETATM   31  O1  UNL     1      -5.279   1.973  10.944  1.00  0.00    -0.396 OA
HETATM   32  H39 UNL     1      -5.163   1.456  11.759  1.00  0.00     0.210 HD
ENDBRANCH  16  31
TORSDOF 6
ENDMDL
MODEL 2
REMARK minimizedAffinity -8.31403065
REMARK CNNscore 0.572477281
REMARK CNNaffinity 6.98299742
REMARK  6 active torsions:
REMARK  status: ('A' for Active; 'I' for Inactive)
REMARK    1  A    between atoms: C4_4  and  C5_5 
REMARK    2  A    between atoms: C5_5  and  C6_6 
REMARK    3  A    between atoms: C6_6  and  C7_7 
REMARK    4  A    between atoms: C7_7  and  C9_9 
REMARK    5  A    between atoms: C24_24  and  O1_25 
REMARK    6  A    between atoms: C27_28  and  O2_29 
ROOT
HETATM    1  C9  UNL     1      -5.229   6.473  15.025  1.00  0.00    -0.002 C 
HETATM    2  C10 UNL     1      -4.867   7.945  15.380  1.00  0.00     0.007 C 
HETATM    3  C11 UNL     1      -6.180   8.750  15.410  1.00  0.00     0.015 C 
HETATM    4  C12 UNL     1      -7.290   7.688  15.438  1.00  0.00    -0.013 C 
HETATM    5  C13 UNL     1      -7.454   7.234  16.922  1.00  0.00     0.021 C 
HETATM    6  C14 UNL     1      -8.696   8.073  14.988  1.00  0.00    -0.065 C 
HETATM    7  C15 UNL     1      -9.525   7.126  14.478  1.00  0.00    -0.068 C 
HETATM    8  C16 UNL     1      -9.048   5.690  14.239  1.00  0.00     0.036 C 
HETATM    9  C17 UNL     1      -7.572   5.362  14.555  1.00  0.00     0.015 C 
HETATM   10  C18 UNL     1      -6.680   6.607  14.468  1.00  0.00    -0.029 C 
HETATM   11  C19 UNL     1      -6.622   7.073  12.979  1.00  0.00     0.016 C 
HETATM   12  C20 UNL     1     -10.972   7.460  14.053  1.00  0.00    -0.014 C 
HETATM   13  C21 UNL     1     -10.936   7.739  12.529  1.00  0.00     0.020 C 
HETATM   14  C22 UNL     1     -11.959   6.291  14.333  1.00  0.00     0.016 C 
HETATM   15  C23 UNL     1     -13.417   6.639  14.034  1.00  0.00     0.033 C 
HETATM   16  C24 UNL     1     -13.871   7.890  14.775  1.00  0.00     0.118 C 
HETATM   17  C25 UNL     1     -12.931   9.072  14.550  1.00  0.00     0.039 C 
HETATM   18  C26 UNL     1     -11.476   8.693  14.872  1.00  0.00     0.029 C 
HETATM   19  C27 UNL     1     -10.519   9.881  14.725  1.00  0.00     0.127 C 
HETATM   20  C28 UNL     1      -9.106   9.514  15.199  1.00  0.00     0.067 C 
ENDROOT
BRANCH   1  21
HETATM   21  C7  UNL     1      -4.133   5.791  14.159  1.00  0.00    -0.014 C 
HETATM   22  C8  UNL     1      -3.188   6.802  13.501  1.00  0.00     0.010 C 
BRANCH  21  23
HETATM   23  C6  UNL     1      -4.715   4.843  13.078  1.00  0.00     0.008 C 
BRANCH  23  24
HETATM   24  C5  UNL     1      -3.679   4.028  12.295  1.00  0.00     0.028 C 
BRANCH  24  25
HETATM   25  C4  UNL     1      -4.282   2.746  11.785  1.00  0.00    -0.025 C 
HETATM   26  C2  UNL     1      -5.588   2.441  11.648  1.00  0.00    -0.091 C 
HETATM   27  C1  UNL     1      -6.006   1.089  11.131  1.00  0.00     0.042 C 
HETATM   28  C3  UNL     1      -6.737   3.359  11.968  1.00  0.00     0.042 C 
ENDBRANCH  24  25
ENDBRANCH  23  24
ENDBRANCH  21  23
ENDBRANCH   1  21
BRANCH  19  29
HETATM   29  O2  UNL     1     -10.987  11.000  15.483  1.00  0.00    -0.395 OA
HETATM   30  H44 UNL     1     -11.082  10.716  16.408  1.00  0.00     0.210 HD
ENDBRANCH  19  29
BRANCH  16  31
HETATM   31  O1  UNL     1     -15.188   8.238  14.362  1.00  0.00    -0.396 OA
HETATM   32  H39 UNL     1     -15.163   8.434  13.410  1.00  0.00     0.210 HD
ENDBRANCH  16  31
TORSDOF 6
ENDMDL
MODEL 3
REMARK minimizedAffinity -6.51448536
REMARK CNNscore 0.538664579
REMARK CNNaffinity 5.95676184
REMARK  6 active torsions:
REMARK  status: ('A' for Active; 'I' for Inactive)
REMARK    1  A    between atoms: C4_4  and  C5_5 
REMARK    2  A    between atoms: C5_5  and  C6_6 
REMARK    3  A    between atoms: C6_6  and  C7_7 
REMARK    4  A    between atoms: C7_7  and  C9_9 
REMARK    5  A    between atoms: C24_24  and  O1_25 
REMARK    6  A    between atoms: C27_28  and  O2_29 
ROOT
HETATM    1  C9  UNL     1       3.168   8.682  12.324  1.00  0.00    -0.002 C 
HETATM    2  C10 UNL     1       2.570   8.418  13.737  1.00  0.00     0.007 C 
HETATM    3  C11 UNL     1       3.687   8.672  14.767  1.00  0.00     0.015 C 
HETATM    4  C12 UNL     1       4.780   9.418  13.984  1.00  0.00    -0.013 C 
HETATM    5  C13 UNL     1       4.373  10.924  13.951  1.00  0.00     0.021 C 
HETATM    6  C14 UNL     1       6.209   9.409  14.515  1.00  0.00    -0.065 C 
HETATM    7  C15 UNL     1       7.251   9.544  13.653  1.00  0.00    -0.068 C 
HETATM    8  C16 UNL     1       7.033   9.598  12.138  1.00  0.00     0.036 C 
HETATM    9  C17 UNL     1       5.587   9.446  11.615  1.00  0.00     0.015 C 
HETATM   10  C18 UNL     1       4.704   8.671  12.599  1.00  0.00    -0.029 C 
HETATM   11  C19 UNL     1       5.207   7.195  12.663  1.00  0.00     0.016 C 
HETATM   12  C20 UNL     1       8.713   9.589  14.150  1.00  0.00    -0.014 C 
HETATM   13  C21 UNL     1       9.267   8.146  14.031  1.00  0.00     0.020 C 
HETATM   14  C22 UNL     1       9.599  10.545  13.303  1.00  0.00     0.016 C 
HETATM   15  C23 UNL     1      11.020  10.700  13.846  1.00  0.00     0.033 C 
HETATM   16  C24 UNL     1      11.032  11.137  15.306  1.00  0.00     0.118 C 
HETATM   17  C25 UNL     1      10.164  10.241  16.187  1.00  0.00     0.039 C 
HETATM   18  C26 UNL     1       8.739  10.117  15.620  1.00  0.00     0.029 C 
HETATM   19  C27 UNL     1       7.824   9.283  16.524  1.00  0.00     0.127 C 
HETATM   20  C28 UNL     1       6.377   9.306  16.015  1.00  0.00     0.067 C 
ENDROOT
BRANCH   1  21
HETATM   21  C7  UNL     1       2.572   7.731  11.248  1.00  0.00    -0.014 C 
HETATM   22  C8  UNL     1       2.110   6.392  11.835  1.00  0.00     0.010 C 
BRANCH  21  23
HETATM   23  C6  UNL     1       3.540   7.473  10.063  1.00  0.00     0.008 C 
BRANCH  23  24
HETATM   24  C5  UNL     1       3.526   8.539   8.963  1.00  0.00     0.028 C 
BRANCH  24  25
HETATM   25  C4  UNL     1       2.879   8.008   7.711  1.00  0.00    -0.025 C 
HETATM   26  C2  UNL     1       1.564   7.892   7.443  1.00  0.00    -0.091 C 
HETATM   27  C1  UNL     1       1.100   7.317   6.130  1.00  0.00     0.042 C 
HETATM   28  C3  UNL     1       0.446   8.305   8.362  1.00  0.00     0.042 C 
ENDBRANCH  24  25
ENDBRANCH  23  24
ENDBRANCH  21  23
ENDBRANCH   1  21
BRANCH  19  29
HETATM   29  O2  UNL     1       7.853   9.780  17.865  1.00  0.00    -0.395 OA
HETATM   30  H44 UNL     1       7.594  10.717  17.842  1.00  0.00     0.210 HD
ENDBRANCH  19  29
BRANCH  16  31
HETATM   31  O1  UNL     1      12.369  11.140  15.792  1.00  0.00    -0.396 OA
HETATM   32  H39 UNL     1      12.711  10.231  15.739  1.00  0.00     0.210 HD
ENDBRANCH  16  31
TORSDOF 6
ENDMDL
MODEL 4
REMARK minimizedAffinity -7.14128637
REMARK CNNscore 0.509255111
REMARK CNNaffinity 6.18080521
REMARK  6 active torsions:
REMARK  status: ('A' for Active; 'I' for Inactive)
REMARK    1  A    between atoms: C4_4  and  C5_5 
REMARK    2  A    between atoms: C5_5  and  C6_6 
REMARK    3  A    between atoms: C6_6  and  C7_7 
REMARK    4  A    between atoms: C7_7  and  C9_9 
REMARK    5  A    between atoms: C24_24  and  O1_25 
REMARK    6  A    between atoms: C27_28  and  O2_29 
ROOT
HETATM    1  C9  UNL     1       3.208   8.306  11.245  1.00  0.00    -0.002 C 
HETATM    2  C10 UNL     1       2.504   7.830  12.549  1.00  0.00     0.007 C 
HETATM    3  C11 UNL     1       3.493   8.040  13.712  1.00  0.00     0.015 C 
HETATM    4  C12 UNL     1       4.587   8.952  13.135  1.00  0.00    -0.013 C 
HETATM    5  C13 UNL     1       4.059  10.418  13.230  1.00  0.00     0.021 C 
HETATM    6  C14 UNL     1       5.955   8.984  13.808  1.00  0.00    -0.065 C 
HETATM    7  C15 UNL     1       7.059   9.298  13.079  1.00  0.00    -0.068 C 
HETATM    8  C16 UNL     1       6.982   9.518  11.566  1.00  0.00     0.036 C 
HETATM    9  C17 UNL     1       5.610   9.325  10.881  1.00  0.00     0.015 C 
HETATM   10  C18 UNL     1       4.706   8.374  11.675  1.00  0.00    -0.029 C 
HETATM   11  C19 UNL     1       5.325   6.942  11.624  1.00  0.00     0.016 C 
HETATM   12  C20 UNL     1       8.458   9.389  13.727  1.00  0.00    -0.014 C 
HETATM   13  C21 UNL     1       9.142   8.016  13.506  1.00  0.00     0.020 C 
HETATM   14  C22 UNL     1       9.336  10.503  13.091  1.00  0.00     0.016 C 
HETATM   15  C23 UNL     1      10.681  10.695  13.792  1.00  0.00     0.033 C 
HETATM   16  C24 UNL     1      10.517  10.952  15.285  1.00  0.00     0.118 C 
HETATM   17  C25 UNL     1       9.649   9.896  15.964  1.00  0.00     0.039 C 
HETATM   18  C26 UNL     1       8.300   9.737  15.243  1.00  0.00     0.029 C 
HETATM   19  C27 UNL     1       7.378   8.736  15.947  1.00  0.00     0.127 C 
HETATM   20  C28 UNL     1       5.988   8.713  15.295  1.00  0.00     0.067 C 
ENDROOT
BRANCH   1  21
HETATM   21  C7  UNL     1       2.799   7.451  10.013  1.00  0.00    -0.014 C 
HETATM   22  C8  UNL     1       1.659   8.083   9.207  1.00  0.00     0.010 C 
BRANCH  21  23
HETATM   23  C6  UNL     1       2.426   5.990  10.383  1.00  0.00     0.008 C 
BRANCH  23  24
HETATM   24  C5  UNL     1       3.390   4.917   9.865  1.00  0.00     0.028 C 
BRANCH  24  25
HETATM   25  C4  UNL     1       3.234   4.733   8.379  1.00  0.00    -0.025 C 
HETATM   26  C2  UNL     1       3.926   3.907   7.568  1.00  0.00    -0.091 C 
HETATM   27  C1  UNL     1       3.639   3.871   6.090  1.00  0.00     0.042 C 
HETATM   28  C3  UNL     1       5.010   2.960   8.008  1.00  0.00     0.042 C 
ENDBRANCH  24  25
ENDBRANCH  23  24
ENDBRANCH  21  23
ENDBRANCH   1  21
BRANCH  19  29
HETATM   29  O2  UNL     1       7.237   9.068  17.330  1.00  0.00    -0.395 OA
HETATM   30  H44 UNL     1       6.903   9.979  17.387  1.00  0.00     0.210 HD
ENDBRANCH  19  29
BRANCH  16  31
HETATM   31  O1  UNL     1      11.798  10.994  15.905  1.00  0.00    -0.396 OA
HETATM   32  H39 UNL     1      12.219  10.126  15.786  1.00  0.00     0.210 HD
ENDBRANCH  16  31
TORSDOF 6
ENDMDL
MODEL 5
REMARK minimizedAffinity -6.886549
REMARK CNNscore 0.502883375
REMARK CNNaffinity 5.99770737
REMARK  6 active torsions:
REMARK  status: ('A' for Active; 'I' for Inactive)
REMARK    1  A    between atoms: C4_4  and  C5_5 
REMARK    2  A    between atoms: C5_5  and  C6_6 
REMARK    3  A    between atoms: C6_6  and  C7_7 
REMARK    4  A    between atoms: C7_7  and  C9_9 
REMARK    5  A    between atoms: C24_24  and  O1_25 
REMARK    6  A    between atoms: C27_28  and  O2_29 
ROOT
HETATM    1  C9  UNL     1      -7.235 -11.288   2.131  1.00  0.00    -0.002 C 
HETATM    2  C10 UNL     1      -5.820 -11.013   1.543  1.00  0.00     0.007 C 
HETATM    3  C11 UNL     1      -4.886 -10.679   2.721  1.00  0.00     0.015 C 
HETATM    4  C12 UNL     1      -5.663 -11.116   3.973  1.00  0.00    -0.013 C 
HETATM    5  C13 UNL     1      -5.437 -12.652   4.140  1.00  0.00     0.021 C 
HETATM    6  C14 UNL     1      -5.289 -10.516   5.325  1.00  0.00    -0.065 C 
HETATM    7  C15 UNL     1      -6.225 -10.422   6.304  1.00  0.00    -0.068 C 
HETATM    8  C16 UNL     1      -7.686 -10.807   6.053  1.00  0.00     0.036 C 
HETATM    9  C17 UNL     1      -8.074 -11.264   4.629  1.00  0.00     0.015 C 
HETATM   10  C18 UNL     1      -7.125 -10.692   3.569  1.00  0.00    -0.029 C 
HETATM   11  C19 UNL     1      -7.325  -9.145   3.506  1.00  0.00     0.016 C 
HETATM   12  C20 UNL     1      -5.881  -9.865   7.703  1.00  0.00    -0.014 C 
HETATM   13  C21 UNL     1      -6.261  -8.363   7.691  1.00  0.00     0.020 C 
HETATM   14  C22 UNL     1      -6.669 -10.580   8.838  1.00  0.00     0.016 C 
HETATM   15  C23 UNL     1      -6.259 -10.131  10.241  1.00  0.00     0.033 C 
HETATM   16  C24 UNL     1      -4.761 -10.280  10.475  1.00  0.00     0.118 C 
HETATM   17  C25 UNL     1      -3.933  -9.609   9.382  1.00  0.00     0.039 C 
HETATM   18  C26 UNL     1      -4.361 -10.092   7.986  1.00  0.00     0.029 C 
HETATM   19  C27 UNL     1      -3.496  -9.490   6.872  1.00  0.00     0.127 C 
HETATM   20  C28 UNL     1      -3.845 -10.106   5.510  1.00  0.00     0.067 C 
ENDROOT
BRANCH   1  21
HETATM   21  C7  UNL     1      -8.369 -10.805   1.184  1.00  0.00    -0.014 C 
HETATM   22  C8  UNL     1      -8.837 -11.899   0.218  1.00  0.00     0.010 C 
BRANCH  21  23
HETATM   23  C6  UNL     1      -7.989  -9.532   0.381  1.00  0.00     0.008 C 
BRANCH  23  24
HETATM   24  C5  UNL     1      -8.020  -9.685  -1.143  1.00  0.00     0.028 C 
BRANCH  24  25
HETATM   25  C4  UNL     1      -8.204  -8.348  -1.811  1.00  0.00    -0.025 C 
HETATM   26  C2  UNL     1      -7.977  -8.026  -3.100  1.00  0.00    -0.091 C 
HETATM   27  C1  UNL     1      -8.204  -6.618  -3.587  1.00  0.00     0.042 C 
HETATM   28  C3  UNL     1      -7.502  -8.976  -4.166  1.00  0.00     0.042 C 
ENDBRANCH  24  25
ENDBRANCH  23  24
ENDBRANCH  21  23
ENDBRANCH   1  21
BRANCH  19  29
HETATM   29  O2  UNL     1      -2.108  -9.709   7.139  1.00  0.00    -0.395 OA
HETATM   30  H44 UNL     1      -1.970 -10.666   7.237  1.00  0.00     0.210 HD
ENDBRANCH  19  29
BRANCH  16  31
HETATM   31  O1  UNL     1      -4.420  -9.730  11.743  1.00  0.00    -0.396 OA
HETATM   32  H39 UNL     1      -4.638  -8.782  11.729  1.00  0.00     0.210 HD
ENDBRANCH  16  31
TORSDOF 6
ENDMDL
MODEL 6
REMARK minimizedAffinity -6.6084528
REMARK CNNscore 0.470489442
REMARK CNNaffinity 5.96748543
REMARK  6 active torsions:
REMARK  status: ('A' for Active; 'I' for Inactive)
REMARK    1  A    between atoms: C4_4  and  C5_5 
REMARK    2  A    between atoms: C5_5  and  C6_6 
REMARK    3  A    between atoms: C6_6  and  C7_7 
REMARK    4  A    between atoms: C7_7  and  C9_9 
REMARK    5  A    between atoms: C24_24  and  O1_25 
REMARK    6  A    between atoms: C27_28  and  O2_29 
ROOT
HETATM    1  C9  UNL     1       2.993  11.927  19.767  1.00  0.00    -0.002 C 
HETATM    2  C10 UNL     1       3.441  10.950  18.641  1.00  0.00     0.007 C 
HETATM    3  C11 UNL     1       2.278  10.837  17.637  1.00  0.00     0.015 C 
HETATM    4  C12 UNL     1       1.341  12.003  17.990  1.00  0.00    -0.013 C 
HETATM    5  C13 UNL     1       1.911  13.277  17.291  1.00  0.00     0.021 C 
HETATM    6  C14 UNL     1      -0.119  11.938  17.555  1.00  0.00    -0.065 C 
HETATM    7  C15 UNL     1      -1.067  12.602  18.268  1.00  0.00    -0.068 C 
HETATM    8  C16 UNL     1      -0.722  13.334  19.568  1.00  0.00     0.036 C 
HETATM    9  C17 UNL     1       0.737  13.253  20.072  1.00  0.00     0.015 C 
HETATM   10  C18 UNL     1       1.447  11.994  19.561  1.00  0.00    -0.029 C 
HETATM   11  C19 UNL     1       0.782  10.746  20.220  1.00  0.00     0.016 C 
HETATM   12  C20 UNL     1      -2.550  12.604  17.839  1.00  0.00    -0.014 C 
HETATM   13  C21 UNL     1      -3.248  11.477  18.642  1.00  0.00     0.020 C 
HETATM   14  C22 UNL     1      -3.256  13.956  18.142  1.00  0.00     0.016 C 
HETATM   15  C23 UNL     1      -4.691  14.026  17.619  1.00  0.00     0.033 C 
HETATM   16  C24 UNL     1      -4.773  13.721  16.129  1.00  0.00     0.118 C 
HETATM   17  C25 UNL     1      -4.082  12.408  15.766  1.00  0.00     0.039 C 
HETATM   18  C26 UNL     1      -2.639  12.375  16.295  1.00  0.00     0.029 C 
HETATM   19  C27 UNL     1      -1.897  11.099  15.882  1.00  0.00     0.127 C 
HETATM   20  C28 UNL     1      -0.419  11.164  16.291  1.00  0.00     0.067 C 
ENDROOT
BRANCH   1  21
HETATM   21  C7  UNL     1       3.566  11.524  21.155  1.00  0.00    -0.014 C 
HETATM   22  C8  UNL     1       3.254  10.069  21.523  1.00  0.00     0.010 C 
BRANCH  21  23
HETATM   23  C6  UNL     1       3.099  12.461  22.301  1.00  0.00     0.008 C 
BRANCH  23  24
HETATM   24  C5  UNL     1       4.211  13.270  22.979  1.00  0.00     0.028 C 
BRANCH  24  25
HETATM   25  C4  UNL     1       5.498  12.490  23.005  1.00  0.00    -0.025 C 
HETATM   26  C2  UNL     1       6.756  12.967  23.083  1.00  0.00    -0.091 C 
HETATM   27  C1  UNL     1       7.932  12.026  23.080  1.00  0.00     0.042 C 
HETATM   28  C3  UNL     1       7.133  14.421  23.186  1.00  0.00     0.042 C 
ENDBRANCH  24  25
ENDBRANCH  23  24
ENDBRANCH  21  23
ENDBRANCH   1  21
BRANCH  19  29
HETATM   29  O2  UNL     1      -1.980  10.905  14.468  1.00  0.00    -0.395 OA
HETATM   30  H44 UNL     1      -1.619  11.697  14.035  1.00  0.00     0.210 HD
ENDBRANCH  19  29
BRANCH  16  31
HETATM   31  O1  UNL     1      -6.137  13.674  15.726  1.00  0.00    -0.396 OA
HETATM   32  H39 UNL     1      -6.571  12.953  16.214  1.00  0.00     0.210 HD
ENDBRANCH  16  31
TORSDOF 6
ENDMDL
MODEL 7
REMARK minimizedAffinity -7.27670717
REMARK CNNscore 0.449021161
REMARK CNNaffinity 6.56389856
REMARK  6 active torsions:
REMARK  status: ('A' for Active; 'I' for Inactive)
REMARK    1  A    between atoms: C4_4  and  C5_5 
REMARK    2  A    between atoms: C5_5  and  C6_6 
REMARK    3  A    between atoms: C6_6  and  C7_7 
REMARK    4  A    between atoms: C7_7  and  C9_9 
REMARK    5  A    between atoms: C24_24  and  O1_25 
REMARK    6  A    between atoms: C27_28  and  O2_29 
ROOT
HETATM    1  C9  UNL     1      -1.498   6.672  12.306  1.00  0.00    -0.002 C 
HETATM    2  C10 UNL     1      -2.568   5.868  13.101  1.00  0.00     0.007 C 
HETATM    3  C11 UNL     1      -2.882   6.658  14.385  1.00  0.00     0.015 C 
HETATM    4  C12 UNL     1      -2.279   8.052  14.145  1.00  0.00    -0.013 C 
HETATM    5  C13 UNL     1      -3.320   8.863  13.310  1.00  0.00     0.021 C 
HETATM    6  C14 UNL     1      -1.961   8.939  15.344  1.00  0.00    -0.065 C 
HETATM    7  C15 UNL     1      -0.977   9.871  15.252  1.00  0.00    -0.068 C 
HETATM    8  C16 UNL     1      -0.097   9.985  14.004  1.00  0.00     0.036 C 
HETATM    9  C17 UNL     1      -0.336   8.970  12.863  1.00  0.00     0.015 C 
HETATM   10  C18 UNL     1      -0.957   7.667  13.380  1.00  0.00    -0.029 C 
HETATM   11  C19 UNL     1       0.089   6.940  14.280  1.00  0.00     0.016 C 
HETATM   12  C20 UNL     1      -0.652  10.823  16.424  1.00  0.00    -0.014 C 
HETATM   13  C21 UNL     1       0.521  10.181  17.207  1.00  0.00     0.020 C 
HETATM   14  C22 UNL     1      -0.225  12.238  15.940  1.00  0.00     0.016 C 
HETATM   15  C23 UNL     1      -0.014  13.234  17.080  1.00  0.00     0.033 C 
HETATM   16  C24 UNL     1      -1.237  13.341  17.982  1.00  0.00     0.118 C 
HETATM   17  C25 UNL     1      -1.712  11.978  18.479  1.00  0.00     0.039 C 
HETATM   18  C26 UNL     1      -1.928  11.004  17.308  1.00  0.00     0.029 C 
HETATM   19  C27 UNL     1      -2.476   9.650  17.771  1.00  0.00     0.127 C 
HETATM   20  C28 UNL     1      -2.825   8.757  16.572  1.00  0.00     0.067 C 
ENDROOT
BRANCH   1  21
HETATM   21  C7  UNL     1      -0.507   5.742  11.552  1.00  0.00    -0.014 C 
HETATM   22  C8  UNL     1      -0.005   4.584  12.422  1.00  0.00     0.010 C 
BRANCH  21  23
HETATM   23  C6  UNL     1       0.705   6.504  10.952  1.00  0.00     0.008 C 
BRANCH  23  24
HETATM   24  C5  UNL     1       0.352   7.705  10.068  1.00  0.00     0.028 C 
BRANCH  24  25
HETATM   25  C4  UNL     1       0.623   7.398   8.619  1.00  0.00    -0.025 C 
HETATM   26  C2  UNL     1       1.766   7.588   7.931  1.00  0.00    -0.091 C 
HETATM   27  C1  UNL     1       1.846   7.232   6.469  1.00  0.00     0.042 C 
HETATM   28  C3  UNL     1       3.045   8.141   8.499  1.00  0.00     0.042 C 
ENDBRANCH  24  25
ENDBRANCH  23  24
ENDBRANCH  21  23
ENDBRANCH   1  21
BRANCH  19  29
HETATM   29  O2  UNL     1      -3.647   9.829  18.573  1.00  0.00    -0.395 OA
HETATM   30  H44 UNL     1      -4.295  10.330  18.049  1.00  0.00     0.210 HD
ENDBRANCH  19  29
BRANCH  16  31
HETATM   31  O1  UNL     1      -0.938  14.181  19.092  1.00  0.00    -0.396 OA
HETATM   32  H39 UNL     1      -0.217  13.767  19.597  1.00  0.00     0.210 HD
ENDBRANCH  16  31
TORSDOF 6
ENDMDL
MODEL 8
REMARK minimizedAffinity -7.32211494
REMARK CNNscore 0.447285473
REMARK CNNaffinity 6.48608637
REMARK  6 active torsions:
REMARK  status: ('A' for Active; 'I' for Inactive)
REMARK    1  A    between atoms: C4_4  and  C5_5 
REMARK    2  A    between atoms: C5_5  and  C6_6 
REMARK    3  A    between atoms: C6_6  and  C7_7 
REMARK    4  A    between atoms: C7_7  and  C9_9 
REMARK    5  A    between atoms: C24_24  and  O1_25 
REMARK    6  A    between atoms: C27_28  and  O2_29 
ROOT
HETATM    1  C9  UNL     1      -3.046   8.823  16.067  1.00  0.00    -0.002 C 
HETATM    2  C10 UNL     1      -4.579   8.807  15.791  1.00  0.00     0.007 C 
HETATM    3  C11 UNL     1      -4.859   7.656  14.805  1.00  0.00     0.015 C 
HETATM    4  C12 UNL     1      -3.574   6.813  14.812  1.00  0.00    -0.013 C 
HETATM    5  C13 UNL     1      -3.656   5.864  16.049  1.00  0.00     0.021 C 
HETATM    6  C14 UNL     1      -3.285   5.892  13.631  1.00  0.00    -0.065 C 
HETATM    7  C15 UNL     1      -2.001   5.577  13.318  1.00  0.00    -0.068 C 
HETATM    8  C16 UNL     1      -0.820   6.211  14.059  1.00  0.00     0.036 C 
HETATM    9  C17 UNL     1      -1.135   7.260  15.148  1.00  0.00     0.015 C 
HETATM   10  C18 UNL     1      -2.484   7.946  14.905  1.00  0.00    -0.029 C 
HETATM   11  C19 UNL     1      -2.377   8.810  13.610  1.00  0.00     0.016 C 
HETATM   12  C20 UNL     1      -1.663   4.613  12.161  1.00  0.00    -0.014 C 
HETATM   13  C21 UNL     1      -1.372   5.492  10.918  1.00  0.00     0.020 C 
HETATM   14  C22 UNL     1      -0.416   3.734  12.464  1.00  0.00     0.016 C 
HETATM   15  C23 UNL     1      -0.131   2.687  11.387  1.00  0.00     0.033 C 
HETATM   16  C24 UNL     1      -1.339   1.799  11.116  1.00  0.00     0.118 C 
HETATM   17  C25 UNL     1      -2.601   2.608  10.826  1.00  0.00     0.039 C 
HETATM   18  C26 UNL     1      -2.866   3.641  11.933  1.00  0.00     0.029 C 
HETATM   19  C27 UNL     1      -4.167   4.419  11.705  1.00  0.00     0.127 C 
HETATM   20  C28 UNL     1      -4.483   5.329  12.899  1.00  0.00     0.067 C 
ENDROOT
BRANCH   1  21
HETATM   21  C7  UNL     1      -2.503  10.265  16.274  1.00  0.00    -0.014 C 
HETATM   22  C8  UNL     1      -1.145  10.287  16.984  1.00  0.00     0.010 C 
BRANCH  21  23
HETATM   23  C6  UNL     1      -3.499  11.187  17.028  1.00  0.00     0.008 C 
BRANCH  23  24
HETATM   24  C5  UNL     1      -3.215  11.373  18.523  1.00  0.00     0.028 C 
BRANCH  24  25
HETATM   25  C4  UNL     1      -4.320  12.153  19.183  1.00  0.00    -0.025 C 
HETATM   26  C2  UNL     1      -4.295  13.432  19.607  1.00  0.00    -0.091 C 
HETATM   27  C1  UNL     1      -5.505  14.043  20.265  1.00  0.00     0.042 C 
HETATM   28  C3  UNL     1      -3.125  14.370  19.479  1.00  0.00     0.042 C 
ENDBRANCH  24  25
ENDBRANCH  23  24
ENDBRANCH  21  23
ENDBRANCH   1  21
BRANCH  19  29
HETATM   29  O2  UNL     1      -5.261   3.519  11.504  1.00  0.00    -0.395 OA
HETATM   30  H44 UNL     1      -5.313   2.934  12.278  1.00  0.00     0.210 HD
ENDBRANCH  19  29
BRANCH  16  31
HETATM   31  O1  UNL     1      -1.059   0.934  10.022  1.00  0.00    -0.396 OA
HETATM   32  H39 UNL     1      -0.898   1.484   9.236  1.00  0.00     0.210 HD
ENDBRANCH  16  31
TORSDOF 6
ENDMDL
MODEL 9
REMARK minimizedAffinity -8.32851601
REMARK CNNscore 0.433396608
REMARK CNNaffinity 6.53904295
REMARK  6 active torsions:
REMARK  status: ('A' for Active; 'I' for Inactive)
REMARK    1  A    between atoms: C4_4  and  C5_5 
REMARK    2  A    between atoms: C5_5  and  C6_6 
REMARK    3  A    between atoms: C6_6  and  C7_7 
REMARK    4  A    between atoms: C7_7  and  C9_9 
REMARK    5  A    between atoms: C24_24  and  O1_25 
REMARK    6  A    between atoms: C27_28  and  O2_29 
ROOT
HETATM    1  C9  UNL     1      -3.867   8.744  14.297  1.00  0.00    -0.002 C 
HETATM    2  C10 UNL     1      -3.441   8.319  15.733  1.00  0.00     0.007 C 
HETATM    3  C11 UNL     1      -1.944   7.958  15.684  1.00  0.00     0.015 C 
HETATM    4  C12 UNL     1      -1.450   8.517  14.341  1.00  0.00    -0.013 C 
HETATM    5  C13 UNL     1      -1.148  10.033  14.559  1.00  0.00     0.021 C 
HETATM    6  C14 UNL     1      -0.177   7.948  13.724  1.00  0.00    -0.065 C 
HETATM    7  C15 UNL     1      -0.005   7.981  12.377  1.00  0.00    -0.068 C 
HETATM    8  C16 UNL     1      -1.111   8.481  11.442  1.00  0.00     0.036 C 
HETATM    9  C17 UNL     1      -2.452   8.906  12.080  1.00  0.00     0.015 C 
HETATM   10  C18 UNL     1      -2.692   8.205  13.423  1.00  0.00    -0.029 C 
HETATM   11  C19 UNL     1      -2.899   6.681  13.159  1.00  0.00     0.016 C 
HETATM   12  C20 UNL     1       1.288   7.460  11.712  1.00  0.00    -0.014 C 
HETATM   13  C21 UNL     1       1.008   5.997  11.281  1.00  0.00     0.020 C 
HETATM   14  C22 UNL     1       1.689   8.291  10.461  1.00  0.00     0.016 C 
HETATM   15  C23 UNL     1       3.029   7.871   9.854  1.00  0.00     0.033 C 
HETATM   16  C24 UNL     1       4.155   7.898  10.879  1.00  0.00     0.118 C 
HETATM   17  C25 UNL     1       3.812   7.109  12.140  1.00  0.00     0.039 C 
HETATM   18  C26 UNL     1       2.468   7.564  12.732  1.00  0.00     0.029 C 
HETATM   19  C27 UNL     1       2.133   6.840  14.040  1.00  0.00     0.127 C 
HETATM   20  C28 UNL     1       0.867   7.422  14.684  1.00  0.00     0.067 C 
ENDROOT
BRANCH   1  21
HETATM   21  C7  UNL     1      -5.326   8.320  13.969  1.00  0.00    -0.014 C 
HETATM   22  C8  UNL     1      -6.327   8.777  15.036  1.00  0.00     0.010 C 
BRANCH  21  23
HETATM   23  C6  UNL     1      -5.478   6.793  13.734  1.00  0.00     0.008 C 
BRANCH  23  24
HETATM   24  C5  UNL     1      -6.518   6.095  14.616  1.00  0.00     0.028 C 
BRANCH  24  25
HETATM   25  C4  UNL     1      -6.741   4.678  14.160  1.00  0.00    -0.025 C 
HETATM   26  C2  UNL     1      -7.540   4.242  13.166  1.00  0.00    -0.091 C 
HETATM   27  C1  UNL     1      -7.647   2.770  12.862  1.00  0.00     0.042 C 
HETATM   28  C3  UNL     1      -8.378   5.117  12.273  1.00  0.00     0.042 C 
ENDBRANCH  24  25
ENDBRANCH  23  24
ENDBRANCH  21  23
ENDBRANCH   1  21
BRANCH  19  29
HETATM   29  O2  UNL     1       3.217   6.947  14.966  1.00  0.00    -0.395 OA
HETATM   30  H44 UNL     1       3.400   7.892  15.105  1.00  0.00     0.210 HD
ENDBRANCH  19  29
BRANCH  16  31
HETATM   31  O1  UNL     1       5.344   7.378  10.294  1.00  0.00    -0.396 OA
HETATM   32  H39 UNL     1       5.177   6.454  10.043  1.00  0.00     0.210 HD
ENDBRANCH  16  31
TORSDOF 6
ENDMDL
