MODEL 1
REMARK minimizedAffinity -10.0453005
REMARK  7 active torsions:
REMARK  status: ('A' for Active; 'I' for Inactive)
REMARK    1  A    between atoms: C19_20  and  O2_21 
REMARK    2  A    between atoms: O2_21  and  C20_22 
REMARK    3  A    between atoms: C20_22  and  C21_24 
REMARK    4  A    between atoms: C21_24  and  C22_25 
REMARK    5  A    between atoms: C22_25  and  C23_26 
REMARK       I    between atoms: C23_26  and  N1_28 
REMARK    6  A    between atoms: N1_28  and  C24_29 
REMARK    7  A    between atoms: C24_29  and  C25_30 
ROOT
HETATM    1  C1  UNL     1      -3.530   6.709  15.597  1.00  0.00     0.018 C 
HETATM    2  C2  UNL     1      -4.051   6.484  14.155  1.00  0.00    -0.013 C 
HETATM    3  C3  UNL     1      -3.575   5.116  13.647  1.00  0.00     0.012 C 
HETATM    4  C4  UNL     1      -2.052   5.090  13.415  1.00  0.00     0.007 C 
HETATM    5  C5  UNL     1      -1.541   6.246  12.515  1.00  0.00     0.002 C 
HETATM    6  C6  UNL     1      -2.074   7.631  12.996  1.00  0.00    -0.004 C 
HETATM    7  C7  UNL     1      -1.660   8.730  12.009  1.00  0.00     0.010 C 
HETATM    8  C8  UNL     1      -0.147   8.782  11.847  1.00  0.00     0.035 C 
HETATM    9  C9  UNL     1       0.423   7.446  11.435  1.00  0.00    -0.068 C 
HETATM   10  C10 UNL     1       1.257   7.377  10.382  1.00  0.00     0.053 C 
HETATM   11  C11 UNL     1       1.937   6.117  10.005  1.00  0.00     0.149 C 
HETATM   12  O1  UNL     1       2.658   6.095   9.011  1.00  0.00    -0.293 OA
HETATM   13  C12 UNL     1       1.779   4.928  10.915  1.00  0.00     0.084 C 
HETATM   14  C13 UNL     1       0.392   4.914  11.539  1.00  0.00     0.022 C 
HETATM   15  C14 UNL     1       0.019   6.232  12.283  1.00  0.00    -0.016 C 
HETATM   16  C15 UNL     1       0.803   6.293  13.614  1.00  0.00     0.020 C 
HETATM   17  C16 UNL     1      -3.598   7.548  13.135  1.00  0.00     0.001 C 
HETATM   18  C17 UNL     1      -4.369   8.796  13.553  1.00  0.00     0.008 C 
HETATM   19  C18 UNL     1      -5.717   8.250  14.054  1.00  0.00     0.034 C 
HETATM   20  C19 UNL     1      -5.580   6.711  14.094  1.00  0.00     0.140 C 
ENDROOT
BRANCH  20  21
HETATM   21  O2  UNL     1      -6.281   6.214  15.237  1.00  0.00    -0.315 OA
BRANCH  21  22
HETATM   22  C20 UNL     1      -7.295   5.343  14.991  1.00  0.00     0.259 C 
HETATM   23  O3  UNL     1      -7.413   4.234  15.498  1.00  0.00    -0.265 OA
BRANCH  22  24
HETATM   24  C21 UNL     1      -8.339   5.950  14.081  1.00  0.00     0.120 C 
BRANCH  24  25
HETATM   25  C22 UNL     1      -8.268   5.473  12.634  1.00  0.00     0.112 C 
BRANCH  25  26
HETATM   26  C23 UNL     1      -7.915   4.002  12.534  1.00  0.00     0.218 C 
HETATM   27  O4  UNL     1      -8.708   3.100  12.773  1.00  0.00    -0.274 OA
HETATM   28  N1  UNL     1      -6.612   3.788  12.143  1.00  0.00    -0.357 N 
HETATM   29  H32 UNL     1      -6.066   4.572  11.813  1.00  0.00     0.162 HD
BRANCH  28  30
HETATM   30  C24 UNL     1      -6.111   2.457  11.874  1.00  0.00     0.162 C 
BRANCH  30  31
HETATM   31  C25 UNL     1      -4.695   2.506  11.381  1.00  0.00    -0.025 A 
HETATM   32  C26 UNL     1      -4.234   3.567  10.595  1.00  0.00     0.011 A 
HETATM   33  C27 UNL     1      -2.907   3.591  10.175  1.00  0.00     0.018 A 
HETATM   34  C28 UNL     1      -2.079   2.551  10.561  1.00  0.00     0.087 A 
HETATM   35  N2  UNL     1      -2.485   1.510  11.321  1.00  0.00    -0.375 N 
HETATM   36  C29 UNL     1      -3.779   1.513  11.712  1.00  0.00     0.096 A 
ATOM     37  H2  UNL     1      -1.847   0.761  11.587  1.00  0.00     0.164 HD
ENDBRANCH  30  31
ENDBRANCH  28  30
ENDBRANCH  25  26
ENDBRANCH  24  25
ENDBRANCH  22  24
ENDBRANCH  21  22
ENDBRANCH  20  21
TORSDOF 7
ENDMDL
MODEL 2
REMARK minimizedAffinity -9.98018646
REMARK  7 active torsions:
REMARK  status: ('A' for Active; 'I' for Inactive)
REMARK    1  A    between atoms: C19_20  and  O2_21 
REMARK    2  A    between atoms: O2_21  and  C20_22 
REMARK    3  A    between atoms: C20_22  and  C21_24 
REMARK    4  A    between atoms: C21_24  and  C22_25 
REMARK    5  A    between atoms: C22_25  and  C23_26 
REMARK       I    between atoms: C23_26  and  N1_28 
REMARK    6  A    between atoms: N1_28  and  C24_29 
REMARK    7  A    between atoms: C24_29  and  C25_30 
ROOT
HETATM    1  C1  UNL     1      -2.499   4.962  14.645  1.00  0.00     0.018 C 
HETATM    2  C2  UNL     1      -2.901   5.735  13.363  1.00  0.00    -0.013 C 
HETATM    3  C3  UNL     1      -3.200   7.197  13.721  1.00  0.00     0.012 C 
HETATM    4  C4  UNL     1      -4.485   7.330  14.558  1.00  0.00     0.007 C 
HETATM    5  C5  UNL     1      -5.717   6.633  13.922  1.00  0.00     0.002 C 
HETATM    6  C6  UNL     1      -5.395   5.163  13.505  1.00  0.00    -0.004 C 
HETATM    7  C7  UNL     1      -6.589   4.551  12.761  1.00  0.00     0.010 C 
HETATM    8  C8  UNL     1      -7.847   4.585  13.619  1.00  0.00     0.035 C 
HETATM    9  C9  UNL     1      -8.168   5.981  14.095  1.00  0.00    -0.068 C 
HETATM   10  C10 UNL     1      -9.409   6.473  13.923  1.00  0.00     0.053 C 
HETATM   11  C11 UNL     1      -9.813   7.786  14.472  1.00  0.00     0.149 C 
HETATM   12  O1  UNL     1     -10.946   8.209  14.254  1.00  0.00    -0.293 OA
HETATM   13  C12 UNL     1      -8.835   8.515  15.354  1.00  0.00     0.084 C 
HETATM   14  C13 UNL     1      -7.408   8.264  14.891  1.00  0.00     0.022 C 
HETATM   15  C14 UNL     1      -7.034   6.756  14.781  1.00  0.00    -0.016 C 
HETATM   16  C15 UNL     1      -6.853   6.180  16.205  1.00  0.00     0.020 C 
HETATM   17  C16 UNL     1      -4.135   5.167  12.633  1.00  0.00     0.001 C 
HETATM   18  C17 UNL     1      -3.634   3.847  12.057  1.00  0.00     0.008 C 
HETATM   19  C18 UNL     1      -2.169   4.134  11.688  1.00  0.00     0.034 C 
HETATM   20  C19 UNL     1      -1.839   5.532  12.258  1.00  0.00     0.140 C 
ENDROOT
BRANCH  20  21
HETATM   21  O2  UNL     1      -0.494   5.527  12.746  1.00  0.00    -0.315 OA
BRANCH  21  22
HETATM   22  C20 UNL     1       0.374   6.373  12.130  1.00  0.00     0.259 C 
HETATM   23  O3  UNL     1       1.575   6.175  11.993  1.00  0.00    -0.265 OA
BRANCH  22  24
HETATM   24  C21 UNL     1      -0.342   7.561  11.530  1.00  0.00     0.120 C 
BRANCH  24  25
HETATM   25  C22 UNL     1       0.545   8.472  10.687  1.00  0.00     0.112 C 
BRANCH  25  26
HETATM   26  C23 UNL     1       0.665   7.986   9.255  1.00  0.00     0.218 C 
HETATM   27  O4  UNL     1      -0.127   8.290   8.371  1.00  0.00    -0.274 OA
HETATM   28  N1  UNL     1       1.757   7.173   9.054  1.00  0.00    -0.357 N 
HETATM   29  H32 UNL     1       2.449   7.093   9.787  1.00  0.00     0.162 HD
BRANCH  28  30
HETATM   30  C24 UNL     1       2.117   6.700   7.735  1.00  0.00     0.162 C 
BRANCH  30  31
HETATM   31  C25 UNL     1       2.956   5.459   7.819  1.00  0.00    -0.025 A 
HETATM   32  C26 UNL     1       3.233   4.689   6.684  1.00  0.00     0.011 A 
HETATM   33  C27 UNL     1       4.035   3.557   6.795  1.00  0.00     0.018 A 
HETATM   34  C28 UNL     1       4.540   3.232   8.042  1.00  0.00     0.087 A 
HETATM   35  N2  UNL     1       4.298   3.949   9.161  1.00  0.00    -0.375 N 
HETATM   36  C29 UNL     1       3.514   5.042   9.023  1.00  0.00     0.096 A 
ATOM     37  H2  UNL     1       4.687   3.680  10.064  1.00  0.00     0.164 HD
ENDBRANCH  30  31
ENDBRANCH  28  30
ENDBRANCH  25  26
ENDBRANCH  24  25
ENDBRANCH  22  24
ENDBRANCH  21  22
ENDBRANCH  20  21
TORSDOF 7
ENDMDL
MODEL 3
REMARK minimizedAffinity -9.7145853
REMARK  7 active torsions:
REMARK  status: ('A' for Active; 'I' for Inactive)
REMARK    1  A    between atoms: C19_20  and  O2_21 
REMARK    2  A    between atoms: O2_21  and  C20_22 
REMARK    3  A    between atoms: C20_22  and  C21_24 
REMARK    4  A    between atoms: C21_24  and  C22_25 
REMARK    5  A    between atoms: C22_25  and  C23_26 
REMARK       I    between atoms: C23_26  and  N1_28 
REMARK    6  A    between atoms: N1_28  and  C24_29 
REMARK    7  A    between atoms: C24_29  and  C25_30 
ROOT
HETATM    1  C1  UNL     1      -1.665   5.799  14.555  1.00  0.00     0.018 C 
HETATM    2  C2  UNL     1      -2.180   6.362  13.206  1.00  0.00    -0.013 C 
HETATM    3  C3  UNL     1      -2.863   7.715  13.445  1.00  0.00     0.012 C 
HETATM    4  C4  UNL     1      -4.184   7.560  14.221  1.00  0.00     0.007 C 
HETATM    5  C5  UNL     1      -5.158   6.530  13.591  1.00  0.00     0.002 C 
HETATM    6  C6  UNL     1      -4.448   5.172  13.293  1.00  0.00    -0.004 C 
HETATM    7  C7  UNL     1      -5.402   4.227  12.551  1.00  0.00     0.010 C 
HETATM    8  C8  UNL     1      -6.672   3.985  13.354  1.00  0.00     0.035 C 
HETATM    9  C9  UNL     1      -7.366   5.276  13.716  1.00  0.00    -0.068 C 
HETATM   10  C10 UNL     1      -8.680   5.418  13.461  1.00  0.00     0.053 C 
HETATM   11  C11 UNL     1      -9.437   6.612  13.898  1.00  0.00     0.149 C 
HETATM   12  O1  UNL     1     -10.626   6.712  13.607  1.00  0.00    -0.293 OA
HETATM   13  C12 UNL     1      -8.729   7.621  14.763  1.00  0.00     0.084 C 
HETATM   14  C13 UNL     1      -7.262   7.722  14.374  1.00  0.00     0.022 C 
HETATM   15  C14 UNL     1      -6.509   6.358  14.388  1.00  0.00    -0.016 C 
HETATM   16  C15 UNL     1      -6.265   5.936  15.855  1.00  0.00     0.020 C 
HETATM   17  C16 UNL     1      -3.184   5.451  12.472  1.00  0.00     0.001 C 
HETATM   18  C17 UNL     1      -2.330   4.274  12.012  1.00  0.00     0.008 C 
HETATM   19  C18 UNL     1      -0.970   4.908  11.680  1.00  0.00     0.034 C 
HETATM   20  C19 UNL     1      -1.041   6.376  12.159  1.00  0.00     0.140 C 
ENDROOT
BRANCH  20  21
HETATM   21  O2  UNL     1       0.231   6.750  12.698  1.00  0.00    -0.315 OA
BRANCH  21  22
HETATM   22  C20 UNL     1       0.564   8.064  12.601  1.00  0.00     0.259 C 
HETATM   23  O3  UNL     1       0.153   8.835  11.743  1.00  0.00    -0.265 OA
BRANCH  22  24
HETATM   24  C21 UNL     1       1.435   8.501  13.757  1.00  0.00     0.120 C 
BRANCH  24  25
HETATM   25  C22 UNL     1       2.700   7.671  13.942  1.00  0.00     0.112 C 
BRANCH  25  26
HETATM   26  C23 UNL     1       3.592   7.708  12.716  1.00  0.00     0.218 C 
HETATM   27  O4  UNL     1       4.408   8.595  12.502  1.00  0.00    -0.274 OA
HETATM   28  N1  UNL     1       3.390   6.638  11.873  1.00  0.00    -0.357 N 
HETATM   29  H32 UNL     1       2.816   5.868  12.190  1.00  0.00     0.162 HD
BRANCH  28  30
HETATM   30  C24 UNL     1       4.221   6.423  10.708  1.00  0.00     0.162 C 
BRANCH  30  31
HETATM   31  C25 UNL     1       3.504   6.829   9.454  1.00  0.00    -0.025 A 
HETATM   32  C26 UNL     1       3.383   8.174   9.088  1.00  0.00     0.011 A 
HETATM   33  C27 UNL     1       2.732   8.513   7.905  1.00  0.00     0.018 A 
HETATM   34  C28 UNL     1       2.225   7.491   7.121  1.00  0.00     0.087 A 
HETATM   35  N2  UNL     1       2.324   6.181   7.438  1.00  0.00    -0.375 N 
HETATM   36  C29 UNL     1       2.959   5.883   8.593  1.00  0.00     0.096 A 
ATOM     37  H2  UNL     1       1.939   5.455   6.835  1.00  0.00     0.164 HD
ENDBRANCH  30  31
ENDBRANCH  28  30
ENDBRANCH  25  26
ENDBRANCH  24  25
ENDBRANCH  22  24
ENDBRANCH  21  22
ENDBRANCH  20  21
TORSDOF 7
ENDMDL
MODEL 4
REMARK minimizedAffinity -9.63584709
REMARK  7 active torsions:
REMARK  status: ('A' for Active; 'I' for Inactive)
REMARK    1  A    between atoms: C19_20  and  O2_21 
REMARK    2  A    between atoms: O2_21  and  C20_22 
REMARK    3  A    between atoms: C20_22  and  C21_24 
REMARK    4  A    between atoms: C21_24  and  C22_25 
REMARK    5  A    between atoms: C22_25  and  C23_26 
REMARK       I    between atoms: C23_26  and  N1_28 
REMARK    6  A    between atoms: N1_28  and  C24_29 
REMARK    7  A    between atoms: C24_29  and  C25_30 
ROOT
HETATM    1  C1  UNL     1      -2.551   5.481  14.934  1.00  0.00     0.018 C 
HETATM    2  C2  UNL     1      -2.958   6.193  13.619  1.00  0.00    -0.013 C 
HETATM    3  C3  UNL     1      -3.381   7.635  13.929  1.00  0.00     0.012 C 
HETATM    4  C4  UNL     1      -4.706   7.688  14.712  1.00  0.00     0.007 C 
HETATM    5  C5  UNL     1      -5.854   6.884  14.046  1.00  0.00     0.002 C 
HETATM    6  C6  UNL     1      -5.405   5.436  13.677  1.00  0.00    -0.004 C 
HETATM    7  C7  UNL     1      -6.518   4.718  12.902  1.00  0.00     0.010 C 
HETATM    8  C8  UNL     1      -7.809   4.674  13.708  1.00  0.00     0.035 C 
HETATM    9  C9  UNL     1      -8.254   6.051  14.138  1.00  0.00    -0.068 C 
HETATM   10  C10 UNL     1      -9.520   6.443  13.905  1.00  0.00     0.053 C 
HETATM   11  C11 UNL     1     -10.045   7.733  14.406  1.00  0.00     0.149 C 
HETATM   12  O1  UNL     1     -11.196   8.063  14.134  1.00  0.00    -0.293 OA
HETATM   13  C12 UNL     1      -9.161   8.553  15.308  1.00  0.00     0.084 C 
HETATM   14  C13 UNL     1      -7.701   8.402  14.908  1.00  0.00     0.022 C 
HETATM   15  C14 UNL     1      -7.211   6.925  14.849  1.00  0.00    -0.016 C 
HETATM   16  C15 UNL     1      -7.045   6.395  16.292  1.00  0.00     0.020 C 
HETATM   17  C16 UNL     1      -4.115   5.517  12.855  1.00  0.00     0.001 C 
HETATM   18  C17 UNL     1      -3.492   4.227  12.331  1.00  0.00     0.008 C 
HETATM   19  C18 UNL     1      -2.039   4.617  12.013  1.00  0.00     0.034 C 
HETATM   20  C19 UNL     1      -1.839   6.049  12.561  1.00  0.00     0.140 C 
ENDROOT
BRANCH  20  21
HETATM   21  O2  UNL     1      -0.519   6.157  13.102  1.00  0.00    -0.315 OA
BRANCH  21  22
HETATM   22  C20 UNL     1       0.472   6.453  12.219  1.00  0.00     0.259 C 
HETATM   23  O3  UNL     1       1.410   5.718  11.938  1.00  0.00    -0.265 OA
BRANCH  22  24
HETATM   24  C21 UNL     1       0.224   7.777  11.532  1.00  0.00     0.120 C 
BRANCH  24  25
HETATM   25  C22 UNL     1       0.077   7.683  10.017  1.00  0.00     0.112 C 
BRANCH  25  26
HETATM   26  C23 UNL     1       1.332   8.130   9.293  1.00  0.00     0.218 C 
HETATM   27  O4  UNL     1       1.317   8.809   8.274  1.00  0.00    -0.274 OA
HETATM   28  N1  UNL     1       2.487   7.697   9.904  1.00  0.00    -0.357 N 
HETATM   29  H32 UNL     1       2.426   7.277  10.822  1.00  0.00     0.162 HD
BRANCH  28  30
HETATM   30  C24 UNL     1       3.792   8.113   9.439  1.00  0.00     0.162 C 
BRANCH  30  31
HETATM   31  C25 UNL     1       4.861   7.728  10.419  1.00  0.00    -0.025 A 
HETATM   32  C26 UNL     1       5.883   8.616  10.769  1.00  0.00     0.011 A 
HETATM   33  C27 UNL     1       6.844   8.233  11.700  1.00  0.00     0.018 A 
HETATM   34  C28 UNL     1       6.748   6.971  12.258  1.00  0.00     0.087 A 
HETATM   35  N2  UNL     1       5.775   6.085  11.951  1.00  0.00    -0.375 N 
HETATM   36  C29 UNL     1       4.858   6.484  11.041  1.00  0.00     0.096 A 
ATOM     37  H2  UNL     1       5.735   5.162  12.382  1.00  0.00     0.164 HD
ENDBRANCH  30  31
ENDBRANCH  28  30
ENDBRANCH  25  26
ENDBRANCH  24  25
ENDBRANCH  22  24
ENDBRANCH  21  22
ENDBRANCH  20  21
TORSDOF 7
ENDMDL
MODEL 5
REMARK minimizedAffinity -9.56941414
REMARK  7 active torsions:
REMARK  status: ('A' for Active; 'I' for Inactive)
REMARK    1  A    between atoms: C19_20  and  O2_21 
REMARK    2  A    between atoms: O2_21  and  C20_22 
REMARK    3  A    between atoms: C20_22  and  C21_24 
REMARK    4  A    between atoms: C21_24  and  C22_25 
REMARK    5  A    between atoms: C22_25  and  C23_26 
REMARK       I    between atoms: C23_26  and  N1_28 
REMARK    6  A    between atoms: N1_28  and  C24_29 
REMARK    7  A    between atoms: C24_29  and  C25_30 
ROOT
HETATM    1  C1  UNL     1      -1.726   5.077  14.212  1.00  0.00     0.018 C 
HETATM    2  C2  UNL     1      -2.275   5.700  12.903  1.00  0.00    -0.013 C 
HETATM    3  C3  UNL     1      -2.652   7.167  13.155  1.00  0.00     0.012 C 
HETATM    4  C4  UNL     1      -3.880   7.292  14.076  1.00  0.00     0.007 C 
HETATM    5  C5  UNL     1      -5.101   6.460  13.602  1.00  0.00     0.002 C 
HETATM    6  C6  UNL     1      -4.704   4.982  13.289  1.00  0.00    -0.004 C 
HETATM    7  C7  UNL     1      -5.902   4.227  12.697  1.00  0.00     0.010 C 
HETATM    8  C8  UNL     1      -7.094   4.258  13.644  1.00  0.00     0.035 C 
HETATM    9  C9  UNL     1      -7.480   5.668  14.022  1.00  0.00    -0.068 C 
HETATM   10  C10 UNL     1      -8.761   6.059  13.905  1.00  0.00     0.053 C 
HETATM   11  C11 UNL     1      -9.219   7.388  14.369  1.00  0.00     0.149 C 
HETATM   12  O1  UNL     1     -10.392   7.714  14.204  1.00  0.00    -0.293 OA
HETATM   13  C12 UNL     1      -8.235   8.257  15.105  1.00  0.00     0.084 C 
HETATM   14  C13 UNL     1      -6.830   8.059  14.555  1.00  0.00     0.022 C 
HETATM   15  C14 UNL     1      -6.358   6.574  14.547  1.00  0.00    -0.016 C 
HETATM   16  C15 UNL     1      -6.033   6.145  15.997  1.00  0.00     0.020 C 
HETATM   17  C16 UNL     1      -3.514   4.988  12.324  1.00  0.00     0.001 C 
HETATM   18  C17 UNL     1      -2.962   3.657  11.827  1.00  0.00     0.008 C 
HETATM   19  C18 UNL     1      -1.552   4.004  11.321  1.00  0.00     0.034 C 
HETATM   20  C19 UNL     1      -1.283   5.467  11.740  1.00  0.00     0.140 C 
ENDROOT
BRANCH  20  21
HETATM   21  O2  UNL     1       0.090   5.595  12.119  1.00  0.00    -0.315 OA
BRANCH  21  22
HETATM   22  C20 UNL     1       1.010   5.318  11.158  1.00  0.00     0.259 C 
HETATM   23  O3  UNL     1       1.522   4.223  10.965  1.00  0.00    -0.265 OA
BRANCH  22  24
HETATM   24  C21 UNL     1       1.258   6.515  10.267  1.00  0.00     0.120 C 
BRANCH  24  25
HETATM   25  C22 UNL     1       2.346   6.306   9.219  1.00  0.00     0.112 C 
BRANCH  25  26
HETATM   26  C23 UNL     1       3.737   6.420   9.810  1.00  0.00     0.218 C 
HETATM   27  O4  UNL     1       4.512   5.475   9.900  1.00  0.00    -0.274 OA
HETATM   28  N1  UNL     1       4.039   7.696  10.230  1.00  0.00    -0.357 N 
HETATM   29  H32 UNL     1       3.415   8.452   9.983  1.00  0.00     0.162 HD
BRANCH  28  30
HETATM   30  C24 UNL     1       5.358   8.042  10.715  1.00  0.00     0.162 C 
BRANCH  30  31
HETATM   31  C25 UNL     1       5.422   7.948  12.211  1.00  0.00    -0.025 A 
HETATM   32  C26 UNL     1       4.700   8.824  13.027  1.00  0.00     0.011 A 
HETATM   33  C27 UNL     1       4.765   8.692  14.412  1.00  0.00     0.018 A 
HETATM   34  C28 UNL     1       5.550   7.681  14.937  1.00  0.00     0.087 A 
HETATM   35  N2  UNL     1       6.261   6.813  14.183  1.00  0.00    -0.375 N 
HETATM   36  C29 UNL     1       6.180   6.967  12.842  1.00  0.00     0.096 A 
ATOM     37  H2  UNL     1       6.829   6.079  14.604  1.00  0.00     0.164 HD
ENDBRANCH  30  31
ENDBRANCH  28  30
ENDBRANCH  25  26
ENDBRANCH  24  25
ENDBRANCH  22  24
ENDBRANCH  21  22
ENDBRANCH  20  21
TORSDOF 7
ENDMDL
MODEL 6
REMARK minimizedAffinity -9.51664066
REMARK  7 active torsions:
REMARK  status: ('A' for Active; 'I' for Inactive)
REMARK    1  A    between atoms: C19_20  and  O2_21 
REMARK    2  A    between atoms: O2_21  and  C20_22 
REMARK    3  A    between atoms: C20_22  and  C21_24 
REMARK    4  A    between atoms: C21_24  and  C22_25 
REMARK    5  A    between atoms: C22_25  and  C23_26 
REMARK       I    between atoms: C23_26  and  N1_28 
REMARK    6  A    between atoms: N1_28  and  C24_29 
REMARK    7  A    between atoms: C24_29  and  C25_30 
ROOT
HETATM    1  C1  UNL     1      -3.738   8.261  12.941  1.00  0.00     0.018 C 
HETATM    2  C2  UNL     1      -2.728   7.876  14.052  1.00  0.00    -0.013 C 
HETATM    3  C3  UNL     1      -1.633   8.948  14.140  1.00  0.00     0.012 C 
HETATM    4  C4  UNL     1      -0.721   8.937  12.900  1.00  0.00     0.007 C 
HETATM    5  C5  UNL     1      -0.131   7.540  12.573  1.00  0.00     0.002 C 
HETATM    6  C6  UNL     1      -1.238   6.440  12.542  1.00  0.00    -0.004 C 
HETATM    7  C7  UNL     1      -0.603   5.056  12.350  1.00  0.00     0.010 C 
HETATM    8  C8  UNL     1       0.222   5.002  11.071  1.00  0.00     0.035 C 
HETATM    9  C9  UNL     1       1.272   6.086  11.030  1.00  0.00    -0.068 C 
HETATM   10  C10 UNL     1       2.547   5.764  10.749  1.00  0.00     0.053 C 
HETATM   11  C11 UNL     1       3.595   6.795  10.579  1.00  0.00     0.149 C 
HETATM   12  O1  UNL     1       4.754   6.450  10.362  1.00  0.00    -0.293 OA
HETATM   13  C12 UNL     1       3.174   8.241  10.597  1.00  0.00     0.084 C 
HETATM   14  C13 UNL     1       2.017   8.449  11.564  1.00  0.00     0.022 C 
HETATM   15  C14 UNL     1       0.795   7.521  11.296  1.00  0.00    -0.016 C 
HETATM   16  C15 UNL     1       0.053   8.022  10.035  1.00  0.00     0.020 C 
HETATM   17  C16 UNL     1      -2.038   6.513  13.846  1.00  0.00     0.001 C 
HETATM   18  C17 UNL     1      -3.158   5.505  14.081  1.00  0.00     0.008 C 
HETATM   19  C18 UNL     1      -4.016   6.152  15.180  1.00  0.00     0.034 C 
HETATM   20  C19 UNL     1      -3.471   7.585  15.377  1.00  0.00     0.140 C 
ENDROOT
BRANCH  20  21
HETATM   21  O2  UNL     1      -4.569   8.468  15.627  1.00  0.00    -0.315 OA
BRANCH  21  22
HETATM   22  C20 UNL     1      -5.804   8.001  15.301  1.00  0.00     0.259 C 
HETATM   23  O3  UNL     1      -6.628   8.601  14.622  1.00  0.00    -0.265 OA
BRANCH  22  24
HETATM   24  C21 UNL     1      -6.010   6.587  15.794  1.00  0.00     0.120 C 
BRANCH  24  25
HETATM   25  C22 UNL     1      -7.469   6.150  15.863  1.00  0.00     0.112 C 
BRANCH  25  26
HETATM   26  C23 UNL     1      -7.961   5.591  14.542  1.00  0.00     0.218 C 
HETATM   27  O4  UNL     1      -8.492   6.276  13.676  1.00  0.00    -0.274 OA
HETATM   28  N1  UNL     1      -7.745   4.237  14.418  1.00  0.00    -0.357 N 
HETATM   29  H32 UNL     1      -7.165   3.771  15.102  1.00  0.00     0.162 HD
BRANCH  28  30
HETATM   30  C24 UNL     1      -8.034   3.533  13.188  1.00  0.00     0.162 C 
BRANCH  30  31
HETATM   31  C25 UNL     1      -6.769   3.128  12.490  1.00  0.00    -0.025 A 
HETATM   32  C26 UNL     1      -5.661   3.980  12.438  1.00  0.00     0.011 A 
HETATM   33  C27 UNL     1      -4.495   3.561  11.803  1.00  0.00     0.018 A 
HETATM   34  C28 UNL     1      -4.474   2.296  11.242  1.00  0.00     0.087 A 
HETATM   35  N2  UNL     1      -5.521   1.442  11.274  1.00  0.00    -0.375 N 
HETATM   36  C29 UNL     1      -6.640   1.877  11.895  1.00  0.00     0.096 A 
ATOM     37  H2  UNL     1      -5.469   0.516  10.851  1.00  0.00     0.164 HD
ENDBRANCH  30  31
ENDBRANCH  28  30
ENDBRANCH  25  26
ENDBRANCH  24  25
ENDBRANCH  22  24
ENDBRANCH  21  22
ENDBRANCH  20  21
TORSDOF 7
ENDMDL
MODEL 7
REMARK minimizedAffinity -9.5119791
REMARK  7 active torsions:
REMARK  status: ('A' for Active; 'I' for Inactive)
REMARK    1  A    between atoms: C19_20  and  O2_21 
REMARK    2  A    between atoms: O2_21  and  C20_22 
REMARK    3  A    between atoms: C20_22  and  C21_24 
REMARK    4  A    between atoms: C21_24  and  C22_25 
REMARK    5  A    between atoms: C22_25  and  C23_26 
REMARK       I    between atoms: C23_26  and  N1_28 
REMARK    6  A    between atoms: N1_28  and  C24_29 
REMARK    7  A    between atoms: C24_29  and  C25_30 
ROOT
HETATM    1  C1  UNL     1      -1.821   5.483  14.567  1.00  0.00     0.018 C 
HETATM    2  C2  UNL     1      -2.303   6.122  13.239  1.00  0.00    -0.013 C 
HETATM    3  C3  UNL     1      -2.899   7.507  13.526  1.00  0.00     0.012 C 
HETATM    4  C4  UNL     1      -4.225   7.410  14.303  1.00  0.00     0.007 C 
HETATM    5  C5  UNL     1      -5.264   6.464  13.644  1.00  0.00     0.002 C 
HETATM    6  C6  UNL     1      -4.642   5.075  13.299  1.00  0.00    -0.004 C 
HETATM    7  C7  UNL     1      -5.655   4.216  12.531  1.00  0.00     0.010 C 
HETATM    8  C8  UNL     1      -6.936   4.028  13.332  1.00  0.00     0.035 C 
HETATM    9  C9  UNL     1      -7.547   5.348  13.740  1.00  0.00    -0.068 C 
HETATM   10  C10 UNL     1      -8.849   5.579  13.496  1.00  0.00     0.053 C 
HETATM   11  C11 UNL     1      -9.529   6.803  13.975  1.00  0.00     0.149 C 
HETATM   12  O1  UNL     1     -10.710   6.988  13.693  1.00  0.00    -0.293 OA
HETATM   13  C12 UNL     1      -8.756   7.738  14.869  1.00  0.00     0.084 C 
HETATM   14  C13 UNL     1      -7.287   7.759  14.476  1.00  0.00     0.022 C 
HETATM   15  C14 UNL     1      -6.621   6.351  14.442  1.00  0.00    -0.016 C 
HETATM   16  C15 UNL     1      -6.400   5.866  15.893  1.00  0.00     0.020 C 
HETATM   17  C16 UNL     1      -3.365   5.300  12.481  1.00  0.00     0.001 C 
HETATM   18  C17 UNL     1      -2.589   4.088  11.979  1.00  0.00     0.008 C 
HETATM   19  C18 UNL     1      -1.192   4.646  11.661  1.00  0.00     0.034 C 
HETATM   20  C19 UNL     1      -1.169   6.099  12.188  1.00  0.00     0.140 C 
ENDROOT
BRANCH  20  21
HETATM   21  O2  UNL     1       0.125   6.374  12.732  1.00  0.00    -0.315 OA
BRANCH  21  22
HETATM   22  C20 UNL     1       0.934   7.175  11.989  1.00  0.00     0.259 C 
HETATM   23  O3  UNL     1       0.555   8.101  11.284  1.00  0.00    -0.265 OA
BRANCH  22  24
HETATM   24  C21 UNL     1       2.393   6.852  12.216  1.00  0.00     0.120 C 
BRANCH  24  25
HETATM   25  C22 UNL     1       3.087   6.197  11.026  1.00  0.00     0.112 C 
BRANCH  25  26
HETATM   26  C23 UNL     1       4.495   6.723  10.825  1.00  0.00     0.218 C 
HETATM   27  O4  UNL     1       4.805   7.492   9.924  1.00  0.00    -0.274 OA
HETATM   28  N1  UNL     1       5.383   6.250  11.764  1.00  0.00    -0.357 N 
HETATM   29  H32 UNL     1       5.026   5.747  12.565  1.00  0.00     0.162 HD
BRANCH  28  30
HETATM   30  C24 UNL     1       6.750   6.723  11.820  1.00  0.00     0.162 C 
BRANCH  30  31
HETATM   31  C25 UNL     1       7.063   7.306  13.166  1.00  0.00    -0.025 A 
HETATM   32  C26 UNL     1       8.303   7.894  13.435  1.00  0.00     0.011 A 
HETATM   33  C27 UNL     1       8.550   8.446  14.689  1.00  0.00     0.018 A 
HETATM   34  C28 UNL     1       7.542   8.397  15.636  1.00  0.00     0.087 A 
HETATM   35  N2  UNL     1       6.330   7.841  15.415  1.00  0.00    -0.375 N 
HETATM   36  C29 UNL     1       6.120   7.311  14.189  1.00  0.00     0.096 A 
ATOM     37  H2  UNL     1       5.610   7.823  16.137  1.00  0.00     0.164 HD
ENDBRANCH  30  31
ENDBRANCH  28  30
ENDBRANCH  25  26
ENDBRANCH  24  25
ENDBRANCH  22  24
ENDBRANCH  21  22
ENDBRANCH  20  21
TORSDOF 7
ENDMDL
MODEL 8
REMARK minimizedAffinity -8.98615646
REMARK  7 active torsions:
REMARK  status: ('A' for Active; 'I' for Inactive)
REMARK    1  A    between atoms: C19_20  and  O2_21 
REMARK    2  A    between atoms: O2_21  and  C20_22 
REMARK    3  A    between atoms: C20_22  and  C21_24 
REMARK    4  A    between atoms: C21_24  and  C22_25 
REMARK    5  A    between atoms: C22_25  and  C23_26 
REMARK       I    between atoms: C23_26  and  N1_28 
REMARK    6  A    between atoms: N1_28  and  C24_29 
REMARK    7  A    between atoms: C24_29  and  C25_30 
ROOT
HETATM    1  C1  UNL     1      -3.185   6.473  15.388  1.00  0.00     0.018 C 
HETATM    2  C2  UNL     1      -3.713   6.209  13.954  1.00  0.00    -0.013 C 
HETATM    3  C3  UNL     1      -3.157   4.873  13.443  1.00  0.00     0.012 C 
HETATM    4  C4  UNL     1      -1.640   4.945  13.187  1.00  0.00     0.007 C 
HETATM    5  C5  UNL     1      -1.218   6.128  12.275  1.00  0.00     0.002 C 
HETATM    6  C6  UNL     1      -1.833   7.478  12.762  1.00  0.00    -0.004 C 
HETATM    7  C7  UNL     1      -1.507   8.598  11.765  1.00  0.00     0.010 C 
HETATM    8  C8  UNL     1      -0.003   8.747  11.579  1.00  0.00     0.035 C 
HETATM    9  C9  UNL     1       0.646   7.449  11.162  1.00  0.00    -0.068 C 
HETATM   10  C10 UNL     1       1.466   7.430  10.096  1.00  0.00     0.053 C 
HETATM   11  C11 UNL     1       2.221   6.216   9.711  1.00  0.00     0.149 C 
HETATM   12  O1  UNL     1       2.927   6.237   8.706  1.00  0.00    -0.293 OA
HETATM   13  C12 UNL     1       2.154   5.022  10.627  1.00  0.00     0.084 C 
HETATM   14  C13 UNL     1       0.781   4.921  11.273  1.00  0.00     0.022 C 
HETATM   15  C14 UNL     1       0.336   6.214  12.019  1.00  0.00    -0.016 C 
HETATM   16  C15 UNL     1       1.134   6.332  13.338  1.00  0.00     0.020 C 
HETATM   17  C16 UNL     1      -3.346   7.297  12.925  1.00  0.00     0.001 C 
HETATM   18  C17 UNL     1      -4.189   8.493  13.352  1.00  0.00     0.008 C 
HETATM   19  C18 UNL     1      -5.491   7.863  13.875  1.00  0.00     0.034 C 
HETATM   20  C19 UNL     1      -5.254   6.336  13.917  1.00  0.00     0.140 C 
ENDROOT
BRANCH  20  21
HETATM   21  O2  UNL     1      -5.904   5.799  15.073  1.00  0.00    -0.315 OA
BRANCH  21  22
HETATM   22  C20 UNL     1      -7.159   5.311  14.886  1.00  0.00     0.259 C 
HETATM   23  O3  UNL     1      -7.479   4.495  14.030  1.00  0.00    -0.265 OA
BRANCH  22  24
HETATM   24  C21 UNL     1      -8.113   5.819  15.943  1.00  0.00     0.120 C 
BRANCH  24  25
HETATM   25  C22 UNL     1      -8.720   7.184  15.639  1.00  0.00     0.112 C 
BRANCH  25  26
HETATM   26  C23 UNL     1      -9.856   7.095  14.638  1.00  0.00     0.218 C 
HETATM   27  O4  UNL     1      -9.690   6.851  13.450  1.00  0.00    -0.274 OA
HETATM   28  N1  UNL     1     -11.091   7.313  15.207  1.00  0.00    -0.357 N 
HETATM   29  H32 UNL     1     -11.164   7.353  16.215  1.00  0.00     0.162 HD
BRANCH  28  30
HETATM   30  C24 UNL     1     -12.313   7.156  14.448  1.00  0.00     0.162 C 
BRANCH  30  31
HETATM   31  C25 UNL     1     -12.748   8.463  13.854  1.00  0.00    -0.025 A 
HETATM   32  C26 UNL     1     -13.467   9.400  14.602  1.00  0.00     0.011 A 
HETATM   33  C27 UNL     1     -13.834  10.613  14.025  1.00  0.00     0.018 A 
HETATM   34  C28 UNL     1     -13.462  10.852  12.714  1.00  0.00     0.087 A 
HETATM   35  N2  UNL     1     -12.765   9.975  11.958  1.00  0.00    -0.375 N 
HETATM   36  C29 UNL     1     -12.425   8.805  12.544  1.00  0.00     0.096 A 
ATOM     37  H2  UNL     1     -12.508  10.186  10.994  1.00  0.00     0.164 HD
ENDBRANCH  30  31
ENDBRANCH  28  30
ENDBRANCH  25  26
ENDBRANCH  24  25
ENDBRANCH  22  24
ENDBRANCH  21  22
ENDBRANCH  20  21
TORSDOF 7
ENDMDL
MODEL 9
REMARK minimizedAffinity -8.88117886
REMARK  7 active torsions:
REMARK  status: ('A' for Active; 'I' for Inactive)
REMARK    1  A    between atoms: C19_20  and  O2_21 
REMARK    2  A    between atoms: O2_21  and  C20_22 
REMARK    3  A    between atoms: C20_22  and  C21_24 
REMARK    4  A    between atoms: C21_24  and  C22_25 
REMARK    5  A    between atoms: C22_25  and  C23_26 
REMARK       I    between atoms: C23_26  and  N1_28 
REMARK    6  A    between atoms: N1_28  and  C24_29 
REMARK    7  A    between atoms: C24_29  and  C25_30 
ROOT
HETATM    1  C1  UNL     1      -2.460   4.778  14.459  1.00  0.00     0.018 C 
HETATM    2  C2  UNL     1      -2.887   5.518  13.166  1.00  0.00    -0.013 C 
HETATM    3  C3  UNL     1      -3.160   6.994  13.489  1.00  0.00     0.012 C 
HETATM    4  C4  UNL     1      -4.422   7.166  14.354  1.00  0.00     0.007 C 
HETATM    5  C5  UNL     1      -5.677   6.465  13.770  1.00  0.00     0.002 C 
HETATM    6  C6  UNL     1      -5.383   4.981  13.387  1.00  0.00    -0.004 C 
HETATM    7  C7  UNL     1      -6.602   4.361  12.692  1.00  0.00     0.010 C 
HETATM    8  C8  UNL     1      -7.837   4.435  13.580  1.00  0.00     0.035 C 
HETATM    9  C9  UNL     1      -8.130   5.848  14.024  1.00  0.00    -0.068 C 
HETATM   10  C10 UNL     1      -9.369   6.349  13.869  1.00  0.00     0.053 C 
HETATM   11  C11 UNL     1      -9.745   7.682  14.390  1.00  0.00     0.149 C 
HETATM   12  O1  UNL     1     -10.878   8.112  14.189  1.00  0.00    -0.293 OA
HETATM   13  C12 UNL     1      -8.736   8.425  15.226  1.00  0.00     0.084 C 
HETATM   14  C13 UNL     1      -7.324   8.144  14.734  1.00  0.00     0.022 C 
HETATM   15  C14 UNL     1      -6.970   6.628  14.659  1.00  0.00    -0.016 C 
HETATM   16  C15 UNL     1      -6.759   6.092  16.093  1.00  0.00     0.020 C 
HETATM   17  C16 UNL     1      -4.145   4.945  12.484  1.00  0.00     0.001 C 
HETATM   18  C17 UNL     1      -3.674   3.603  11.934  1.00  0.00     0.008 C 
HETATM   19  C18 UNL     1      -2.216   3.861  11.520  1.00  0.00     0.034 C 
HETATM   20  C19 UNL     1      -1.855   5.272  12.040  1.00  0.00     0.140 C 
ENDROOT
BRANCH  20  21
HETATM   21  O2  UNL     1      -0.499   5.264  12.494  1.00  0.00    -0.315 OA
BRANCH  21  22
HETATM   22  C20 UNL     1       0.456   5.116  11.538  1.00  0.00     0.259 C 
HETATM   23  O3  UNL     1       0.833   4.046  11.077  1.00  0.00    -0.265 OA
BRANCH  22  24
HETATM   24  C21 UNL     1       0.936   6.453  11.022  1.00  0.00     0.120 C 
BRANCH  24  25
HETATM   25  C22 UNL     1       2.415   6.731  11.271  1.00  0.00     0.112 C 
BRANCH  25  26
HETATM   26  C23 UNL     1       2.628   7.704  12.414  1.00  0.00     0.218 C 
HETATM   27  O4  UNL     1       2.891   8.889  12.252  1.00  0.00    -0.274 OA
HETATM   28  N1  UNL     1       2.490   7.116  13.652  1.00  0.00    -0.357 N 
HETATM   29  H32 UNL     1       2.121   6.176  13.707  1.00  0.00     0.162 HD
BRANCH  28  30
HETATM   30  C24 UNL     1       2.539   7.894  14.870  1.00  0.00     0.162 C 
BRANCH  30  31
HETATM   31  C25 UNL     1       1.158   8.241  15.342  1.00  0.00    -0.025 A 
HETATM   32  C26 UNL     1       0.667   9.548  15.259  1.00  0.00     0.011 A 
HETATM   33  C27 UNL     1      -0.629   9.830  15.684  1.00  0.00     0.018 A 
HETATM   34  C28 UNL     1      -1.397   8.789  16.175  1.00  0.00     0.087 A 
HETATM   35  N2  UNL     1      -0.961   7.513  16.269  1.00  0.00    -0.375 N 
HETATM   36  C29 UNL     1       0.301   7.271  15.851  1.00  0.00     0.096 A 
ATOM     37  H2  UNL     1      -1.555   6.770  16.636  1.00  0.00     0.164 HD
ENDBRANCH  30  31
ENDBRANCH  28  30
ENDBRANCH  25  26
ENDBRANCH  24  25
ENDBRANCH  22  24
ENDBRANCH  21  22
ENDBRANCH  20  21
TORSDOF 7
ENDMDL
