MODEL 1
REMARK minimizedAffinity -7.49390268
REMARK CNNscore 0.707609177
REMARK CNNaffinity 7.1541543
REMARK  6 active torsions:
REMARK  status: ('A' for Active; 'I' for Inactive)
REMARK    1  A    between atoms: C4_4  and  C5_5 
REMARK    2  A    between atoms: C5_5  and  O1_6 
REMARK    3  A    between atoms: C5_5  and  C6_7 
REMARK    4  A    between atoms: C6_7  and  C7_8 
REMARK    5  A    between atoms: C7_8  and  C9_10 
REMARK    6  A    between atoms: C30_32  and  O3_33 
ROOT
HETATM    1  C9  UNL     1      -9.605   6.711  14.443  1.00  0.00    -0.002 C 
HETATM    2  C10 UNL     1      -9.982   6.559  12.941  1.00  0.00     0.007 C 
HETATM    3  C11 UNL     1     -11.042   7.622  12.620  1.00  0.00     0.015 C 
HETATM    4  C12 UNL     1     -11.576   8.088  13.986  1.00  0.00    -0.010 C 
HETATM    5  C13 UNL     1     -12.620   7.020  14.443  1.00  0.00     0.021 C 
HETATM    6  C14 UNL     1     -12.317   9.429  14.129  1.00  0.00    -0.039 C 
HETATM    7  C15 UNL     1     -12.305  10.079  15.324  1.00  0.00    -0.066 C 
HETATM    8  C16 UNL     1     -11.448   9.558  16.492  1.00  0.00     0.036 C 
HETATM    9  C17 UNL     1     -10.605   8.289  16.280  1.00  0.00     0.015 C 
HETATM   10  C18 UNL     1     -10.229   8.095  14.812  1.00  0.00    -0.029 C 
HETATM   11  C19 UNL     1      -9.258   9.237  14.382  1.00  0.00     0.016 C 
HETATM   12  C20 UNL     1     -13.138  11.377  15.604  1.00  0.00    -0.015 C 
HETATM   13  C21 UNL     1     -13.817  11.205  16.987  1.00  0.00     0.020 C 
HETATM   14  C22 UNL     1     -12.142  12.566  15.641  1.00  0.00     0.021 C 
HETATM   15  C23 UNL     1     -12.803  13.924  15.798  1.00  0.00     0.080 C 
HETATM   16  C24 UNL     1     -13.817  14.157  14.706  1.00  0.00     0.135 C 
HETATM   17  O2  UNL     1     -13.795  15.202  14.053  1.00  0.00    -0.297 OA
HETATM   18  C25 UNL     1     -14.909  13.096  14.517  1.00  0.00     0.018 C 
HETATM   19  C26 UNL     1     -15.952  13.279  15.641  1.00  0.00     0.023 C 
HETATM   20  C27 UNL     1     -15.671  13.398  13.201  1.00  0.00     0.023 C 
HETATM   21  C28 UNL     1     -14.249  11.648  14.503  1.00  0.00     0.016 C 
HETATM   22  C29 UNL     1     -13.664  11.334  13.114  1.00  0.00     0.043 C 
HETATM   23  C30 UNL     1     -13.150   9.906  12.970  1.00  0.00     0.148 C 
ENDROOT
BRANCH   1  24
HETATM   24  C7  UNL     1      -8.088   6.426  14.692  1.00  0.00    -0.011 C 
HETATM   25  C8  UNL     1      -7.853   5.611  15.965  1.00  0.00     0.010 C 
BRANCH  24  26
HETATM   26  C6  UNL     1      -7.474   5.717  13.443  1.00  0.00     0.040 C 
BRANCH  26  27
HETATM   27  C5  UNL     1      -7.167   4.219  13.614  1.00  0.00     0.141 C 
BRANCH  27  28
HETATM   28  C4  UNL     1      -6.241   3.714  12.533  1.00  0.00     0.006 C 
HETATM   29  C2  UNL     1      -4.926   3.991  12.408  1.00  0.00    -0.089 C 
HETATM   30  C1  UNL     1      -4.143   4.852  13.364  1.00  0.00     0.042 C 
HETATM   31  C3  UNL     1      -4.118   3.425  11.270  1.00  0.00     0.042 C 
ENDBRANCH  27  28
BRANCH  27  32
HETATM   32  O1  UNL     1      -8.380   3.478  13.530  1.00  0.00    -0.392 OA
HETATM   33  H9  UNL     1      -8.480   3.176  12.612  1.00  0.00     0.210 HD
ENDBRANCH  27  32
ENDBRANCH  26  27
ENDBRANCH  24  26
ENDBRANCH   1  24
BRANCH  23  34
HETATM   34  O3  UNL     1     -12.396   9.882  11.764  1.00  0.00    -0.391 OA
HETATM   35  H48 UNL     1     -12.975  10.190  11.048  1.00  0.00     0.210 HD
ENDBRANCH  23  34
TORSDOF 6
ENDMDL
MODEL 2
REMARK minimizedAffinity -7.97342825
REMARK CNNscore 0.694523156
REMARK CNNaffinity 6.89061737
REMARK  6 active torsions:
REMARK  status: ('A' for Active; 'I' for Inactive)
REMARK    1  A    between atoms: C4_4  and  C5_5 
REMARK    2  A    between atoms: C5_5  and  O1_6 
REMARK    3  A    between atoms: C5_5  and  C6_7 
REMARK    4  A    between atoms: C6_7  and  C7_8 
REMARK    5  A    between atoms: C7_8  and  C9_10 
REMARK    6  A    between atoms: C30_32  and  O3_33 
ROOT
HETATM    1  C9  UNL     1      -1.749   9.747  16.475  1.00  0.00    -0.002 C 
HETATM    2  C10 UNL     1      -0.431  10.444  16.919  1.00  0.00     0.007 C 
HETATM    3  C11 UNL     1       0.628  10.159  15.845  1.00  0.00     0.015 C 
HETATM    4  C12 UNL     1       0.070   8.980  15.027  1.00  0.00    -0.010 C 
HETATM    5  C13 UNL     1       0.382   7.686  15.844  1.00  0.00     0.021 C 
HETATM    6  C14 UNL     1       0.601   8.677  13.616  1.00  0.00    -0.039 C 
HETATM    7  C15 UNL     1      -0.201   8.041  12.718  1.00  0.00    -0.066 C 
HETATM    8  C16 UNL     1      -1.674   7.747  13.054  1.00  0.00     0.036 C 
HETATM    9  C17 UNL     1      -2.221   8.186  14.423  1.00  0.00     0.015 C 
HETATM   10  C18 UNL     1      -1.457   9.385  14.983  1.00  0.00    -0.029 C 
HETATM   11  C19 UNL     1      -1.731  10.626  14.081  1.00  0.00     0.016 C 
HETATM   12  C20 UNL     1       0.293   7.571  11.308  1.00  0.00    -0.015 C 
HETATM   13  C21 UNL     1      -0.231   6.129  11.088  1.00  0.00     0.020 C 
HETATM   14  C22 UNL     1      -0.326   8.531  10.257  1.00  0.00     0.021 C 
HETATM   15  C23 UNL     1       0.140   8.278   8.835  1.00  0.00     0.080 C 
HETATM   16  C24 UNL     1       1.644   8.343   8.744  1.00  0.00     0.135 C 
HETATM   17  O2  UNL     1       2.183   9.040   7.882  1.00  0.00    -0.297 OA
HETATM   18  C25 UNL     1       2.449   7.447   9.693  1.00  0.00     0.018 C 
HETATM   19  C26 UNL     1       2.395   6.003   9.149  1.00  0.00     0.023 C 
HETATM   20  C27 UNL     1       3.944   7.856   9.613  1.00  0.00     0.023 C 
HETATM   21  C28 UNL     1       1.874   7.582  11.171  1.00  0.00     0.016 C 
HETATM   22  C29 UNL     1       2.426   8.848  11.852  1.00  0.00     0.043 C 
HETATM   23  C30 UNL     1       2.048   8.972  13.323  1.00  0.00     0.148 C 
ENDROOT
BRANCH   1  24
HETATM   24  C7  UNL     1      -3.009  10.587  16.861  1.00  0.00    -0.011 C 
HETATM   25  C8  UNL     1      -4.313   9.896  16.456  1.00  0.00     0.010 C 
BRANCH  24  26
HETATM   26  C6  UNL     1      -2.984  10.899  18.391  1.00  0.00     0.040 C 
BRANCH  26  27
HETATM   27  C5  UNL     1      -3.042  12.391  18.766  1.00  0.00     0.141 C 
BRANCH  27  28
HETATM   28  C4  UNL     1      -4.362  13.011  18.378  1.00  0.00     0.006 C 
HETATM   29  C2  UNL     1      -5.352  13.385  19.218  1.00  0.00    -0.089 C 
HETATM   30  C1  UNL     1      -5.288  13.261  20.717  1.00  0.00     0.042 C 
HETATM   31  C3  UNL     1      -6.628  13.987  18.693  1.00  0.00     0.042 C 
ENDBRANCH  27  28
BRANCH  27  32
HETATM   32  O1  UNL     1      -2.011  13.088  18.075  1.00  0.00    -0.392 OA
HETATM   33  H9  UNL     1      -2.396  13.456  17.262  1.00  0.00     0.210 HD
ENDBRANCH  27  32
ENDBRANCH  26  27
ENDBRANCH  24  26
ENDBRANCH   1  24
BRANCH  23  34
HETATM   34  O3  UNL     1       2.376  10.304  13.701  1.00  0.00    -0.391 OA
HETATM   35  H48 UNL     1       3.316  10.443  13.500  1.00  0.00     0.210 HD
ENDBRANCH  23  34
TORSDOF 6
ENDMDL
MODEL 3
REMARK minimizedAffinity -6.53167677
REMARK CNNscore 0.655130446
REMARK CNNaffinity 6.80277681
REMARK  6 active torsions:
REMARK  status: ('A' for Active; 'I' for Inactive)
REMARK    1  A    between atoms: C4_4  and  C5_5 
REMARK    2  A    between atoms: C5_5  and  O1_6 
REMARK    3  A    between atoms: C5_5  and  C6_7 
REMARK    4  A    between atoms: C6_7  and  C7_8 
REMARK    5  A    between atoms: C7_8  and  C9_10 
REMARK    6  A    between atoms: C30_32  and  O3_33 
ROOT
HETATM    1  C9  UNL     1      -2.128  15.697   4.497  1.00  0.00    -0.002 C 
HETATM    2  C10 UNL     1      -1.438  15.015   5.712  1.00  0.00     0.007 C 
HETATM    3  C11 UNL     1      -0.018  14.622   5.279  1.00  0.00     0.015 C 
HETATM    4  C12 UNL     1      -0.033  14.682   3.741  1.00  0.00    -0.010 C 
HETATM    5  C13 UNL     1      -0.677  13.347   3.250  1.00  0.00     0.021 C 
HETATM    6  C14 UNL     1       1.278  14.788   2.943  1.00  0.00    -0.039 C 
HETATM    7  C15 UNL     1       1.269  15.365   1.710  1.00  0.00    -0.066 C 
HETATM    8  C16 UNL     1      -0.006  16.034   1.166  1.00  0.00     0.036 C 
HETATM    9  C17 UNL     1      -1.270  16.037   2.044  1.00  0.00     0.015 C 
HETATM   10  C18 UNL     1      -0.929  15.967   3.532  1.00  0.00    -0.029 C 
HETATM   11  C19 UNL     1      -0.208  17.285   3.949  1.00  0.00     0.016 C 
HETATM   12  C20 UNL     1       2.522  15.398   0.769  1.00  0.00    -0.015 C 
HETATM   13  C21 UNL     1       2.045  15.010  -0.654  1.00  0.00     0.020 C 
HETATM   14  C22 UNL     1       3.065  16.852   0.774  1.00  0.00     0.021 C 
HETATM   15  C23 UNL     1       4.351  17.036  -0.012  1.00  0.00     0.080 C 
HETATM   16  C24 UNL     1       5.424  16.102   0.489  1.00  0.00     0.135 C 
HETATM   17  O2  UNL     1       6.543  16.536   0.767  1.00  0.00    -0.297 OA
HETATM   18  C25 UNL     1       5.089  14.606   0.544  1.00  0.00     0.018 C 
HETATM   19  C26 UNL     1       5.157  14.048  -0.895  1.00  0.00     0.023 C 
HETATM   20  C27 UNL     1       6.216  13.873   1.318  1.00  0.00     0.023 C 
HETATM   21  C28 UNL     1       3.668  14.401   1.229  1.00  0.00     0.016 C 
HETATM   22  C29 UNL     1       3.794  14.458   2.763  1.00  0.00     0.043 C 
HETATM   23  C30 UNL     1       2.505  14.118   3.501  1.00  0.00     0.148 C 
ENDROOT
BRANCH   1  24
HETATM   24  C7  UNL     1      -3.072  16.861   4.943  1.00  0.00    -0.011 C 
HETATM   25  C8  UNL     1      -4.249  17.052   3.984  1.00  0.00     0.010 C 
BRANCH  24  26
HETATM   26  C6  UNL     1      -3.564  16.608   6.403  1.00  0.00     0.040 C 
BRANCH  26  27
HETATM   27  C5  UNL     1      -4.042  17.855   7.169  1.00  0.00     0.141 C 
BRANCH  27  28
HETATM   28  C4  UNL     1      -5.547  17.907   7.264  1.00  0.00     0.006 C 
HETATM   29  C2  UNL     1      -6.273  18.215   8.361  1.00  0.00    -0.089 C 
HETATM   30  C1  UNL     1      -5.682  18.588   9.694  1.00  0.00     0.042 C 
HETATM   31  C3  UNL     1      -7.778  18.219   8.319  1.00  0.00     0.042 C 
ENDBRANCH  27  28
BRANCH  27  32
HETATM   32  O1  UNL     1      -3.608  19.023   6.480  1.00  0.00    -0.392 OA
HETATM   33  H9  UNL     1      -4.333  19.313   5.902  1.00  0.00     0.210 HD
ENDBRANCH  27  32
ENDBRANCH  26  27
ENDBRANCH  24  26
ENDBRANCH   1  24
BRANCH  23  34
HETATM   34  O3  UNL     1       2.716  14.501   4.855  1.00  0.00    -0.391 OA
HETATM   35  H48 UNL     1       3.510  14.041   5.170  1.00  0.00     0.210 HD
ENDBRANCH  23  34
TORSDOF 6
ENDMDL
MODEL 4
REMARK minimizedAffinity -7.56586647
REMARK CNNscore 0.613117397
REMARK CNNaffinity 6.97560883
REMARK  6 active torsions:
REMARK  status: ('A' for Active; 'I' for Inactive)
REMARK    1  A    between atoms: C4_4  and  C5_5 
REMARK    2  A    between atoms: C5_5  and  O1_6 
REMARK    3  A    between atoms: C5_5  and  C6_7 
REMARK    4  A    between atoms: C6_7  and  C7_8 
REMARK    5  A    between atoms: C7_8  and  C9_10 
REMARK    6  A    between atoms: C30_32  and  O3_33 
ROOT
HETATM    1  C9  UNL     1      -9.467   7.239  13.975  1.00  0.00    -0.002 C 
HETATM    2  C10 UNL     1      -9.043   7.265  15.471  1.00  0.00     0.007 C 
HETATM    3  C11 UNL     1     -10.094   8.082  16.237  1.00  0.00     0.015 C 
HETATM    4  C12 UNL     1     -10.864   8.865  15.158  1.00  0.00    -0.010 C 
HETATM    5  C13 UNL     1      -9.989  10.108  14.801  1.00  0.00     0.021 C 
HETATM    6  C14 UNL     1     -12.256   9.450  15.449  1.00  0.00    -0.039 C 
HETATM    7  C15 UNL     1     -13.132   9.645  14.426  1.00  0.00    -0.066 C 
HETATM    8  C16 UNL     1     -12.796   9.158  13.004  1.00  0.00     0.036 C 
HETATM    9  C17 UNL     1     -11.452   8.449  12.764  1.00  0.00     0.015 C 
HETATM   10  C18 UNL     1     -10.939   7.761  14.029  1.00  0.00    -0.029 C 
HETATM   11  C19 UNL     1     -11.898   6.586  14.391  1.00  0.00     0.016 C 
HETATM   12  C20 UNL     1     -14.516  10.357  14.604  1.00  0.00    -0.015 C 
HETATM   13  C21 UNL     1     -14.676  11.360  13.433  1.00  0.00     0.020 C 
HETATM   14  C22 UNL     1     -15.613   9.262  14.524  1.00  0.00     0.021 C 
HETATM   15  C23 UNL     1     -17.019   9.773  14.785  1.00  0.00     0.080 C 
HETATM   16  C24 UNL     1     -17.100  10.462  16.124  1.00  0.00     0.135 C 
HETATM   17  O2  UNL     1     -17.987  10.160  16.924  1.00  0.00    -0.297 OA
HETATM   18  C25 UNL     1     -16.104  11.598  16.395  1.00  0.00     0.018 C 
HETATM   19  C26 UNL     1     -16.585  12.848  15.626  1.00  0.00     0.023 C 
HETATM   20  C27 UNL     1     -16.189  11.984  17.894  1.00  0.00     0.023 C 
HETATM   21  C28 UNL     1     -14.639  11.134  15.982  1.00  0.00     0.016 C 
HETATM   22  C29 UNL     1     -14.010  10.278  17.097  1.00  0.00     0.043 C 
HETATM   23  C30 UNL     1     -12.549   9.921  16.849  1.00  0.00     0.148 C 
ENDROOT
BRANCH   1  24
HETATM   24  C7  UNL     1      -9.129   5.871  13.299  1.00  0.00    -0.011 C 
HETATM   25  C8  UNL     1      -8.929   6.004  11.788  1.00  0.00     0.010 C 
BRANCH  24  26
HETATM   26  C6  UNL     1      -7.875   5.242  13.984  1.00  0.00     0.040 C 
BRANCH  26  27
HETATM   27  C5  UNL     1      -7.475   3.843  13.482  1.00  0.00     0.141 C 
BRANCH  27  28
HETATM   28  C4  UNL     1      -6.443   3.919  12.383  1.00  0.00     0.006 C 
HETATM   29  C2  UNL     1      -5.968   2.887  11.653  1.00  0.00    -0.089 C 
HETATM   30  C1  UNL     1      -6.419   1.459  11.806  1.00  0.00     0.042 C 
HETATM   31  C3  UNL     1      -4.927   3.105  10.588  1.00  0.00     0.042 C 
ENDBRANCH  27  28
BRANCH  27  32
HETATM   32  O1  UNL     1      -8.624   3.187  12.957  1.00  0.00    -0.392 OA
HETATM   33  H9  UNL     1      -8.638   3.337  11.997  1.00  0.00     0.210 HD
ENDBRANCH  27  32
ENDBRANCH  26  27
ENDBRANCH  24  26
ENDBRANCH   1  24
BRANCH  23  34
HETATM   34  O3  UNL     1     -12.227   8.910  17.798  1.00  0.00    -0.391 OA
HETATM   35  H48 UNL     1     -12.425   9.262  18.680  1.00  0.00     0.210 HD
ENDBRANCH  23  34
TORSDOF 6
ENDMDL
MODEL 5
REMARK minimizedAffinity -8.3738575
REMARK CNNscore 0.554080546
REMARK CNNaffinity 6.96554565
REMARK  6 active torsions:
REMARK  status: ('A' for Active; 'I' for Inactive)
REMARK    1  A    between atoms: C4_4  and  C5_5 
REMARK    2  A    between atoms: C5_5  and  O1_6 
REMARK    3  A    between atoms: C5_5  and  C6_7 
REMARK    4  A    between atoms: C6_7  and  C7_8 
REMARK    5  A    between atoms: C7_8  and  C9_10 
REMARK    6  A    between atoms: C30_32  and  O3_33 
ROOT
HETATM    1  C9  UNL     1       0.176   7.871  12.823  1.00  0.00    -0.002 C 
HETATM    2  C10 UNL     1       0.175   9.362  13.264  1.00  0.00     0.007 C 
HETATM    3  C11 UNL     1      -1.243   9.702  13.745  1.00  0.00     0.015 C 
HETATM    4  C12 UNL     1      -2.138   8.575  13.197  1.00  0.00    -0.010 C 
HETATM    5  C13 UNL     1      -2.434   8.929  11.705  1.00  0.00     0.021 C 
HETATM    6  C14 UNL     1      -3.524   8.301  13.805  1.00  0.00    -0.039 C 
HETATM    7  C15 UNL     1      -4.059   7.053  13.723  1.00  0.00    -0.066 C 
HETATM    8  C16 UNL     1      -3.237   5.883  13.152  1.00  0.00     0.036 C 
HETATM    9  C17 UNL     1      -1.799   6.154  12.676  1.00  0.00     0.015 C 
HETATM   10  C18 UNL     1      -1.173   7.342  13.408  1.00  0.00    -0.029 C 
HETATM   11  C19 UNL     1      -0.982   6.968  14.909  1.00  0.00     0.016 C 
HETATM   12  C20 UNL     1      -5.514   6.710  14.192  1.00  0.00    -0.015 C 
HETATM   13  C21 UNL     1      -6.162   5.832  13.091  1.00  0.00     0.020 C 
HETATM   14  C22 UNL     1      -5.397   5.908  15.516  1.00  0.00     0.021 C 
HETATM   15  C23 UNL     1      -6.731   5.586  16.165  1.00  0.00     0.080 C 
HETATM   16  C24 UNL     1      -7.525   6.843  16.413  1.00  0.00     0.135 C 
HETATM   17  O2  UNL     1      -8.012   7.060  17.524  1.00  0.00    -0.297 OA
HETATM   18  C25 UNL     1      -7.772   7.771  15.216  1.00  0.00     0.018 C 
HETATM   19  C26 UNL     1      -8.880   7.142  14.344  1.00  0.00     0.023 C 
HETATM   20  C27 UNL     1      -8.371   9.104  15.737  1.00  0.00     0.023 C 
HETATM   21  C28 UNL     1      -6.408   8.000  14.429  1.00  0.00     0.016 C 
HETATM   22  C29 UNL     1      -5.556   9.077  15.125  1.00  0.00     0.043 C 
HETATM   23  C30 UNL     1      -4.303   9.468  14.350  1.00  0.00     0.148 C 
ENDROOT
BRANCH   1  24
HETATM   24  C7  UNL     1       1.528   7.165  13.168  1.00  0.00    -0.011 C 
HETATM   25  C8  UNL     1       1.760   7.063  14.678  1.00  0.00     0.010 C 
BRANCH  24  26
HETATM   26  C6  UNL     1       1.574   5.758  12.491  1.00  0.00     0.040 C 
BRANCH  26  27
HETATM   27  C5  UNL     1       2.175   5.723  11.074  1.00  0.00     0.141 C 
BRANCH  27  28
HETATM   28  C4  UNL     1       1.322   6.485  10.089  1.00  0.00     0.006 C 
HETATM   29  C2  UNL     1       1.749   7.417   9.210  1.00  0.00    -0.089 C 
HETATM   30  C1  UNL     1       3.185   7.840   9.049  1.00  0.00     0.042 C 
HETATM   31  C3  UNL     1       0.785   8.111   8.285  1.00  0.00     0.042 C 
ENDBRANCH  27  28
BRANCH  27  32
HETATM   32  O1  UNL     1       2.251   4.372  10.631  1.00  0.00    -0.392 OA
HETATM   33  H9  UNL     1       1.452   4.185  10.110  1.00  0.00     0.210 HD
ENDBRANCH  27  32
ENDBRANCH  26  27
ENDBRANCH  24  26
ENDBRANCH   1  24
BRANCH  23  34
HETATM   34  O3  UNL     1      -3.507  10.228  15.252  1.00  0.00    -0.391 OA
HETATM   35  H48 UNL     1      -4.047  10.969  15.569  1.00  0.00     0.210 HD
ENDBRANCH  23  34
TORSDOF 6
ENDMDL
MODEL 6
REMARK minimizedAffinity -8.57479286
REMARK CNNscore 0.552481413
REMARK CNNaffinity 6.78111601
REMARK  6 active torsions:
REMARK  status: ('A' for Active; 'I' for Inactive)
REMARK    1  A    between atoms: C4_4  and  C5_5 
REMARK    2  A    between atoms: C5_5  and  O1_6 
REMARK    3  A    between atoms: C5_5  and  C6_7 
REMARK    4  A    between atoms: C6_7  and  C7_8 
REMARK    5  A    between atoms: C7_8  and  C9_10 
REMARK    6  A    between atoms: C30_32  and  O3_33 
ROOT
HETATM    1  C9  UNL     1      -4.714   5.487  14.101  1.00  0.00    -0.002 C 
HETATM    2  C10 UNL     1      -5.262   4.687  12.884  1.00  0.00     0.007 C 
HETATM    3  C11 UNL     1      -6.749   5.037  12.731  1.00  0.00     0.015 C 
HETATM    4  C12 UNL     1      -7.154   5.680  14.070  1.00  0.00    -0.010 C 
HETATM    5  C13 UNL     1      -7.414   4.505  15.066  1.00  0.00     0.021 C 
HETATM    6  C14 UNL     1      -8.415   6.555  14.177  1.00  0.00    -0.039 C 
HETATM    7  C15 UNL     1      -8.485   7.519  15.134  1.00  0.00    -0.066 C 
HETATM    8  C16 UNL     1      -7.266   7.834  16.021  1.00  0.00     0.036 C 
HETATM    9  C17 UNL     1      -5.968   7.038  15.801  1.00  0.00     0.015 C 
HETATM   10  C18 UNL     1      -5.852   6.525  14.366  1.00  0.00    -0.029 C 
HETATM   11  C19 UNL     1      -5.685   7.741  13.405  1.00  0.00     0.016 C 
HETATM   12  C20 UNL     1      -9.774   8.367  15.407  1.00  0.00    -0.015 C 
HETATM   13  C21 UNL     1      -9.982   8.416  16.942  1.00  0.00     0.020 C 
HETATM   14  C22 UNL     1      -9.515   9.793  14.855  1.00  0.00     0.021 C 
HETATM   15  C23 UNL     1     -10.714  10.720  14.944  1.00  0.00     0.080 C 
HETATM   16  C24 UNL     1     -11.907  10.124  14.240  1.00  0.00     0.135 C 
HETATM   17  O2  UNL     1     -12.538  10.790  13.418  1.00  0.00    -0.297 OA
HETATM   18  C25 UNL     1     -12.342   8.714  14.659  1.00  0.00     0.018 C 
HETATM   19  C26 UNL     1     -13.086   8.824  16.008  1.00  0.00     0.023 C 
HETATM   20  C27 UNL     1     -13.403   8.201  13.650  1.00  0.00     0.023 C 
HETATM   21  C28 UNL     1     -11.070   7.759  14.721  1.00  0.00     0.016 C 
HETATM   22  C29 UNL     1     -10.702   7.258  13.312  1.00  0.00     0.043 C 
HETATM   23  C30 UNL     1      -9.590   6.215  13.299  1.00  0.00     0.148 C 
ENDROOT
BRANCH   1  24
HETATM   24  C7  UNL     1      -3.241   5.957  13.870  1.00  0.00    -0.011 C 
HETATM   25  C8  UNL     1      -3.156   7.144  12.908  1.00  0.00     0.010 C 
BRANCH  24  26
HETATM   26  C6  UNL     1      -2.575   6.291  15.243  1.00  0.00     0.040 C 
BRANCH  26  27
HETATM   27  C5  UNL     1      -1.855   7.649  15.319  1.00  0.00     0.141 C 
BRANCH  27  28
HETATM   28  C4  UNL     1      -2.810   8.798  15.108  1.00  0.00     0.006 C 
HETATM   29  C2  UNL     1      -3.195   9.704  16.033  1.00  0.00    -0.089 C 
HETATM   30  C1  UNL     1      -2.703   9.729  17.456  1.00  0.00     0.042 C 
HETATM   31  C3  UNL     1      -4.168  10.800  15.688  1.00  0.00     0.042 C 
ENDBRANCH  27  28
BRANCH  27  32
HETATM   32  O1  UNL     1      -0.864   7.712  14.299  1.00  0.00    -0.392 OA
HETATM   33  H9  UNL     1      -1.257   8.159  13.531  1.00  0.00     0.210 HD
ENDBRANCH  27  32
ENDBRANCH  26  27
ENDBRANCH  24  26
ENDBRANCH   1  24
BRANCH  23  34
HETATM   34  O3  UNL     1      -9.186   6.091  11.941  1.00  0.00    -0.391 OA
HETATM   35  H48 UNL     1      -9.972   5.866  11.419  1.00  0.00     0.210 HD
ENDBRANCH  23  34
TORSDOF 6
ENDMDL
MODEL 7
REMARK minimizedAffinity -7.53724337
REMARK CNNscore 0.531654418
REMARK CNNaffinity 6.4885087
REMARK  6 active torsions:
REMARK  status: ('A' for Active; 'I' for Inactive)
REMARK    1  A    between atoms: C4_4  and  C5_5 
REMARK    2  A    between atoms: C5_5  and  O1_6 
REMARK    3  A    between atoms: C5_5  and  C6_7 
REMARK    4  A    between atoms: C6_7  and  C7_8 
REMARK    5  A    between atoms: C7_8  and  C9_10 
REMARK    6  A    between atoms: C30_32  and  O3_33 
ROOT
HETATM    1  C9  UNL     1      -3.707   9.446  14.908  1.00  0.00    -0.002 C 
HETATM    2  C10 UNL     1      -2.709   9.194  13.743  1.00  0.00     0.007 C 
HETATM    3  C11 UNL     1      -1.333   9.707  14.191  1.00  0.00     0.015 C 
HETATM    4  C12 UNL     1      -1.615  10.617  15.401  1.00  0.00    -0.010 C 
HETATM    5  C13 UNL     1      -2.070  11.995  14.824  1.00  0.00     0.021 C 
HETATM    6  C14 UNL     1      -0.499  10.972  16.398  1.00  0.00    -0.039 C 
HETATM    7  C15 UNL     1      -0.820  11.287  17.682  1.00  0.00    -0.066 C 
HETATM    8  C16 UNL     1      -2.271  11.159  18.182  1.00  0.00     0.036 C 
HETATM    9  C17 UNL     1      -3.349  10.667  17.200  1.00  0.00     0.015 C 
HETATM   10  C18 UNL     1      -2.758   9.782  16.103  1.00  0.00    -0.029 C 
HETATM   11  C19 UNL     1      -2.237   8.460  16.745  1.00  0.00     0.016 C 
HETATM   12  C20 UNL     1       0.229  11.790  18.732  1.00  0.00    -0.015 C 
HETATM   13  C21 UNL     1      -0.397  13.000  19.472  1.00  0.00     0.020 C 
HETATM   14  C22 UNL     1       0.483  10.627  19.726  1.00  0.00     0.021 C 
HETATM   15  C23 UNL     1       1.563  10.914  20.754  1.00  0.00     0.080 C 
HETATM   16  C24 UNL     1       2.860  11.285  20.080  1.00  0.00     0.135 C 
HETATM   17  O2  UNL     1       3.908  10.723  20.402  1.00  0.00    -0.297 OA
HETATM   18  C25 UNL     1       2.826  12.436  19.066  1.00  0.00     0.018 C 
HETATM   19  C26 UNL     1       2.756  13.764  19.853  1.00  0.00     0.023 C 
HETATM   20  C27 UNL     1       4.183  12.478  18.317  1.00  0.00     0.023 C 
HETATM   21  C28 UNL     1       1.602  12.233  18.070  1.00  0.00     0.016 C 
HETATM   22  C29 UNL     1       1.969  11.230  16.960  1.00  0.00     0.043 C 
HETATM   23  C30 UNL     1       0.908  11.095  15.875  1.00  0.00     0.148 C 
ENDROOT
BRANCH   1  24
HETATM   24  C7  UNL     1      -4.765   8.301  15.026  1.00  0.00    -0.011 C 
HETATM   25  C8  UNL     1      -6.193   8.839  15.138  1.00  0.00     0.010 C 
BRANCH  24  26
HETATM   26  C6  UNL     1      -4.620   7.326  13.815  1.00  0.00     0.040 C 
BRANCH  26  27
HETATM   27  C5  UNL     1      -4.686   5.826  14.158  1.00  0.00     0.141 C 
BRANCH  27  28
HETATM   28  C4  UNL     1      -4.157   4.974  13.030  1.00  0.00     0.006 C 
HETATM   29  C2  UNL     1      -4.855   4.066  12.314  1.00  0.00    -0.089 C 
HETATM   30  C1  UNL     1      -6.317   3.765  12.514  1.00  0.00     0.042 C 
HETATM   31  C3  UNL     1      -4.197   3.272  11.217  1.00  0.00     0.042 C 
ENDBRANCH  27  28
BRANCH  27  32
HETATM   32  O1  UNL     1      -6.043   5.457  14.385  1.00  0.00    -0.392 OA
HETATM   33  H9  UNL     1      -6.398   5.105  13.551  1.00  0.00     0.210 HD
ENDBRANCH  27  32
ENDBRANCH  26  27
ENDBRANCH  24  26
ENDBRANCH   1  24
BRANCH  23  34
HETATM   34  O3  UNL     1       1.266   9.944  15.119  1.00  0.00    -0.391 OA
HETATM   35  H48 UNL     1       2.173  10.073  14.799  1.00  0.00     0.210 HD
ENDBRANCH  23  34
TORSDOF 6
ENDMDL
MODEL 8
REMARK minimizedAffinity -7.71741056
REMARK CNNscore 0.504444122
REMARK CNNaffinity 6.29512262
REMARK  6 active torsions:
REMARK  status: ('A' for Active; 'I' for Inactive)
REMARK    1  A    between atoms: C4_4  and  C5_5 
REMARK    2  A    between atoms: C5_5  and  O1_6 
REMARK    3  A    between atoms: C5_5  and  C6_7 
REMARK    4  A    between atoms: C6_7  and  C7_8 
REMARK    5  A    between atoms: C7_8  and  C9_10 
REMARK    6  A    between atoms: C30_32  and  O3_33 
ROOT
HETATM    1  C9  UNL     1       5.747  12.491  23.081  1.00  0.00    -0.002 C 
HETATM    2  C10 UNL     1       5.669  10.939  23.155  1.00  0.00     0.007 C 
HETATM    3  C11 UNL     1       4.410  10.502  22.395  1.00  0.00     0.015 C 
HETATM    4  C12 UNL     1       3.557  11.776  22.256  1.00  0.00    -0.010 C 
HETATM    5  C13 UNL     1       2.811  11.962  23.615  1.00  0.00     0.021 C 
HETATM    6  C14 UNL     1       2.445  11.870  21.197  1.00  0.00    -0.039 C 
HETATM    7  C15 UNL     1       2.080  13.088  20.712  1.00  0.00    -0.066 C 
HETATM    8  C16 UNL     1       2.859  14.356  21.109  1.00  0.00     0.036 C 
HETATM    9  C17 UNL     1       4.057  14.217  22.064  1.00  0.00     0.015 C 
HETATM   10  C18 UNL     1       4.698  12.832  21.974  1.00  0.00    -0.029 C 
HETATM   11  C19 UNL     1       5.348  12.664  20.568  1.00  0.00     0.016 C 
HETATM   12  C20 UNL     1       0.873  13.297  19.735  1.00  0.00    -0.015 C 
HETATM   13  C21 UNL     1       0.067  14.518  20.247  1.00  0.00     0.020 C 
HETATM   14  C22 UNL     1       1.461  13.595  18.330  1.00  0.00     0.021 C 
HETATM   15  C23 UNL     1       0.417  13.719  17.235  1.00  0.00     0.080 C 
HETATM   16  C24 UNL     1      -0.437  12.478  17.165  1.00  0.00     0.135 C 
HETATM   17  O2  UNL     1      -0.619  11.912  16.086  1.00  0.00    -0.297 OA
HETATM   18  C25 UNL     1      -1.130  12.023  18.456  1.00  0.00     0.018 C 
HETATM   19  C26 UNL     1      -2.343  12.947  18.699  1.00  0.00     0.023 C 
HETATM   20  C27 UNL     1      -1.732  10.612  18.224  1.00  0.00     0.023 C 
HETATM   21  C28 UNL     1      -0.083  12.033  19.655  1.00  0.00     0.016 C 
HETATM   22  C29 UNL     1       0.777  10.756  19.632  1.00  0.00     0.043 C 
HETATM   23  C30 UNL     1       1.700  10.613  20.836  1.00  0.00     0.148 C 
ENDROOT
BRANCH   1  24
HETATM   24  C7  UNL     1       7.223  12.994  22.964  1.00  0.00    -0.011 C 
HETATM   25  C8  UNL     1       7.968  12.339  21.799  1.00  0.00     0.010 C 
BRANCH  24  26
HETATM   26  C6  UNL     1       7.240  14.550  22.845  1.00  0.00     0.040 C 
BRANCH  26  27
HETATM   27  C5  UNL     1       8.233  15.277  23.772  1.00  0.00     0.141 C 
BRANCH  27  28
HETATM   28  C4  UNL     1       7.640  16.545  24.337  1.00  0.00     0.006 C 
HETATM   29  C2  UNL     1       7.894  17.077  25.552  1.00  0.00    -0.089 C 
HETATM   30  C1  UNL     1       8.850  16.490  26.556  1.00  0.00     0.042 C 
HETATM   31  C3  UNL     1       7.222  18.349  25.996  1.00  0.00     0.042 C 
ENDBRANCH  27  28
BRANCH  27  32
HETATM   32  O1  UNL     1       9.394  15.631  23.028  1.00  0.00    -0.392 OA
HETATM   33  H9  UNL     1       9.281  16.546  22.719  1.00  0.00     0.210 HD
ENDBRANCH  27  32
ENDBRANCH  26  27
ENDBRANCH  24  26
ENDBRANCH   1  24
BRANCH  23  34
HETATM   34  O3  UNL     1       2.607   9.566  20.511  1.00  0.00    -0.391 OA
HETATM   35  H48 UNL     1       2.083   8.779  20.294  1.00  0.00     0.210 HD
ENDBRANCH  23  34
TORSDOF 6
ENDMDL
MODEL 9
REMARK minimizedAffinity -7.76084805
REMARK CNNscore 0.497742176
REMARK CNNaffinity 5.67030191
REMARK  6 active torsions:
REMARK  status: ('A' for Active; 'I' for Inactive)
REMARK    1  A    between atoms: C4_4  and  C5_5 
REMARK    2  A    between atoms: C5_5  and  O1_6 
REMARK    3  A    between atoms: C5_5  and  C6_7 
REMARK    4  A    between atoms: C6_7  and  C7_8 
REMARK    5  A    between atoms: C7_8  and  C9_10 
REMARK    6  A    between atoms: C30_32  and  O3_33 
ROOT
HETATM    1  C9  UNL     1       5.379   8.493  13.221  1.00  0.00    -0.002 C 
HETATM    2  C10 UNL     1       6.244   7.211  13.392  1.00  0.00     0.007 C 
HETATM    3  C11 UNL     1       7.346   7.528  14.413  1.00  0.00     0.015 C 
HETATM    4  C12 UNL     1       7.383   9.065  14.505  1.00  0.00    -0.010 C 
HETATM    5  C13 UNL     1       8.214   9.564  13.281  1.00  0.00     0.021 C 
HETATM    6  C14 UNL     1       8.026   9.768  15.713  1.00  0.00    -0.039 C 
HETATM    7  C15 UNL     1       7.608  11.013  16.067  1.00  0.00    -0.066 C 
HETATM    8  C16 UNL     1       6.407  11.668  15.360  1.00  0.00     0.036 C 
HETATM    9  C17 UNL     1       5.691  10.885  14.246  1.00  0.00     0.015 C 
HETATM   10  C18 UNL     1       5.835   9.375  14.428  1.00  0.00    -0.029 C 
HETATM   11  C19 UNL     1       5.064   8.943  15.712  1.00  0.00     0.016 C 
HETATM   12  C20 UNL     1       8.291  11.861  17.194  1.00  0.00    -0.015 C 
HETATM   13  C21 UNL     1       8.462  13.303  16.652  1.00  0.00     0.020 C 
HETATM   14  C22 UNL     1       7.338  11.858  18.418  1.00  0.00     0.021 C 
HETATM   15  C23 UNL     1       7.901  12.552  19.645  1.00  0.00     0.080 C 
HETATM   16  C24 UNL     1       9.224  11.948  20.043  1.00  0.00     0.135 C 
HETATM   17  O2  UNL     1       9.422  11.601  21.209  1.00  0.00    -0.297 OA
HETATM   18  C25 UNL     1      10.319  11.875  18.971  1.00  0.00     0.018 C 
HETATM   19  C26 UNL     1      10.919  13.289  18.804  1.00  0.00     0.023 C 
HETATM   20  C27 UNL     1      11.482  11.000  19.508  1.00  0.00     0.023 C 
HETATM   21  C28 UNL     1       9.709  11.290  17.623  1.00  0.00     0.016 C 
HETATM   22  C29 UNL     1       9.631   9.753  17.687  1.00  0.00     0.043 C 
HETATM   23  C30 UNL     1       9.202   9.103  16.378  1.00  0.00     0.148 C 
ENDROOT
BRANCH   1  24
HETATM   24  C7  UNL     1       3.868   8.150  13.009  1.00  0.00    -0.011 C 
HETATM   25  C8  UNL     1       3.028   9.394  12.711  1.00  0.00     0.010 C 
BRANCH  24  26
HETATM   26  C6  UNL     1       3.726   7.085  11.876  1.00  0.00     0.040 C 
BRANCH  26  27
HETATM   27  C5  UNL     1       4.696   7.241  10.691  1.00  0.00     0.141 C 
BRANCH  27  28
HETATM   28  C4  UNL     1       4.056   7.979   9.541  1.00  0.00     0.006 C 
HETATM   29  C2  UNL     1       3.002   7.563   8.807  1.00  0.00    -0.089 C 
HETATM   30  C1  UNL     1       2.260   6.273   9.037  1.00  0.00     0.042 C 
HETATM   31  C3  UNL     1       2.467   8.399   7.674  1.00  0.00     0.042 C 
ENDBRANCH  27  28
BRANCH  27  32
HETATM   32  O1  UNL     1       5.077   5.951  10.224  1.00  0.00    -0.392 OA
HETATM   33  H9  UNL     1       4.489   5.717   9.487  1.00  0.00     0.210 HD
ENDBRANCH  27  32
ENDBRANCH  26  27
ENDBRANCH  24  26
ENDBRANCH   1  24
BRANCH  23  34
HETATM   34  O3  UNL     1       8.901   7.748  16.694  1.00  0.00    -0.391 OA
HETATM   35  H48 UNL     1       9.688   7.363  17.112  1.00  0.00     0.210 HD
ENDBRANCH  23  34
TORSDOF 6
ENDMDL
