MODEL 1
REMARK minimizedAffinity -7.42177486
REMARK CNNscore 0.816873789
REMARK CNNaffinity 7.30668497
REMARK  6 active torsions:
REMARK  status: ('A' for Active; 'I' for Inactive)
REMARK    1  A    between atoms: C2_2  and  C30_31 
REMARK    2  A    between atoms: C3_3  and  C4_4 
REMARK    3  A    between atoms: C4_4  and  C5_5 
REMARK    4  A    between atoms: C5_5  and  C6_6 
REMARK    5  A    between atoms: C6_6  and  C8_8 
REMARK    6  A    between atoms: C30_31  and  O3_33 
ROOT
HETATM    1  C8  UNL     1       4.732  55.485  -8.578  1.00  0.00    -0.002 C 
HETATM    2  C9  UNL     1       3.992  56.770  -8.122  1.00  0.00     0.007 C 
HETATM    3  C10 UNL     1       2.508  56.592  -8.522  1.00  0.00     0.015 C 
HETATM    4  C11 UNL     1       2.486  55.357  -9.452  1.00  0.00    -0.013 C 
HETATM    5  C12 UNL     1       2.846  55.889 -10.879  1.00  0.00     0.021 C 
HETATM    6  C13 UNL     1       1.184  54.584  -9.619  1.00  0.00    -0.070 C 
HETATM    7  C14 UNL     1      -0.021  55.184  -9.573  1.00  0.00    -0.022 C 
HETATM    8  C15 UNL     1      -1.325  54.500  -9.870  1.00  0.00     0.034 C 
HETATM    9  C16 UNL     1      -1.215  52.966 -10.016  1.00  0.00     0.013 C 
HETATM   10  C17 UNL     1      -2.535  52.228 -10.460  1.00  0.00     0.018 C 
HETATM   11  C18 UNL     1      -3.048  51.350  -9.295  1.00  0.00     0.023 C 
HETATM   12  C19 UNL     1      -3.680  53.190 -10.841  1.00  0.00     0.023 C 
HETATM   13  C20 UNL     1      -2.307  51.270 -11.639  1.00  0.00     0.135 C 
HETATM   14  O1  UNL     1      -3.162  51.100 -12.514  1.00  0.00    -0.297 OA
HETATM   15  C21 UNL     1      -1.047  50.437 -11.677  1.00  0.00     0.080 C 
HETATM   16  C22 UNL     1       0.114  51.028 -10.893  1.00  0.00     0.017 C 
HETATM   17  C23 UNL     1       0.086  52.570 -10.803  1.00  0.00    -0.031 C 
HETATM   18  C24 UNL     1       0.127  53.182 -12.227  1.00  0.00     0.016 C 
HETATM   19  C25 UNL     1       1.307  53.088  -9.942  1.00  0.00     0.024 C 
HETATM   20  C26 UNL     1       2.706  52.687 -10.477  1.00  0.00     0.010 C 
HETATM   21  C27 UNL     1       3.920  53.276  -9.717  1.00  0.00     0.011 C 
HETATM   22  C28 UNL     1       3.577  54.453  -8.782  1.00  0.00    -0.029 C 
HETATM   23  C29 UNL     1       3.150  53.871  -7.403  1.00  0.00     0.016 C 
ENDROOT
BRANCH   1  24
HETATM   24  C6  UNL     1       5.985  55.069  -7.749  1.00  0.00    -0.014 C 
HETATM   25  C7  UNL     1       7.071  54.592  -8.734  1.00  0.00     0.010 C 
BRANCH  24  26
HETATM   26  C5  UNL     1       6.572  56.167  -6.826  1.00  0.00     0.008 C 
BRANCH  26  27
HETATM   27  C4  UNL     1       8.015  55.909  -6.360  1.00  0.00     0.028 C 
BRANCH  27  28
HETATM   28  C3  UNL     1       8.234  56.014  -4.876  1.00  0.00    -0.013 C 
HETATM   29  C2  UNL     1       9.178  56.719  -4.218  1.00  0.00     0.008 C 
HETATM   30  C1  UNL     1       9.226  56.737  -2.716  1.00  0.00     0.055 C 
BRANCH  29  31
HETATM   31  C30 UNL     1      10.234  57.480  -4.934  1.00  0.00     0.171 C 
HETATM   32  O2  UNL     1      10.203  58.647  -5.283  1.00  0.00    -0.646 OA
BRANCH  31  33
HETATM   33  O3  UNL     1      11.309  56.716  -5.201  1.00  0.00    -0.773 OA
HETATM   34  H46 UNL     1      11.911  57.334  -5.667  1.00  0.00     0.167 HD
ENDBRANCH  31  33
ENDBRANCH  29  31
ENDBRANCH  27  28
ENDBRANCH  26  27
ENDBRANCH  24  26
ENDBRANCH   1  24
TORSDOF 6
ENDMDL
MODEL 2
REMARK minimizedAffinity -7.50341177
REMARK CNNscore 0.768577218
REMARK CNNaffinity 7.21464586
REMARK  6 active torsions:
REMARK  status: ('A' for Active; 'I' for Inactive)
REMARK    1  A    between atoms: C2_2  and  C30_31 
REMARK    2  A    between atoms: C3_3  and  C4_4 
REMARK    3  A    between atoms: C4_4  and  C5_5 
REMARK    4  A    between atoms: C5_5  and  C6_6 
REMARK    5  A    between atoms: C6_6  and  C8_8 
REMARK    6  A    between atoms: C30_31  and  O3_33 
ROOT
HETATM    1  C8  UNL     1       5.210  55.276  -9.080  1.00  0.00    -0.002 C 
HETATM    2  C9  UNL     1       4.593  56.521  -8.390  1.00  0.00     0.007 C 
HETATM    3  C10 UNL     1       3.059  56.400  -8.550  1.00  0.00     0.015 C 
HETATM    4  C11 UNL     1       2.848  55.260  -9.573  1.00  0.00    -0.013 C 
HETATM    5  C12 UNL     1       2.981  55.922 -10.984  1.00  0.00     0.021 C 
HETATM    6  C13 UNL     1       1.515  54.523  -9.590  1.00  0.00    -0.070 C 
HETATM    7  C14 UNL     1       0.352  55.130  -9.286  1.00  0.00    -0.022 C 
HETATM    8  C15 UNL     1      -1.002  54.493  -9.422  1.00  0.00     0.034 C 
HETATM    9  C16 UNL     1      -0.960  52.979  -9.726  1.00  0.00     0.013 C 
HETATM   10  C17 UNL     1      -2.356  52.303 -10.009  1.00  0.00     0.018 C 
HETATM   11  C18 UNL     1      -2.693  51.324  -8.860  1.00  0.00     0.023 C 
HETATM   12  C19 UNL     1      -3.521  53.311 -10.101  1.00  0.00     0.023 C 
HETATM   13  C20 UNL     1      -2.354  51.459 -11.292  1.00  0.00     0.135 C 
HETATM   14  O1  UNL     1      -3.347  51.385 -12.023  1.00  0.00    -0.297 OA
HETATM   15  C21 UNL     1      -1.142  50.619 -11.617  1.00  0.00     0.080 C 
HETATM   16  C22 UNL     1       0.150  51.118 -10.988  1.00  0.00     0.017 C 
HETATM   17  C23 UNL     1       0.180  52.645 -10.754  1.00  0.00    -0.031 C 
HETATM   18  C24 UNL     1       0.001  53.389 -12.101  1.00  0.00     0.016 C 
HETATM   19  C25 UNL     1       1.541  53.063 -10.066  1.00  0.00     0.024 C 
HETATM   20  C26 UNL     1       2.820  52.698 -10.862  1.00  0.00     0.010 C 
HETATM   21  C27 UNL     1       4.160  53.196 -10.265  1.00  0.00     0.011 C 
HETATM   22  C28 UNL     1       4.009  54.282  -9.181  1.00  0.00    -0.029 C 
HETATM   23  C29 UNL     1       3.801  53.577  -7.810  1.00  0.00     0.016 C 
ENDROOT
BRANCH   1  24
HETATM   24  C6  UNL     1       6.572  54.767  -8.515  1.00  0.00    -0.014 C 
HETATM   25  C7  UNL     1       7.010  55.727  -7.390  1.00  0.00     0.010 C 
BRANCH  24  26
HETATM   26  C5  UNL     1       6.571  53.313  -7.979  1.00  0.00     0.008 C 
BRANCH  26  27
HETATM   27  C4  UNL     1       7.040  52.256  -8.992  1.00  0.00     0.028 C 
BRANCH  27  28
HETATM   28  C3  UNL     1       7.396  50.919  -8.402  1.00  0.00    -0.013 C 
HETATM   29  C2  UNL     1       7.586  49.746  -9.042  1.00  0.00     0.008 C 
HETATM   30  C1  UNL     1       7.977  48.506  -8.288  1.00  0.00     0.055 C 
BRANCH  29  31
HETATM   31  C30 UNL     1       7.385  49.607 -10.507  1.00  0.00     0.171 C 
HETATM   32  O2  UNL     1       6.561  50.175 -11.202  1.00  0.00    -0.646 OA
BRANCH  31  33
HETATM   33  O3  UNL     1       8.244  48.725 -11.051  1.00  0.00    -0.773 OA
HETATM   34  H46 UNL     1       8.001  48.733 -12.000  1.00  0.00     0.167 HD
ENDBRANCH  31  33
ENDBRANCH  29  31
ENDBRANCH  27  28
ENDBRANCH  26  27
ENDBRANCH  24  26
ENDBRANCH   1  24
TORSDOF 6
ENDMDL
MODEL 3
REMARK minimizedAffinity -6.95287848
REMARK CNNscore 0.605019033
REMARK CNNaffinity 6.94936371
REMARK  6 active torsions:
REMARK  status: ('A' for Active; 'I' for Inactive)
REMARK    1  A    between atoms: C2_2  and  C30_31 
REMARK    2  A    between atoms: C3_3  and  C4_4 
REMARK    3  A    between atoms: C4_4  and  C5_5 
REMARK    4  A    between atoms: C5_5  and  C6_6 
REMARK    5  A    between atoms: C6_6  and  C8_8 
REMARK    6  A    between atoms: C30_31  and  O3_33 
ROOT
HETATM    1  C8  UNL     1      -3.300  50.867 -10.958  1.00  0.00    -0.002 C 
HETATM    2  C9  UNL     1      -2.933  51.140 -12.440  1.00  0.00     0.007 C 
HETATM    3  C10 UNL     1      -1.824  52.218 -12.429  1.00  0.00     0.015 C 
HETATM    4  C11 UNL     1      -1.790  52.749 -10.978  1.00  0.00    -0.013 C 
HETATM    5  C12 UNL     1      -2.906  53.842 -10.896  1.00  0.00     0.021 C 
HETATM    6  C13 UNL     1      -0.521  53.420 -10.468  1.00  0.00    -0.070 C 
HETATM    7  C14 UNL     1       0.286  54.139 -11.271  1.00  0.00    -0.022 C 
HETATM    8  C15 UNL     1       1.469  54.936 -10.797  1.00  0.00     0.034 C 
HETATM    9  C16 UNL     1       1.845  54.690  -9.320  1.00  0.00     0.013 C 
HETATM   10  C17 UNL     1       2.994  55.606  -8.748  1.00  0.00     0.018 C 
HETATM   11  C18 UNL     1       4.240  54.740  -8.452  1.00  0.00     0.023 C 
HETATM   12  C19 UNL     1       3.437  56.718  -9.722  1.00  0.00     0.023 C 
HETATM   13  C20 UNL     1       2.614  56.265  -7.413  1.00  0.00     0.135 C 
HETATM   14  O1  UNL     1       2.991  57.405  -7.121  1.00  0.00    -0.297 OA
HETATM   15  C21 UNL     1       1.846  55.463  -6.390  1.00  0.00     0.080 C 
HETATM   16  C22 UNL     1       1.031  54.321  -6.976  1.00  0.00     0.017 C 
HETATM   17  C23 UNL     1       0.558  54.572  -8.425  1.00  0.00    -0.031 C 
HETATM   18  C24 UNL     1      -0.320  55.848  -8.480  1.00  0.00     0.016 C 
HETATM   19  C25 UNL     1      -0.247  53.321  -8.960  1.00  0.00     0.024 C 
HETATM   20  C26 UNL     1      -1.500  52.941  -8.130  1.00  0.00     0.010 C 
HETATM   21  C27 UNL     1      -2.369  51.791  -8.697  1.00  0.00     0.011 C 
HETATM   22  C28 UNL     1      -2.079  51.438 -10.169  1.00  0.00    -0.029 C 
HETATM   23  C29 UNL     1      -0.911  50.410 -10.202  1.00  0.00     0.016 C 
ENDROOT
BRANCH   1  24
HETATM   24  C6  UNL     1      -3.821  49.437 -10.619  1.00  0.00    -0.014 C 
HETATM   25  C7  UNL     1      -2.682  48.667  -9.921  1.00  0.00     0.010 C 
BRANCH  24  26
HETATM   26  C5  UNL     1      -5.096  49.380  -9.739  1.00  0.00     0.008 C 
BRANCH  26  27
HETATM   27  C4  UNL     1      -6.355  49.970 -10.396  1.00  0.00     0.028 C 
BRANCH  27  28
HETATM   28  C3  UNL     1      -7.656  49.569  -9.756  1.00  0.00    -0.013 C 
HETATM   29  C2  UNL     1      -8.590  48.715 -10.224  1.00  0.00     0.008 C 
HETATM   30  C1  UNL     1      -9.825  48.403  -9.425  1.00  0.00     0.055 C 
BRANCH  29  31
HETATM   31  C30 UNL     1      -8.470  48.071 -11.557  1.00  0.00     0.171 C 
HETATM   32  O2  UNL     1      -7.619  47.283 -11.928  1.00  0.00    -0.646 OA
BRANCH  31  33
HETATM   33  O3  UNL     1      -9.445  48.468 -12.396  1.00  0.00    -0.773 OA
HETATM   34  H46 UNL     1      -9.244  47.977 -13.220  1.00  0.00     0.167 HD
ENDBRANCH  31  33
ENDBRANCH  29  31
ENDBRANCH  27  28
ENDBRANCH  26  27
ENDBRANCH  24  26
ENDBRANCH   1  24
TORSDOF 6
ENDMDL
MODEL 4
REMARK minimizedAffinity -7.07667542
REMARK CNNscore 0.560626745
REMARK CNNaffinity 6.76263618
REMARK  6 active torsions:
REMARK  status: ('A' for Active; 'I' for Inactive)
REMARK    1  A    between atoms: C2_2  and  C30_31 
REMARK    2  A    between atoms: C3_3  and  C4_4 
REMARK    3  A    between atoms: C4_4  and  C5_5 
REMARK    4  A    between atoms: C5_5  and  C6_6 
REMARK    5  A    between atoms: C6_6  and  C8_8 
REMARK    6  A    between atoms: C30_31  and  O3_33 
ROOT
HETATM    1  C8  UNL     1      -2.191  52.845 -10.425  1.00  0.00    -0.002 C 
HETATM    2  C9  UNL     1      -2.546  54.353 -10.502  1.00  0.00     0.007 C 
HETATM    3  C10 UNL     1      -1.318  55.124  -9.964  1.00  0.00     0.015 C 
HETATM    4  C11 UNL     1      -0.415  54.048  -9.319  1.00  0.00    -0.013 C 
HETATM    5  C12 UNL     1      -0.965  53.838  -7.870  1.00  0.00     0.021 C 
HETATM    6  C13 UNL     1       1.073  54.335  -9.155  1.00  0.00    -0.070 C 
HETATM    7  C14 UNL     1       1.545  55.574  -8.921  1.00  0.00    -0.022 C 
HETATM    8  C15 UNL     1       2.980  55.895  -8.612  1.00  0.00     0.034 C 
HETATM    9  C16 UNL     1       3.948  54.707  -8.808  1.00  0.00     0.013 C 
HETATM   10  C17 UNL     1       5.439  54.965  -8.365  1.00  0.00     0.018 C 
HETATM   11  C18 UNL     1       6.351  54.971  -9.614  1.00  0.00     0.023 C 
HETATM   12  C19 UNL     1       5.644  56.317  -7.648  1.00  0.00     0.023 C 
HETATM   13  C20 UNL     1       5.984  53.855  -7.453  1.00  0.00     0.135 C 
HETATM   14  O1  UNL     1       6.771  54.098  -6.532  1.00  0.00    -0.297 OA
HETATM   15  C21 UNL     1       5.629  52.418  -7.752  1.00  0.00     0.080 C 
HETATM   16  C22 UNL     1       4.337  52.244  -8.534  1.00  0.00     0.017 C 
HETATM   17  C23 UNL     1       3.305  53.369  -8.292  1.00  0.00    -0.031 C 
HETATM   18  C24 UNL     1       2.934  53.430  -6.789  1.00  0.00     0.016 C 
HETATM   19  C25 UNL     1       2.015  53.123  -9.173  1.00  0.00     0.024 C 
HETATM   20  C26 UNL     1       1.291  51.776  -8.917  1.00  0.00     0.010 C 
HETATM   21  C27 UNL     1      -0.038  51.561  -9.683  1.00  0.00     0.011 C 
HETATM   22  C28 UNL     1      -0.634  52.843 -10.298  1.00  0.00    -0.029 C 
HETATM   23  C29 UNL     1       0.002  53.051 -11.703  1.00  0.00     0.016 C 
ENDROOT
BRANCH   1  24
HETATM   24  C6  UNL     1      -2.869  51.912 -11.475  1.00  0.00    -0.014 C 
HETATM   25  C7  UNL     1      -4.159  51.347 -10.849  1.00  0.00     0.010 C 
BRANCH  24  26
HETATM   26  C5  UNL     1      -3.204  52.572 -12.837  1.00  0.00     0.008 C 
BRANCH  26  27
HETATM   27  C4  UNL     1      -3.316  51.589 -14.015  1.00  0.00     0.028 C 
BRANCH  27  28
HETATM   28  C3  UNL     1      -2.006  51.067 -14.538  1.00  0.00    -0.013 C 
HETATM   29  C2  UNL     1      -1.700  50.682 -15.795  1.00  0.00     0.008 C 
HETATM   30  C1  UNL     1      -0.316  50.217 -16.149  1.00  0.00     0.055 C 
BRANCH  29  31
HETATM   31  C30 UNL     1      -2.715  50.662 -16.880  1.00  0.00     0.171 C 
HETATM   32  O2  UNL     1      -2.830  51.446 -17.805  1.00  0.00    -0.646 OA
BRANCH  31  33
HETATM   33  O3  UNL     1      -3.575  49.636 -16.744  1.00  0.00    -0.773 OA
HETATM   34  H46 UNL     1      -4.176  49.746 -17.510  1.00  0.00     0.167 HD
ENDBRANCH  31  33
ENDBRANCH  29  31
ENDBRANCH  27  28
ENDBRANCH  26  27
ENDBRANCH  24  26
ENDBRANCH   1  24
TORSDOF 6
ENDMDL
MODEL 5
REMARK minimizedAffinity -7.70644426
REMARK CNNscore 0.540113151
REMARK CNNaffinity 6.01824188
REMARK  6 active torsions:
REMARK  status: ('A' for Active; 'I' for Inactive)
REMARK    1  A    between atoms: C2_2  and  C30_31 
REMARK    2  A    between atoms: C3_3  and  C4_4 
REMARK    3  A    between atoms: C4_4  and  C5_5 
REMARK    4  A    between atoms: C5_5  and  C6_6 
REMARK    5  A    between atoms: C6_6  and  C8_8 
REMARK    6  A    between atoms: C30_31  and  O3_33 
ROOT
HETATM    1  C8  UNL     1     -13.448  46.461 -26.487  1.00  0.00    -0.002 C 
HETATM    2  C9  UNL     1     -14.302  46.121 -27.735  1.00  0.00     0.007 C 
HETATM    3  C10 UNL     1     -13.357  46.211 -28.956  1.00  0.00     0.015 C 
HETATM    4  C11 UNL     1     -12.072  46.884 -28.424  1.00  0.00    -0.013 C 
HETATM    5  C12 UNL     1     -12.343  48.424 -28.472  1.00  0.00     0.021 C 
HETATM    6  C13 UNL     1     -10.764  46.675 -29.177  1.00  0.00    -0.070 C 
HETATM    7  C14 UNL     1     -10.719  46.524 -30.514  1.00  0.00    -0.022 C 
HETATM    8  C15 UNL     1      -9.454  46.456 -31.322  1.00  0.00     0.034 C 
HETATM    9  C16 UNL     1      -8.168  46.340 -30.473  1.00  0.00     0.013 C 
HETATM   10  C17 UNL     1      -6.814  46.402 -31.277  1.00  0.00     0.018 C 
HETATM   11  C18 UNL     1      -6.113  45.026 -31.207  1.00  0.00     0.023 C 
HETATM   12  C19 UNL     1      -7.000  46.740 -32.772  1.00  0.00     0.023 C 
HETATM   13  C20 UNL     1      -5.820  47.411 -30.682  1.00  0.00     0.135 C 
HETATM   14  O1  UNL     1      -5.060  48.074 -31.396  1.00  0.00    -0.297 OA
HETATM   15  C21 UNL     1      -5.695  47.521 -29.181  1.00  0.00     0.080 C 
HETATM   16  C22 UNL     1      -6.933  47.076 -28.417  1.00  0.00     0.017 C 
HETATM   17  C23 UNL     1      -8.250  47.262 -29.203  1.00  0.00    -0.031 C 
HETATM   18  C24 UNL     1      -8.440  48.757 -29.567  1.00  0.00     0.016 C 
HETATM   19  C25 UNL     1      -9.473  46.740 -28.347  1.00  0.00     0.024 C 
HETATM   20  C26 UNL     1      -9.659  47.434 -26.973  1.00  0.00     0.010 C 
HETATM   21  C27 UNL     1     -10.914  47.020 -26.165  1.00  0.00     0.011 C 
HETATM   22  C28 UNL     1     -11.980  46.267 -26.986  1.00  0.00    -0.029 C 
HETATM   23  C29 UNL     1     -11.623  44.752 -26.974  1.00  0.00     0.016 C 
ENDROOT
BRANCH   1  24
HETATM   24  C6  UNL     1     -13.884  45.807 -25.140  1.00  0.00    -0.014 C 
HETATM   25  C7  UNL     1     -13.453  46.743 -23.993  1.00  0.00     0.010 C 
BRANCH  24  26
HETATM   26  C5  UNL     1     -15.397  45.494 -25.008  1.00  0.00     0.008 C 
BRANCH  26  27
HETATM   27  C4  UNL     1     -16.243  46.648 -24.444  1.00  0.00     0.028 C 
BRANCH  27  28
HETATM   28  C3  UNL     1     -17.060  46.304 -23.229  1.00  0.00    -0.013 C 
HETATM   29  C2  UNL     1     -18.399  46.161 -23.134  1.00  0.00     0.008 C 
HETATM   30  C1  UNL     1     -19.048  45.777 -21.834  1.00  0.00     0.055 C 
BRANCH  29  31
HETATM   31  C30 UNL     1     -19.301  46.411 -24.288  1.00  0.00     0.171 C 
HETATM   32  O2  UNL     1     -20.079  45.629 -24.806  1.00  0.00    -0.646 OA
BRANCH  31  33
HETATM   33  O3  UNL     1     -19.172  47.662 -24.765  1.00  0.00    -0.773 OA
HETATM   34  H46 UNL     1     -19.810  47.685 -25.508  1.00  0.00     0.167 HD
ENDBRANCH  31  33
ENDBRANCH  29  31
ENDBRANCH  27  28
ENDBRANCH  26  27
ENDBRANCH  24  26
ENDBRANCH   1  24
TORSDOF 6
ENDMDL
MODEL 6
REMARK minimizedAffinity -7.12837124
REMARK CNNscore 0.432580441
REMARK CNNaffinity 6.42596245
REMARK  6 active torsions:
REMARK  status: ('A' for Active; 'I' for Inactive)
REMARK    1  A    between atoms: C2_2  and  C30_31 
REMARK    2  A    between atoms: C3_3  and  C4_4 
REMARK    3  A    between atoms: C4_4  and  C5_5 
REMARK    4  A    between atoms: C5_5  and  C6_6 
REMARK    5  A    between atoms: C6_6  and  C8_8 
REMARK    6  A    between atoms: C30_31  and  O3_33 
ROOT
HETATM    1  C8  UNL     1       1.460  55.471  -9.131  1.00  0.00    -0.002 C 
HETATM    2  C9  UNL     1       2.303  55.112 -10.382  1.00  0.00     0.007 C 
HETATM    3  C10 UNL     1       3.788  55.228  -9.963  1.00  0.00     0.015 C 
HETATM    4  C11 UNL     1       3.765  55.932  -8.587  1.00  0.00    -0.013 C 
HETATM    5  C12 UNL     1       3.691  57.465  -8.891  1.00  0.00     0.021 C 
HETATM    6  C13 UNL     1       4.954  55.757  -7.650  1.00  0.00    -0.070 C 
HETATM    7  C14 UNL     1       6.213  55.609  -8.104  1.00  0.00    -0.022 C 
HETATM    8  C15 UNL     1       7.435  55.574  -7.230  1.00  0.00     0.034 C 
HETATM    9  C16 UNL     1       7.128  55.489  -5.718  1.00  0.00     0.013 C 
HETATM   10  C17 UNL     1       8.378  55.586  -4.763  1.00  0.00     0.018 C 
HETATM   11  C18 UNL     1       8.589  54.227  -4.056  1.00  0.00     0.023 C 
HETATM   12  C19 UNL     1       9.692  55.922  -5.501  1.00  0.00     0.023 C 
HETATM   13  C20 UNL     1       8.185  56.617  -3.641  1.00  0.00     0.135 C 
HETATM   14  O1  UNL     1       9.123  57.300  -3.218  1.00  0.00    -0.297 OA
HETATM   15  C21 UNL     1       6.837  56.727  -2.968  1.00  0.00     0.080 C 
HETATM   16  C22 UNL     1       5.673  56.250  -3.822  1.00  0.00     0.017 C 
HETATM   17  C23 UNL     1       5.908  56.406  -5.341  1.00  0.00    -0.031 C 
HETATM   18  C24 UNL     1       6.159  57.896  -5.686  1.00  0.00     0.016 C 
HETATM   19  C25 UNL     1       4.664  55.851  -6.145  1.00  0.00     0.024 C 
HETATM   20  C26 UNL     1       3.313  56.538  -5.820  1.00  0.00     0.010 C 
HETATM   21  C27 UNL     1       2.100  56.092  -6.674  1.00  0.00     0.011 C 
HETATM   22  C28 UNL     1       2.472  55.314  -7.952  1.00  0.00    -0.029 C 
HETATM   23  C29 UNL     1       2.611  53.808  -7.583  1.00  0.00     0.016 C 
ENDROOT
BRANCH   1  24
HETATM   24  C6  UNL     1       0.055  54.803  -9.020  1.00  0.00    -0.014 C 
HETATM   25  C7  UNL     1      -1.005  55.857  -9.401  1.00  0.00     0.010 C 
BRANCH  24  26
HETATM   26  C5  UNL     1      -0.151  53.531  -9.881  1.00  0.00     0.008 C 
BRANCH  26  27
HETATM   27  C4  UNL     1      -1.321  53.613 -10.876  1.00  0.00     0.028 C 
BRANCH  27  28
HETATM   28  C3  UNL     1      -2.507  52.752 -10.539  1.00  0.00    -0.013 C 
HETATM   29  C2  UNL     1      -3.463  52.282 -11.368  1.00  0.00     0.008 C 
HETATM   30  C1  UNL     1      -4.565  51.396 -10.859  1.00  0.00     0.055 C 
BRANCH  29  31
HETATM   31  C30 UNL     1      -3.499  52.640 -12.810  1.00  0.00     0.171 C 
HETATM   32  O2  UNL     1      -2.941  52.071 -13.731  1.00  0.00    -0.646 OA
BRANCH  31  33
HETATM   33  O3  UNL     1      -4.245  53.737 -13.036  1.00  0.00    -0.773 OA
HETATM   34  H46 UNL     1      -4.179  53.855 -14.006  1.00  0.00     0.167 HD
ENDBRANCH  31  33
ENDBRANCH  29  31
ENDBRANCH  27  28
ENDBRANCH  26  27
ENDBRANCH  24  26
ENDBRANCH   1  24
TORSDOF 6
ENDMDL
MODEL 7
REMARK minimizedAffinity -7.242908
REMARK CNNscore 0.307197332
REMARK CNNaffinity 6.67485285
REMARK  6 active torsions:
REMARK  status: ('A' for Active; 'I' for Inactive)
REMARK    1  A    between atoms: C2_2  and  C30_31 
REMARK    2  A    between atoms: C3_3  and  C4_4 
REMARK    3  A    between atoms: C4_4  and  C5_5 
REMARK    4  A    between atoms: C5_5  and  C6_6 
REMARK    5  A    between atoms: C6_6  and  C8_8 
REMARK    6  A    between atoms: C30_31  and  O3_33 
ROOT
HETATM    1  C8  UNL     1      -2.206  51.889 -10.828  1.00  0.00    -0.002 C 
HETATM    2  C9  UNL     1      -2.856  51.512  -9.471  1.00  0.00     0.007 C 
HETATM    3  C10 UNL     1      -1.971  52.139  -8.368  1.00  0.00     0.015 C 
HETATM    4  C11 UNL     1      -0.686  52.601  -9.094  1.00  0.00    -0.013 C 
HETATM    5  C12 UNL     1       0.238  51.341  -9.172  1.00  0.00     0.021 C 
HETATM    6  C13 UNL     1       0.165  53.695  -8.462  1.00  0.00    -0.070 C 
HETATM    7  C14 UNL     1       0.278  53.838  -7.128  1.00  0.00    -0.022 C 
HETATM    8  C15 UNL     1       1.209  54.805  -6.451  1.00  0.00     0.034 C 
HETATM    9  C16 UNL     1       1.883  55.809  -7.411  1.00  0.00     0.013 C 
HETATM   10  C17 UNL     1       2.967  56.750  -6.759  1.00  0.00     0.018 C 
HETATM   11  C18 UNL     1       2.450  58.207  -6.763  1.00  0.00     0.023 C 
HETATM   12  C19 UNL     1       3.295  56.390  -5.295  1.00  0.00     0.023 C 
HETATM   13  C20 UNL     1       4.284  56.769  -7.551  1.00  0.00     0.135 C 
HETATM   14  O1  UNL     1       5.380  56.864  -6.988  1.00  0.00    -0.297 OA
HETATM   15  C21 UNL     1       4.234  56.776  -9.060  1.00  0.00     0.080 C 
HETATM   16  C22 UNL     1       2.960  56.185  -9.645  1.00  0.00     0.017 C 
HETATM   17  C23 UNL     1       2.306  55.107  -8.751  1.00  0.00    -0.031 C 
HETATM   18  C24 UNL     1       3.299  53.939  -8.521  1.00  0.00     0.016 C 
HETATM   19  C25 UNL     1       0.974  54.579  -9.421  1.00  0.00     0.024 C 
HETATM   20  C26 UNL     1       1.148  53.959 -10.831  1.00  0.00     0.010 C 
HETATM   21  C27 UNL     1      -0.121  53.333 -11.461  1.00  0.00     0.011 C 
HETATM   22  C28 UNL     1      -1.271  53.087 -10.465  1.00  0.00    -0.029 C 
HETATM   23  C29 UNL     1      -2.114  54.391 -10.362  1.00  0.00     0.016 C 
ENDROOT
BRANCH   1  24
HETATM   24  C6  UNL     1      -3.165  52.018 -12.051  1.00  0.00    -0.014 C 
HETATM   25  C7  UNL     1      -4.012  53.293 -11.860  1.00  0.00     0.010 C 
BRANCH  24  26
HETATM   26  C5  UNL     1      -2.478  52.059 -13.439  1.00  0.00     0.008 C 
BRANCH  26  27
HETATM   27  C4  UNL     1      -1.525  50.885 -13.719  1.00  0.00     0.028 C 
BRANCH  27  28
HETATM   28  C3  UNL     1      -1.165  50.685 -15.165  1.00  0.00    -0.013 C 
HETATM   29  C2  UNL     1       0.010  50.938 -15.777  1.00  0.00     0.008 C 
HETATM   30  C1  UNL     1       0.204  50.640 -17.238  1.00  0.00     0.055 C 
BRANCH  29  31
HETATM   31  C30 UNL     1       1.155  51.554 -15.058  1.00  0.00     0.171 C 
HETATM   32  O2  UNL     1       2.116  50.988 -14.567  1.00  0.00    -0.646 OA
BRANCH  31  33
HETATM   33  O3  UNL     1       1.034  52.891 -14.972  1.00  0.00    -0.773 OA
HETATM   34  H46 UNL     1       1.840  53.158 -14.483  1.00  0.00     0.167 HD
ENDBRANCH  31  33
ENDBRANCH  29  31
ENDBRANCH  27  28
ENDBRANCH  26  27
ENDBRANCH  24  26
ENDBRANCH   1  24
TORSDOF 6
ENDMDL
MODEL 8
REMARK minimizedAffinity -7.39490557
REMARK CNNscore 0.297821224
REMARK CNNaffinity 5.77198553
REMARK  6 active torsions:
REMARK  status: ('A' for Active; 'I' for Inactive)
REMARK    1  A    between atoms: C2_2  and  C30_31 
REMARK    2  A    between atoms: C3_3  and  C4_4 
REMARK    3  A    between atoms: C4_4  and  C5_5 
REMARK    4  A    between atoms: C5_5  and  C6_6 
REMARK    5  A    between atoms: C6_6  and  C8_8 
REMARK    6  A    between atoms: C30_31  and  O3_33 
ROOT
HETATM    1  C8  UNL     1      -8.318  46.471 -31.160  1.00  0.00    -0.002 C 
HETATM    2  C9  UNL     1      -6.941  47.010 -30.692  1.00  0.00     0.007 C 
HETATM    3  C10 UNL     1      -5.891  45.948 -31.093  1.00  0.00     0.015 C 
HETATM    4  C11 UNL     1      -6.711  44.705 -31.507  1.00  0.00    -0.013 C 
HETATM    5  C12 UNL     1      -7.032  43.942 -30.179  1.00  0.00     0.021 C 
HETATM    6  C13 UNL     1      -6.071  43.673 -32.428  1.00  0.00    -0.070 C 
HETATM    7  C14 UNL     1      -4.752  43.403 -32.400  1.00  0.00    -0.022 C 
HETATM    8  C15 UNL     1      -4.092  42.302 -33.181  1.00  0.00     0.034 C 
HETATM    9  C16 UNL     1      -5.013  41.626 -34.221  1.00  0.00     0.013 C 
HETATM   10  C17 UNL     1      -4.398  40.379 -34.964  1.00  0.00     0.018 C 
HETATM   11  C18 UNL     1      -4.185  40.726 -36.456  1.00  0.00     0.023 C 
HETATM   12  C19 UNL     1      -3.030  39.939 -34.402  1.00  0.00     0.023 C 
HETATM   13  C20 UNL     1      -5.334  39.160 -34.946  1.00  0.00     0.135 C 
HETATM   14  O1  UNL     1      -4.899  38.007 -34.863  1.00  0.00    -0.297 OA
HETATM   15  C21 UNL     1      -6.817  39.371 -35.136  1.00  0.00     0.080 C 
HETATM   16  C22 UNL     1      -7.306  40.758 -34.749  1.00  0.00     0.017 C 
HETATM   17  C23 UNL     1      -6.461  41.430 -33.643  1.00  0.00    -0.031 C 
HETATM   18  C24 UNL     1      -6.476  40.556 -32.363  1.00  0.00     0.016 C 
HETATM   19  C25 UNL     1      -7.020  42.876 -33.334  1.00  0.00     0.024 C 
HETATM   20  C26 UNL     1      -8.499  42.925 -32.872  1.00  0.00     0.010 C 
HETATM   21  C27 UNL     1      -9.037  44.316 -32.454  1.00  0.00     0.011 C 
HETATM   22  C28 UNL     1      -7.943  45.374 -32.207  1.00  0.00    -0.029 C 
HETATM   23  C29 UNL     1      -7.602  46.049 -33.568  1.00  0.00     0.016 C 
ENDROOT
BRANCH   1  24
HETATM   24  C6  UNL     1      -9.397  47.535 -31.529  1.00  0.00    -0.014 C 
HETATM   25  C7  UNL     1     -10.727  46.797 -31.784  1.00  0.00     0.010 C 
BRANCH  24  26
HETATM   26  C5  UNL     1      -9.622  48.651 -30.477  1.00  0.00     0.008 C 
BRANCH  26  27
HETATM   27  C4  UNL     1     -10.036  48.147 -29.085  1.00  0.00     0.028 C 
BRANCH  27  28
HETATM   28  C3  UNL     1      -8.896  47.830 -28.156  1.00  0.00    -0.013 C 
HETATM   29  C2  UNL     1      -8.806  48.067 -26.831  1.00  0.00     0.008 C 
HETATM   30  C1  UNL     1      -7.594  47.646 -26.048  1.00  0.00     0.055 C 
BRANCH  29  31
HETATM   31  C30 UNL     1      -9.873  48.784 -26.085  1.00  0.00     0.171 C 
HETATM   32  O2  UNL     1     -10.863  48.306 -25.561  1.00  0.00    -0.646 OA
BRANCH  31  33
HETATM   33  O3  UNL     1      -9.650  50.111 -26.042  1.00  0.00    -0.773 OA
HETATM   34  H46 UNL     1     -10.416  50.449 -25.533  1.00  0.00     0.167 HD
ENDBRANCH  31  33
ENDBRANCH  29  31
ENDBRANCH  27  28
ENDBRANCH  26  27
ENDBRANCH  24  26
ENDBRANCH   1  24
TORSDOF 6
ENDMDL
MODEL 9
REMARK minimizedAffinity -8.1529398
REMARK CNNscore 0.259294003
REMARK CNNaffinity 6.58739853
REMARK  6 active torsions:
REMARK  status: ('A' for Active; 'I' for Inactive)
REMARK    1  A    between atoms: C2_2  and  C30_31 
REMARK    2  A    between atoms: C3_3  and  C4_4 
REMARK    3  A    between atoms: C4_4  and  C5_5 
REMARK    4  A    between atoms: C5_5  and  C6_6 
REMARK    5  A    between atoms: C6_6  and  C8_8 
REMARK    6  A    between atoms: C30_31  and  O3_33 
ROOT
HETATM    1  C8  UNL     1      -3.855  48.112 -20.167  1.00  0.00    -0.002 C 
HETATM    2  C9  UNL     1      -4.512  47.181 -21.219  1.00  0.00     0.007 C 
HETATM    3  C10 UNL     1      -4.113  47.731 -22.608  1.00  0.00     0.015 C 
HETATM    4  C11 UNL     1      -3.492  49.119 -22.330  1.00  0.00    -0.013 C 
HETATM    5  C12 UNL     1      -4.694  50.116 -22.239  1.00  0.00     0.021 C 
HETATM    6  C13 UNL     1      -2.539  49.719 -23.356  1.00  0.00    -0.070 C 
HETATM    7  C14 UNL     1      -2.672  49.498 -24.678  1.00  0.00    -0.022 C 
HETATM    8  C15 UNL     1      -1.852  50.174 -25.741  1.00  0.00     0.034 C 
HETATM    9  C16 UNL     1      -0.661  50.991 -25.195  1.00  0.00     0.013 C 
HETATM   10  C17 UNL     1       0.142  51.823 -26.268  1.00  0.00     0.018 C 
HETATM   11  C18 UNL     1       1.561  51.228 -26.420  1.00  0.00     0.023 C 
HETATM   12  C19 UNL     1      -0.508  51.812 -27.668  1.00  0.00     0.023 C 
HETATM   13  C20 UNL     1       0.344  53.287 -25.848  1.00  0.00     0.135 C 
HETATM   14  O1  UNL     1       0.337  54.206 -26.674  1.00  0.00    -0.297 OA
HETATM   15  C21 UNL     1       0.660  53.602 -24.406  1.00  0.00     0.080 C 
HETATM   16  C22 UNL     1       0.183  52.548 -23.418  1.00  0.00     0.017 C 
HETATM   17  C23 UNL     1      -1.066  51.770 -23.891  1.00  0.00    -0.031 C 
HETATM   18  C24 UNL     1      -2.241  52.753 -24.129  1.00  0.00     0.016 C 
HETATM   19  C25 UNL     1      -1.464  50.676 -22.821  1.00  0.00     0.024 C 
HETATM   20  C26 UNL     1      -1.777  51.225 -21.405  1.00  0.00     0.010 C 
HETATM   21  C27 UNL     1      -2.280  50.189 -20.369  1.00  0.00     0.011 C 
HETATM   22  C28 UNL     1      -2.743  48.851 -20.979  1.00  0.00    -0.029 C 
HETATM   23  C29 UNL     1      -1.501  47.925 -21.123  1.00  0.00     0.016 C 
ENDROOT
BRANCH   1  24
HETATM   24  C6  UNL     1      -3.491  47.469 -18.794  1.00  0.00    -0.014 C 
HETATM   25  C7  UNL     1      -4.175  48.294 -17.685  1.00  0.00     0.010 C 
BRANCH  24  26
HETATM   26  C5  UNL     1      -3.871  45.975 -18.633  1.00  0.00     0.008 C 
BRANCH  26  27
HETATM   27  C4  UNL     1      -5.137  45.722 -17.799  1.00  0.00     0.028 C 
BRANCH  27  28
HETATM   28  C3  UNL     1      -5.062  44.545 -16.865  1.00  0.00    -0.013 C 
HETATM   29  C2  UNL     1      -5.357  43.253 -17.121  1.00  0.00     0.008 C 
HETATM   30  C1  UNL     1      -5.187  42.195 -16.068  1.00  0.00     0.055 C 
BRANCH  29  31
HETATM   31  C30 UNL     1      -5.897  42.815 -18.435  1.00  0.00     0.171 C 
HETATM   32  O2  UNL     1      -5.278  42.621 -19.466  1.00  0.00    -0.646 OA
BRANCH  31  33
HETATM   33  O3  UNL     1      -7.232  42.649 -18.399  1.00  0.00    -0.773 OA
HETATM   34  H46 UNL     1      -7.447  42.368 -19.312  1.00  0.00     0.167 HD
ENDBRANCH  31  33
ENDBRANCH  29  31
ENDBRANCH  27  28
ENDBRANCH  26  27
ENDBRANCH  24  26
ENDBRANCH   1  24
TORSDOF 6
ENDMDL
