MODEL 1
REMARK minimizedAffinity -8.26688766
REMARK CNNscore 0.564362586
REMARK CNNaffinity 6.88449621
REMARK  4 active torsions:
REMARK  status: ('A' for Active; 'I' for Inactive)
REMARK    1  A    between atoms: C4_4  and  O1_5 
REMARK    2  A    between atoms: C4_4  and  C5_6 
REMARK    3  A    between atoms: C5_6  and  C6_7 
REMARK    4  A    between atoms: C6_7  and  C8_9 
ROOT
HETATM    1  C8  UNL     1      -3.625   3.161  12.221  1.00  0.00    -0.001 C 
HETATM    2  C9  UNL     1      -2.900   1.872  11.751  1.00  0.00     0.007 C 
HETATM    3  C10 UNL     1      -1.431   2.276  11.472  1.00  0.00     0.015 C 
HETATM    4  C11 UNL     1      -1.292   3.717  12.026  1.00  0.00    -0.013 C 
HETATM    5  C12 UNL     1      -0.992   3.578  13.556  1.00  0.00     0.021 C 
HETATM    6  C13 UNL     1      -0.183   4.616  11.479  1.00  0.00    -0.070 C 
HETATM    7  C14 UNL     1       1.034   4.132  11.186  1.00  0.00    -0.022 C 
HETATM    8  C15 UNL     1       2.196   4.967  10.766  1.00  0.00     0.034 C 
HETATM    9  C16 UNL     1       1.862   6.429  10.371  1.00  0.00     0.013 C 
HETATM   10  C17 UNL     1       3.157   7.309  10.211  1.00  0.00     0.018 C 
HETATM   11  C18 UNL     1       3.018   8.207   8.955  1.00  0.00     0.023 C 
HETATM   12  C19 UNL     1       4.465   6.505  10.015  1.00  0.00     0.023 C 
HETATM   13  C20 UNL     1       3.370   8.203  11.440  1.00  0.00     0.135 C 
HETATM   14  O2  UNL     1       4.042   9.239  11.374  1.00  0.00    -0.297 OA
HETATM   15  C21 UNL     1       2.830   7.749  12.780  1.00  0.00     0.080 C 
HETATM   16  C22 UNL     1       1.410   7.180  12.754  1.00  0.00     0.017 C 
HETATM   17  C23 UNL     1       0.783   7.044  11.347  1.00  0.00    -0.031 C 
HETATM   18  C24 UNL     1       0.325   8.452  10.871  1.00  0.00     0.016 C 
HETATM   19  C25 UNL     1      -0.500   6.110  11.346  1.00  0.00     0.024 C 
HETATM   20  C26 UNL     1      -1.626   6.550  12.322  1.00  0.00     0.010 C 
HETATM   21  C27 UNL     1      -2.897   5.666  12.326  1.00  0.00     0.011 C 
HETATM   22  C28 UNL     1      -2.711   4.293  11.659  1.00  0.00    -0.029 C 
HETATM   23  C29 UNL     1      -2.891   4.428  10.109  1.00  0.00     0.016 C 
ENDROOT
BRANCH   1  24
HETATM   24  C6  UNL     1      -5.179   3.180  12.084  1.00  0.00    -0.008 C 
HETATM   25  C7  UNL     1      -5.542   2.854  10.622  1.00  0.00     0.010 C 
BRANCH  24  26
HETATM   26  C5  UNL     1      -5.897   4.453  12.581  1.00  0.00     0.078 C 
BRANCH  26  27
HETATM   27  C4  UNL     1      -7.270   4.266  13.265  1.00  0.00     0.191 A 
HETATM   28  C3  UNL     1      -7.316   4.951  14.579  1.00  0.00     0.054 A 
HETATM   29  C2  UNL     1      -8.267   5.882  14.604  1.00  0.00     0.015 A 
HETATM   30  C1  UNL     1      -8.673   6.816  15.674  1.00  0.00     0.054 C 
HETATM   31  C30 UNL     1      -8.913   5.837  13.289  1.00  0.00     0.291 A 
HETATM   32  O3  UNL     1      -8.311   4.887  12.524  1.00  0.00    -0.276 OA
HETATM   33  O4  UNL     1      -9.835   6.548  12.929  1.00  0.00    -0.260 OA
BRANCH  27  34
HETATM   34  O1  UNL     1      -7.565   2.905  13.501  1.00  0.00    -0.362 OA
HETATM   35  H5  UNL     1      -7.666   2.496  12.626  1.00  0.00     0.213 HD
ENDBRANCH  27  34
ENDBRANCH  26  27
ENDBRANCH  24  26
ENDBRANCH   1  24
TORSDOF 4
ENDMDL
MODEL 2
REMARK minimizedAffinity -9.69826508
REMARK CNNscore 0.531225383
REMARK CNNaffinity 7.48677969
REMARK  4 active torsions:
REMARK  status: ('A' for Active; 'I' for Inactive)
REMARK    1  A    between atoms: C4_4  and  O1_5 
REMARK    2  A    between atoms: C4_4  and  C5_6 
REMARK    3  A    between atoms: C5_6  and  C6_7 
REMARK    4  A    between atoms: C6_7  and  C8_9 
ROOT
HETATM    1  C8  UNL     1      -5.125   5.264  14.166  1.00  0.00    -0.001 C 
HETATM    2  C9  UNL     1      -4.699   5.991  15.469  1.00  0.00     0.007 C 
HETATM    3  C10 UNL     1      -5.960   6.726  15.989  1.00  0.00     0.015 C 
HETATM    4  C11 UNL     1      -7.127   6.200  15.117  1.00  0.00    -0.013 C 
HETATM    5  C12 UNL     1      -7.605   4.861  15.771  1.00  0.00     0.021 C 
HETATM    6  C13 UNL     1      -8.390   7.052  14.978  1.00  0.00    -0.070 C 
HETATM    7  C14 UNL     1      -8.885   7.747  16.014  1.00  0.00    -0.022 C 
HETATM    8  C15 UNL     1     -10.173   8.499  15.987  1.00  0.00     0.034 C 
HETATM    9  C16 UNL     1     -10.795   8.711  14.583  1.00  0.00     0.013 C 
HETATM   10  C17 UNL     1     -12.268   9.260  14.665  1.00  0.00     0.018 C 
HETATM   11  C18 UNL     1     -12.466  10.368  13.600  1.00  0.00     0.023 C 
HETATM   12  C19 UNL     1     -12.643   9.904  16.022  1.00  0.00     0.023 C 
HETATM   13  C20 UNL     1     -13.288   8.140  14.413  1.00  0.00     0.135 C 
HETATM   14  O2  UNL     1     -14.433   8.390  14.023  1.00  0.00    -0.297 OA
HETATM   15  C21 UNL     1     -12.909   6.714  14.751  1.00  0.00     0.080 C 
HETATM   16  C22 UNL     1     -11.506   6.289  14.313  1.00  0.00     0.017 C 
HETATM   17  C23 UNL     1     -10.641   7.413  13.696  1.00  0.00    -0.031 C 
HETATM   18  C24 UNL     1     -11.120   7.663  12.237  1.00  0.00     0.016 C 
HETATM   19  C25 UNL     1      -9.105   7.022  13.623  1.00  0.00     0.024 C 
HETATM   20  C26 UNL     1      -8.803   5.714  12.840  1.00  0.00     0.010 C 
HETATM   21  C27 UNL     1      -7.309   5.320  12.737  1.00  0.00     0.011 C 
HETATM   22  C28 UNL     1      -6.395   6.058  13.730  1.00  0.00    -0.029 C 
HETATM   23  C29 UNL     1      -5.997   7.455  13.146  1.00  0.00     0.016 C 
ENDROOT
BRANCH   1  24
HETATM   24  C6  UNL     1      -3.984   4.880  13.174  1.00  0.00    -0.008 C 
HETATM   25  C7  UNL     1      -3.357   6.176  12.627  1.00  0.00     0.010 C 
BRANCH  24  26
HETATM   26  C5  UNL     1      -4.360   3.903  12.039  1.00  0.00     0.078 C 
BRANCH  26  27
HETATM   27  C4  UNL     1      -3.276   3.603  10.978  1.00  0.00     0.191 A 
HETATM   28  C3  UNL     1      -2.130   4.535  11.102  1.00  0.00     0.054 A 
HETATM   29  C2  UNL     1      -1.001   3.876  11.357  1.00  0.00     0.015 A 
HETATM   30  C1  UNL     1       0.374   4.371  11.572  1.00  0.00     0.054 C 
HETATM   31  C30 UNL     1      -1.360   2.456  11.397  1.00  0.00     0.291 A 
HETATM   32  O3  UNL     1      -2.694   2.323  11.175  1.00  0.00    -0.276 OA
HETATM   33  O4  UNL     1      -0.587   1.537  11.609  1.00  0.00    -0.260 OA
BRANCH  27  34
HETATM   34  O1  UNL     1      -3.772   3.733   9.662  1.00  0.00    -0.362 OA
HETATM   35  H5  UNL     1      -4.429   3.027   9.551  1.00  0.00     0.213 HD
ENDBRANCH  27  34
ENDBRANCH  26  27
ENDBRANCH  24  26
ENDBRANCH   1  24
TORSDOF 4
ENDMDL
MODEL 3
REMARK minimizedAffinity -10.3983936
REMARK CNNscore 0.530103922
REMARK CNNaffinity 7.18449593
REMARK  4 active torsions:
REMARK  status: ('A' for Active; 'I' for Inactive)
REMARK    1  A    between atoms: C4_4  and  O1_5 
REMARK    2  A    between atoms: C4_4  and  C5_6 
REMARK    3  A    between atoms: C5_6  and  C6_7 
REMARK    4  A    between atoms: C6_7  and  C8_9 
ROOT
HETATM    1  C8  UNL     1      -4.029   7.019  14.849  1.00  0.00    -0.001 C 
HETATM    2  C9  UNL     1      -3.545   5.707  15.521  1.00  0.00     0.007 C 
HETATM    3  C10 UNL     1      -2.130   5.425  14.957  1.00  0.00     0.015 C 
HETATM    4  C11 UNL     1      -1.741   6.704  14.173  1.00  0.00    -0.013 C 
HETATM    5  C12 UNL     1      -1.152   7.706  15.222  1.00  0.00     0.021 C 
HETATM    6  C13 UNL     1      -0.683   6.605  13.073  1.00  0.00    -0.070 C 
HETATM    7  C14 UNL     1       0.396   5.817  13.205  1.00  0.00    -0.022 C 
HETATM    8  C15 UNL     1       1.524   5.763  12.232  1.00  0.00     0.034 C 
HETATM    9  C16 UNL     1       1.262   6.444  10.863  1.00  0.00     0.013 C 
HETATM   10  C17 UNL     1       2.578   6.584  10.011  1.00  0.00     0.018 C 
HETATM   11  C18 UNL     1       2.276   6.224   8.534  1.00  0.00     0.023 C 
HETATM   12  C19 UNL     1       3.734   5.652  10.448  1.00  0.00     0.023 C 
HETATM   13  C20 UNL     1       3.123   8.018  10.072  1.00  0.00     0.135 C 
HETATM   14  O2  UNL     1       3.866   8.461   9.189  1.00  0.00    -0.297 OA
HETATM   15  C21 UNL     1       2.824   8.865  11.290  1.00  0.00     0.080 C 
HETATM   16  C22 UNL     1       1.379   8.804  11.791  1.00  0.00     0.017 C 
HETATM   17  C23 UNL     1       0.469   7.797  11.050  1.00  0.00    -0.031 C 
HETATM   18  C24 UNL     1       0.064   8.410   9.679  1.00  0.00     0.016 C 
HETATM   19  C25 UNL     1      -0.873   7.499  11.843  1.00  0.00     0.024 C 
HETATM   20  C26 UNL     1      -1.728   8.755  12.168  1.00  0.00     0.010 C 
HETATM   21  C27 UNL     1      -3.053   8.489  12.925  1.00  0.00     0.011 C 
HETATM   22  C28 UNL     1      -3.142   7.095  13.568  1.00  0.00    -0.029 C 
HETATM   23  C29 UNL     1      -3.618   6.050  12.504  1.00  0.00     0.016 C 
ENDROOT
BRANCH   1  24
HETATM   24  C6  UNL     1      -5.569   7.267  14.828  1.00  0.00    -0.008 C 
HETATM   25  C7  UNL     1      -5.826   8.760  15.109  1.00  0.00     0.010 C 
BRANCH  24  26
HETATM   26  C5  UNL     1      -6.424   6.359  15.739  1.00  0.00     0.078 C 
BRANCH  26  27
HETATM   27  C4  UNL     1      -7.329   5.316  15.046  1.00  0.00     0.191 A 
HETATM   28  C3  UNL     1      -8.289   5.966  14.121  1.00  0.00     0.054 A 
HETATM   29  C2  UNL     1      -8.113   5.542  12.871  1.00  0.00     0.015 A 
HETATM   30  C1  UNL     1      -8.812   5.910  11.622  1.00  0.00     0.054 C 
HETATM   31  C30 UNL     1      -7.022   4.565  12.923  1.00  0.00     0.291 A 
HETATM   32  O3  UNL     1      -6.579   4.453  14.204  1.00  0.00    -0.276 OA
HETATM   33  O4  UNL     1      -6.570   3.957  11.967  1.00  0.00    -0.260 OA
BRANCH  27  34
HETATM   34  O1  UNL     1      -8.092   4.575  15.974  1.00  0.00    -0.362 OA
HETATM   35  H5  UNL     1      -7.456   4.049  16.486  1.00  0.00     0.213 HD
ENDBRANCH  27  34
ENDBRANCH  26  27
ENDBRANCH  24  26
ENDBRANCH   1  24
TORSDOF 4
ENDMDL
MODEL 4
REMARK minimizedAffinity -7.87801886
REMARK CNNscore 0.479963213
REMARK CNNaffinity 5.93913507
REMARK  4 active torsions:
REMARK  status: ('A' for Active; 'I' for Inactive)
REMARK    1  A    between atoms: C4_4  and  O1_5 
REMARK    2  A    between atoms: C4_4  and  C5_6 
REMARK    3  A    between atoms: C5_6  and  C6_7 
REMARK    4  A    between atoms: C6_7  and  C8_9 
ROOT
HETATM    1  C8  UNL     1      -9.509  -8.107  -3.741  1.00  0.00    -0.001 C 
HETATM    2  C9  UNL     1      -8.320  -8.198  -4.733  1.00  0.00     0.007 C 
HETATM    3  C10 UNL     1      -7.172  -8.909  -3.973  1.00  0.00     0.015 C 
HETATM    4  C11 UNL     1      -7.813  -9.428  -2.661  1.00  0.00    -0.013 C 
HETATM    5  C12 UNL     1      -8.476 -10.804  -3.003  1.00  0.00     0.021 C 
HETATM    6  C13 UNL     1      -6.912  -9.704  -1.456  1.00  0.00    -0.070 C 
HETATM    7  C14 UNL     1      -5.692 -10.245  -1.601  1.00  0.00    -0.022 C 
HETATM    8  C15 UNL     1      -4.811 -10.653  -0.469  1.00  0.00     0.034 C 
HETATM    9  C16 UNL     1      -5.236 -10.137   0.930  1.00  0.00     0.013 C 
HETATM   10  C17 UNL     1      -4.425 -10.831   2.087  1.00  0.00     0.018 C 
HETATM   11  C18 UNL     1      -4.024  -9.770   3.144  1.00  0.00     0.023 C 
HETATM   12  C19 UNL     1      -3.106 -11.504   1.639  1.00  0.00     0.023 C 
HETATM   13  C20 UNL     1      -5.264 -11.920   2.770  1.00  0.00     0.135 C 
HETATM   14  O2  UNL     1      -5.018 -12.294   3.923  1.00  0.00    -0.297 OA
HETATM   15  C21 UNL     1      -6.347 -12.618   1.975  1.00  0.00     0.080 C 
HETATM   16  C22 UNL     1      -7.226 -11.701   1.122  1.00  0.00     0.017 C 
HETATM   17  C23 UNL     1      -6.804 -10.214   1.107  1.00  0.00    -0.031 C 
HETATM   18  C24 UNL     1      -7.256  -9.556   2.442  1.00  0.00     0.016 C 
HETATM   19  C25 UNL     1      -7.492  -9.402  -0.070  1.00  0.00     0.024 C 
HETATM   20  C26 UNL     1      -9.045  -9.450  -0.071  1.00  0.00     0.010 C 
HETATM   21  C27 UNL     1      -9.742  -8.649  -1.198  1.00  0.00     0.011 C 
HETATM   22  C28 UNL     1      -8.810  -8.248  -2.354  1.00  0.00    -0.029 C 
HETATM   23  C29 UNL     1      -8.045  -6.933  -1.986  1.00  0.00     0.016 C 
ENDROOT
BRANCH   1  24
HETATM   24  C6  UNL     1     -10.587  -7.019  -4.040  1.00  0.00    -0.008 C 
HETATM   25  C7  UNL     1     -11.968  -7.700  -4.082  1.00  0.00     0.010 C 
BRANCH  24  26
HETATM   26  C5  UNL     1     -10.347  -6.137  -5.285  1.00  0.00     0.078 C 
BRANCH  26  27
HETATM   27  C4  UNL     1      -9.818  -4.706  -5.044  1.00  0.00     0.191 A 
HETATM   28  C3  UNL     1      -9.606  -3.987  -6.323  1.00  0.00     0.054 A 
HETATM   29  C2  UNL     1     -10.362  -2.893  -6.391  1.00  0.00     0.015 A 
HETATM   30  C1  UNL     1     -10.500  -1.884  -7.460  1.00  0.00     0.054 C 
HETATM   31  C30 UNL     1     -11.105  -2.835  -5.129  1.00  0.00     0.291 A 
HETATM   32  O3  UNL     1     -10.772  -3.905  -4.361  1.00  0.00    -0.276 OA
HETATM   33  O4  UNL     1     -11.907  -1.970  -4.820  1.00  0.00    -0.260 OA
BRANCH  27  34
HETATM   34  O1  UNL     1      -8.581  -4.705  -4.363  1.00  0.00    -0.362 OA
HETATM   35  H5  UNL     1      -8.763  -5.054  -3.475  1.00  0.00     0.213 HD
ENDBRANCH  27  34
ENDBRANCH  26  27
ENDBRANCH  24  26
ENDBRANCH   1  24
TORSDOF 4
ENDMDL
MODEL 5
REMARK minimizedAffinity -9.81999111
REMARK CNNscore 0.463632435
REMARK CNNaffinity 7.22507524
REMARK  4 active torsions:
REMARK  status: ('A' for Active; 'I' for Inactive)
REMARK    1  A    between atoms: C4_4  and  O1_5 
REMARK    2  A    between atoms: C4_4  and  C5_6 
REMARK    3  A    between atoms: C5_6  and  C6_7 
REMARK    4  A    between atoms: C6_7  and  C8_9 
ROOT
HETATM    1  C8  UNL     1       1.398   7.612  12.993  1.00  0.00    -0.001 C 
HETATM    2  C9  UNL     1       1.200   9.149  12.913  1.00  0.00     0.007 C 
HETATM    3  C10 UNL     1      -0.277   9.417  13.296  1.00  0.00     0.015 C 
HETATM    4  C11 UNL     1      -0.814   8.063  13.824  1.00  0.00    -0.013 C 
HETATM    5  C12 UNL     1      -0.409   7.982  15.334  1.00  0.00     0.021 C 
HETATM    6  C13 UNL     1      -2.321   7.803  13.798  1.00  0.00    -0.070 C 
HETATM    7  C14 UNL     1      -3.206   8.773  14.077  1.00  0.00    -0.022 C 
HETATM    8  C15 UNL     1      -4.678   8.564  14.189  1.00  0.00     0.034 C 
HETATM    9  C16 UNL     1      -5.205   7.206  13.657  1.00  0.00     0.013 C 
HETATM   10  C17 UNL     1      -6.705   6.955  14.060  1.00  0.00     0.018 C 
HETATM   11  C18 UNL     1      -7.471   6.359  12.851  1.00  0.00     0.023 C 
HETATM   12  C19 UNL     1      -7.486   8.226  14.473  1.00  0.00     0.023 C 
HETATM   13  C20 UNL     1      -6.802   5.977  15.240  1.00  0.00     0.135 C 
HETATM   14  O2  UNL     1      -7.830   5.324  15.452  1.00  0.00    -0.297 OA
HETATM   15  C21 UNL     1      -5.649   5.892  16.218  1.00  0.00     0.080 C 
HETATM   16  C22 UNL     1      -4.256   5.856  15.586  1.00  0.00     0.017 C 
HETATM   17  C23 UNL     1      -4.227   6.029  14.050  1.00  0.00    -0.031 C 
HETATM   18  C24 UNL     1      -4.661   4.688  13.391  1.00  0.00     0.016 C 
HETATM   19  C25 UNL     1      -2.775   6.368  13.508  1.00  0.00     0.024 C 
HETATM   20  C26 UNL     1      -1.682   5.330  13.885  1.00  0.00     0.010 C 
HETATM   21  C27 UNL     1      -0.259   5.626  13.351  1.00  0.00     0.011 C 
HETATM   22  C28 UNL     1      -0.059   7.071  12.862  1.00  0.00    -0.029 C 
HETATM   23  C29 UNL     1      -0.567   7.206  11.387  1.00  0.00     0.016 C 
ENDROOT
BRANCH   1  24
HETATM   24  C6  UNL     1       2.597   7.019  12.189  1.00  0.00    -0.008 C 
HETATM   25  C7  UNL     1       3.615   8.147  11.929  1.00  0.00     0.010 C 
BRANCH  24  26
HETATM   26  C5  UNL     1       2.246   6.257  10.893  1.00  0.00     0.078 C 
BRANCH  26  27
HETATM   27  C4  UNL     1       3.185   6.454   9.682  1.00  0.00     0.191 A 
HETATM   28  C3  UNL     1       2.547   5.997   8.425  1.00  0.00     0.054 A 
HETATM   29  C2  UNL     1       2.436   6.996   7.551  1.00  0.00     0.015 A 
HETATM   30  C1  UNL     1       1.862   7.025   6.191  1.00  0.00     0.054 C 
HETATM   31  C30 UNL     1       3.022   8.170   8.202  1.00  0.00     0.291 A 
HETATM   32  O3  UNL     1       3.451   7.829   9.446  1.00  0.00    -0.276 OA
HETATM   33  O4  UNL     1       3.102   9.284   7.712  1.00  0.00    -0.260 OA
BRANCH  27  34
HETATM   34  O1  UNL     1       4.388   5.726   9.820  1.00  0.00    -0.362 OA
HETATM   35  H5  UNL     1       4.861   6.127  10.567  1.00  0.00     0.213 HD
ENDBRANCH  27  34
ENDBRANCH  26  27
ENDBRANCH  24  26
ENDBRANCH   1  24
TORSDOF 4
ENDMDL
MODEL 6
REMARK minimizedAffinity -8.42434597
REMARK CNNscore 0.418207407
REMARK CNNaffinity 7.03368139
REMARK  4 active torsions:
REMARK  status: ('A' for Active; 'I' for Inactive)
REMARK    1  A    between atoms: C4_4  and  O1_5 
REMARK    2  A    between atoms: C4_4  and  C5_6 
REMARK    3  A    between atoms: C5_6  and  C6_7 
REMARK    4  A    between atoms: C6_7  and  C8_9 
ROOT
HETATM    1  C8  UNL     1      -6.208   5.082  13.172  1.00  0.00    -0.001 C 
HETATM    2  C9  UNL     1      -7.088   3.868  12.773  1.00  0.00     0.007 C 
HETATM    3  C10 UNL     1      -8.559   4.320  12.949  1.00  0.00     0.015 C 
HETATM    4  C11 UNL     1      -8.489   5.847  13.200  1.00  0.00    -0.013 C 
HETATM    5  C12 UNL     1      -8.420   6.527  11.791  1.00  0.00     0.021 C 
HETATM    6  C13 UNL     1      -9.650   6.534  13.920  1.00  0.00    -0.070 C 
HETATM    7  C14 UNL     1     -10.925   6.176  13.697  1.00  0.00    -0.022 C 
HETATM    8  C15 UNL     1     -12.110   6.879  14.269  1.00  0.00     0.034 C 
HETATM    9  C16 UNL     1     -11.807   7.883  15.412  1.00  0.00     0.013 C 
HETATM   10  C17 UNL     1     -13.057   8.772  15.764  1.00  0.00     0.018 C 
HETATM   11  C18 UNL     1     -13.178   8.904  17.303  1.00  0.00     0.023 C 
HETATM   12  C19 UNL     1     -14.412   8.204  15.279  1.00  0.00     0.023 C 
HETATM   13  C20 UNL     1     -12.924  10.174  15.154  1.00  0.00     0.135 C 
HETATM   14  O2  UNL     1     -13.540  11.139  15.620  1.00  0.00    -0.297 OA
HETATM   15  C21 UNL     1     -12.102  10.351  13.894  1.00  0.00     0.080 C 
HETATM   16  C22 UNL     1     -10.761   9.616  13.880  1.00  0.00     0.017 C 
HETATM   17  C23 UNL     1     -10.496   8.708  15.104  1.00  0.00    -0.031 C 
HETATM   18  C24 UNL     1     -10.095   9.606  16.309  1.00  0.00     0.016 C 
HETATM   19  C25 UNL     1      -9.299   7.696  14.857  1.00  0.00     0.024 C 
HETATM   20  C26 UNL     1      -7.952   8.364  14.467  1.00  0.00     0.010 C 
HETATM   21  C27 UNL     1      -6.762   7.399  14.239  1.00  0.00     0.011 C 
HETATM   22  C28 UNL     1      -7.172   5.927  14.060  1.00  0.00    -0.029 C 
HETATM   23  C29 UNL     1      -7.362   5.255  15.461  1.00  0.00     0.016 C 
ENDROOT
BRANCH   1  24
HETATM   24  C6  UNL     1      -4.734   4.774  13.577  1.00  0.00    -0.008 C 
HETATM   25  C7  UNL     1      -3.864   5.995  13.221  1.00  0.00     0.010 C 
BRANCH  24  26
HETATM   26  C5  UNL     1      -4.129   3.463  13.028  1.00  0.00     0.078 C 
BRANCH  26  27
HETATM   27  C4  UNL     1      -3.337   3.552  11.705  1.00  0.00     0.191 A 
HETATM   28  C3  UNL     1      -2.260   4.567  11.789  1.00  0.00     0.054 A 
HETATM   29  C2  UNL     1      -1.063   4.015  11.600  1.00  0.00     0.015 A 
HETATM   30  C1  UNL     1       0.286   4.616  11.607  1.00  0.00     0.054 C 
HETATM   31  C30 UNL     1      -1.307   2.590  11.362  1.00  0.00     0.291 A 
HETATM   32  O3  UNL     1      -2.642   2.344  11.431  1.00  0.00    -0.276 OA
HETATM   33  O4  UNL     1      -0.447   1.751  11.150  1.00  0.00    -0.260 OA
BRANCH  27  34
HETATM   34  O1  UNL     1      -4.160   3.916  10.617  1.00  0.00    -0.362 OA
HETATM   35  H5  UNL     1      -4.776   3.177  10.487  1.00  0.00     0.213 HD
ENDBRANCH  27  34
ENDBRANCH  26  27
ENDBRANCH  24  26
ENDBRANCH   1  24
TORSDOF 4
ENDMDL
MODEL 7
REMARK minimizedAffinity -9.34572601
REMARK CNNscore 0.399075121
REMARK CNNaffinity 7.0893445
REMARK  4 active torsions:
REMARK  status: ('A' for Active; 'I' for Inactive)
REMARK    1  A    between atoms: C4_4  and  O1_5 
REMARK    2  A    between atoms: C4_4  and  C5_6 
REMARK    3  A    between atoms: C5_6  and  C6_7 
REMARK    4  A    between atoms: C6_7  and  C8_9 
ROOT
HETATM    1  C8  UNL     1      -6.337   6.740  14.317  1.00  0.00    -0.001 C 
HETATM    2  C9  UNL     1      -6.532   8.062  15.106  1.00  0.00     0.007 C 
HETATM    3  C10 UNL     1      -5.154   8.770  15.115  1.00  0.00     0.015 C 
HETATM    4  C11 UNL     1      -4.276   7.965  14.125  1.00  0.00    -0.013 C 
HETATM    5  C12 UNL     1      -4.585   8.526  12.697  1.00  0.00     0.021 C 
HETATM    6  C13 UNL     1      -2.754   8.032  14.262  1.00  0.00    -0.070 C 
HETATM    7  C14 UNL     1      -2.128   9.175  14.586  1.00  0.00    -0.022 C 
HETATM    8  C15 UNL     1      -0.647   9.345  14.618  1.00  0.00     0.034 C 
HETATM    9  C16 UNL     1       0.180   8.034  14.559  1.00  0.00     0.013 C 
HETATM   10  C17 UNL     1       1.711   8.311  14.320  1.00  0.00     0.018 C 
HETATM   11  C18 UNL     1       2.551   7.384  15.235  1.00  0.00     0.023 C 
HETATM   12  C19 UNL     1       2.166   9.754  14.646  1.00  0.00     0.023 C 
HETATM   13  C20 UNL     1       2.096   8.047  12.858  1.00  0.00     0.135 C 
HETATM   14  O2  UNL     1       3.262   7.794  12.536  1.00  0.00    -0.297 OA
HETATM   15  C21 UNL     1       1.042   8.204  11.782  1.00  0.00     0.080 C 
HETATM   16  C22 UNL     1      -0.322   7.595  12.110  1.00  0.00     0.017 C 
HETATM   17  C23 UNL     1      -0.457   7.012  13.536  1.00  0.00    -0.031 C 
HETATM   18  C24 UNL     1       0.270   5.638  13.581  1.00  0.00     0.016 C 
HETATM   19  C25 UNL     1      -1.969   6.755  13.943  1.00  0.00     0.024 C 
HETATM   20  C26 UNL     1      -2.752   5.821  12.979  1.00  0.00     0.010 C 
HETATM   21  C27 UNL     1      -4.225   5.538  13.365  1.00  0.00     0.011 C 
HETATM   22  C28 UNL     1      -4.798   6.507  14.412  1.00  0.00    -0.029 C 
HETATM   23  C29 UNL     1      -4.400   6.030  15.850  1.00  0.00     0.016 C 
ENDROOT
BRANCH   1  24
HETATM   24  C6  UNL     1      -7.382   5.611  14.576  1.00  0.00    -0.008 C 
HETATM   25  C7  UNL     1      -7.915   5.760  16.014  1.00  0.00     0.010 C 
BRANCH  24  26
HETATM   26  C5  UNL     1      -6.920   4.166  14.285  1.00  0.00     0.078 C 
BRANCH  26  27
HETATM   27  C4  UNL     1      -7.435   3.509  12.985  1.00  0.00     0.191 A 
HETATM   28  C3  UNL     1      -6.804   4.116  11.788  1.00  0.00     0.054 A 
HETATM   29  C2  UNL     1      -6.122   3.210  11.092  1.00  0.00     0.015 A 
HETATM   30  C1  UNL     1      -5.329   3.345   9.853  1.00  0.00     0.054 C 
HETATM   31  C30 UNL     1      -6.291   1.940  11.804  1.00  0.00     0.291 A 
HETATM   32  O3  UNL     1      -7.059   2.142  12.907  1.00  0.00    -0.276 OA
HETATM   33  O4  UNL     1      -5.807   0.872  11.470  1.00  0.00    -0.260 OA
BRANCH  27  34
HETATM   34  O1  UNL     1      -8.831   3.657  12.833  1.00  0.00    -0.362 OA
HETATM   35  H5  UNL     1      -9.235   3.140  13.548  1.00  0.00     0.213 HD
ENDBRANCH  27  34
ENDBRANCH  26  27
ENDBRANCH  24  26
ENDBRANCH   1  24
TORSDOF 4
ENDMDL
MODEL 8
REMARK minimizedAffinity -7.43629789
REMARK CNNscore 0.390988529
REMARK CNNaffinity 5.91397095
REMARK  4 active torsions:
REMARK  status: ('A' for Active; 'I' for Inactive)
REMARK    1  A    between atoms: C4_4  and  O1_5 
REMARK    2  A    between atoms: C4_4  and  C5_6 
REMARK    3  A    between atoms: C5_6  and  C6_7 
REMARK    4  A    between atoms: C6_7  and  C8_9 
ROOT
HETATM    1  C8  UNL     1       3.736   7.856  12.611  1.00  0.00    -0.001 C 
HETATM    2  C9  UNL     1       4.521   7.911  11.274  1.00  0.00     0.007 C 
HETATM    3  C10 UNL     1       5.900   8.535  11.604  1.00  0.00     0.015 C 
HETATM    4  C11 UNL     1       5.963   8.589  13.151  1.00  0.00    -0.013 C 
HETATM    5  C12 UNL     1       6.457   7.182  13.626  1.00  0.00     0.021 C 
HETATM    6  C13 UNL     1       6.905   9.592  13.819  1.00  0.00    -0.070 C 
HETATM    7  C14 UNL     1       8.119   9.859  13.313  1.00  0.00    -0.022 C 
HETATM    8  C15 UNL     1       9.135  10.729  13.974  1.00  0.00     0.034 C 
HETATM    9  C16 UNL     1       8.614  11.589  15.155  1.00  0.00     0.013 C 
HETATM   10  C17 UNL     1       9.789  12.257  15.961  1.00  0.00     0.018 C 
HETATM   11  C18 UNL     1       9.413  13.722  16.300  1.00  0.00     0.023 C 
HETATM   12  C19 UNL     1      11.136  12.329  15.203  1.00  0.00     0.023 C 
HETATM   13  C20 UNL     1      10.060  11.499  17.268  1.00  0.00     0.135 C 
HETATM   14  O2  UNL     1      10.615  12.048  18.227  1.00  0.00    -0.297 OA
HETATM   15  C21 UNL     1       9.732  10.023  17.341  1.00  0.00     0.080 C 
HETATM   16  C22 UNL     1       8.382   9.623  16.743  1.00  0.00     0.017 C 
HETATM   17  C23 UNL     1       7.606  10.766  16.049  1.00  0.00    -0.031 C 
HETATM   18  C24 UNL     1       6.958  11.662  17.144  1.00  0.00     0.016 C 
HETATM   19  C25 UNL     1       6.430  10.226  15.131  1.00  0.00     0.024 C 
HETATM   20  C26 UNL     1       5.392   9.330  15.863  1.00  0.00     0.010 C 
HETATM   21  C27 UNL     1       4.222   8.807  14.993  1.00  0.00     0.011 C 
HETATM   22  C28 UNL     1       4.460   8.930  13.478  1.00  0.00    -0.029 C 
HETATM   23  C29 UNL     1       4.083  10.372  12.998  1.00  0.00     0.016 C 
ENDROOT
BRANCH   1  24
HETATM   24  C6  UNL     1       2.182   7.758  12.506  1.00  0.00    -0.008 C 
HETATM   25  C7  UNL     1       1.692   6.693  13.506  1.00  0.00     0.010 C 
BRANCH  24  26
HETATM   26  C5  UNL     1       1.602   7.526  11.094  1.00  0.00     0.078 C 
BRANCH  26  27
HETATM   27  C4  UNL     1       2.597   7.139   9.977  1.00  0.00     0.191 A 
HETATM   28  C3  UNL     1       1.895   6.566   8.804  1.00  0.00     0.054 A 
HETATM   29  C2  UNL     1       2.109   7.297   7.712  1.00  0.00     0.015 A 
HETATM   30  C1  UNL     1       1.613   7.131   6.330  1.00  0.00     0.054 C 
HETATM   31  C30 UNL     1       2.991   8.393   8.123  1.00  0.00     0.291 A 
HETATM   32  O3  UNL     1       3.260   8.280   9.451  1.00  0.00    -0.276 OA
HETATM   33  O4  UNL     1       3.409   9.277   7.394  1.00  0.00    -0.260 OA
BRANCH  27  34
HETATM   34  O1  UNL     1       3.530   6.171  10.410  1.00  0.00    -0.362 OA
HETATM   35  H5  UNL     1       4.074   6.606  11.087  1.00  0.00     0.213 HD
ENDBRANCH  27  34
ENDBRANCH  26  27
ENDBRANCH  24  26
ENDBRANCH   1  24
TORSDOF 4
ENDMDL
MODEL 9
REMARK minimizedAffinity -7.17608547
REMARK CNNscore 0.377494514
REMARK CNNaffinity 6.0852809
REMARK  4 active torsions:
REMARK  status: ('A' for Active; 'I' for Inactive)
REMARK    1  A    between atoms: C4_4  and  O1_5 
REMARK    2  A    between atoms: C4_4  and  C5_6 
REMARK    3  A    between atoms: C5_6  and  C6_7 
REMARK    4  A    between atoms: C6_7  and  C8_9 
ROOT
HETATM    1  C8  UNL     1     -10.112  -7.319  -5.237  1.00  0.00    -0.001 C 
HETATM    2  C9  UNL     1      -8.761  -7.269  -5.999  1.00  0.00     0.007 C 
HETATM    3  C10 UNL     1      -7.738  -8.033  -5.121  1.00  0.00     0.015 C 
HETATM    4  C11 UNL     1      -8.579  -8.711  -4.011  1.00  0.00    -0.013 C 
HETATM    5  C12 UNL     1      -9.108 -10.056  -4.612  1.00  0.00     0.021 C 
HETATM    6  C13 UNL     1      -7.898  -9.098  -2.698  1.00  0.00    -0.070 C 
HETATM    7  C14 UNL     1      -6.648  -9.589  -2.673  1.00  0.00    -0.022 C 
HETATM    8  C15 UNL     1      -5.967 -10.100  -1.449  1.00  0.00     0.034 C 
HETATM    9  C16 UNL     1      -6.658  -9.755  -0.104  1.00  0.00     0.013 C 
HETATM   10  C17 UNL     1      -6.037 -10.554   1.102  1.00  0.00     0.018 C 
HETATM   11  C18 UNL     1      -5.880  -9.608   2.320  1.00  0.00     0.023 C 
HETATM   12  C19 UNL     1      -4.630 -11.140   0.834  1.00  0.00     0.023 C 
HETATM   13  C20 UNL     1      -6.936 -11.733   1.501  1.00  0.00     0.135 C 
HETATM   14  O2  UNL     1      -6.883 -12.227   2.633  1.00  0.00    -0.297 OA
HETATM   15  C21 UNL     1      -7.827 -12.363   0.452  1.00  0.00     0.080 C 
HETATM   16  C22 UNL     1      -8.578 -11.379  -0.446  1.00  0.00     0.017 C 
HETATM   17  C23 UNL     1      -8.227  -9.889  -0.226  1.00  0.00    -0.031 C 
HETATM   18  C24 UNL     1      -8.940  -9.397   1.066  1.00  0.00     0.016 C 
HETATM   19  C25 UNL     1      -8.729  -8.968  -1.417  1.00  0.00     0.024 C 
HETATM   20  C26 UNL     1     -10.253  -9.054  -1.707  1.00  0.00     0.010 C 
HETATM   21  C27 UNL     1     -10.772  -8.149  -2.851  1.00  0.00     0.011 C 
HETATM   22  C28 UNL     1      -9.667  -7.598  -3.768  1.00  0.00    -0.029 C 
HETATM   23  C29 UNL     1      -9.040  -6.314  -3.129  1.00  0.00     0.016 C 
ENDROOT
BRANCH   1  24
HETATM   24  C6  UNL     1     -11.166  -6.232  -5.611  1.00  0.00    -0.008 C 
HETATM   25  C7  UNL     1     -12.348  -6.922  -6.319  1.00  0.00     0.010 C 
BRANCH  24  26
HETATM   26  C5  UNL     1     -10.648  -5.020  -6.415  1.00  0.00     0.078 C 
BRANCH  26  27
HETATM   27  C4  UNL     1     -10.648  -3.649  -5.703  1.00  0.00     0.191 A 
HETATM   28  C3  UNL     1      -9.337  -3.371  -5.069  1.00  0.00     0.054 A 
HETATM   29  C2  UNL     1      -8.782  -2.270  -5.573  1.00  0.00     0.015 A 
HETATM   30  C1  UNL     1      -7.494  -1.616  -5.269  1.00  0.00     0.054 C 
HETATM   31  C30 UNL     1      -9.730  -1.758  -6.567  1.00  0.00     0.291 A 
HETATM   32  O3  UNL     1     -10.810  -2.581  -6.626  1.00  0.00    -0.276 OA
HETATM   33  O4  UNL     1      -9.571  -0.757  -7.246  1.00  0.00    -0.260 OA
BRANCH  27  34
HETATM   34  O1  UNL     1     -11.620  -3.582  -4.681  1.00  0.00    -0.362 OA
HETATM   35  H5  UNL     1     -12.482  -3.629  -5.126  1.00  0.00     0.213 HD
ENDBRANCH  27  34
ENDBRANCH  26  27
ENDBRANCH  24  26
ENDBRANCH   1  24
TORSDOF 4
ENDMDL
