MODEL 1
REMARK minimizedAffinity -10.1032391
REMARK CNNscore 0.711318612
REMARK CNNaffinity 7.51643038
REMARK  10 active torsions:
REMARK  status: ('A' for Active; 'I' for Inactive)
REMARK    1  A    between atoms: C19_21  and  O3_22 
REMARK    2  A    between atoms: C19_21  and  C20_23 
REMARK    3  A    between atoms: C20_23  and  C21_25 
REMARK    4  A    between atoms: C21_25  and  O5_26 
REMARK    5  A    between atoms: O5_26  and  C22_27 
REMARK    6  A    between atoms: C22_27  and  C23_29 
REMARK    7  A    between atoms: C23_29  and  C24_30 
REMARK    8  A    between atoms: C24_30  and  C25_31 
REMARK       I    between atoms: C25_31  and  N1_33 
REMARK    9  A    between atoms: N1_33  and  C26_34 
REMARK   10  A    between atoms: C26_34  and  C27_35 
ROOT
HETATM    1  C1  UNL     1      -0.306  49.848 -21.002  1.00  0.00     0.021 C 
HETATM    2  C2  UNL     1      -0.959  51.235 -21.189  1.00  0.00    -0.009 C 
HETATM    3  C3  UNL     1      -0.157  52.057 -22.245  1.00  0.00     0.022 C 
HETATM    4  C4  UNL     1       1.192  52.557 -21.745  1.00  0.00     0.084 C 
HETATM    5  C5  UNL     1       1.018  53.357 -20.484  1.00  0.00     0.149 C 
HETATM    6  O1  UNL     1       1.787  54.265 -20.167  1.00  0.00    -0.293 OA
HETATM    7  C6  UNL     1      -0.061  52.958 -19.548  1.00  0.00     0.053 C 
HETATM    8  C7  UNL     1      -0.917  51.962 -19.832  1.00  0.00    -0.067 C 
HETATM    9  C8  UNL     1      -1.888  51.493 -18.771  1.00  0.00     0.035 C 
HETATM   10  C9  UNL     1      -3.316  51.422 -19.289  1.00  0.00     0.010 C 
HETATM   11  C10 UNL     1      -3.407  50.564 -20.560  1.00  0.00     0.003 C 
HETATM   12  C11 UNL     1      -2.457  51.134 -21.656  1.00  0.00     0.072 C 
HETATM   13  C12 UNL     1      -2.686  50.400 -22.991  1.00  0.00     0.133 C 
HETATM   14  O2  UNL     1      -1.777  49.999 -23.714  1.00  0.00    -0.297 OA
HETATM   15  C13 UNL     1      -4.124  50.281 -23.471  1.00  0.00     0.091 C 
HETATM   16  C14 UNL     1      -4.997  49.656 -22.376  1.00  0.00     0.005 C 
HETATM   17  C15 UNL     1      -4.565  48.181 -22.157  1.00  0.00     0.019 C 
HETATM   18  C16 UNL     1      -4.841  50.533 -21.107  1.00  0.00     0.002 C 
HETATM   19  C17 UNL     1      -5.957  50.039 -20.193  1.00  0.00     0.009 C 
HETATM   20  C18 UNL     1      -7.096  49.624 -21.148  1.00  0.00     0.047 C 
HETATM   21  C19 UNL     1      -6.540  49.761 -22.596  1.00  0.00     0.128 C 
ENDROOT
BRANCH  21  22
HETATM   22  O3  UNL     1      -6.857  51.095 -23.006  1.00  0.00    -0.381 OA
HETATM   23  H25 UNL     1      -7.526  51.056 -23.720  1.00  0.00     0.211 HD
ENDBRANCH  21  22
BRANCH  21  24
HETATM   24  C20 UNL     1      -7.122  48.674 -23.550  1.00  0.00     0.185 C 
HETATM   25  O4  UNL     1      -8.336  48.462 -23.636  1.00  0.00    -0.292 OA
BRANCH  24  26
HETATM   26  C21 UNL     1      -6.147  47.789 -24.317  1.00  0.00     0.260 C 
BRANCH  26  27
HETATM   27  O5  UNL     1      -5.671  48.455 -25.481  1.00  0.00    -0.314 OA
BRANCH  27  28
HETATM   28  C22 UNL     1      -5.999  47.848 -26.649  1.00  0.00     0.259 C 
HETATM   29  O6  UNL     1      -7.032  47.223 -26.852  1.00  0.00    -0.265 OA
BRANCH  28  30
HETATM   30  C23 UNL     1      -4.921  48.069 -27.683  1.00  0.00     0.120 C 
BRANCH  30  31
HETATM   31  C24 UNL     1      -3.643  48.545 -27.008  1.00  0.00     0.112 C 
BRANCH  31  32
HETATM   32  C25 UNL     1      -3.173  49.875 -27.571  1.00  0.00     0.218 C 
HETATM   33  O7  UNL     1      -3.431  50.245 -28.711  1.00  0.00    -0.274 OA
HETATM   34  N1  UNL     1      -2.430  50.606 -26.677  1.00  0.00    -0.355 N 
HETATM   35  H32 UNL     1      -2.297  50.265 -25.735  1.00  0.00     0.162 HD
BRANCH  34  36
HETATM   36  C26 UNL     1      -1.877  51.900 -27.008  1.00  0.00     0.187 C 
BRANCH  36  37
HETATM   37  C27 UNL     1      -0.399  51.791 -27.073  1.00  0.00     0.070 A 
HETATM   38  C28 UNL     1       0.508  51.812 -28.115  1.00  0.00     0.036 A 
HETATM   39  C29 UNL     1       1.791  51.700 -27.523  1.00  0.00     0.027 A 
HETATM   40  C30 UNL     1       1.587  51.610 -26.167  1.00  0.00     0.142 A 
HETATM   41  O8  UNL     1       0.259  51.665 -25.884  1.00  0.00    -0.325 OA
ENDBRANCH  36  37
ENDBRANCH  34  36
ENDBRANCH  31  32
ENDBRANCH  30  31
ENDBRANCH  28  30
ENDBRANCH  27  28
ENDBRANCH  26  27
ENDBRANCH  24  26
ENDBRANCH  21  24
TORSDOF 10
ENDMDL
MODEL 2
REMARK minimizedAffinity -8.95755959
REMARK CNNscore 0.698687613
REMARK CNNaffinity 6.786098
REMARK  10 active torsions:
REMARK  status: ('A' for Active; 'I' for Inactive)
REMARK    1  A    between atoms: C19_21  and  O3_22 
REMARK    2  A    between atoms: C19_21  and  C20_23 
REMARK    3  A    between atoms: C20_23  and  C21_25 
REMARK    4  A    between atoms: C21_25  and  O5_26 
REMARK    5  A    between atoms: O5_26  and  C22_27 
REMARK    6  A    between atoms: C22_27  and  C23_29 
REMARK    7  A    between atoms: C23_29  and  C24_30 
REMARK    8  A    between atoms: C24_30  and  C25_31 
REMARK       I    between atoms: C25_31  and  N1_33 
REMARK    9  A    between atoms: N1_33  and  C26_34 
REMARK   10  A    between atoms: C26_34  and  C27_35 
ROOT
HETATM    1  C1  UNL     1      -2.069  52.694 -24.327  1.00  0.00     0.021 C 
HETATM    2  C2  UNL     1      -1.102  51.492 -24.419  1.00  0.00    -0.009 C 
HETATM    3  C3  UNL     1       0.360  52.005 -24.604  1.00  0.00     0.022 C 
HETATM    4  C4  UNL     1       0.646  52.574 -25.986  1.00  0.00     0.084 C 
HETATM    5  C5  UNL     1       0.310  51.564 -27.048  1.00  0.00     0.149 C 
HETATM    6  O1  UNL     1       0.887  51.531 -28.134  1.00  0.00    -0.293 OA
HETATM    7  C6  UNL     1      -0.830  50.647 -26.802  1.00  0.00     0.053 C 
HETATM    8  C7  UNL     1      -1.511  50.652 -25.643  1.00  0.00    -0.067 C 
HETATM    9  C8  UNL     1      -2.763  49.813 -25.513  1.00  0.00     0.035 C 
HETATM   10  C9  UNL     1      -2.752  48.952 -24.261  1.00  0.00     0.010 C 
HETATM   11  C10 UNL     1      -2.504  49.798 -23.003  1.00  0.00     0.003 C 
HETATM   12  C11 UNL     1      -1.162  50.576 -23.142  1.00  0.00     0.072 C 
HETATM   13  C12 UNL     1      -0.811  51.272 -21.812  1.00  0.00     0.133 C 
HETATM   14  O2  UNL     1      -0.412  52.431 -21.733  1.00  0.00    -0.297 OA
HETATM   15  C13 UNL     1      -0.861  50.416 -20.556  1.00  0.00     0.091 C 
HETATM   16  C14 UNL     1      -2.226  49.727 -20.440  1.00  0.00     0.005 C 
HETATM   17  C15 UNL     1      -3.322  50.799 -20.193  1.00  0.00     0.019 C 
HETATM   18  C16 UNL     1      -2.446  48.919 -21.745  1.00  0.00     0.002 C 
HETATM   19  C17 UNL     1      -3.646  48.036 -21.421  1.00  0.00     0.009 C 
HETATM   20  C18 UNL     1      -3.517  47.735 -19.913  1.00  0.00     0.047 C 
HETATM   21  C19 UNL     1      -2.319  48.577 -19.386  1.00  0.00     0.128 C 
ENDROOT
BRANCH  21  22
HETATM   22  O3  UNL     1      -1.169  47.736 -19.520  1.00  0.00    -0.381 OA
HETATM   23  H25 UNL     1      -0.845  47.498 -18.627  1.00  0.00     0.211 HD
ENDBRANCH  21  22
BRANCH  21  24
HETATM   24  C20 UNL     1      -2.549  49.071 -17.926  1.00  0.00     0.185 C 
HETATM   25  O4  UNL     1      -3.679  49.149 -17.433  1.00  0.00    -0.292 OA
BRANCH  24  26
HETATM   26  C21 UNL     1      -1.346  49.560 -17.131  1.00  0.00     0.260 C 
BRANCH  26  27
HETATM   27  O5  UNL     1      -1.643  50.785 -16.469  1.00  0.00    -0.314 OA
BRANCH  27  28
HETATM   28  C22 UNL     1      -1.396  50.776 -15.135  1.00  0.00     0.259 C 
HETATM   29  O6  UNL     1      -0.290  50.877 -14.623  1.00  0.00    -0.265 OA
BRANCH  28  30
HETATM   30  C23 UNL     1      -2.685  50.650 -14.358  1.00  0.00     0.120 C 
BRANCH  30  31
HETATM   31  C24 UNL     1      -3.202  52.031 -13.981  1.00  0.00     0.112 C 
BRANCH  31  32
HETATM   32  C25 UNL     1      -3.369  52.177 -12.478  1.00  0.00     0.218 C 
HETATM   33  O7  UNL     1      -3.354  51.222 -11.711  1.00  0.00    -0.274 OA
HETATM   34  N1  UNL     1      -3.545  53.479 -12.080  1.00  0.00    -0.355 N 
HETATM   35  H32 UNL     1      -3.496  54.225 -12.760  1.00  0.00     0.162 HD
BRANCH  34  36
HETATM   36  C26 UNL     1      -3.731  53.844 -10.693  1.00  0.00     0.187 C 
BRANCH  36  37
HETATM   37  C27 UNL     1      -2.420  54.235 -10.117  1.00  0.00     0.070 A 
HETATM   38  C28 UNL     1      -1.543  55.269 -10.375  1.00  0.00     0.036 A 
HETATM   39  C29 UNL     1      -0.475  55.118  -9.455  1.00  0.00     0.027 A 
HETATM   40  C30 UNL     1      -0.762  54.002  -8.706  1.00  0.00     0.142 A 
HETATM   41  O8  UNL     1      -1.944  53.460  -9.100  1.00  0.00    -0.325 OA
ENDBRANCH  36  37
ENDBRANCH  34  36
ENDBRANCH  31  32
ENDBRANCH  30  31
ENDBRANCH  28  30
ENDBRANCH  27  28
ENDBRANCH  26  27
ENDBRANCH  24  26
ENDBRANCH  21  24
TORSDOF 10
ENDMDL
MODEL 3
REMARK minimizedAffinity -9.82364655
REMARK CNNscore 0.547410429
REMARK CNNaffinity 7.7220788
REMARK  10 active torsions:
REMARK  status: ('A' for Active; 'I' for Inactive)
REMARK    1  A    between atoms: C19_21  and  O3_22 
REMARK    2  A    between atoms: C19_21  and  C20_23 
REMARK    3  A    between atoms: C20_23  and  C21_25 
REMARK    4  A    between atoms: C21_25  and  O5_26 
REMARK    5  A    between atoms: O5_26  and  C22_27 
REMARK    6  A    between atoms: C22_27  and  C23_29 
REMARK    7  A    between atoms: C23_29  and  C24_30 
REMARK    8  A    between atoms: C24_30  and  C25_31 
REMARK       I    between atoms: C25_31  and  N1_33 
REMARK    9  A    between atoms: N1_33  and  C26_34 
REMARK   10  A    between atoms: C26_34  and  C27_35 
ROOT
HETATM    1  C1  UNL     1      -4.191  51.030 -24.784  1.00  0.00     0.021 C 
HETATM    2  C2  UNL     1      -3.622  49.596 -24.865  1.00  0.00    -0.009 C 
HETATM    3  C3  UNL     1      -2.505  49.532 -25.952  1.00  0.00     0.022 C 
HETATM    4  C4  UNL     1      -3.028  49.601 -27.380  1.00  0.00     0.084 C 
HETATM    5  C5  UNL     1      -4.048  48.521 -27.617  1.00  0.00     0.149 C 
HETATM    6  O1  UNL     1      -4.236  48.023 -28.726  1.00  0.00    -0.293 OA
HETATM    7  C6  UNL     1      -4.921  48.128 -26.484  1.00  0.00     0.053 C 
HETATM    8  C7  UNL     1      -4.776  48.654 -25.257  1.00  0.00    -0.067 C 
HETATM    9  C8  UNL     1      -5.798  48.337 -24.187  1.00  0.00     0.035 C 
HETATM   10  C9  UNL     1      -5.151  47.872 -22.891  1.00  0.00     0.010 C 
HETATM   11  C10 UNL     1      -4.105  48.881 -22.396  1.00  0.00     0.003 C 
HETATM   12  C11 UNL     1      -3.024  49.111 -23.493  1.00  0.00     0.072 C 
HETATM   13  C12 UNL     1      -1.872  49.968 -22.933  1.00  0.00     0.133 C 
HETATM   14  O2  UNL     1      -1.366  50.910 -23.539  1.00  0.00    -0.297 OA
HETATM   15  C13 UNL     1      -1.272  49.528 -21.607  1.00  0.00     0.091 C 
HETATM   16  C14 UNL     1      -2.373  49.382 -20.551  1.00  0.00     0.005 C 
HETATM   17  C15 UNL     1      -2.969  50.781 -20.235  1.00  0.00     0.019 C 
HETATM   18  C16 UNL     1      -3.421  48.386 -21.113  1.00  0.00     0.002 C 
HETATM   19  C17 UNL     1      -4.291  48.062 -19.904  1.00  0.00     0.009 C 
HETATM   20  C18 UNL     1      -3.331  48.133 -18.697  1.00  0.00     0.047 C 
HETATM   21  C19 UNL     1      -1.963  48.638 -19.240  1.00  0.00     0.128 C 
ENDROOT
BRANCH  21  22
HETATM   22  O3  UNL     1      -1.229  47.460 -19.590  1.00  0.00    -0.381 OA
HETATM   23  H25 UNL     1      -0.470  47.367 -18.977  1.00  0.00     0.211 HD
ENDBRANCH  21  22
BRANCH  21  24
HETATM   24  C20 UNL     1      -1.220  49.537 -18.205  1.00  0.00     0.185 C 
HETATM   25  O4  UNL     1      -0.715  49.071 -17.178  1.00  0.00    -0.292 OA
BRANCH  24  26
HETATM   26  C21 UNL     1      -1.210  51.043 -18.432  1.00  0.00     0.260 C 
BRANCH  26  27
HETATM   27  O5  UNL     1      -0.069  51.432 -19.188  1.00  0.00    -0.314 OA
BRANCH  27  28
HETATM   28  C22 UNL     1       0.645  52.448 -18.645  1.00  0.00     0.259 C 
HETATM   29  O6  UNL     1       0.784  52.649 -17.446  1.00  0.00    -0.265 OA
BRANCH  28  30
HETATM   30  C23 UNL     1       1.273  53.294 -19.727  1.00  0.00     0.120 C 
BRANCH  30  31
HETATM   31  C24 UNL     1       1.108  52.616 -21.079  1.00  0.00     0.112 C 
BRANCH  31  32
HETATM   32  C25 UNL     1       1.135  53.619 -22.218  1.00  0.00     0.218 C 
HETATM   33  O7  UNL     1       1.635  54.734 -22.112  1.00  0.00    -0.274 OA
HETATM   34  N1  UNL     1       0.539  53.151 -23.363  1.00  0.00    -0.355 N 
HETATM   35  H32 UNL     1       0.192  52.203 -23.399  1.00  0.00     0.162 HD
BRANCH  34  36
HETATM   36  C26 UNL     1       0.447  53.947 -24.567  1.00  0.00     0.187 C 
BRANCH  36  37
HETATM   37  C27 UNL     1       0.602  53.059 -25.745  1.00  0.00     0.070 A 
HETATM   38  C28 UNL     1       0.960  51.734 -25.892  1.00  0.00     0.036 A 
HETATM   39  C29 UNL     1       0.888  51.457 -27.281  1.00  0.00     0.027 A 
HETATM   40  C30 UNL     1       0.501  52.626 -27.890  1.00  0.00     0.142 A 
HETATM   41  O8  UNL     1       0.323  53.606 -26.964  1.00  0.00    -0.325 OA
ENDBRANCH  36  37
ENDBRANCH  34  36
ENDBRANCH  31  32
ENDBRANCH  30  31
ENDBRANCH  28  30
ENDBRANCH  27  28
ENDBRANCH  26  27
ENDBRANCH  24  26
ENDBRANCH  21  24
TORSDOF 10
ENDMDL
MODEL 4
REMARK minimizedAffinity -8.99894142
REMARK CNNscore 0.494863987
REMARK CNNaffinity 6.7299571
REMARK  10 active torsions:
REMARK  status: ('A' for Active; 'I' for Inactive)
REMARK    1  A    between atoms: C19_21  and  O3_22 
REMARK    2  A    between atoms: C19_21  and  C20_23 
REMARK    3  A    between atoms: C20_23  and  C21_25 
REMARK    4  A    between atoms: C21_25  and  O5_26 
REMARK    5  A    between atoms: O5_26  and  C22_27 
REMARK    6  A    between atoms: C22_27  and  C23_29 
REMARK    7  A    between atoms: C23_29  and  C24_30 
REMARK    8  A    between atoms: C24_30  and  C25_31 
REMARK       I    between atoms: C25_31  and  N1_33 
REMARK    9  A    between atoms: N1_33  and  C26_34 
REMARK   10  A    between atoms: C26_34  and  C27_35 
ROOT
HETATM    1  C1  UNL     1      -2.052  52.742 -24.469  1.00  0.00     0.021 C 
HETATM    2  C2  UNL     1      -1.102  51.533 -24.615  1.00  0.00    -0.009 C 
HETATM    3  C3  UNL     1       0.360  52.035 -24.835  1.00  0.00     0.022 C 
HETATM    4  C4  UNL     1       0.608  52.628 -26.215  1.00  0.00     0.084 C 
HETATM    5  C5  UNL     1       0.228  51.642 -27.285  1.00  0.00     0.149 C 
HETATM    6  O1  UNL     1       0.770  51.625 -28.389  1.00  0.00    -0.293 OA
HETATM    7  C6  UNL     1      -0.914  50.733 -27.021  1.00  0.00     0.053 C 
HETATM    8  C7  UNL     1      -1.558  50.722 -25.842  1.00  0.00    -0.067 C 
HETATM    9  C8  UNL     1      -2.814  49.893 -25.689  1.00  0.00     0.035 C 
HETATM   10  C9  UNL     1      -2.774  49.007 -24.455  1.00  0.00     0.010 C 
HETATM   11  C10 UNL     1      -2.477  49.826 -23.189  1.00  0.00     0.003 C 
HETATM   12  C11 UNL     1      -1.131  50.593 -23.355  1.00  0.00     0.072 C 
HETATM   13  C12 UNL     1      -0.732  51.258 -22.023  1.00  0.00     0.133 C 
HETATM   14  O2  UNL     1      -0.318  52.411 -21.934  1.00  0.00    -0.297 OA
HETATM   15  C13 UNL     1      -0.753  50.378 -20.784  1.00  0.00     0.091 C 
HETATM   16  C14 UNL     1      -2.120  49.700 -20.638  1.00  0.00     0.005 C 
HETATM   17  C15 UNL     1      -3.196  50.779 -20.336  1.00  0.00     0.019 C 
HETATM   18  C16 UNL     1      -2.390  48.921 -21.951  1.00  0.00     0.002 C 
HETATM   19  C17 UNL     1      -3.588  48.044 -21.607  1.00  0.00     0.009 C 
HETATM   20  C18 UNL     1      -3.416  47.712 -20.109  1.00  0.00     0.047 C 
HETATM   21  C19 UNL     1      -2.193  48.531 -19.605  1.00  0.00     0.128 C 
ENDROOT
BRANCH  21  22
HETATM   22  O3  UNL     1      -1.057  47.681 -19.791  1.00  0.00    -0.381 OA
HETATM   23  H25 UNL     1      -0.708  47.422 -18.913  1.00  0.00     0.211 HD
ENDBRANCH  21  22
BRANCH  21  24
HETATM   24  C20 UNL     1      -2.372  48.998 -18.128  1.00  0.00     0.185 C 
HETATM   25  O4  UNL     1      -3.484  49.064 -17.594  1.00  0.00    -0.292 OA
BRANCH  24  26
HETATM   26  C21 UNL     1      -1.142  49.476 -17.367  1.00  0.00     0.260 C 
BRANCH  26  27
HETATM   27  O5  UNL     1      -1.103  50.898 -17.313  1.00  0.00    -0.314 OA
BRANCH  27  28
HETATM   28  C22 UNL     1       0.145  51.426 -17.307  1.00  0.00     0.259 C 
HETATM   29  O6  UNL     1       0.608  52.152 -18.177  1.00  0.00    -0.265 OA
BRANCH  28  30
HETATM   30  C23 UNL     1       0.889  51.016 -16.058  1.00  0.00     0.120 C 
BRANCH  30  31
HETATM   31  C24 UNL     1       0.968  52.189 -15.091  1.00  0.00     0.112 C 
BRANCH  31  32
HETATM   32  C25 UNL     1       0.622  51.771 -13.672  1.00  0.00     0.218 C 
HETATM   33  O7  UNL     1       0.719  50.615 -13.276  1.00  0.00    -0.274 OA
HETATM   34  N1  UNL     1       0.188  52.815 -12.894  1.00  0.00    -0.355 N 
HETATM   35  H32 UNL     1       0.181  53.754 -13.269  1.00  0.00     0.162 HD
BRANCH  34  36
HETATM   36  C26 UNL     1      -0.201  52.639 -11.513  1.00  0.00     0.187 C 
BRANCH  36  37
HETATM   37  C27 UNL     1      -1.624  53.028 -11.359  1.00  0.00     0.070 A 
HETATM   38  C28 UNL     1      -2.281  53.904 -10.518  1.00  0.00     0.036 A 
HETATM   39  C29 UNL     1      -3.648  53.859 -10.892  1.00  0.00     0.027 A 
HETATM   40  C30 UNL     1      -3.739  52.958 -11.925  1.00  0.00     0.142 A 
HETATM   41  O8  UNL     1      -2.514  52.449 -12.217  1.00  0.00    -0.325 OA
ENDBRANCH  36  37
ENDBRANCH  34  36
ENDBRANCH  31  32
ENDBRANCH  30  31
ENDBRANCH  28  30
ENDBRANCH  27  28
ENDBRANCH  26  27
ENDBRANCH  24  26
ENDBRANCH  21  24
TORSDOF 10
ENDMDL
MODEL 5
REMARK minimizedAffinity -8.83037567
REMARK CNNscore 0.47424075
REMARK CNNaffinity 6.36076307
REMARK  10 active torsions:
REMARK  status: ('A' for Active; 'I' for Inactive)
REMARK    1  A    between atoms: C19_21  and  O3_22 
REMARK    2  A    between atoms: C19_21  and  C20_23 
REMARK    3  A    between atoms: C20_23  and  C21_25 
REMARK    4  A    between atoms: C21_25  and  O5_26 
REMARK    5  A    between atoms: O5_26  and  C22_27 
REMARK    6  A    between atoms: C22_27  and  C23_29 
REMARK    7  A    between atoms: C23_29  and  C24_30 
REMARK    8  A    between atoms: C24_30  and  C25_31 
REMARK       I    between atoms: C25_31  and  N1_33 
REMARK    9  A    between atoms: N1_33  and  C26_34 
REMARK   10  A    between atoms: C26_34  and  C27_35 
ROOT
HETATM    1  C1  UNL     1      -0.562  50.374 -25.621  1.00  0.00     0.021 C 
HETATM    2  C2  UNL     1      -1.281  51.663 -25.165  1.00  0.00    -0.009 C 
HETATM    3  C3  UNL     1      -2.609  51.837 -25.966  1.00  0.00     0.022 C 
HETATM    4  C4  UNL     1      -2.406  52.246 -27.418  1.00  0.00     0.084 C 
HETATM    5  C5  UNL     1      -1.581  53.500 -27.499  1.00  0.00     0.149 C 
HETATM    6  O1  UNL     1      -1.692  54.305 -28.423  1.00  0.00    -0.293 OA
HETATM    7  C6  UNL     1      -0.527  53.707 -26.476  1.00  0.00     0.053 C 
HETATM    8  C7  UNL     1      -0.345  52.851 -25.457  1.00  0.00    -0.067 C 
HETATM    9  C8  UNL     1       0.847  53.026 -24.542  1.00  0.00     0.035 C 
HETATM   10  C9  UNL     1       0.455  53.010 -23.074  1.00  0.00     0.010 C 
HETATM   11  C10 UNL     1      -0.347  51.748 -22.724  1.00  0.00     0.003 C 
HETATM   12  C11 UNL     1      -1.612  51.653 -23.628  1.00  0.00     0.072 C 
HETATM   13  C12 UNL     1      -2.519  50.500 -23.154  1.00  0.00     0.133 C 
HETATM   14  O2  UNL     1      -3.044  49.689 -23.913  1.00  0.00    -0.297 OA
HETATM   15  C13 UNL     1      -2.857  50.458 -21.672  1.00  0.00     0.091 C 
HETATM   16  C14 UNL     1      -1.572  50.489 -20.835  1.00  0.00     0.005 C 
HETATM   17  C15 UNL     1      -0.781  49.174 -21.064  1.00  0.00     0.019 C 
HETATM   18  C16 UNL     1      -0.783  51.757 -21.251  1.00  0.00     0.002 C 
HETATM   19  C17 UNL     1       0.292  51.877 -20.176  1.00  0.00     0.009 C 
HETATM   20  C18 UNL     1      -0.368  51.326 -18.895  1.00  0.00     0.047 C 
HETATM   21  C19 UNL     1      -1.762  50.771 -19.310  1.00  0.00     0.128 C 
ENDROOT
BRANCH  21  22
HETATM   22  O3  UNL     1      -2.673  51.864 -19.154  1.00  0.00    -0.381 OA
HETATM   23  H25 UNL     1      -3.285  51.663 -18.416  1.00  0.00     0.211 HD
ENDBRANCH  21  22
BRANCH  21  24
HETATM   24  C20 UNL     1      -2.163  49.517 -18.477  1.00  0.00     0.185 C 
HETATM   25  O4  UNL     1      -3.095  48.778 -18.815  1.00  0.00    -0.292 OA
BRANCH  24  26
HETATM   26  C21 UNL     1      -1.440  49.262 -17.161  1.00  0.00     0.260 C 
BRANCH  26  27
HETATM   27  O5  UNL     1      -2.360  49.245 -16.075  1.00  0.00    -0.314 OA
BRANCH  27  28
HETATM   28  C22 UNL     1      -2.807  50.469 -15.699  1.00  0.00     0.259 C 
HETATM   29  O6  UNL     1      -3.444  51.235 -16.409  1.00  0.00    -0.265 OA
BRANCH  28  30
HETATM   30  C23 UNL     1      -2.431  50.753 -14.264  1.00  0.00     0.120 C 
BRANCH  30  31
HETATM   31  C24 UNL     1      -2.995  52.101 -13.836  1.00  0.00     0.112 C 
BRANCH  31  32
HETATM   32  C25 UNL     1      -3.175  52.182 -12.330  1.00  0.00     0.218 C 
HETATM   33  O7  UNL     1      -3.166  51.195 -11.605  1.00  0.00    -0.274 OA
HETATM   34  N1  UNL     1      -3.354  53.466 -11.878  1.00  0.00    -0.355 N 
HETATM   35  H32 UNL     1      -3.299  54.241 -12.525  1.00  0.00     0.162 HD
BRANCH  34  36
HETATM   36  C26 UNL     1      -3.551  53.771 -10.479  1.00  0.00     0.187 C 
BRANCH  36  37
HETATM   37  C27 UNL     1      -2.272  54.255  -9.904  1.00  0.00     0.070 A 
HETATM   38  C28 UNL     1      -1.442  55.318 -10.201  1.00  0.00     0.036 A 
HETATM   39  C29 UNL     1      -0.383  55.266  -9.260  1.00  0.00     0.027 A 
HETATM   40  C30 UNL     1      -0.627  54.176  -8.459  1.00  0.00     0.142 A 
HETATM   41  O8  UNL     1      -1.775  53.556  -8.843  1.00  0.00    -0.325 OA
ENDBRANCH  36  37
ENDBRANCH  34  36
ENDBRANCH  31  32
ENDBRANCH  30  31
ENDBRANCH  28  30
ENDBRANCH  27  28
ENDBRANCH  26  27
ENDBRANCH  24  26
ENDBRANCH  21  24
TORSDOF 10
ENDMDL
MODEL 6
REMARK minimizedAffinity -8.77811909
REMARK CNNscore 0.469511569
REMARK CNNaffinity 7.04340744
REMARK  10 active torsions:
REMARK  status: ('A' for Active; 'I' for Inactive)
REMARK    1  A    between atoms: C19_21  and  O3_22 
REMARK    2  A    between atoms: C19_21  and  C20_23 
REMARK    3  A    between atoms: C20_23  and  C21_25 
REMARK    4  A    between atoms: C21_25  and  O5_26 
REMARK    5  A    between atoms: O5_26  and  C22_27 
REMARK    6  A    between atoms: C22_27  and  C23_29 
REMARK    7  A    between atoms: C23_29  and  C24_30 
REMARK    8  A    between atoms: C24_30  and  C25_31 
REMARK       I    between atoms: C25_31  and  N1_33 
REMARK    9  A    between atoms: N1_33  and  C26_34 
REMARK   10  A    between atoms: C26_34  and  C27_35 
ROOT
HETATM    1  C1  UNL     1      -0.834  53.259 -24.881  1.00  0.00     0.021 C 
HETATM    2  C2  UNL     1      -0.608  51.800 -25.333  1.00  0.00    -0.009 C 
HETATM    3  C3  UNL     1       0.899  51.426 -25.175  1.00  0.00     0.022 C 
HETATM    4  C4  UNL     1       1.809  52.079 -26.207  1.00  0.00     0.084 C 
HETATM    5  C5  UNL     1       1.336  51.760 -27.598  1.00  0.00     0.149 C 
HETATM    6  O1  UNL     1       2.102  51.699 -28.559  1.00  0.00    -0.293 OA
HETATM    7  C6  UNL     1      -0.124  51.620 -27.823  1.00  0.00     0.053 C 
HETATM    8  C7  UNL     1      -1.010  51.699 -26.816  1.00  0.00    -0.067 C 
HETATM    9  C8  UNL     1      -2.490  51.714 -27.129  1.00  0.00     0.035 C 
HETATM   10  C9  UNL     1      -3.264  50.700 -26.301  1.00  0.00     0.010 C 
HETATM   11  C10 UNL     1      -3.000  50.887 -24.799  1.00  0.00     0.003 C 
HETATM   12  C11 UNL     1      -1.473  50.777 -24.510  1.00  0.00     0.072 C 
HETATM   13  C12 UNL     1      -1.220  50.769 -22.989  1.00  0.00     0.133 C 
HETATM   14  O2  UNL     1      -0.342  51.430 -22.441  1.00  0.00    -0.297 OA
HETATM   15  C13 UNL     1      -2.042  49.794 -22.162  1.00  0.00     0.091 C 
HETATM   16  C14 UNL     1      -3.537  49.992 -22.441  1.00  0.00     0.005 C 
HETATM   17  C15 UNL     1      -3.977  51.382 -21.906  1.00  0.00     0.019 C 
HETATM   18  C16 UNL     1      -3.745  49.832 -23.969  1.00  0.00     0.002 C 
HETATM   19  C17 UNL     1      -5.260  49.730 -24.114  1.00  0.00     0.009 C 
HETATM   20  C18 UNL     1      -5.733  49.021 -22.828  1.00  0.00     0.047 C 
HETATM   21  C19 UNL     1      -4.482  48.865 -21.915  1.00  0.00     0.128 C 
ENDROOT
BRANCH  21  22
HETATM   22  O3  UNL     1      -3.915  47.595 -22.252  1.00  0.00    -0.381 OA
HETATM   23  H25 UNL     1      -4.021  46.989 -21.490  1.00  0.00     0.211 HD
ENDBRANCH  21  22
BRANCH  21  24
HETATM   24  C20 UNL     1      -4.843  48.992 -20.404  1.00  0.00     0.185 C 
HETATM   25  O4  UNL     1      -5.662  48.242 -19.862  1.00  0.00    -0.292 OA
BRANCH  24  26
HETATM   26  C21 UNL     1      -4.232  50.139 -19.609  1.00  0.00     0.260 C 
BRANCH  26  27
HETATM   27  O5  UNL     1      -3.116  49.689 -18.850  1.00  0.00    -0.314 OA
BRANCH  27  28
HETATM   28  C22 UNL     1      -2.423  50.676 -18.230  1.00  0.00     0.259 C 
HETATM   29  O6  UNL     1      -2.810  51.301 -17.252  1.00  0.00    -0.265 OA
BRANCH  28  30
HETATM   30  C23 UNL     1      -1.086  50.887 -18.900  1.00  0.00     0.120 C 
BRANCH  30  31
HETATM   31  C24 UNL     1      -0.831  52.375 -19.095  1.00  0.00     0.112 C 
BRANCH  31  32
HETATM   32  C25 UNL     1       0.624  52.732 -18.848  1.00  0.00     0.218 C 
HETATM   33  O7  UNL     1       1.386  53.080 -19.743  1.00  0.00    -0.274 OA
HETATM   34  N1  UNL     1       0.991  52.618 -17.529  1.00  0.00    -0.355 N 
HETATM   35  H32 UNL     1       0.299  52.376 -16.833  1.00  0.00     0.162 HD
BRANCH  34  36
HETATM   36  C26 UNL     1       2.333  52.902 -17.073  1.00  0.00     0.187 C 
BRANCH  36  37
HETATM   37  C27 UNL     1       2.584  52.156 -15.816  1.00  0.00     0.070 A 
HETATM   38  C28 UNL     1       3.735  51.752 -15.168  1.00  0.00     0.036 A 
HETATM   39  C29 UNL     1       3.311  51.105 -13.980  1.00  0.00     0.027 A 
HETATM   40  C30 UNL     1       1.938  51.147 -13.982  1.00  0.00     0.142 A 
HETATM   41  O8  UNL     1       1.487  51.786 -15.094  1.00  0.00    -0.325 OA
ENDBRANCH  36  37
ENDBRANCH  34  36
ENDBRANCH  31  32
ENDBRANCH  30  31
ENDBRANCH  28  30
ENDBRANCH  27  28
ENDBRANCH  26  27
ENDBRANCH  24  26
ENDBRANCH  21  24
TORSDOF 10
ENDMDL
MODEL 7
REMARK minimizedAffinity -8.57097435
REMARK CNNscore 0.46207881
REMARK CNNaffinity 6.38172579
REMARK  10 active torsions:
REMARK  status: ('A' for Active; 'I' for Inactive)
REMARK    1  A    between atoms: C19_21  and  O3_22 
REMARK    2  A    between atoms: C19_21  and  C20_23 
REMARK    3  A    between atoms: C20_23  and  C21_25 
REMARK    4  A    between atoms: C21_25  and  O5_26 
REMARK    5  A    between atoms: O5_26  and  C22_27 
REMARK    6  A    between atoms: C22_27  and  C23_29 
REMARK    7  A    between atoms: C23_29  and  C24_30 
REMARK    8  A    between atoms: C24_30  and  C25_31 
REMARK       I    between atoms: C25_31  and  N1_33 
REMARK    9  A    between atoms: N1_33  and  C26_34 
REMARK   10  A    between atoms: C26_34  and  C27_35 
ROOT
HETATM    1  C1  UNL     1      -0.355  50.569 -25.433  1.00  0.00     0.021 C 
HETATM    2  C2  UNL     1      -1.095  51.861 -25.022  1.00  0.00    -0.009 C 
HETATM    3  C3  UNL     1      -2.459  51.950 -25.776  1.00  0.00     0.022 C 
HETATM    4  C4  UNL     1      -2.327  52.280 -27.256  1.00  0.00     0.084 C 
HETATM    5  C5  UNL     1      -1.545  53.550 -27.442  1.00  0.00     0.149 C 
HETATM    6  O1  UNL     1      -1.717  54.297 -28.405  1.00  0.00    -0.293 OA
HETATM    7  C6  UNL     1      -0.458  53.847 -26.477  1.00  0.00     0.053 C 
HETATM    8  C7  UNL     1      -0.209  53.057 -25.420  1.00  0.00    -0.067 C 
HETATM    9  C8  UNL     1       1.013  53.319 -24.567  1.00  0.00     0.035 C 
HETATM   10  C9  UNL     1       0.680  53.377 -23.084  1.00  0.00     0.010 C 
HETATM   11  C10 UNL     1      -0.068  52.115 -22.631  1.00  0.00     0.003 C 
HETATM   12  C11 UNL     1      -1.364  51.931 -23.474  1.00  0.00     0.072 C 
HETATM   13  C12 UNL     1      -2.215  50.782 -22.898  1.00  0.00     0.133 C 
HETATM   14  O2  UNL     1      -2.744  49.913 -23.587  1.00  0.00    -0.297 OA
HETATM   15  C13 UNL     1      -2.492  50.817 -21.404  1.00  0.00     0.091 C 
HETATM   16  C14 UNL     1      -1.177  50.933 -20.624  1.00  0.00     0.005 C 
HETATM   17  C15 UNL     1      -0.354  49.630 -20.811  1.00  0.00     0.019 C 
HETATM   18  C16 UNL     1      -0.445  52.197 -21.144  1.00  0.00     0.002 C 
HETATM   19  C17 UNL     1       0.668  52.410 -20.123  1.00  0.00     0.009 C 
HETATM   20  C18 UNL     1       0.077  51.915 -18.786  1.00  0.00     0.047 C 
HETATM   21  C19 UNL     1      -1.314  51.298 -19.111  1.00  0.00     0.128 C 
ENDROOT
BRANCH  21  22
HETATM   22  O3  UNL     1      -2.252  52.370 -18.980  1.00  0.00    -0.381 OA
HETATM   23  H25 UNL     1      -2.827  52.195 -18.207  1.00  0.00     0.211 HD
ENDBRANCH  21  22
BRANCH  21  24
HETATM   24  C20 UNL     1      -1.643  50.082 -18.192  1.00  0.00     0.185 C 
HETATM   25  O4  UNL     1      -2.619  49.353 -18.397  1.00  0.00    -0.292 OA
BRANCH  24  26
HETATM   26  C21 UNL     1      -0.783  49.859 -16.955  1.00  0.00     0.260 C 
BRANCH  26  27
HETATM   27  O5  UNL     1      -0.828  50.994 -16.097  1.00  0.00    -0.314 OA
BRANCH  27  28
HETATM   28  C22 UNL     1      -1.658  50.863 -15.034  1.00  0.00     0.259 C 
HETATM   29  O6  UNL     1      -2.877  50.769 -15.099  1.00  0.00    -0.265 OA
BRANCH  28  30
HETATM   30  C23 UNL     1      -0.870  50.823 -13.746  1.00  0.00     0.120 C 
BRANCH  30  31
HETATM   31  C24 UNL     1       0.010  52.060 -13.636  1.00  0.00     0.112 C 
BRANCH  31  32
HETATM   32  C25 UNL     1      -0.194  52.778 -12.314  1.00  0.00     0.218 C 
HETATM   33  O7  UNL     1      -1.155  52.566 -11.582  1.00  0.00    -0.274 OA
HETATM   34  N1  UNL     1       0.799  53.683 -12.034  1.00  0.00    -0.355 N 
HETATM   35  H32 UNL     1       1.591  53.772 -12.656  1.00  0.00     0.162 HD
BRANCH  34  36
HETATM   36  C26 UNL     1       0.799  54.483 -10.829  1.00  0.00     0.187 C 
BRANCH  36  37
HETATM   37  C27 UNL     1       2.197  54.839 -10.486  1.00  0.00     0.070 A 
HETATM   38  C28 UNL     1       3.009  55.908 -10.811  1.00  0.00     0.036 A 
HETATM   39  C29 UNL     1       4.237  55.689 -10.136  1.00  0.00     0.027 A 
HETATM   40  C30 UNL     1       4.100  54.505  -9.453  1.00  0.00     0.142 A 
HETATM   41  O8  UNL     1       2.862  53.982  -9.659  1.00  0.00    -0.325 OA
ENDBRANCH  36  37
ENDBRANCH  34  36
ENDBRANCH  31  32
ENDBRANCH  30  31
ENDBRANCH  28  30
ENDBRANCH  27  28
ENDBRANCH  26  27
ENDBRANCH  24  26
ENDBRANCH  21  24
TORSDOF 10
ENDMDL
MODEL 8
REMARK minimizedAffinity -9.11108685
REMARK CNNscore 0.34335494
REMARK CNNaffinity 6.20490456
REMARK  10 active torsions:
REMARK  status: ('A' for Active; 'I' for Inactive)
REMARK    1  A    between atoms: C19_21  and  O3_22 
REMARK    2  A    between atoms: C19_21  and  C20_23 
REMARK    3  A    between atoms: C20_23  and  C21_25 
REMARK    4  A    between atoms: C21_25  and  O5_26 
REMARK    5  A    between atoms: O5_26  and  C22_27 
REMARK    6  A    between atoms: C22_27  and  C23_29 
REMARK    7  A    between atoms: C23_29  and  C24_30 
REMARK    8  A    between atoms: C24_30  and  C25_31 
REMARK       I    between atoms: C25_31  and  N1_33 
REMARK    9  A    between atoms: N1_33  and  C26_34 
REMARK   10  A    between atoms: C26_34  and  C27_35 
ROOT
HETATM    1  C1  UNL     1      -0.263  49.946 -21.253  1.00  0.00     0.021 C 
HETATM    2  C2  UNL     1      -0.969  51.314 -21.373  1.00  0.00    -0.009 C 
HETATM    3  C3  UNL     1      -0.249  52.187 -22.448  1.00  0.00     0.022 C 
HETATM    4  C4  UNL     1       1.106  52.720 -22.004  1.00  0.00     0.084 C 
HETATM    5  C5  UNL     1       0.972  53.485 -20.717  1.00  0.00     0.149 C 
HETATM    6  O1  UNL     1       1.726  54.409 -20.416  1.00  0.00    -0.293 OA
HETATM    7  C6  UNL     1      -0.046  53.028 -19.738  1.00  0.00     0.053 C 
HETATM    8  C7  UNL     1      -0.882  52.011 -20.003  1.00  0.00    -0.067 C 
HETATM    9  C8  UNL     1      -1.783  51.485 -18.907  1.00  0.00     0.035 C 
HETATM   10  C9  UNL     1      -3.232  51.378 -19.354  1.00  0.00     0.010 C 
HETATM   11  C10 UNL     1      -3.359  50.547 -20.640  1.00  0.00     0.003 C 
HETATM   12  C11 UNL     1      -2.486  51.173 -21.767  1.00  0.00     0.072 C 
HETATM   13  C12 UNL     1      -2.758  50.463 -23.107  1.00  0.00     0.133 C 
HETATM   14  O2  UNL     1      -1.875  50.110 -23.884  1.00  0.00    -0.297 OA
HETATM   15  C13 UNL     1      -4.214  50.307 -23.517  1.00  0.00     0.091 C 
HETATM   16  C14 UNL     1      -5.010  49.628 -22.396  1.00  0.00     0.005 C 
HETATM   17  C15 UNL     1      -4.519  48.164 -22.234  1.00  0.00     0.019 C 
HETATM   18  C16 UNL     1      -4.818  50.480 -21.115  1.00  0.00     0.002 C 
HETATM   19  C17 UNL     1      -5.870  49.928 -20.158  1.00  0.00     0.009 C 
HETATM   20  C18 UNL     1      -7.041  49.498 -21.065  1.00  0.00     0.047 C 
HETATM   21  C19 UNL     1      -6.565  49.686 -22.535  1.00  0.00     0.128 C 
ENDROOT
BRANCH  21  22
HETATM   22  O3  UNL     1      -6.945  51.018 -22.895  1.00  0.00    -0.381 OA
HETATM   23  H25 UNL     1      -7.648  50.973 -23.576  1.00  0.00     0.211 HD
ENDBRANCH  21  22
BRANCH  21  24
HETATM   24  C20 UNL     1      -7.158  48.602 -23.485  1.00  0.00     0.185 C 
HETATM   25  O4  UNL     1      -6.670  47.471 -23.572  1.00  0.00    -0.292 OA
BRANCH  24  26
HETATM   26  C21 UNL     1      -8.314  48.995 -24.397  1.00  0.00     0.260 C 
BRANCH  26  27
HETATM   27  O5  UNL     1      -8.810  47.861 -25.100  1.00  0.00    -0.314 OA
BRANCH  27  28
HETATM   28  C22 UNL     1      -9.564  48.160 -26.186  1.00  0.00     0.259 C 
HETATM   29  O6  UNL     1     -10.591  48.825 -26.170  1.00  0.00    -0.265 OA
BRANCH  28  30
HETATM   30  C23 UNL     1      -8.949  47.577 -27.436  1.00  0.00     0.120 C 
BRANCH  30  31
HETATM   31  C24 UNL     1      -7.676  46.820 -27.085  1.00  0.00     0.112 C 
BRANCH  31  32
HETATM   32  C25 UNL     1      -6.441  47.510 -27.638  1.00  0.00     0.218 C 
HETATM   33  O7  UNL     1      -5.597  48.039 -26.923  1.00  0.00    -0.274 OA
HETATM   34  N1  UNL     1      -6.378  47.484 -29.009  1.00  0.00    -0.355 N 
HETATM   35  H32 UNL     1      -7.082  46.986 -29.536  1.00  0.00     0.162 HD
BRANCH  34  36
HETATM   36  C26 UNL     1      -5.291  48.090 -29.744  1.00  0.00     0.187 C 
BRANCH  36  37
HETATM   37  C27 UNL     1      -5.483  47.831 -31.192  1.00  0.00     0.070 A 
HETATM   38  C28 UNL     1      -6.586  47.867 -32.022  1.00  0.00     0.036 A 
HETATM   39  C29 UNL     1      -6.111  47.556 -33.322  1.00  0.00     0.027 A 
HETATM   40  C30 UNL     1      -4.759  47.343 -33.201  1.00  0.00     0.142 A 
HETATM   41  O8  UNL     1      -4.368  47.509 -31.910  1.00  0.00    -0.325 OA
ENDBRANCH  36  37
ENDBRANCH  34  36
ENDBRANCH  31  32
ENDBRANCH  30  31
ENDBRANCH  28  30
ENDBRANCH  27  28
ENDBRANCH  26  27
ENDBRANCH  24  26
ENDBRANCH  21  24
TORSDOF 10
ENDMDL
MODEL 9
REMARK minimizedAffinity -8.34137726
REMARK CNNscore 0.331343174
REMARK CNNaffinity 5.42759943
REMARK  10 active torsions:
REMARK  status: ('A' for Active; 'I' for Inactive)
REMARK    1  A    between atoms: C19_21  and  O3_22 
REMARK    2  A    between atoms: C19_21  and  C20_23 
REMARK    3  A    between atoms: C20_23  and  C21_25 
REMARK    4  A    between atoms: C21_25  and  O5_26 
REMARK    5  A    between atoms: O5_26  and  C22_27 
REMARK    6  A    between atoms: C22_27  and  C23_29 
REMARK    7  A    between atoms: C23_29  and  C24_30 
REMARK    8  A    between atoms: C24_30  and  C25_31 
REMARK       I    between atoms: C25_31  and  N1_33 
REMARK    9  A    between atoms: N1_33  and  C26_34 
REMARK   10  A    between atoms: C26_34  and  C27_35 
ROOT
HETATM    1  C1  UNL     1      -0.362  49.792 -21.055  1.00  0.00     0.021 C 
HETATM    2  C2  UNL     1      -1.040  51.165 -21.256  1.00  0.00    -0.009 C 
HETATM    3  C3  UNL     1      -0.250  51.993 -22.316  1.00  0.00     0.022 C 
HETATM    4  C4  UNL     1       1.088  52.522 -21.816  1.00  0.00     0.084 C 
HETATM    5  C5  UNL     1       0.896  53.329 -20.562  1.00  0.00     0.149 C 
HETATM    6  O1  UNL     1       1.647  54.252 -20.250  1.00  0.00    -0.293 OA
HETATM    7  C6  UNL     1      -0.179  52.918 -19.627  1.00  0.00     0.053 C 
HETATM    8  C7  UNL     1      -1.015  51.904 -19.904  1.00  0.00    -0.067 C 
HETATM    9  C8  UNL     1      -1.982  51.426 -18.843  1.00  0.00     0.035 C 
HETATM   10  C9  UNL     1      -3.406  51.324 -19.364  1.00  0.00     0.010 C 
HETATM   11  C10 UNL     1      -3.477  50.455 -20.629  1.00  0.00     0.003 C 
HETATM   12  C11 UNL     1      -2.535  51.033 -21.726  1.00  0.00     0.072 C 
HETATM   13  C12 UNL     1      -2.746  50.283 -23.056  1.00  0.00     0.133 C 
HETATM   14  O2  UNL     1      -1.828  49.894 -23.773  1.00  0.00    -0.297 OA
HETATM   15  C13 UNL     1      -4.180  50.135 -23.539  1.00  0.00     0.091 C 
HETATM   16  C14 UNL     1      -5.045  49.502 -22.442  1.00  0.00     0.005 C 
HETATM   17  C15 UNL     1      -4.586  48.038 -22.209  1.00  0.00     0.019 C 
HETATM   18  C16 UNL     1      -4.909  50.392 -21.180  1.00  0.00     0.002 C 
HETATM   19  C17 UNL     1      -6.019  49.885 -20.264  1.00  0.00     0.009 C 
HETATM   20  C18 UNL     1      -7.147  49.442 -21.220  1.00  0.00     0.047 C 
HETATM   21  C19 UNL     1      -6.589  49.577 -22.667  1.00  0.00     0.128 C 
ENDROOT
BRANCH  21  22
HETATM   22  O3  UNL     1      -6.929  50.902 -23.089  1.00  0.00    -0.381 OA
HETATM   23  H25 UNL     1      -7.595  50.845 -23.805  1.00  0.00     0.211 HD
ENDBRANCH  21  22
BRANCH  21  24
HETATM   24  C20 UNL     1      -7.148  48.472 -23.613  1.00  0.00     0.185 C 
HETATM   25  O4  UNL     1      -6.411  47.637 -24.150  1.00  0.00    -0.292 OA
BRANCH  24  26
HETATM   26  C21 UNL     1      -8.632  48.495 -23.954  1.00  0.00     0.260 C 
BRANCH  26  27
HETATM   27  O5  UNL     1      -9.137  47.172 -24.100  1.00  0.00    -0.314 OA
BRANCH  27  28
HETATM   28  C22 UNL     1      -9.949  46.767 -23.093  1.00  0.00     0.259 C 
HETATM   29  O6  UNL     1      -9.587  46.525 -21.950  1.00  0.00    -0.265 OA
BRANCH  28  30
HETATM   30  C23 UNL     1     -11.380  46.676 -23.569  1.00  0.00     0.120 C 
BRANCH  30  31
HETATM   31  C24 UNL     1     -12.327  46.703 -22.378  1.00  0.00     0.112 C 
BRANCH  31  32
HETATM   32  C25 UNL     1     -13.775  46.842 -22.815  1.00  0.00     0.218 C 
HETATM   33  O7  UNL     1     -14.131  47.607 -23.704  1.00  0.00    -0.274 OA
HETATM   34  N1  UNL     1     -14.631  46.033 -22.109  1.00  0.00    -0.355 N 
HETATM   35  H32 UNL     1     -14.264  45.388 -21.423  1.00  0.00     0.162 HD
BRANCH  34  36
HETATM   36  C26 UNL     1     -16.055  46.013 -22.357  1.00  0.00     0.187 C 
BRANCH  36  37
HETATM   37  C27 UNL     1     -16.763  46.499 -21.147  1.00  0.00     0.070 A 
HETATM   38  C28 UNL     1     -16.332  46.958 -19.918  1.00  0.00     0.036 A 
HETATM   39  C29 UNL     1     -17.501  47.311 -19.197  1.00  0.00     0.027 A 
HETATM   40  C30 UNL     1     -18.564  47.038 -20.024  1.00  0.00     0.142 A 
HETATM   41  O8  UNL     1     -18.125  46.545 -21.212  1.00  0.00    -0.325 OA
ENDBRANCH  36  37
ENDBRANCH  34  36
ENDBRANCH  31  32
ENDBRANCH  30  31
ENDBRANCH  28  30
ENDBRANCH  27  28
ENDBRANCH  26  27
ENDBRANCH  24  26
ENDBRANCH  21  24
TORSDOF 10
ENDMDL
