MODEL 1
REMARK minimizedAffinity -9.13013363
REMARK CNNscore 0.603200436
REMARK CNNaffinity 6.60911751
REMARK  9 active torsions:
REMARK  status: ('A' for Active; 'I' for Inactive)
REMARK    1  A    between atoms: C6_6  and  C8_8 
REMARK    2  A    between atoms: C8_8  and  O2_10 
REMARK    3  A    between atoms: O2_10  and  C9_11 
REMARK    4  A    between atoms: C9_11  and  C10_12 
REMARK    5  A    between atoms: C10_12  and  O3_13 
REMARK    6  A    between atoms: C27_33  and  O7_34 
REMARK    7  A    between atoms: C38_45  and  O8_46 
REMARK    8  A    between atoms: C38_45  and  C39_47 
REMARK    9  A    between atoms: C39_47  and  O9_48 
ROOT
HETATM    1  O2  UNL     1     -11.174  44.447 -25.994  1.00  0.00    -0.317 OA
ENDROOT
BRANCH   1   2
HETATM    2  C8  UNL     1     -10.363  45.529 -25.862  1.00  0.00     0.267 C 
HETATM    3  O1  UNL     1     -10.707  46.573 -25.320  1.00  0.00    -0.264 OA
BRANCH   2   4
HETATM    4  C6  UNL     1      -8.999  45.314 -26.531  1.00  0.00     0.049 C 
HETATM    5  C5  UNL     1      -7.866  46.223 -25.976  1.00  0.00     0.020 C 
HETATM    6  C4  UNL     1      -7.922  47.672 -26.453  1.00  0.00     0.002 C 
HETATM    7  C3  UNL     1      -8.035  47.792 -27.976  1.00  0.00     0.010 C 
HETATM    8  C2  UNL     1      -9.216  46.985 -28.576  1.00  0.00    -0.035 C 
HETATM    9  C1  UNL     1     -10.534  47.649 -28.086  1.00  0.00     0.016 C 
HETATM   10  C29 UNL     1      -9.043  45.504 -28.082  1.00  0.00     0.012 C 
HETATM   11  C37 UNL     1      -9.295  47.037 -30.167  1.00  0.00     0.010 C 
HETATM   12  C30 UNL     1      -9.956  44.563 -28.873  1.00  0.00     0.008 C 
HETATM   13  C31 UNL     1      -9.498  44.458 -30.332  1.00  0.00     0.018 C 
HETATM   14  C32 UNL     1      -8.874  45.737 -30.905  1.00  0.00     0.028 C 
HETATM   15  C33 UNL     1      -9.249  45.870 -32.403  1.00  0.00     0.026 C 
HETATM   16  C40 UNL     1      -7.345  45.679 -31.063  1.00  0.00     0.172 C 
HETATM   17  C34 UNL     1      -8.222  46.884 -32.914  1.00  0.00     0.031 C 
HETATM   18  C35 UNL     1      -8.587  48.260 -32.332  1.00  0.00     0.009 C 
HETATM   19  C38 UNL     1      -6.902  46.268 -32.403  1.00  0.00     0.143 C 
HETATM   20  C36 UNL     1      -8.644  48.293 -30.798  1.00  0.00     0.007 C 
HETATM   21  O10 UNL     1      -6.560  45.197 -30.254  1.00  0.00    -0.294 OA
HETATM   22  C7  UNL     1      -8.614  43.860 -26.161  1.00  0.00     0.026 C 
BRANCH  19  23
HETATM   23  O8  UNL     1      -6.545  45.183 -33.278  1.00  0.00    -0.379 OA
HETATM   24  H53 UNL     1      -5.869  44.656 -32.809  1.00  0.00     0.211 HD
ENDBRANCH  19  23
BRANCH  19  25
HETATM   25  C39 UNL     1      -5.695  47.198 -32.301  1.00  0.00     0.210 C 
BRANCH  25  26
HETATM   26  O9  UNL     1      -4.604  46.672 -33.059  1.00  0.00    -0.397 OA
HETATM   27  H56 UNL     1      -4.551  45.722 -32.836  1.00  0.00     0.209 HD
ENDBRANCH  25  26
ENDBRANCH  19  25
ENDBRANCH   2   4
ENDBRANCH   1   2
BRANCH   1  28
HETATM   28  C9  UNL     1     -12.335  44.400 -25.146  1.00  0.00     0.227 C 
BRANCH  28  29
HETATM   29  C10 UNL     1     -13.318  43.370 -25.700  1.00  0.00     0.171 C 
HETATM   30  C11 UNL     1     -14.690  43.414 -25.025  1.00  0.00     0.175 C 
HETATM   31  O4  UNL     1     -14.836  43.481 -23.810  1.00  0.00    -0.294 OA
HETATM   32  C12 UNL     1     -15.841  43.341 -26.052  1.00  0.00     0.037 C 
HETATM   33  C13 UNL     1     -16.969  42.393 -25.609  1.00  0.00     0.019 C 
HETATM   34  C23 UNL     1     -16.325  44.793 -26.403  1.00  0.00     0.003 C 
HETATM   35  C28 UNL     1     -15.039  42.701 -27.205  1.00  0.00     0.059 C 
HETATM   36  C14 UNL     1     -18.198  43.079 -25.001  1.00  0.00     0.010 C 
HETATM   37  C15 UNL     1     -17.826  44.360 -24.263  1.00  0.00     0.040 C 
HETATM   38  C16 UNL     1     -18.990  45.199 -23.718  1.00  0.00     0.051 C 
HETATM   39  C21 UNL     1     -17.146  45.403 -25.170  1.00  0.00     0.084 C 
HETATM   40  C17 UNL     1     -20.168  44.407 -23.164  1.00  0.00     0.026 C 
HETATM   41  C18 UNL     1     -18.486  46.249 -22.705  1.00  0.00     0.020 C 
HETATM   42  C22 UNL     1     -19.378  45.978 -24.950  1.00  0.00     0.268 C 
HETATM   43  C19 UNL     1     -17.000  46.593 -22.858  1.00  0.00     0.004 C 
HETATM   44  C20 UNL     1     -16.394  46.413 -24.263  1.00  0.00     0.040 C 
HETATM   45  O5  UNL     1     -18.266  46.148 -25.720  1.00  0.00    -0.308 OA
HETATM   46  O6  UNL     1     -20.476  46.434 -25.219  1.00  0.00    -0.264 OA
HETATM   47  C24 UNL     1     -17.235  44.747 -27.680  1.00  0.00     0.019 C 
HETATM   48  C25 UNL     1     -15.106  45.679 -26.824  1.00  0.00     0.016 C 
HETATM   49  C26 UNL     1     -14.054  44.942 -27.671  1.00  0.00     0.042 C 
HETATM   50  C27 UNL     1     -13.743  43.515 -27.185  1.00  0.00     0.099 C 
BRANCH  29  51
HETATM   51  O3  UNL     1     -12.778  42.043 -25.520  1.00  0.00    -0.377 OA
HETATM   52  H15 UNL     1     -12.644  41.917 -24.560  1.00  0.00     0.211 HD
ENDBRANCH  29  51
BRANCH  50  53
HETATM   53  O7  UNL     1     -12.797  42.917 -28.067  1.00  0.00    -0.386 OA
HETATM   54  H37 UNL     1     -12.394  42.175 -27.568  1.00  0.00     0.210 HD
ENDBRANCH  50  53
ENDBRANCH  28  29
ENDBRANCH   1  28
TORSDOF 9
ENDMDL
MODEL 2
REMARK minimizedAffinity -10.8305912
REMARK CNNscore 0.54500705
REMARK CNNaffinity 7.45259857
REMARK  9 active torsions:
REMARK  status: ('A' for Active; 'I' for Inactive)
REMARK    1  A    between atoms: C6_6  and  C8_8 
REMARK    2  A    between atoms: C8_8  and  O2_10 
REMARK    3  A    between atoms: O2_10  and  C9_11 
REMARK    4  A    between atoms: C9_11  and  C10_12 
REMARK    5  A    between atoms: C10_12  and  O3_13 
REMARK    6  A    between atoms: C27_33  and  O7_34 
REMARK    7  A    between atoms: C38_45  and  O8_46 
REMARK    8  A    between atoms: C38_45  and  C39_47 
REMARK    9  A    between atoms: C39_47  and  O9_48 
ROOT
HETATM    1  O2  UNL     1      -2.440  49.157 -17.180  1.00  0.00    -0.317 OA
ENDROOT
BRANCH   1   2
HETATM    2  C8  UNL     1      -2.930  50.016 -18.111  1.00  0.00     0.267 C 
HETATM    3  O1  UNL     1      -3.078  51.217 -17.916  1.00  0.00    -0.264 OA
BRANCH   2   4
HETATM    4  C6  UNL     1      -3.338  49.296 -19.403  1.00  0.00     0.049 C 
HETATM    5  C5  UNL     1      -2.583  47.960 -19.655  1.00  0.00     0.020 C 
HETATM    6  C4  UNL     1      -1.147  48.124 -20.146  1.00  0.00     0.002 C 
HETATM    7  C3  UNL     1      -1.035  49.061 -21.352  1.00  0.00     0.010 C 
HETATM    8  C2  UNL     1      -1.683  50.451 -21.120  1.00  0.00    -0.035 C 
HETATM    9  C1  UNL     1      -0.839  51.187 -20.041  1.00  0.00     0.016 C 
HETATM   10  C29 UNL     1      -3.166  50.186 -20.677  1.00  0.00     0.012 C 
HETATM   11  C37 UNL     1      -1.643  51.406 -22.396  1.00  0.00     0.010 C 
HETATM   12  C30 UNL     1      -3.985  51.478 -20.740  1.00  0.00     0.008 C 
HETATM   13  C31 UNL     1      -4.174  51.934 -22.191  1.00  0.00     0.018 C 
HETATM   14  C32 UNL     1      -2.999  51.612 -23.125  1.00  0.00     0.028 C 
HETATM   15  C33 UNL     1      -2.838  52.749 -24.165  1.00  0.00     0.026 C 
HETATM   16  C40 UNL     1      -3.267  50.453 -24.101  1.00  0.00     0.172 C 
HETATM   17  C34 UNL     1      -1.981  52.088 -25.249  1.00  0.00     0.031 C 
HETATM   18  C35 UNL     1      -0.559  51.916 -24.687  1.00  0.00     0.009 C 
HETATM   19  C38 UNL     1      -2.763  50.783 -25.507  1.00  0.00     0.143 C 
HETATM   20  C36 UNL     1      -0.497  51.096 -23.391  1.00  0.00     0.007 C 
HETATM   21  O10 UNL     1      -3.839  49.404 -23.826  1.00  0.00    -0.294 OA
HETATM   22  C7  UNL     1      -4.825  48.924 -19.183  1.00  0.00     0.026 C 
BRANCH  19  23
HETATM   23  O8  UNL     1      -3.899  51.096 -26.332  1.00  0.00    -0.379 OA
HETATM   24  H53 UNL     1      -4.506  50.332 -26.274  1.00  0.00     0.211 HD
ENDBRANCH  19  23
BRANCH  19  25
HETATM   25  C39 UNL     1      -2.004  49.639 -26.175  1.00  0.00     0.210 C 
BRANCH  25  26
HETATM   26  O9  UNL     1      -2.820  48.467 -26.216  1.00  0.00    -0.397 OA
HETATM   27  H56 UNL     1      -3.217  48.380 -25.327  1.00  0.00     0.209 HD
ENDBRANCH  25  26
ENDBRANCH  19  25
ENDBRANCH   2   4
ENDBRANCH   1   2
BRANCH   1  28
HETATM   28  C9  UNL     1      -2.498  49.586 -15.807  1.00  0.00     0.227 C 
BRANCH  28  29
HETATM   29  C10 UNL     1      -1.096  49.980 -15.346  1.00  0.00     0.171 C 
HETATM   30  C11 UNL     1      -1.083  51.182 -14.400  1.00  0.00     0.175 C 
HETATM   31  O4  UNL     1      -1.729  52.203 -14.608  1.00  0.00    -0.294 OA
HETATM   32  C12 UNL     1      -0.151  50.955 -13.190  1.00  0.00     0.037 C 
HETATM   33  C13 UNL     1       0.706  52.191 -12.864  1.00  0.00     0.019 C 
HETATM   34  C23 UNL     1      -0.989  50.418 -11.975  1.00  0.00     0.003 C 
HETATM   35  C28 UNL     1       0.730  49.855 -13.821  1.00  0.00     0.059 C 
HETATM   36  C14 UNL     1       0.199  53.049 -11.700  1.00  0.00     0.010 C 
HETATM   37  C15 UNL     1      -1.321  53.019 -11.593  1.00  0.00     0.040 C 
HETATM   38  C16 UNL     1      -1.938  53.743 -10.388  1.00  0.00     0.051 C 
HETATM   39  C21 UNL     1      -1.882  51.602 -11.368  1.00  0.00     0.084 C 
HETATM   40  C17 UNL     1      -1.248  55.039  -9.977  1.00  0.00     0.026 C 
HETATM   41  C18 UNL     1      -3.455  53.946 -10.584  1.00  0.00     0.020 C 
HETATM   42  C22 UNL     1      -1.804  52.684  -9.322  1.00  0.00     0.268 C 
HETATM   43  C19 UNL     1      -4.086  52.972 -11.586  1.00  0.00     0.004 C 
HETATM   44  C20 UNL     1      -3.384  51.610 -11.755  1.00  0.00     0.040 C 
HETATM   45  O5  UNL     1      -1.863  51.461  -9.922  1.00  0.00    -0.308 OA
HETATM   46  O6  UNL     1      -1.707  52.856  -8.120  1.00  0.00    -0.264 OA
HETATM   47  C24 UNL     1      -0.019  49.862 -10.876  1.00  0.00     0.019 C 
HETATM   48  C25 UNL     1      -1.834  49.177 -12.413  1.00  0.00     0.016 C 
HETATM   49  C26 UNL     1      -1.110  48.232 -13.386  1.00  0.00     0.042 C 
HETATM   50  C27 UNL     1      -0.311  48.953 -14.487  1.00  0.00     0.099 C 
BRANCH  29  51
HETATM   51  O3  UNL     1      -0.286  50.310 -16.495  1.00  0.00    -0.377 OA
HETATM   52  H15 UNL     1      -0.725  51.054 -16.950  1.00  0.00     0.211 HD
ENDBRANCH  29  51
BRANCH  50  53
HETATM   53  O7  UNL     1       0.351  47.985 -15.295  1.00  0.00    -0.386 OA
HETATM   54  H37 UNL     1       0.567  48.438 -16.137  1.00  0.00     0.210 HD
ENDBRANCH  50  53
ENDBRANCH  28  29
ENDBRANCH   1  28
TORSDOF 9
ENDMDL
MODEL 3
REMARK minimizedAffinity -9.42681313
REMARK CNNscore 0.520040333
REMARK CNNaffinity 6.54917288
REMARK  9 active torsions:
REMARK  status: ('A' for Active; 'I' for Inactive)
REMARK    1  A    between atoms: C6_6  and  C8_8 
REMARK    2  A    between atoms: C8_8  and  O2_10 
REMARK    3  A    between atoms: O2_10  and  C9_11 
REMARK    4  A    between atoms: C9_11  and  C10_12 
REMARK    5  A    between atoms: C10_12  and  O3_13 
REMARK    6  A    between atoms: C27_33  and  O7_34 
REMARK    7  A    between atoms: C38_45  and  O8_46 
REMARK    8  A    between atoms: C38_45  and  C39_47 
REMARK    9  A    between atoms: C39_47  and  O9_48 
ROOT
HETATM    1  O2  UNL     1     -11.284  44.430 -26.833  1.00  0.00    -0.317 OA
ENDROOT
BRANCH   1   2
HETATM    2  C8  UNL     1     -10.259  45.286 -26.587  1.00  0.00     0.267 C 
HETATM    3  O1  UNL     1      -9.540  45.218 -25.596  1.00  0.00    -0.264 OA
BRANCH   2   4
HETATM    4  C6  UNL     1     -10.152  46.383 -27.654  1.00  0.00     0.049 C 
HETATM    5  C5  UNL     1     -11.192  46.257 -28.804  1.00  0.00     0.020 C 
HETATM    6  C4  UNL     1     -10.879  45.168 -29.827  1.00  0.00     0.002 C 
HETATM    7  C3  UNL     1      -9.452  45.260 -30.376  1.00  0.00     0.010 C 
HETATM    8  C2  UNL     1      -8.363  45.285 -29.271  1.00  0.00    -0.035 C 
HETATM    9  C1  UNL     1      -8.369  43.894 -28.576  1.00  0.00     0.016 C 
HETATM   10  C29 UNL     1      -8.732  46.466 -28.304  1.00  0.00     0.012 C 
HETATM   11  C37 UNL     1      -6.880  45.462 -29.827  1.00  0.00     0.010 C 
HETATM   12  C30 UNL     1      -7.559  46.788 -27.375  1.00  0.00     0.008 C 
HETATM   13  C31 UNL     1      -6.389  47.388 -28.162  1.00  0.00     0.018 C 
HETATM   14  C32 UNL     1      -6.235  46.855 -29.593  1.00  0.00     0.028 C 
HETATM   15  C33 UNL     1      -4.730  46.776 -29.956  1.00  0.00     0.026 C 
HETATM   16  C40 UNL     1      -6.676  47.843 -30.687  1.00  0.00     0.172 C 
HETATM   17  C34 UNL     1      -4.762  46.683 -31.484  1.00  0.00     0.031 C 
HETATM   18  C35 UNL     1      -5.294  45.289 -31.861  1.00  0.00     0.009 C 
HETATM   19  C38 UNL     1      -5.679  47.870 -31.846  1.00  0.00     0.143 C 
HETATM   20  C36 UNL     1      -6.681  44.974 -31.283  1.00  0.00     0.007 C 
HETATM   21  O10 UNL     1      -7.672  48.556 -30.647  1.00  0.00    -0.294 OA
HETATM   22  C7  UNL     1     -10.493  47.691 -26.898  1.00  0.00     0.026 C 
BRANCH  19  23
HETATM   23  O8  UNL     1      -4.905  49.080 -31.749  1.00  0.00    -0.379 OA
HETATM   24  H53 UNL     1      -5.544  49.820 -31.729  1.00  0.00     0.211 HD
ENDBRANCH  19  23
BRANCH  19  25
HETATM   25  C39 UNL     1      -6.334  47.848 -33.225  1.00  0.00     0.210 C 
BRANCH  25  26
HETATM   26  O9  UNL     1      -5.382  47.452 -34.214  1.00  0.00    -0.397 OA
HETATM   27  H56 UNL     1      -4.570  47.964 -34.031  1.00  0.00     0.209 HD
ENDBRANCH  25  26
ENDBRANCH  19  25
ENDBRANCH   2   4
ENDBRANCH   1   2
BRANCH   1  28
HETATM   28  C9  UNL     1     -12.405  44.485 -25.933  1.00  0.00     0.227 C 
BRANCH  28  29
HETATM   29  C10 UNL     1     -13.412  43.404 -26.321  1.00  0.00     0.171 C 
HETATM   30  C11 UNL     1     -14.703  43.453 -25.502  1.00  0.00     0.175 C 
HETATM   31  O4  UNL     1     -14.717  43.583 -24.284  1.00  0.00    -0.294 OA
HETATM   32  C12 UNL     1     -15.956  43.296 -26.390  1.00  0.00     0.037 C 
HETATM   33  C13 UNL     1     -17.001  42.348 -25.777  1.00  0.00     0.019 C 
HETATM   34  C23 UNL     1     -16.518  44.715 -26.761  1.00  0.00     0.003 C 
HETATM   35  C28 UNL     1     -15.266  42.613 -27.591  1.00  0.00     0.059 C 
HETATM   36  C14 UNL     1     -18.176  43.038 -25.074  1.00  0.00     0.010 C 
HETATM   37  C15 UNL     1     -17.764  44.365 -24.449  1.00  0.00     0.040 C 
HETATM   38  C16 UNL     1     -18.886  45.206 -23.824  1.00  0.00     0.051 C 
HETATM   39  C21 UNL     1     -17.218  45.373 -25.478  1.00  0.00     0.084 C 
HETATM   40  C17 UNL     1     -19.973  44.418 -23.102  1.00  0.00     0.026 C 
HETATM   41  C18 UNL     1     -18.305  46.321 -22.928  1.00  0.00     0.020 C 
HETATM   42  C22 UNL     1     -19.428  45.907 -25.043  1.00  0.00     0.268 C 
HETATM   43  C19 UNL     1     -16.855  46.691 -23.262  1.00  0.00     0.004 C 
HETATM   44  C20 UNL     1     -16.401  46.448 -24.714  1.00  0.00     0.040 C 
HETATM   45  O5  UNL     1     -18.412  46.060 -25.940  1.00  0.00    -0.308 OA
HETATM   46  O6  UNL     1     -20.562  46.321 -25.214  1.00  0.00    -0.264 OA
HETATM   47  C24 UNL     1     -17.560  44.578 -27.926  1.00  0.00     0.019 C 
HETATM   48  C25 UNL     1     -15.379  45.604 -27.360  1.00  0.00     0.016 C 
HETATM   49  C26 UNL     1     -14.404  44.847 -28.278  1.00  0.00     0.042 C 
HETATM   50  C27 UNL     1     -14.000  43.456 -27.756  1.00  0.00     0.099 C 
BRANCH  29  51
HETATM   51  O3  UNL     1     -12.816  42.102 -26.133  1.00  0.00    -0.377 OA
HETATM   52  H15 UNL     1     -12.575  42.031 -25.189  1.00  0.00     0.211 HD
ENDBRANCH  29  51
BRANCH  50  53
HETATM   53  O7  UNL     1     -13.139  42.834 -28.704  1.00  0.00    -0.386 OA
HETATM   54  H37 UNL     1     -12.663  42.130 -28.215  1.00  0.00     0.210 HD
ENDBRANCH  50  53
ENDBRANCH  28  29
ENDBRANCH   1  28
TORSDOF 9
ENDMDL
MODEL 4
REMARK minimizedAffinity -8.9940691
REMARK CNNscore 0.456716597
REMARK CNNaffinity 6.67152023
REMARK  9 active torsions:
REMARK  status: ('A' for Active; 'I' for Inactive)
REMARK    1  A    between atoms: C6_6  and  C8_8 
REMARK    2  A    between atoms: C8_8  and  O2_10 
REMARK    3  A    between atoms: O2_10  and  C9_11 
REMARK    4  A    between atoms: C9_11  and  C10_12 
REMARK    5  A    between atoms: C10_12  and  O3_13 
REMARK    6  A    between atoms: C27_33  and  O7_34 
REMARK    7  A    between atoms: C38_45  and  O8_46 
REMARK    8  A    between atoms: C38_45  and  C39_47 
REMARK    9  A    between atoms: C39_47  and  O9_48 
ROOT
HETATM    1  O2  UNL     1     -11.763  45.972 -26.532  1.00  0.00    -0.317 OA
ENDROOT
BRANCH   1   2
HETATM    2  C8  UNL     1     -12.730  46.141 -25.594  1.00  0.00     0.267 C 
HETATM    3  O1  UNL     1     -12.966  47.212 -25.048  1.00  0.00    -0.264 OA
BRANCH   2   4
HETATM    4  C6  UNL     1     -13.440  44.824 -25.252  1.00  0.00     0.049 C 
HETATM    5  C5  UNL     1     -12.722  43.554 -25.792  1.00  0.00     0.020 C 
HETATM    6  C4  UNL     1     -12.898  43.313 -27.289  1.00  0.00     0.002 C 
HETATM    7  C3  UNL     1     -14.364  43.352 -27.730  1.00  0.00     0.010 C 
HETATM    8  C2  UNL     1     -15.104  44.648 -27.306  1.00  0.00    -0.035 C 
HETATM    9  C1  UNL     1     -14.480  45.827 -28.105  1.00  0.00     0.016 C 
HETATM   10  C29 UNL     1     -14.921  44.782 -25.753  1.00  0.00     0.012 C 
HETATM   11  C37 UNL     1     -16.652  44.664 -27.689  1.00  0.00     0.010 C 
HETATM   12  C30 UNL     1     -15.877  45.835 -25.186  1.00  0.00     0.008 C 
HETATM   13  C31 UNL     1     -17.331  45.360 -25.285  1.00  0.00     0.018 C 
HETATM   14  C32 UNL     1     -17.640  44.481 -26.505  1.00  0.00     0.028 C 
HETATM   15  C33 UNL     1     -19.077  44.776 -27.004  1.00  0.00     0.026 C 
HETATM   16  C40 UNL     1     -17.819  42.988 -26.179  1.00  0.00     0.172 C 
HETATM   17  C34 UNL     1     -19.382  43.556 -27.877  1.00  0.00     0.031 C 
HETATM   18  C35 UNL     1     -18.532  43.664 -29.154  1.00  0.00     0.009 C 
HETATM   19  C38 UNL     1     -19.017  42.397 -26.924  1.00  0.00     0.143 C 
HETATM   20  C36 UNL     1     -17.022  43.762 -28.892  1.00  0.00     0.007 C 
HETATM   21  O10 UNL     1     -17.131  42.338 -25.401  1.00  0.00    -0.294 OA
HETATM   22  C7  UNL     1     -13.373  44.741 -23.707  1.00  0.00     0.026 C 
BRANCH  19  23
HETATM   23  O8  UNL     1     -20.096  42.231 -25.986  1.00  0.00    -0.379 OA
HETATM   24  H53 UNL     1     -19.748  41.685 -25.254  1.00  0.00     0.211 HD
ENDBRANCH  19  23
BRANCH  19  25
HETATM   25  C39 UNL     1     -18.740  41.037 -27.559  1.00  0.00     0.210 C 
BRANCH  25  26
HETATM   26  O9  UNL     1     -19.959  40.454 -28.023  1.00  0.00    -0.397 OA
HETATM   27  H56 UNL     1     -20.608  40.570 -27.302  1.00  0.00     0.209 HD
ENDBRANCH  25  26
ENDBRANCH  19  25
ENDBRANCH   2   4
ENDBRANCH   1   2
BRANCH   1  28
HETATM   28  C9  UNL     1     -10.419  45.786 -26.052  1.00  0.00     0.227 C 
BRANCH  28  29
HETATM   29  C10 UNL     1      -9.574  46.996 -26.445  1.00  0.00     0.171 C 
HETATM   30  C11 UNL     1      -8.430  46.656 -27.401  1.00  0.00     0.175 C 
HETATM   31  O4  UNL     1      -7.686  45.695 -27.237  1.00  0.00    -0.294 OA
HETATM   32  C12 UNL     1      -8.322  47.671 -28.558  1.00  0.00     0.037 C 
HETATM   33  C13 UNL     1      -6.869  48.081 -28.852  1.00  0.00     0.019 C 
HETATM   34  C23 UNL     1      -9.099  47.127 -29.809  1.00  0.00     0.003 C 
HETATM   35  C28 UNL     1      -9.068  48.836 -27.871  1.00  0.00     0.059 C 
HETATM   36  C14 UNL     1      -6.221  47.377 -30.050  1.00  0.00     0.010 C 
HETATM   37  C15 UNL     1      -6.758  45.962 -30.235  1.00  0.00     0.040 C 
HETATM   38  C16 UNL     1      -6.273  45.203 -31.478  1.00  0.00     0.051 C 
HETATM   39  C21 UNL     1      -8.279  45.922 -30.474  1.00  0.00     0.084 C 
HETATM   40  C17 UNL     1      -4.818  45.439 -31.866  1.00  0.00     0.026 C 
HETATM   41  C18 UNL     1      -6.593  43.697 -31.363  1.00  0.00     0.020 C 
HETATM   42  C22 UNL     1      -7.218  45.739 -32.524  1.00  0.00     0.268 C 
HETATM   43  C19 UNL     1      -7.729  43.378 -30.385  1.00  0.00     0.004 C 
HETATM   44  C20 UNL     1      -8.778  44.485 -30.165  1.00  0.00     0.040 C 
HETATM   45  O5  UNL     1      -8.395  46.062 -31.916  1.00  0.00    -0.308 OA
HETATM   46  O6  UNL     1      -7.015  45.836 -33.722  1.00  0.00    -0.264 OA
HETATM   47  C24 UNL     1      -9.290  48.283 -30.851  1.00  0.00     0.019 C 
HETATM   48  C25 UNL     1     -10.556  46.725 -29.403  1.00  0.00     0.016 C 
HETATM   49  C26 UNL     1     -11.211  47.672 -28.384  1.00  0.00     0.042 C 
HETATM   50  C27 UNL     1     -10.272  48.124 -27.250  1.00  0.00     0.099 C 
BRANCH  29  51
HETATM   51  O3  UNL     1      -9.000  47.588 -25.259  1.00  0.00    -0.377 OA
HETATM   52  H15 UNL     1      -8.450  46.902 -24.834  1.00  0.00     0.211 HD
ENDBRANCH  29  51
BRANCH  50  53
HETATM   53  O7  UNL     1     -10.968  49.029 -26.400  1.00  0.00    -0.386 OA
HETATM   54  H37 UNL     1     -10.476  49.037 -25.552  1.00  0.00     0.210 HD
ENDBRANCH  50  53
ENDBRANCH  28  29
ENDBRANCH   1  28
TORSDOF 9
ENDMDL
MODEL 5
REMARK minimizedAffinity -10.7295122
REMARK CNNscore 0.452975184
REMARK CNNaffinity 6.94476461
REMARK  9 active torsions:
REMARK  status: ('A' for Active; 'I' for Inactive)
REMARK    1  A    between atoms: C6_6  and  C8_8 
REMARK    2  A    between atoms: C8_8  and  O2_10 
REMARK    3  A    between atoms: O2_10  and  C9_11 
REMARK    4  A    between atoms: C9_11  and  C10_12 
REMARK    5  A    between atoms: C10_12  and  O3_13 
REMARK    6  A    between atoms: C27_33  and  O7_34 
REMARK    7  A    between atoms: C38_45  and  O8_46 
REMARK    8  A    between atoms: C38_45  and  C39_47 
REMARK    9  A    between atoms: C39_47  and  O9_48 
ROOT
HETATM    1  O2  UNL     1      -7.877  48.292 -24.669  1.00  0.00    -0.317 OA
ENDROOT
BRANCH   1   2
HETATM    2  C8  UNL     1      -7.383  47.485 -23.694  1.00  0.00     0.267 C 
HETATM    3  O1  UNL     1      -7.231  46.277 -23.825  1.00  0.00    -0.264 OA
BRANCH   2   4
HETATM    4  C6  UNL     1      -7.106  48.253 -22.395  1.00  0.00     0.049 C 
HETATM    5  C5  UNL     1      -7.491  49.759 -22.449  1.00  0.00     0.020 C 
HETATM    6  C4  UNL     1      -6.515  50.636 -23.229  1.00  0.00     0.002 C 
HETATM    7  C3  UNL     1      -5.061  50.450 -22.784  1.00  0.00     0.010 C 
HETATM    8  C2  UNL     1      -4.590  48.972 -22.809  1.00  0.00    -0.035 C 
HETATM    9  C1  UNL     1      -4.548  48.519 -24.296  1.00  0.00     0.016 C 
HETATM   10  C29 UNL     1      -5.613  48.160 -21.939  1.00  0.00     0.012 C 
HETATM   11  C37 UNL     1      -3.105  48.757 -22.272  1.00  0.00     0.010 C 
HETATM   12  C30 UNL     1      -5.066  46.765 -21.627  1.00  0.00     0.008 C 
HETATM   13  C31 UNL     1      -3.860  46.850 -20.685  1.00  0.00     0.018 C 
HETATM   14  C32 UNL     1      -2.985  48.097 -20.871  1.00  0.00     0.028 C 
HETATM   15  C33 UNL     1      -1.501  47.731 -20.617  1.00  0.00     0.026 C 
HETATM   16  C40 UNL     1      -3.147  49.153 -19.763  1.00  0.00     0.172 C 
HETATM   17  C34 UNL     1      -0.855  49.101 -20.389  1.00  0.00     0.031 C 
HETATM   18  C35 UNL     1      -0.815  49.834 -21.742  1.00  0.00     0.009 C 
HETATM   19  C38 UNL     1      -1.791  49.710 -19.324  1.00  0.00     0.143 C 
HETATM   20  C36 UNL     1      -2.191  50.001 -22.401  1.00  0.00     0.007 C 
HETATM   21  O10 UNL     1      -4.207  49.498 -19.253  1.00  0.00    -0.294 OA
HETATM   22  C7  UNL     1      -8.046  47.598 -21.353  1.00  0.00     0.026 C 
BRANCH  19  23
HETATM   23  O8  UNL     1      -1.456  49.131 -18.050  1.00  0.00    -0.379 OA
HETATM   24  H53 UNL     1      -2.203  49.326 -17.449  1.00  0.00     0.211 HD
ENDBRANCH  19  23
BRANCH  19  25
HETATM   25  C39 UNL     1      -1.769  51.228 -19.166  1.00  0.00     0.210 C 
BRANCH  25  26
HETATM   26  O9  UNL     1      -2.752  51.636 -18.213  1.00  0.00    -0.397 OA
HETATM   27  H56 UNL     1      -3.568  51.147 -18.436  1.00  0.00     0.209 HD
ENDBRANCH  25  26
ENDBRANCH  19  25
ENDBRANCH   2   4
ENDBRANCH   1   2
BRANCH   1  28
HETATM   28  C9  UNL     1      -7.750  47.824 -26.024  1.00  0.00     0.227 C 
BRANCH  28  29
HETATM   29  C10 UNL     1      -9.004  48.208 -26.806  1.00  0.00     0.171 C 
HETATM   30  C11 UNL     1      -8.856  48.033 -28.319  1.00  0.00     0.175 C 
HETATM   31  O4  UNL     1      -7.872  48.415 -28.942  1.00  0.00    -0.294 OA
HETATM   32  C12 UNL     1     -10.089  47.348 -28.945  1.00  0.00     0.037 C 
HETATM   33  C13 UNL     1     -10.532  48.015 -30.259  1.00  0.00     0.019 C 
HETATM   34  C23 UNL     1      -9.829  45.804 -29.066  1.00  0.00     0.003 C 
HETATM   35  C28 UNL     1     -11.094  47.683 -27.821  1.00  0.00     0.059 C 
HETATM   36  C14 UNL     1     -10.085  47.297 -31.538  1.00  0.00     0.010 C 
HETATM   37  C15 UNL     1      -8.748  46.589 -31.354  1.00  0.00     0.040 C 
HETATM   38  C16 UNL     1      -8.259  45.733 -32.530  1.00  0.00     0.051 C 
HETATM   39  C21 UNL     1      -8.779  45.523 -30.243  1.00  0.00     0.084 C 
HETATM   40  C17 UNL     1      -8.551  46.293 -33.917  1.00  0.00     0.026 C 
HETATM   41  C18 UNL     1      -6.767  45.373 -32.367  1.00  0.00     0.020 C 
HETATM   42  C22 UNL     1      -9.014  44.451 -32.282  1.00  0.00     0.268 C 
HETATM   43  C19 UNL     1      -6.266  45.452 -30.920  1.00  0.00     0.004 C 
HETATM   44  C20 UNL     1      -7.316  45.229 -29.816  1.00  0.00     0.040 C 
HETATM   45  O5  UNL     1      -9.219  44.326 -30.939  1.00  0.00    -0.308 OA
HETATM   46  O6  UNL     1      -9.357  43.624 -33.109  1.00  0.00    -0.264 OA
HETATM   47  C24 UNL     1     -11.180  45.068 -29.367  1.00  0.00     0.019 C 
HETATM   48  C25 UNL     1      -9.371  45.228 -27.685  1.00  0.00     0.016 C 
HETATM   49  C26 UNL     1     -10.092  45.842 -26.474  1.00  0.00     0.042 C 
HETATM   50  C27 UNL     1     -10.285  47.366 -26.562  1.00  0.00     0.099 C 
BRANCH  29  51
HETATM   51  O3  UNL     1      -9.327  49.592 -26.550  1.00  0.00    -0.377 OA
HETATM   52  H15 UNL     1      -8.560  50.123 -26.839  1.00  0.00     0.211 HD
ENDBRANCH  29  51
BRANCH  50  53
HETATM   53  O7  UNL     1     -11.001  47.814 -25.416  1.00  0.00    -0.386 OA
HETATM   54  H37 UNL     1     -10.825  48.776 -25.345  1.00  0.00     0.210 HD
ENDBRANCH  50  53
ENDBRANCH  28  29
ENDBRANCH   1  28
TORSDOF 9
ENDMDL
MODEL 6
REMARK minimizedAffinity -9.85991764
REMARK CNNscore 0.427745849
REMARK CNNaffinity 6.88597488
REMARK  9 active torsions:
REMARK  status: ('A' for Active; 'I' for Inactive)
REMARK    1  A    between atoms: C6_6  and  C8_8 
REMARK    2  A    between atoms: C8_8  and  O2_10 
REMARK    3  A    between atoms: O2_10  and  C9_11 
REMARK    4  A    between atoms: C9_11  and  C10_12 
REMARK    5  A    between atoms: C10_12  and  O3_13 
REMARK    6  A    between atoms: C27_33  and  O7_34 
REMARK    7  A    between atoms: C38_45  and  O8_46 
REMARK    8  A    between atoms: C38_45  and  C39_47 
REMARK    9  A    between atoms: C39_47  and  O9_48 
ROOT
HETATM    1  O2  UNL     1      -7.630  48.570 -24.442  1.00  0.00    -0.317 OA
ENDROOT
BRANCH   1   2
HETATM    2  C8  UNL     1      -6.538  48.359 -23.663  1.00  0.00     0.267 C 
HETATM    3  O1  UNL     1      -6.387  47.367 -22.960  1.00  0.00    -0.264 OA
BRANCH   2   4
HETATM    4  C6  UNL     1      -5.555  49.537 -23.715  1.00  0.00     0.049 C 
HETATM    5  C5  UNL     1      -4.571  49.493 -24.918  1.00  0.00     0.020 C 
HETATM    6  C4  UNL     1      -3.431  48.489 -24.770  1.00  0.00     0.002 C 
HETATM    7  C3  UNL     1      -2.680  48.633 -23.443  1.00  0.00     0.010 C 
HETATM    8  C2  UNL     1      -3.605  48.580 -22.198  1.00  0.00    -0.035 C 
HETATM    9  C1  UNL     1      -4.182  47.139 -22.105  1.00  0.00     0.016 C 
HETATM   10  C29 UNL     1      -4.705  49.679 -22.410  1.00  0.00     0.012 C 
HETATM   11  C37 UNL     1      -2.845  48.810 -20.816  1.00  0.00     0.010 C 
HETATM   12  C30 UNL     1      -5.468  49.936 -21.108  1.00  0.00     0.008 C 
HETATM   13  C31 UNL     1      -4.561  50.604 -20.068  1.00  0.00     0.018 C 
HETATM   14  C32 UNL     1      -3.086  50.185 -20.136  1.00  0.00     0.028 C 
HETATM   15  C33 UNL     1      -2.493  50.144 -18.705  1.00  0.00     0.026 C 
HETATM   16  C40 UNL     1      -2.153  51.252 -20.734  1.00  0.00     0.172 C 
HETATM   17  C34 UNL     1      -0.985  50.170 -18.969  1.00  0.00     0.031 C 
HETATM   18  C35 UNL     1      -0.586  48.806 -19.559  1.00  0.00     0.009 C 
HETATM   19  C38 UNL     1      -0.861  51.376 -19.924  1.00  0.00     0.143 C 
HETATM   20  C36 UNL     1      -1.342  48.438 -20.843  1.00  0.00     0.007 C 
HETATM   21  O10 UNL     1      -2.399  51.953 -21.709  1.00  0.00    -0.294 OA
HETATM   22  C7  UNL     1      -6.455  50.779 -23.930  1.00  0.00     0.026 C 
BRANCH  19  23
HETATM   23  O8  UNL     1      -0.933  52.580 -19.139  1.00  0.00    -0.379 OA
HETATM   24  H53 UNL     1      -1.108  53.311 -19.763  1.00  0.00     0.211 HD
ENDBRANCH  19  23
BRANCH  19  25
HETATM   25  C39 UNL     1       0.400  51.456 -20.781  1.00  0.00     0.210 C 
BRANCH  25  26
HETATM   26  O9  UNL     1       0.430  52.692 -21.497  1.00  0.00    -0.397 OA
HETATM   27  H56 UNL     1      -0.465  52.811 -21.872  1.00  0.00     0.209 HD
ENDBRANCH  25  26
ENDBRANCH  19  25
ENDBRANCH   2   4
ENDBRANCH   1   2
BRANCH   1  28
HETATM   28  C9  UNL     1      -7.715  47.808 -25.660  1.00  0.00     0.227 C 
BRANCH  28  29
HETATM   29  C10 UNL     1      -8.959  48.239 -26.435  1.00  0.00     0.171 C 
HETATM   30  C11 UNL     1      -8.815  48.088 -27.950  1.00  0.00     0.175 C 
HETATM   31  O4  UNL     1      -7.821  48.456 -28.567  1.00  0.00    -0.294 OA
HETATM   32  C12 UNL     1     -10.066  47.448 -28.588  1.00  0.00     0.037 C 
HETATM   33  C13 UNL     1     -10.491  48.150 -29.890  1.00  0.00     0.019 C 
HETATM   34  C23 UNL     1      -9.847  45.900 -28.738  1.00  0.00     0.003 C 
HETATM   35  C28 UNL     1     -11.062  47.788 -27.458  1.00  0.00     0.059 C 
HETATM   36  C14 UNL     1     -10.063  47.445 -31.182  1.00  0.00     0.010 C 
HETATM   37  C15 UNL     1      -8.745  46.698 -31.012  1.00  0.00     0.040 C 
HETATM   38  C16 UNL     1      -8.279  45.851 -32.203  1.00  0.00     0.051 C 
HETATM   39  C21 UNL     1      -8.805  45.612 -29.920  1.00  0.00     0.084 C 
HETATM   40  C17 UNL     1      -8.556  46.445 -33.580  1.00  0.00     0.026 C 
HETATM   41  C18 UNL     1      -6.796  45.449 -32.047  1.00  0.00     0.020 C 
HETATM   42  C22 UNL     1      -9.068  44.585 -31.978  1.00  0.00     0.268 C 
HETATM   43  C19 UNL     1      -6.294  45.488 -30.600  1.00  0.00     0.004 C 
HETATM   44  C20 UNL     1      -7.350  45.272 -29.499  1.00  0.00     0.040 C 
HETATM   45  O5  UNL     1      -9.276  44.441 -30.638  1.00  0.00    -0.308 OA
HETATM   46  O6  UNL     1      -9.432  43.783 -32.820  1.00  0.00    -0.264 OA
HETATM   47  C24 UNL     1     -11.217  45.205 -29.052  1.00  0.00     0.019 C 
HETATM   48  C25 UNL     1      -9.404  45.286 -27.368  1.00  0.00     0.016 C 
HETATM   49  C26 UNL     1     -10.110  45.896 -26.146  1.00  0.00     0.042 C 
HETATM   50  C27 UNL     1     -10.261  47.427 -26.205  1.00  0.00     0.099 C 
BRANCH  29  51
HETATM   51  O3  UNL     1      -9.245  49.626 -26.152  1.00  0.00    -0.377 OA
HETATM   52  H15 UNL     1      -8.464  50.142 -26.432  1.00  0.00     0.211 HD
ENDBRANCH  29  51
BRANCH  50  53
HETATM   53  O7  UNL     1     -10.966  47.872 -25.051  1.00  0.00    -0.386 OA
HETATM   54  H37 UNL     1     -10.764  48.827 -24.962  1.00  0.00     0.210 HD
ENDBRANCH  50  53
ENDBRANCH  28  29
ENDBRANCH   1  28
TORSDOF 9
ENDMDL
MODEL 7
REMARK minimizedAffinity -10.082036
REMARK CNNscore 0.425507516
REMARK CNNaffinity 6.882761
REMARK  9 active torsions:
REMARK  status: ('A' for Active; 'I' for Inactive)
REMARK    1  A    between atoms: C6_6  and  C8_8 
REMARK    2  A    between atoms: C8_8  and  O2_10 
REMARK    3  A    between atoms: O2_10  and  C9_11 
REMARK    4  A    between atoms: C9_11  and  C10_12 
REMARK    5  A    between atoms: C10_12  and  O3_13 
REMARK    6  A    between atoms: C27_33  and  O7_34 
REMARK    7  A    between atoms: C38_45  and  O8_46 
REMARK    8  A    between atoms: C38_45  and  C39_47 
REMARK    9  A    between atoms: C39_47  and  O9_48 
ROOT
HETATM    1  O2  UNL     1      -8.386  47.515 -23.807  1.00  0.00    -0.317 OA
ENDROOT
BRANCH   1   2
HETATM    2  C8  UNL     1      -7.581  46.754 -23.022  1.00  0.00     0.267 C 
HETATM    3  O1  UNL     1      -7.255  45.605 -23.295  1.00  0.00    -0.264 OA
BRANCH   2   4
HETATM    4  C6  UNL     1      -7.187  47.477 -21.727  1.00  0.00     0.049 C 
HETATM    5  C5  UNL     1      -7.779  48.908 -21.590  1.00  0.00     0.020 C 
HETATM    6  C4  UNL     1      -7.088  49.967 -22.444  1.00  0.00     0.002 C 
HETATM    7  C3  UNL     1      -5.566  49.976 -22.264  1.00  0.00     0.010 C 
HETATM    8  C2  UNL     1      -4.907  48.590 -22.491  1.00  0.00    -0.035 C 
HETATM    9  C1  UNL     1      -5.067  48.237 -23.998  1.00  0.00     0.016 C 
HETATM   10  C29 UNL     1      -5.638  47.584 -21.535  1.00  0.00     0.012 C 
HETATM   11  C37 UNL     1      -3.335  48.570 -22.228  1.00  0.00     0.010 C 
HETATM   12  C30 UNL     1      -4.858  46.270 -21.436  1.00  0.00     0.008 C 
HETATM   13  C31 UNL     1      -3.527  46.481 -20.704  1.00  0.00     0.018 C 
HETATM   14  C32 UNL     1      -2.880  47.854 -20.927  1.00  0.00     0.028 C 
HETATM   15  C33 UNL     1      -1.338  47.701 -20.955  1.00  0.00     0.026 C 
HETATM   16  C40 UNL     1      -2.988  48.807 -19.724  1.00  0.00     0.172 C 
HETATM   17  C34 UNL     1      -0.858  49.137 -20.724  1.00  0.00     0.031 C 
HETATM   18  C35 UNL     1      -1.159  49.946 -21.998  1.00  0.00     0.009 C 
HETATM   19  C38 UNL     1      -1.666  49.534 -19.471  1.00  0.00     0.143 C 
HETATM   20  C36 UNL     1      -2.640  49.943 -22.403  1.00  0.00     0.007 C 
HETATM   21  O10 UNL     1      -3.978  48.957 -19.017  1.00  0.00    -0.294 OA
HETATM   22  C7  UNL     1      -7.829  46.628 -20.602  1.00  0.00     0.026 C 
BRANCH  19  23
HETATM   23  O8  UNL     1      -1.035  48.939 -18.323  1.00  0.00    -0.379 OA
HETATM   24  H53 UNL     1      -1.683  48.983 -17.593  1.00  0.00     0.211 HD
ENDBRANCH  19  23
BRANCH  19  25
HETATM   25  C39 UNL     1      -1.826  51.026 -19.191  1.00  0.00     0.210 C 
BRANCH  25  26
HETATM   26  O9  UNL     1      -3.167  51.436 -19.467  1.00  0.00    -0.397 OA
HETATM   27  H56 UNL     1      -3.402  51.039 -20.328  1.00  0.00     0.209 HD
ENDBRANCH  25  26
ENDBRANCH  19  25
ENDBRANCH   2   4
ENDBRANCH   1   2
BRANCH   1  28
HETATM   28  C9  UNL     1      -8.934  46.883 -24.979  1.00  0.00     0.227 C 
BRANCH  28  29
HETATM   29  C10 UNL     1      -8.557  47.702 -26.212  1.00  0.00     0.171 C 
HETATM   30  C11 UNL     1      -8.364  46.853 -27.470  1.00  0.00     0.175 C 
HETATM   31  O4  UNL     1      -7.721  45.809 -27.479  1.00  0.00    -0.294 OA
HETATM   32  C12 UNL     1      -9.050  47.482 -28.702  1.00  0.00     0.037 C 
HETATM   33  C13 UNL     1      -8.170  47.423 -29.962  1.00  0.00     0.019 C 
HETATM   34  C23 UNL     1     -10.477  46.852 -28.887  1.00  0.00     0.003 C 
HETATM   35  C28 UNL     1      -9.118  48.931 -28.174  1.00  0.00     0.059 C 
HETATM   36  C14 UNL     1      -8.512  46.299 -30.947  1.00  0.00     0.010 C 
HETATM   37  C15 UNL     1      -9.056  45.067 -30.234  1.00  0.00     0.040 C 
HETATM   38  C16 UNL     1      -9.550  43.921 -31.127  1.00  0.00     0.051 C 
HETATM   39  C21 UNL     1     -10.340  45.352 -29.432  1.00  0.00     0.084 C 
HETATM   40  C17 UNL     1      -8.735  43.676 -32.392  1.00  0.00     0.026 C 
HETATM   41  C18 UNL     1      -9.732  42.624 -30.310  1.00  0.00     0.020 C 
HETATM   42  C22 UNL     1     -10.944  44.394 -31.451  1.00  0.00     0.268 C 
HETATM   43  C19 UNL     1      -9.915  42.860 -28.807  1.00  0.00     0.004 C 
HETATM   44  C20 UNL     1     -10.522  44.214 -28.393  1.00  0.00     0.040 C 
HETATM   45  O5  UNL     1     -11.396  45.147 -30.408  1.00  0.00    -0.308 OA
HETATM   46  O6  UNL     1     -11.602  44.130 -32.443  1.00  0.00    -0.264 OA
HETATM   47  C24 UNL     1     -11.302  47.717 -29.902  1.00  0.00     0.019 C 
HETATM   48  C25 UNL     1     -11.283  46.947 -27.549  1.00  0.00     0.016 C 
HETATM   49  C26 UNL     1     -11.062  48.255 -26.771  1.00  0.00     0.042 C 
HETATM   50  C27 UNL     1      -9.598  48.727 -26.735  1.00  0.00     0.099 C 
BRANCH  29  51
HETATM   51  O3  UNL     1      -7.324  48.410 -25.961  1.00  0.00    -0.377 OA
HETATM   52  H15 UNL     1      -6.642  47.738 -25.767  1.00  0.00     0.211 HD
ENDBRANCH  29  51
BRANCH  50  53
HETATM   53  O7  UNL     1      -9.522  49.963 -26.033  1.00  0.00    -0.386 OA
HETATM   54  H37 UNL     1      -8.586  50.061 -25.757  1.00  0.00     0.210 HD
ENDBRANCH  50  53
ENDBRANCH  28  29
ENDBRANCH   1  28
TORSDOF 9
ENDMDL
MODEL 8
REMARK minimizedAffinity -9.75277233
REMARK CNNscore 0.362640202
REMARK CNNaffinity 7.54024887
REMARK  9 active torsions:
REMARK  status: ('A' for Active; 'I' for Inactive)
REMARK    1  A    between atoms: C6_6  and  C8_8 
REMARK    2  A    between atoms: C8_8  and  O2_10 
REMARK    3  A    between atoms: O2_10  and  C9_11 
REMARK    4  A    between atoms: C9_11  and  C10_12 
REMARK    5  A    between atoms: C10_12  and  O3_13 
REMARK    6  A    between atoms: C27_33  and  O7_34 
REMARK    7  A    between atoms: C38_45  and  O8_46 
REMARK    8  A    between atoms: C38_45  and  C39_47 
REMARK    9  A    between atoms: C39_47  and  O9_48 
ROOT
HETATM    1  O2  UNL     1      -3.409  49.083 -17.668  1.00  0.00    -0.317 OA
ENDROOT
BRANCH   1   2
HETATM    2  C8  UNL     1      -2.716  49.779 -18.605  1.00  0.00     0.267 C 
HETATM    3  O1  UNL     1      -2.306  50.921 -18.437  1.00  0.00    -0.264 OA
BRANCH   2   4
HETATM    4  C6  UNL     1      -2.569  48.995 -19.916  1.00  0.00     0.049 C 
HETATM    5  C5  UNL     1      -1.139  48.437 -20.169  1.00  0.00     0.020 C 
HETATM    6  C4  UNL     1      -0.122  49.480 -20.625  1.00  0.00     0.002 C 
HETATM    7  C3  UNL     1      -0.612  50.309 -21.816  1.00  0.00     0.010 C 
HETATM    8  C2  UNL     1      -1.993  50.976 -21.579  1.00  0.00    -0.035 C 
HETATM    9  C1  UNL     1      -1.809  52.052 -20.471  1.00  0.00     0.016 C 
HETATM   10  C29 UNL     1      -2.983  49.827 -21.174  1.00  0.00     0.012 C 
HETATM   11  C37 UNL     1      -2.551  51.775 -22.841  1.00  0.00     0.010 C 
HETATM   12  C30 UNL     1      -4.432  50.318 -21.238  1.00  0.00     0.008 C 
HETATM   13  C31 UNL     1      -4.852  50.590 -22.686  1.00  0.00     0.018 C 
HETATM   14  C32 UNL     1      -3.728  51.102 -23.597  1.00  0.00     0.028 C 
HETATM   15  C33 UNL     1      -4.308  52.113 -24.618  1.00  0.00     0.026 C 
HETATM   16  C40 UNL     1      -3.198  50.057 -24.595  1.00  0.00     0.172 C 
HETATM   17  C34 UNL     1      -3.217  52.165 -25.691  1.00  0.00     0.031 C 
HETATM   18  C35 UNL     1      -2.009  52.911 -25.099  1.00  0.00     0.009 C 
HETATM   19  C38 UNL     1      -3.001  50.665 -25.984  1.00  0.00     0.143 C 
HETATM   20  C36 UNL     1      -1.456  52.280 -23.813  1.00  0.00     0.007 C 
HETATM   21  O10 UNL     1      -2.987  48.875 -24.348  1.00  0.00    -0.294 OA
HETATM   22  C7  UNL     1      -3.493  47.766 -19.735  1.00  0.00     0.026 C 
BRANCH  19  23
HETATM   23  O8  UNL     1      -4.075  50.215 -26.831  1.00  0.00    -0.379 OA
HETATM   24  H53 UNL     1      -4.066  49.238 -26.797  1.00  0.00     0.211 HD
ENDBRANCH  19  23
BRANCH  19  25
HETATM   25  C39 UNL     1      -1.686  50.270 -26.651  1.00  0.00     0.210 C 
BRANCH  25  26
HETATM   26  O9  UNL     1      -1.543  50.953 -27.898  1.00  0.00    -0.397 OA
HETATM   27  H56 UNL     1      -2.404  50.872 -28.353  1.00  0.00     0.209 HD
ENDBRANCH  25  26
ENDBRANCH  19  25
ENDBRANCH   2   4
ENDBRANCH   1   2
BRANCH   1  28
HETATM   28  C9  UNL     1      -3.256  49.505 -16.301  1.00  0.00     0.227 C 
BRANCH  28  29
HETATM   29  C10 UNL     1      -2.596  48.383 -15.501  1.00  0.00     0.171 C 
HETATM   30  C11 UNL     1      -1.083  48.553 -15.349  1.00  0.00     0.175 C 
HETATM   31  O4  UNL     1      -0.348  48.856 -16.282  1.00  0.00    -0.294 OA
HETATM   32  C12 UNL     1      -0.613  48.277 -13.905  1.00  0.00     0.037 C 
HETATM   33  C13 UNL     1       0.671  47.430 -13.853  1.00  0.00     0.019 C 
HETATM   34  C23 UNL     1      -0.520  49.631 -13.115  1.00  0.00     0.003 C 
HETATM   35  C28 UNL     1      -1.823  47.427 -13.461  1.00  0.00     0.059 C 
HETATM   36  C14 UNL     1       1.963  48.218 -13.610  1.00  0.00     0.010 C 
HETATM   37  C15 UNL     1       1.895  49.619 -14.206  1.00  0.00     0.040 C 
HETATM   38  C16 UNL     1       3.085  50.545 -13.919  1.00  0.00     0.051 C 
HETATM   39  C21 UNL     1       0.750  50.467 -13.621  1.00  0.00     0.084 C 
HETATM   40  C17 UNL     1       4.452  49.872 -13.907  1.00  0.00     0.026 C 
HETATM   41  C18 UNL     1       3.065  51.774 -14.852  1.00  0.00     0.020 C 
HETATM   42  C22 UNL     1       2.714  51.067 -12.553  1.00  0.00     0.268 C 
HETATM   43  C19 UNL     1       1.682  52.087 -15.435  1.00  0.00     0.004 C 
HETATM   44  C20 UNL     1       0.468  51.637 -14.601  1.00  0.00     0.040 C 
HETATM   45  O5  UNL     1       1.354  51.086 -12.454  1.00  0.00    -0.308 OA
HETATM   46  O6  UNL     1       3.472  51.457 -11.682  1.00  0.00    -0.264 OA
HETATM   47  C24 UNL     1      -0.386  49.333 -11.581  1.00  0.00     0.019 C 
HETATM   48  C25 UNL     1      -1.864  50.421 -13.243  1.00  0.00     0.016 C 
HETATM   49  C26 UNL     1      -3.122  49.537 -13.202  1.00  0.00     0.042 C 
HETATM   50  C27 UNL     1      -3.001  48.233 -14.011  1.00  0.00     0.099 C 
BRANCH  29  51
HETATM   51  O3  UNL     1      -2.836  47.119 -16.157  1.00  0.00    -0.377 OA
HETATM   52  H15 UNL     1      -2.451  47.183 -17.052  1.00  0.00     0.211 HD
ENDBRANCH  29  51
BRANCH  50  53
HETATM   53  O7  UNL     1      -4.200  47.478 -13.862  1.00  0.00    -0.386 OA
HETATM   54  H37 UNL     1      -4.218  46.849 -14.614  1.00  0.00     0.210 HD
ENDBRANCH  50  53
ENDBRANCH  28  29
ENDBRANCH   1  28
TORSDOF 9
ENDMDL
MODEL 9
REMARK minimizedAffinity -9.43626022
REMARK CNNscore 0.299480766
REMARK CNNaffinity 6.78325653
REMARK  9 active torsions:
REMARK  status: ('A' for Active; 'I' for Inactive)
REMARK    1  A    between atoms: C6_6  and  C8_8 
REMARK    2  A    between atoms: C8_8  and  O2_10 
REMARK    3  A    between atoms: O2_10  and  C9_11 
REMARK    4  A    between atoms: C9_11  and  C10_12 
REMARK    5  A    between atoms: C10_12  and  O3_13 
REMARK    6  A    between atoms: C27_33  and  O7_34 
REMARK    7  A    between atoms: C38_45  and  O8_46 
REMARK    8  A    between atoms: C38_45  and  C39_47 
REMARK    9  A    between atoms: C39_47  and  O9_48 
ROOT
HETATM    1  O2  UNL     1      -2.376  48.616 -17.979  1.00  0.00    -0.317 OA
ENDROOT
BRANCH   1   2
HETATM    2  C8  UNL     1      -3.418  48.685 -18.847  1.00  0.00     0.267 C 
HETATM    3  O1  UNL     1      -4.530  49.100 -18.542  1.00  0.00    -0.264 OA
BRANCH   2   4
HETATM    4  C6  UNL     1      -3.059  48.120 -20.228  1.00  0.00     0.049 C 
HETATM    5  C5  UNL     1      -1.566  47.710 -20.381  1.00  0.00     0.020 C 
HETATM    6  C4  UNL     1      -0.602  48.880 -20.558  1.00  0.00     0.002 C 
HETATM    7  C3  UNL     1      -1.030  49.841 -21.671  1.00  0.00     0.010 C 
HETATM    8  C2  UNL     1      -2.482  50.364 -21.512  1.00  0.00    -0.035 C 
HETATM    9  C1  UNL     1      -2.518  51.272 -20.250  1.00  0.00     0.016 C 
HETATM   10  C29 UNL     1      -3.405  49.099 -21.397  1.00  0.00     0.012 C 
HETATM   11  C37 UNL     1      -2.967  51.302 -22.707  1.00  0.00     0.010 C 
HETATM   12  C30 UNL     1      -4.876  49.488 -21.567  1.00  0.00     0.008 C 
HETATM   13  C31 UNL     1      -5.157  49.945 -23.003  1.00  0.00     0.018 C 
HETATM   14  C32 UNL     1      -3.989  50.667 -23.689  1.00  0.00     0.028 C 
HETATM   15  C33 UNL     1      -4.541  51.775 -24.620  1.00  0.00     0.026 C 
HETATM   16  C40 UNL     1      -3.262  49.824 -24.751  1.00  0.00     0.172 C 
HETATM   17  C34 UNL     1      -3.348  52.066 -25.534  1.00  0.00     0.031 C 
HETATM   18  C35 UNL     1      -2.283  52.800 -24.700  1.00  0.00     0.009 C 
HETATM   19  C38 UNL     1      -2.968  50.647 -26.007  1.00  0.00     0.143 C 
HETATM   20  C36 UNL     1      -1.821  52.024 -23.458  1.00  0.00     0.007 C 
HETATM   21  O10 UNL     1      -2.974  48.637 -24.650  1.00  0.00    -0.294 OA
HETATM   22  C7  UNL     1      -3.884  46.814 -20.336  1.00  0.00     0.026 C 
BRANCH  19  23
HETATM   23  O8  UNL     1      -3.898  50.253 -27.033  1.00  0.00    -0.379 OA
HETATM   24  H53 UNL     1      -3.807  49.286 -27.137  1.00  0.00     0.211 HD
ENDBRANCH  19  23
BRANCH  19  25
HETATM   25  C39 UNL     1      -1.558  50.452 -26.558  1.00  0.00     0.210 C 
BRANCH  25  26
HETATM   26  O9  UNL     1      -1.379  51.237 -27.738  1.00  0.00    -0.397 OA
HETATM   27  H56 UNL     1      -2.177  51.093 -28.284  1.00  0.00     0.209 HD
ENDBRANCH  25  26
ENDBRANCH  19  25
ENDBRANCH   2   4
ENDBRANCH   1   2
BRANCH   1  28
HETATM   28  C9  UNL     1      -2.691  48.296 -16.612  1.00  0.00     0.227 C 
BRANCH  28  29
HETATM   29  C10 UNL     1      -2.296  49.471 -15.719  1.00  0.00     0.171 C 
HETATM   30  C11 UNL     1      -1.811  49.045 -14.332  1.00  0.00     0.175 C 
HETATM   31  O4  UNL     1      -2.392  48.210 -13.648  1.00  0.00    -0.294 OA
HETATM   32  C12 UNL     1      -0.536  49.805 -13.908  1.00  0.00     0.037 C 
HETATM   33  C13 UNL     1      -0.587  50.275 -12.444  1.00  0.00     0.019 C 
HETATM   34  C23 UNL     1       0.730  48.945 -14.261  1.00  0.00     0.003 C 
HETATM   35  C28 UNL     1      -0.700  51.014 -14.855  1.00  0.00     0.059 C 
HETATM   36  C14 UNL     1       0.184  49.400 -11.449  1.00  0.00     0.010 C 
HETATM   37  C15 UNL     1       0.194  47.935 -11.871  1.00  0.00     0.040 C 
HETATM   38  C16 UNL     1       1.042  46.982 -11.017  1.00  0.00     0.051 C 
HETATM   39  C21 UNL     1       0.844  47.709 -13.249  1.00  0.00     0.084 C 
HETATM   40  C17 UNL     1       1.038  47.264  -9.519  1.00  0.00     0.026 C 
HETATM   41  C18 UNL     1       0.688  45.510 -11.318  1.00  0.00     0.020 C 
HETATM   42  C22 UNL     1       2.407  47.203 -11.617  1.00  0.00     0.268 C 
HETATM   43  C19 UNL     1       0.033  45.299 -12.687  1.00  0.00     0.004 C 
HETATM   44  C20 UNL     1       0.377  46.328 -13.781  1.00  0.00     0.040 C 
HETATM   45  O5  UNL     1       2.251  47.537 -12.930  1.00  0.00    -0.308 OA
HETATM   46  O6  UNL     1       3.486  47.068 -11.067  1.00  0.00    -0.264 OA
HETATM   47  C24 UNL     1       2.015  49.839 -14.159  1.00  0.00     0.019 C 
HETATM   48  C25 UNL     1       0.680  48.506 -15.761  1.00  0.00     0.016 C 
HETATM   49  C26 UNL     1       0.131  49.580 -16.715  1.00  0.00     0.042 C 
HETATM   50  C27 UNL     1      -1.093  50.339 -16.171  1.00  0.00     0.099 C 
BRANCH  29  51
HETATM   51  O3  UNL     1      -3.433  50.344 -15.542  1.00  0.00    -0.377 OA
HETATM   52  H15 UNL     1      -4.140  49.813 -15.128  1.00  0.00     0.211 HD
ENDBRANCH  29  51
BRANCH  50  53
HETATM   53  O7  UNL     1      -1.482  51.334 -17.113  1.00  0.00    -0.386 OA
HETATM   54  H37 UNL     1      -2.411  51.561 -16.898  1.00  0.00     0.210 HD
ENDBRANCH  50  53
ENDBRANCH  28  29
ENDBRANCH   1  28
TORSDOF 9
ENDMDL
