MODEL 1
REMARK minimizedAffinity -9.73315239
REMARK  6 active torsions:
REMARK  status: ('A' for Active; 'I' for Inactive)
REMARK    1  A    between atoms: C12_13  and  C13_14 
REMARK    2  A    between atoms: C13_14  and  C15_16 
REMARK    3  A    between atoms: C15_16  and  C16_17 
REMARK    4  A    between atoms: C16_17  and  C17_18 
REMARK    5  A    between atoms: C18_19  and  C20_21 
REMARK    6  A    between atoms: C20_21  and  O3_23 
ROOT
HETATM    1  C1  UNL     1      -2.507  51.217 -27.435  1.00  0.00     0.052 C 
HETATM    2  C2  UNL     1      -1.599  51.762 -26.369  1.00  0.00    -0.013 C 
HETATM    3  C3  UNL     1      -1.972  52.159 -25.132  1.00  0.00    -0.066 C 
HETATM    4  C4  UNL     1      -3.379  52.059 -24.592  1.00  0.00     0.036 C 
HETATM    5  C5  UNL     1      -3.402  51.083 -23.409  1.00  0.00     0.010 C 
HETATM    6  C6  UNL     1      -2.376  51.474 -22.315  1.00  0.00     0.007 C 
HETATM    7  C7  UNL     1      -0.956  51.621 -22.954  1.00  0.00     0.068 C 
HETATM    8  C8  UNL     1       0.069  51.916 -21.877  1.00  0.00     0.133 C 
HETATM    9  O1  UNL     1       1.279  51.899 -22.111  1.00  0.00    -0.298 OA
HETATM   10  C9  UNL     1      -0.443  52.236 -20.501  1.00  0.00     0.089 C 
HETATM   11  C10 UNL     1      -1.418  51.165 -19.914  1.00  0.00    -0.026 C 
HETATM   12  C11 UNL     1      -2.188  51.941 -18.821  1.00  0.00     0.016 C 
HETATM   13  C12 UNL     1      -0.584  49.918 -19.389  1.00  0.00    -0.002 C 
HETATM   14  C21 UNL     1      -0.452  49.060 -20.655  1.00  0.00     0.006 C 
HETATM   15  C22 UNL     1      -1.813  49.134 -21.322  1.00  0.00     0.011 C 
HETATM   16  C23 UNL     1      -2.379  50.554 -21.038  1.00  0.00    -0.032 C 
HETATM   17  C24 UNL     1      -3.835  50.365 -20.546  1.00  0.00     0.016 C 
HETATM   18  C25 UNL     1      -1.004  52.689 -24.075  1.00  0.00     0.027 C 
HETATM   19  C26 UNL     1       0.326  53.107 -24.712  1.00  0.00     0.018 C 
HETATM   20  C27 UNL     1       0.869  52.048 -25.646  1.00  0.00     0.084 C 
HETATM   21  C28 UNL     1      -0.139  51.774 -26.736  1.00  0.00     0.155 C 
HETATM   22  O4  UNL     1       0.221  51.510 -27.883  1.00  0.00    -0.293 OA
ENDROOT
BRANCH  13  23
HETATM   23  C13 UNL     1      -1.176  49.169 -18.137  1.00  0.00    -0.014 C 
HETATM   24  C14 UNL     1      -2.541  49.784 -17.779  1.00  0.00     0.010 C 
BRANCH  23  25
HETATM   25  C15 UNL     1      -0.249  49.168 -16.892  1.00  0.00     0.008 C 
BRANCH  25  26
HETATM   26  C16 UNL     1      -0.218  50.472 -16.073  1.00  0.00     0.028 C 
BRANCH  26  27
HETATM   27  C17 UNL     1       0.936  51.377 -16.411  1.00  0.00    -0.013 C 
HETATM   28  C18 UNL     1       2.077  51.552 -15.712  1.00  0.00     0.008 C 
HETATM   29  C19 UNL     1       2.449  50.837 -14.449  1.00  0.00     0.055 C 
BRANCH  28  30
HETATM   30  C20 UNL     1       3.050  52.531 -16.265  1.00  0.00     0.171 C 
HETATM   31  O2  UNL     1       4.238  52.608 -16.004  1.00  0.00    -0.646 OA
BRANCH  30  32
HETATM   32  O3  UNL     1       2.481  53.375 -17.141  1.00  0.00    -0.773 OA
HETATM   33  H28 UNL     1       3.227  53.951 -17.413  1.00  0.00     0.167 HD
ENDBRANCH  30  32
ENDBRANCH  28  30
ENDBRANCH  26  27
ENDBRANCH  25  26
ENDBRANCH  23  25
ENDBRANCH  13  23
TORSDOF 6
ENDMDL
MODEL 2
REMARK minimizedAffinity -9.71878529
REMARK  6 active torsions:
REMARK  status: ('A' for Active; 'I' for Inactive)
REMARK    1  A    between atoms: C12_13  and  C13_14 
REMARK    2  A    between atoms: C13_14  and  C15_16 
REMARK    3  A    between atoms: C15_16  and  C16_17 
REMARK    4  A    between atoms: C16_17  and  C17_18 
REMARK    5  A    between atoms: C18_19  and  C20_21 
REMARK    6  A    between atoms: C20_21  and  O3_23 
ROOT
HETATM    1  C1  UNL     1       1.441  51.577 -17.141  1.00  0.00     0.052 C 
HETATM    2  C2  UNL     1       0.006  51.221 -17.405  1.00  0.00    -0.013 C 
HETATM    3  C3  UNL     1      -0.813  51.823 -18.297  1.00  0.00    -0.066 C 
HETATM    4  C4  UNL     1      -0.388  52.930 -19.232  1.00  0.00     0.036 C 
HETATM    5  C5  UNL     1      -0.494  52.440 -20.682  1.00  0.00     0.010 C 
HETATM    6  C6  UNL     1      -1.909  51.900 -21.009  1.00  0.00     0.007 C 
HETATM    7  C7  UNL     1      -2.309  50.805 -19.967  1.00  0.00     0.068 C 
HETATM    8  C8  UNL     1      -3.655  50.210 -20.331  1.00  0.00     0.133 C 
HETATM    9  O1  UNL     1      -4.096  49.210 -19.763  1.00  0.00    -0.298 OA
HETATM   10  C9  UNL     1      -4.442  50.886 -21.419  1.00  0.00     0.089 C 
HETATM   11  C10 UNL     1      -3.656  51.076 -22.756  1.00  0.00    -0.026 C 
HETATM   12  C11 UNL     1      -4.426  52.214 -23.466  1.00  0.00     0.016 C 
HETATM   13  C12 UNL     1      -3.614  49.699 -23.548  1.00  0.00    -0.002 C 
HETATM   14  C21 UNL     1      -2.373  49.020 -22.951  1.00  0.00     0.006 C 
HETATM   15  C22 UNL     1      -1.342  50.126 -22.828  1.00  0.00     0.011 C 
HETATM   16  C23 UNL     1      -2.117  51.432 -22.498  1.00  0.00    -0.032 C 
HETATM   17  C24 UNL     1      -1.584  52.524 -23.458  1.00  0.00     0.016 C 
HETATM   18  C25 UNL     1      -2.263  51.410 -18.542  1.00  0.00     0.027 C 
HETATM   19  C26 UNL     1      -2.789  50.547 -17.389  1.00  0.00     0.018 C 
HETATM   20  C27 UNL     1      -1.828  49.435 -17.026  1.00  0.00     0.084 C 
HETATM   21  C28 UNL     1      -0.497  50.029 -16.635  1.00  0.00     0.155 C 
HETATM   22  O4  UNL     1       0.190  49.521 -15.749  1.00  0.00    -0.293 OA
ENDROOT
BRANCH  13  23
HETATM   23  C13 UNL     1      -3.622  49.806 -25.119  1.00  0.00    -0.014 C 
HETATM   24  C14 UNL     1      -3.396  48.408 -25.722  1.00  0.00     0.010 C 
BRANCH  23  25
HETATM   25  C15 UNL     1      -2.590  50.809 -25.699  1.00  0.00     0.008 C 
BRANCH  25  26
HETATM   26  C16 UNL     1      -1.469  50.200 -26.564  1.00  0.00     0.028 C 
BRANCH  26  27
HETATM   27  C17 UNL     1      -0.094  50.715 -26.231  1.00  0.00    -0.013 C 
HETATM   28  C18 UNL     1       0.741  51.407 -27.033  1.00  0.00     0.008 C 
HETATM   29  C19 UNL     1       0.449  51.844 -28.436  1.00  0.00     0.055 C 
BRANCH  28  30
HETATM   30  C20 UNL     1       2.060  51.777 -26.454  1.00  0.00     0.171 C 
HETATM   31  O2  UNL     1       2.258  52.444 -25.453  1.00  0.00    -0.646 OA
BRANCH  30  32
HETATM   32  O3  UNL     1       3.086  51.278 -27.163  1.00  0.00    -0.773 OA
HETATM   33  H28 UNL     1       3.873  51.600 -26.674  1.00  0.00     0.167 HD
ENDBRANCH  30  32
ENDBRANCH  28  30
ENDBRANCH  26  27
ENDBRANCH  25  26
ENDBRANCH  23  25
ENDBRANCH  13  23
TORSDOF 6
ENDMDL
MODEL 3
REMARK minimizedAffinity -9.52771378
REMARK  6 active torsions:
REMARK  status: ('A' for Active; 'I' for Inactive)
REMARK    1  A    between atoms: C12_13  and  C13_14 
REMARK    2  A    between atoms: C13_14  and  C15_16 
REMARK    3  A    between atoms: C15_16  and  C16_17 
REMARK    4  A    between atoms: C16_17  and  C17_18 
REMARK    5  A    between atoms: C18_19  and  C20_21 
REMARK    6  A    between atoms: C20_21  and  O3_23 
ROOT
HETATM    1  C1  UNL     1       0.848  54.826 -24.377  1.00  0.00     0.052 C 
HETATM    2  C2  UNL     1       0.317  53.572 -25.012  1.00  0.00    -0.013 C 
HETATM    3  C3  UNL     1       0.032  52.415 -24.372  1.00  0.00    -0.066 C 
HETATM    4  C4  UNL     1       0.145  52.215 -22.880  1.00  0.00     0.036 C 
HETATM    5  C5  UNL     1      -1.247  51.944 -22.296  1.00  0.00     0.010 C 
HETATM    6  C6  UNL     1      -1.949  50.754 -23.000  1.00  0.00     0.007 C 
HETATM    7  C7  UNL     1      -1.975  50.998 -24.544  1.00  0.00     0.068 C 
HETATM    8  C8  UNL     1      -2.737  49.883 -25.233  1.00  0.00     0.133 C 
HETATM    9  O1  UNL     1      -3.043  49.947 -26.424  1.00  0.00    -0.298 OA
HETATM   10  C9  UNL     1      -3.111  48.685 -24.406  1.00  0.00     0.089 C 
HETATM   11  C10 UNL     1      -3.895  49.027 -23.098  1.00  0.00    -0.026 C 
HETATM   12  C11 UNL     1      -3.676  47.778 -22.212  1.00  0.00     0.016 C 
HETATM   13  C12 UNL     1      -5.412  49.340 -23.453  1.00  0.00    -0.002 C 
HETATM   14  C21 UNL     1      -5.364  50.839 -23.781  1.00  0.00     0.006 C 
HETATM   15  C22 UNL     1      -4.447  51.440 -22.733  1.00  0.00     0.011 C 
HETATM   16  C23 UNL     1      -3.361  50.373 -22.417  1.00  0.00    -0.032 C 
HETATM   17  C24 UNL     1      -3.268  50.271 -20.875  1.00  0.00     0.016 C 
HETATM   18  C25 UNL     1      -0.526  51.171 -25.063  1.00  0.00     0.027 C 
HETATM   19  C26 UNL     1      -0.320  51.249 -26.580  1.00  0.00     0.018 C 
HETATM   20  C27 UNL     1      -0.759  52.582 -27.146  1.00  0.00     0.084 C 
HETATM   21  C28 UNL     1       0.021  53.691 -26.483  1.00  0.00     0.155 C 
HETATM   22  O4  UNL     1       0.357  54.695 -27.110  1.00  0.00    -0.293 OA
ENDROOT
BRANCH  13  23
HETATM   23  C13 UNL     1      -6.474  48.930 -22.366  1.00  0.00    -0.014 C 
HETATM   24  C14 UNL     1      -5.872  49.141 -20.966  1.00  0.00     0.010 C 
BRANCH  23  25
HETATM   25  C15 UNL     1      -7.006  47.478 -22.504  1.00  0.00     0.008 C 
BRANCH  25  26
HETATM   26  C16 UNL     1      -7.459  47.056 -23.916  1.00  0.00     0.028 C 
BRANCH  26  27
HETATM   27  C17 UNL     1      -8.466  47.988 -24.536  1.00  0.00    -0.013 C 
HETATM   28  C18 UNL     1      -9.310  47.726 -25.555  1.00  0.00     0.008 C 
HETATM   29  C19 UNL     1      -9.444  46.414 -26.267  1.00  0.00     0.055 C 
BRANCH  28  30
HETATM   30  C20 UNL     1     -10.192  48.841 -25.988  1.00  0.00     0.171 C 
HETATM   31  O2  UNL     1     -11.349  48.756 -26.364  1.00  0.00    -0.646 OA
BRANCH  30  32
HETATM   32  O3  UNL     1      -9.577  50.034 -25.921  1.00  0.00    -0.773 OA
HETATM   33  H28 UNL     1     -10.265  50.658 -26.233  1.00  0.00     0.167 HD
ENDBRANCH  30  32
ENDBRANCH  28  30
ENDBRANCH  26  27
ENDBRANCH  25  26
ENDBRANCH  23  25
ENDBRANCH  13  23
TORSDOF 6
ENDMDL
MODEL 4
REMARK minimizedAffinity -9.27791691
REMARK  6 active torsions:
REMARK  status: ('A' for Active; 'I' for Inactive)
REMARK    1  A    between atoms: C12_13  and  C13_14 
REMARK    2  A    between atoms: C13_14  and  C15_16 
REMARK    3  A    between atoms: C15_16  and  C16_17 
REMARK    4  A    between atoms: C16_17  and  C17_18 
REMARK    5  A    between atoms: C18_19  and  C20_21 
REMARK    6  A    between atoms: C20_21  and  O3_23 
ROOT
HETATM    1  C1  UNL     1       1.319  54.246 -21.530  1.00  0.00     0.052 C 
HETATM    2  C2  UNL     1       0.779  53.309 -22.574  1.00  0.00    -0.013 C 
HETATM    3  C3  UNL     1       0.248  52.087 -22.348  1.00  0.00    -0.066 C 
HETATM    4  C4  UNL     1       0.052  51.481 -20.979  1.00  0.00     0.036 C 
HETATM    5  C5  UNL     1      -1.447  51.295 -20.713  1.00  0.00     0.010 C 
HETATM    6  C6  UNL     1      -2.133  50.466 -21.829  1.00  0.00     0.007 C 
HETATM    7  C7  UNL     1      -1.839  51.113 -23.222  1.00  0.00     0.068 C 
HETATM    8  C8  UNL     1      -2.579  50.360 -24.310  1.00  0.00     0.133 C 
HETATM    9  O1  UNL     1      -2.644  50.788 -25.464  1.00  0.00    -0.298 OA
HETATM   10  C9  UNL     1      -3.236  49.063 -23.932  1.00  0.00     0.089 C 
HETATM   11  C10 UNL     1      -4.210  49.168 -22.714  1.00  0.00    -0.026 C 
HETATM   12  C11 UNL     1      -4.307  47.710 -22.207  1.00  0.00     0.016 C 
HETATM   13  C12 UNL     1      -5.586  49.806 -23.187  1.00  0.00    -0.002 C 
HETATM   14  C21 UNL     1      -5.307  51.310 -23.054  1.00  0.00     0.006 C 
HETATM   15  C22 UNL     1      -4.542  51.453 -21.752  1.00  0.00     0.011 C 
HETATM   16  C23 UNL     1      -3.664  50.179 -21.601  1.00  0.00    -0.032 C 
HETATM   17  C24 UNL     1      -3.878  49.657 -20.158  1.00  0.00     0.016 C 
HETATM   18  C25 UNL     1      -0.307  51.179 -23.445  1.00  0.00     0.027 C 
HETATM   19  C26 UNL     1       0.190  51.623 -24.826  1.00  0.00     0.018 C 
HETATM   20  C27 UNL     1       0.021  53.112 -25.040  1.00  0.00     0.084 C 
HETATM   21  C28 UNL     1       0.783  53.862 -23.974  1.00  0.00     0.155 C 
HETATM   22  O4  UNL     1       1.344  54.928 -24.225  1.00  0.00    -0.293 OA
ENDROOT
BRANCH  13  23
HETATM   23  C13 UNL     1      -6.875  49.301 -22.438  1.00  0.00    -0.014 C 
HETATM   24  C14 UNL     1      -6.842  49.800 -20.982  1.00  0.00     0.010 C 
BRANCH  23  25
HETATM   25  C15 UNL     1      -7.073  47.762 -22.469  1.00  0.00     0.008 C 
BRANCH  25  26
HETATM   26  C16 UNL     1      -7.043  47.106 -23.863  1.00  0.00     0.028 C 
BRANCH  26  27
HETATM   27  C17 UNL     1      -7.707  47.925 -24.937  1.00  0.00    -0.013 C 
HETATM   28  C18 UNL     1      -9.018  47.955 -25.256  1.00  0.00     0.008 C 
HETATM   29  C19 UNL     1     -10.106  47.188 -24.568  1.00  0.00     0.055 C 
BRANCH  28  30
HETATM   30  C20 UNL     1      -9.405  48.844 -26.382  1.00  0.00     0.171 C 
HETATM   31  O2  UNL     1      -9.465  48.546 -27.563  1.00  0.00    -0.646 OA
BRANCH  30  32
HETATM   32  O3  UNL     1      -9.716  50.084 -25.970  1.00  0.00    -0.773 OA
HETATM   33  H28 UNL     1      -9.943  50.547 -26.804  1.00  0.00     0.167 HD
ENDBRANCH  30  32
ENDBRANCH  28  30
ENDBRANCH  26  27
ENDBRANCH  25  26
ENDBRANCH  23  25
ENDBRANCH  13  23
TORSDOF 6
ENDMDL
MODEL 5
REMARK minimizedAffinity -9.23529625
REMARK  6 active torsions:
REMARK  status: ('A' for Active; 'I' for Inactive)
REMARK    1  A    between atoms: C12_13  and  C13_14 
REMARK    2  A    between atoms: C13_14  and  C15_16 
REMARK    3  A    between atoms: C15_16  and  C16_17 
REMARK    4  A    between atoms: C16_17  and  C17_18 
REMARK    5  A    between atoms: C18_19  and  C20_21 
REMARK    6  A    between atoms: C20_21  and  O3_23 
ROOT
HETATM    1  C1  UNL     1      -2.530  51.396 -27.355  1.00  0.00     0.052 C 
HETATM    2  C2  UNL     1      -1.555  51.883 -26.321  1.00  0.00    -0.013 C 
HETATM    3  C3  UNL     1      -1.863  52.326 -25.081  1.00  0.00    -0.066 C 
HETATM    4  C4  UNL     1      -3.259  52.345 -24.505  1.00  0.00     0.036 C 
HETATM    5  C5  UNL     1      -3.327  51.391 -23.306  1.00  0.00     0.010 C 
HETATM    6  C6  UNL     1      -2.245  51.717 -22.245  1.00  0.00     0.007 C 
HETATM    7  C7  UNL     1      -0.836  51.743 -22.920  1.00  0.00     0.068 C 
HETATM    8  C8  UNL     1       0.237  51.973 -21.874  1.00  0.00     0.133 C 
HETATM    9  O1  UNL     1       1.435  51.857 -22.138  1.00  0.00    -0.298 OA
HETATM   10  C9  UNL     1      -0.212  52.352 -20.491  1.00  0.00     0.089 C 
HETATM   11  C10 UNL     1      -1.252  51.369 -19.863  1.00  0.00    -0.026 C 
HETATM   12  C11 UNL     1      -1.931  52.219 -18.764  1.00  0.00     0.016 C 
HETATM   13  C12 UNL     1      -0.504  50.069 -19.338  1.00  0.00    -0.002 C 
HETATM   14  C21 UNL     1      -0.472  49.185 -20.592  1.00  0.00     0.006 C 
HETATM   15  C22 UNL     1      -1.840  49.355 -21.226  1.00  0.00     0.011 C 
HETATM   16  C23 UNL     1      -2.287  50.818 -20.953  1.00  0.00    -0.032 C 
HETATM   17  C24 UNL     1      -3.740  50.752 -20.421  1.00  0.00     0.016 C 
HETATM   18  C25 UNL     1      -0.830  52.794 -24.058  1.00  0.00     0.027 C 
HETATM   19  C26 UNL     1       0.512  53.099 -24.735  1.00  0.00     0.018 C 
HETATM   20  C27 UNL     1       0.946  51.986 -25.664  1.00  0.00     0.084 C 
HETATM   21  C28 UNL     1      -0.108  51.776 -26.724  1.00  0.00     0.155 C 
HETATM   22  O4  UNL     1       0.200  51.468 -27.875  1.00  0.00    -0.293 OA
ENDROOT
BRANCH  13  23
HETATM   23  C13 UNL     1      -1.120  49.387 -18.059  1.00  0.00    -0.014 C 
HETATM   24  C14 UNL     1      -1.939  48.156 -18.488  1.00  0.00     0.010 C 
BRANCH  23  25
HETATM   25  C15 UNL     1      -1.991  50.329 -17.186  1.00  0.00     0.008 C 
BRANCH  25  26
HETATM   26  C16 UNL     1      -2.382  49.790 -15.796  1.00  0.00     0.028 C 
BRANCH  26  27
HETATM   27  C17 UNL     1      -3.064  50.806 -14.919  1.00  0.00    -0.013 C 
HETATM   28  C18 UNL     1      -2.502  51.576 -13.964  1.00  0.00     0.008 C 
HETATM   29  C19 UNL     1      -1.049  51.602 -13.600  1.00  0.00     0.055 C 
BRANCH  28  30
HETATM   30  C20 UNL     1      -3.416  52.488 -13.225  1.00  0.00     0.171 C 
HETATM   31  O2  UNL     1      -3.585  52.534 -12.019  1.00  0.00    -0.646 OA
BRANCH  30  32
HETATM   32  O3  UNL     1      -4.079  53.320 -14.045  1.00  0.00    -0.773 OA
HETATM   33  H28 UNL     1      -4.632  53.846 -13.430  1.00  0.00     0.167 HD
ENDBRANCH  30  32
ENDBRANCH  28  30
ENDBRANCH  26  27
ENDBRANCH  25  26
ENDBRANCH  23  25
ENDBRANCH  13  23
TORSDOF 6
ENDMDL
MODEL 6
REMARK minimizedAffinity -9.14498901
REMARK  6 active torsions:
REMARK  status: ('A' for Active; 'I' for Inactive)
REMARK    1  A    between atoms: C12_13  and  C13_14 
REMARK    2  A    between atoms: C13_14  and  C15_16 
REMARK    3  A    between atoms: C15_16  and  C16_17 
REMARK    4  A    between atoms: C16_17  and  C17_18 
REMARK    5  A    between atoms: C18_19  and  C20_21 
REMARK    6  A    between atoms: C20_21  and  O3_23 
ROOT
HETATM    1  C1  UNL     1      -7.195  48.463 -30.553  1.00  0.00     0.052 C 
HETATM    2  C2  UNL     1      -7.369  48.091 -29.108  1.00  0.00    -0.013 C 
HETATM    3  C3  UNL     1      -6.386  47.709 -28.261  1.00  0.00    -0.066 C 
HETATM    4  C4  UNL     1      -4.922  47.654 -28.622  1.00  0.00     0.036 C 
HETATM    5  C5  UNL     1      -4.150  48.675 -27.777  1.00  0.00     0.010 C 
HETATM    6  C6  UNL     1      -4.392  48.471 -26.260  1.00  0.00     0.007 C 
HETATM    7  C7  UNL     1      -5.927  48.477 -25.966  1.00  0.00     0.068 C 
HETATM    8  C8  UNL     1      -6.171  48.366 -24.474  1.00  0.00     0.133 C 
HETATM    9  O1  UNL     1      -7.291  48.527 -23.986  1.00  0.00    -0.298 OA
HETATM   10  C9  UNL     1      -4.990  48.051 -23.600  1.00  0.00     0.089 C 
HETATM   11  C10 UNL     1      -3.775  49.015 -23.789  1.00  0.00    -0.026 C 
HETATM   12  C11 UNL     1      -2.581  48.200 -23.241  1.00  0.00     0.016 C 
HETATM   13  C12 UNL     1      -4.059  50.382 -23.029  1.00  0.00    -0.002 C 
HETATM   14  C21 UNL     1      -4.825  51.188 -24.088  1.00  0.00     0.006 C 
HETATM   15  C22 UNL     1      -4.101  50.909 -25.392  1.00  0.00     0.011 C 
HETATM   16  C23 UNL     1      -3.587  49.444 -25.319  1.00  0.00    -0.032 C 
HETATM   17  C24 UNL     1      -2.102  49.468 -25.758  1.00  0.00     0.016 C 
HETATM   18  C25 UNL     1      -6.613  47.359 -26.791  1.00  0.00     0.027 C 
HETATM   19  C26 UNL     1      -8.096  47.083 -26.516  1.00  0.00     0.018 C 
HETATM   20  C27 UNL     1      -8.991  48.158 -27.094  1.00  0.00     0.084 C 
HETATM   21  C28 UNL     1      -8.771  48.248 -28.584  1.00  0.00     0.155 C 
HETATM   22  O4  UNL     1      -9.701  48.500 -29.350  1.00  0.00    -0.293 OA
ENDROOT
BRANCH  13  23
HETATM   23  C13 UNL     1      -2.801  51.109 -22.422  1.00  0.00    -0.014 C 
HETATM   24  C14 UNL     1      -2.555  52.420 -23.190  1.00  0.00     0.010 C 
BRANCH  23  25
HETATM   25  C15 UNL     1      -1.508  50.249 -22.408  1.00  0.00     0.008 C 
BRANCH  25  26
HETATM   26  C16 UNL     1      -0.612  50.399 -21.163  1.00  0.00     0.028 C 
BRANCH  26  27
HETATM   27  C17 UNL     1      -0.099  51.798 -20.946  1.00  0.00    -0.013 C 
HETATM   28  C18 UNL     1       0.242  52.376 -19.776  1.00  0.00     0.008 C 
HETATM   29  C19 UNL     1       0.214  51.717 -18.431  1.00  0.00     0.055 C 
BRANCH  28  30
HETATM   30  C20 UNL     1       0.702  53.788 -19.844  1.00  0.00     0.171 C 
HETATM   31  O2  UNL     1       1.679  54.212 -20.437  1.00  0.00    -0.646 OA
BRANCH  30  32
HETATM   32  O3  UNL     1      -0.104  54.620 -19.164  1.00  0.00    -0.773 OA
HETATM   33  H28 UNL     1       0.318  55.496 -19.293  1.00  0.00     0.167 HD
ENDBRANCH  30  32
ENDBRANCH  28  30
ENDBRANCH  26  27
ENDBRANCH  25  26
ENDBRANCH  23  25
ENDBRANCH  13  23
TORSDOF 6
ENDMDL
MODEL 7
REMARK minimizedAffinity -9.14475346
REMARK  6 active torsions:
REMARK  status: ('A' for Active; 'I' for Inactive)
REMARK    1  A    between atoms: C12_13  and  C13_14 
REMARK    2  A    between atoms: C13_14  and  C15_16 
REMARK    3  A    between atoms: C15_16  and  C16_17 
REMARK    4  A    between atoms: C16_17  and  C17_18 
REMARK    5  A    between atoms: C18_19  and  C20_21 
REMARK    6  A    between atoms: C20_21  and  O3_23 
ROOT
HETATM    1  C1  UNL     1       1.337  54.180 -21.460  1.00  0.00     0.052 C 
HETATM    2  C2  UNL     1       0.812  53.337 -22.587  1.00  0.00    -0.013 C 
HETATM    3  C3  UNL     1       0.237  52.119 -22.470  1.00  0.00    -0.066 C 
HETATM    4  C4  UNL     1      -0.030  51.424 -21.156  1.00  0.00     0.036 C 
HETATM    5  C5  UNL     1      -1.543  51.267 -20.961  1.00  0.00     0.010 C 
HETATM    6  C6  UNL     1      -2.208  50.542 -22.159  1.00  0.00     0.007 C 
HETATM    7  C7  UNL     1      -1.841  51.276 -23.489  1.00  0.00     0.068 C 
HETATM    8  C8  UNL     1      -2.559  50.626 -24.656  1.00  0.00     0.133 C 
HETATM    9  O1  UNL     1      -2.566  51.136 -25.777  1.00  0.00    -0.298 OA
HETATM   10  C9  UNL     1      -3.268  49.327 -24.397  1.00  0.00     0.089 C 
HETATM   11  C10 UNL     1      -4.285  49.376 -23.212  1.00  0.00    -0.026 C 
HETATM   12  C11 UNL     1      -4.444  47.890 -22.815  1.00  0.00     0.016 C 
HETATM   13  C12 UNL     1      -5.622  50.089 -23.688  1.00  0.00    -0.002 C 
HETATM   14  C21 UNL     1      -5.305  51.570 -23.437  1.00  0.00     0.006 C 
HETATM   15  C22 UNL     1      -4.589  51.597 -22.101  1.00  0.00     0.011 C 
HETATM   16  C23 UNL     1      -3.755  50.288 -22.008  1.00  0.00    -0.032 C 
HETATM   17  C24 UNL     1      -4.040  49.672 -20.616  1.00  0.00     0.016 C 
HETATM   18  C25 UNL     1      -0.300  51.310 -23.649  1.00  0.00     0.027 C 
HETATM   19  C26 UNL     1       0.263  51.834 -24.975  1.00  0.00     0.018 C 
HETATM   20  C27 UNL     1       0.147  53.339 -25.088  1.00  0.00     0.084 C 
HETATM   21  C28 UNL     1       0.886  53.987 -23.943  1.00  0.00     0.155 C 
HETATM   22  O4  UNL     1       1.488  55.050 -24.096  1.00  0.00    -0.293 OA
ENDROOT
BRANCH  13  23
HETATM   23  C13 UNL     1      -6.954  49.573 -23.026  1.00  0.00    -0.014 C 
HETATM   24  C14 UNL     1      -6.607  48.614 -21.873  1.00  0.00     0.010 C 
BRANCH  23  25
HETATM   25  C15 UNL     1      -7.937  48.887 -24.012  1.00  0.00     0.008 C 
BRANCH  25  26
HETATM   26  C16 UNL     1      -7.468  47.545 -24.607  1.00  0.00     0.028 C 
BRANCH  26  27
HETATM   27  C17 UNL     1      -6.725  47.681 -25.909  1.00  0.00    -0.013 C 
HETATM   28  C18 UNL     1      -7.176  47.391 -27.147  1.00  0.00     0.008 C 
HETATM   29  C19 UNL     1      -8.549  46.898 -27.488  1.00  0.00     0.055 C 
BRANCH  28  30
HETATM   30  C20 UNL     1      -6.219  47.601 -28.266  1.00  0.00     0.171 C 
HETATM   31  O2  UNL     1      -6.147  46.954 -29.297  1.00  0.00    -0.646 OA
BRANCH  30  32
HETATM   32  O3  UNL     1      -5.391  48.634 -28.043  1.00  0.00    -0.773 OA
HETATM   33  H28 UNL     1      -4.829  48.648 -28.846  1.00  0.00     0.167 HD
ENDBRANCH  30  32
ENDBRANCH  28  30
ENDBRANCH  26  27
ENDBRANCH  25  26
ENDBRANCH  23  25
ENDBRANCH  13  23
TORSDOF 6
ENDMDL
MODEL 8
REMARK minimizedAffinity -9.00984478
REMARK  6 active torsions:
REMARK  status: ('A' for Active; 'I' for Inactive)
REMARK    1  A    between atoms: C12_13  and  C13_14 
REMARK    2  A    between atoms: C13_14  and  C15_16 
REMARK    3  A    between atoms: C15_16  and  C16_17 
REMARK    4  A    between atoms: C16_17  and  C17_18 
REMARK    5  A    between atoms: C18_19  and  C20_21 
REMARK    6  A    between atoms: C20_21  and  O3_23 
ROOT
HETATM    1  C1  UNL     1       0.609  55.036 -24.733  1.00  0.00     0.052 C 
HETATM    2  C2  UNL     1       0.161  53.727 -25.319  1.00  0.00    -0.013 C 
HETATM    3  C3  UNL     1       0.058  52.552 -24.658  1.00  0.00    -0.066 C 
HETATM    4  C4  UNL     1       0.323  52.378 -23.182  1.00  0.00     0.036 C 
HETATM    5  C5  UNL     1      -0.975  51.965 -22.476  1.00  0.00     0.010 C 
HETATM    6  C6  UNL     1      -1.605  50.702 -23.117  1.00  0.00     0.007 C 
HETATM    7  C7  UNL     1      -1.794  50.929 -24.652  1.00  0.00     0.068 C 
HETATM    8  C8  UNL     1      -2.491  49.733 -25.271  1.00  0.00     0.133 C 
HETATM    9  O1  UNL     1      -2.906  49.754 -26.431  1.00  0.00    -0.298 OA
HETATM   10  C9  UNL     1      -2.660  48.509 -24.416  1.00  0.00     0.089 C 
HETATM   11  C10 UNL     1      -3.357  48.777 -23.043  1.00  0.00    -0.026 C 
HETATM   12  C11 UNL     1      -2.929  47.566 -22.182  1.00  0.00     0.016 C 
HETATM   13  C12 UNL     1      -4.924  48.924 -23.262  1.00  0.00    -0.002 C 
HETATM   14  C21 UNL     1      -5.066  50.417 -23.590  1.00  0.00     0.006 C 
HETATM   15  C22 UNL     1      -4.128  51.121 -22.628  1.00  0.00     0.011 C 
HETATM   16  C23 UNL     1      -2.911  50.178 -22.411  1.00  0.00    -0.032 C 
HETATM   17  C24 UNL     1      -2.672  50.100 -20.883  1.00  0.00     0.016 C 
HETATM   18  C25 UNL     1      -0.423  51.251 -25.297  1.00  0.00     0.027 C 
HETATM   19  C26 UNL     1      -0.362  51.337 -26.827  1.00  0.00     0.018 C 
HETATM   20  C27 UNL     1      -0.989  52.611 -27.351  1.00  0.00     0.084 C 
HETATM   21  C28 UNL     1      -0.276  53.802 -26.758  1.00  0.00     0.155 C 
HETATM   22  O4  UNL     1      -0.105  54.831 -27.412  1.00  0.00    -0.293 OA
ENDROOT
BRANCH  13  23
HETATM   23  C13 UNL     1      -5.836  48.412 -22.085  1.00  0.00    -0.014 C 
HETATM   24  C14 UNL     1      -6.225  46.946 -22.347  1.00  0.00     0.010 C 
BRANCH  23  25
HETATM   25  C15 UNL     1      -7.110  49.266 -21.843  1.00  0.00     0.008 C 
BRANCH  25  26
HETATM   26  C16 UNL     1      -8.335  48.510 -21.293  1.00  0.00     0.028 C 
BRANCH  26  27
HETATM   27  C17 UNL     1      -8.385  48.441 -19.790  1.00  0.00    -0.013 C 
HETATM   28  C18 UNL     1      -9.474  48.284 -19.010  1.00  0.00     0.008 C 
HETATM   29  C19 UNL     1     -10.881  48.106 -19.493  1.00  0.00     0.055 C 
BRANCH  28  30
HETATM   30  C20 UNL     1      -9.241  48.272 -17.542  1.00  0.00     0.171 C 
HETATM   31  O2  UNL     1     -10.063  48.035 -16.673  1.00  0.00    -0.646 OA
BRANCH  30  32
HETATM   32  O3  UNL     1      -7.966  48.552 -17.225  1.00  0.00    -0.773 OA
HETATM   33  H28 UNL     1      -7.965  48.512 -16.245  1.00  0.00     0.167 HD
ENDBRANCH  30  32
ENDBRANCH  28  30
ENDBRANCH  26  27
ENDBRANCH  25  26
ENDBRANCH  23  25
ENDBRANCH  13  23
TORSDOF 6
ENDMDL
MODEL 9
REMARK minimizedAffinity -8.89608383
REMARK  6 active torsions:
REMARK  status: ('A' for Active; 'I' for Inactive)
REMARK    1  A    between atoms: C12_13  and  C13_14 
REMARK    2  A    between atoms: C13_14  and  C15_16 
REMARK    3  A    between atoms: C15_16  and  C16_17 
REMARK    4  A    between atoms: C16_17  and  C17_18 
REMARK    5  A    between atoms: C18_19  and  C20_21 
REMARK    6  A    between atoms: C20_21  and  O3_23 
ROOT
HETATM    1  C1  UNL     1      -3.936  48.418 -27.423  1.00  0.00     0.052 C 
HETATM    2  C2  UNL     1      -3.731  49.546 -26.452  1.00  0.00    -0.013 C 
HETATM    3  C3  UNL     1      -4.230  49.618 -25.197  1.00  0.00    -0.066 C 
HETATM    4  C4  UNL     1      -5.038  48.527 -24.537  1.00  0.00     0.036 C 
HETATM    5  C5  UNL     1      -4.263  47.977 -23.333  1.00  0.00     0.010 C 
HETATM    6  C6  UNL     1      -3.863  49.099 -22.341  1.00  0.00     0.007 C 
HETATM    7  C7  UNL     1      -3.086  50.222 -23.101  1.00  0.00     0.068 C 
HETATM    8  C8  UNL     1      -2.614  51.281 -22.124  1.00  0.00     0.133 C 
HETATM    9  O1  UNL     1      -1.832  52.171 -22.460  1.00  0.00    -0.298 OA
HETATM   10  C9  UNL     1      -3.138  51.208 -20.717  1.00  0.00     0.089 C 
HETATM   11  C10 UNL     1      -2.924  49.825 -20.023  1.00  0.00    -0.026 C 
HETATM   12  C11 UNL     1      -3.974  49.827 -18.888  1.00  0.00     0.016 C 
HETATM   13  C12 UNL     1      -1.415  49.701 -19.540  1.00  0.00    -0.002 C 
HETATM   14  C21 UNL     1      -0.720  49.146 -20.792  1.00  0.00     0.006 C 
HETATM   15  C22 UNL     1      -1.675  48.103 -21.341  1.00  0.00     0.011 C 
HETATM   16  C23 UNL     1      -3.115  48.609 -21.046  1.00  0.00    -0.032 C 
HETATM   17  C24 UNL     1      -3.889  47.419 -20.426  1.00  0.00     0.016 C 
HETATM   18  C25 UNL     1      -3.975  50.782 -24.241  1.00  0.00     0.027 C 
HETATM   19  C26 UNL     1      -3.463  52.012 -25.000  1.00  0.00     0.018 C 
HETATM   20  C27 UNL     1      -2.337  51.667 -25.950  1.00  0.00     0.084 C 
HETATM   21  C28 UNL     1      -2.815  50.635 -26.942  1.00  0.00     0.155 C 
HETATM   22  O4  UNL     1      -2.423  50.646 -28.109  1.00  0.00    -0.293 OA
ENDROOT
BRANCH  13  23
HETATM   23  C13 UNL     1      -1.177  48.870 -18.224  1.00  0.00    -0.014 C 
HETATM   24  C14 UNL     1      -2.513  48.715 -17.476  1.00  0.00     0.010 C 
BRANCH  23  25
HETATM   25  C15 UNL     1      -0.101  49.463 -17.276  1.00  0.00     0.008 C 
BRANCH  25  26
HETATM   26  C16 UNL     1      -0.070  51.000 -17.169  1.00  0.00     0.028 C 
BRANCH  26  27
HETATM   27  C17 UNL     1       1.315  51.574 -17.037  1.00  0.00    -0.013 C 
HETATM   28  C18 UNL     1       1.961  51.910 -15.901  1.00  0.00     0.008 C 
HETATM   29  C19 UNL     1       1.433  51.741 -14.509  1.00  0.00     0.055 C 
BRANCH  28  30
HETATM   30  C20 UNL     1       3.325  52.481 -16.058  1.00  0.00     0.171 C 
HETATM   31  O2  UNL     1       4.379  51.955 -15.745  1.00  0.00    -0.646 OA
BRANCH  30  32
HETATM   32  O3  UNL     1       3.305  53.701 -16.620  1.00  0.00    -0.773 OA
HETATM   33  H28 UNL     1       4.254  53.946 -16.655  1.00  0.00     0.167 HD
ENDBRANCH  30  32
ENDBRANCH  28  30
ENDBRANCH  26  27
ENDBRANCH  25  26
ENDBRANCH  23  25
ENDBRANCH  13  23
TORSDOF 6
ENDMDL
