MODEL 1
REMARK minimizedAffinity -9.71245766
REMARK  9 active torsions:
REMARK  status: ('A' for Active; 'I' for Inactive)
REMARK    1  A    between atoms: C3_3  and  O1_4 
REMARK    2  A    between atoms: N1_14  and  O2_16 
REMARK    3  A    between atoms: O2_16  and  C13_17 
REMARK    4  A    between atoms: C13_17  and  C14_18 
REMARK       I    between atoms: C14_18  and  N2_20 
REMARK    5  A    between atoms: N2_20  and  C15_21 
REMARK    6  A    between atoms: C15_21  and  C16_22 
REMARK    7  A    between atoms: C15_21  and  C17_25 
REMARK    8  A    between atoms: C16_22  and  O5_24 
REMARK    9  A    between atoms: C17_25  and  C19_27 
ROOT
HETATM    1  C1  UNL     1       1.053  54.670 -24.196  1.00  0.00     0.015 C 
HETATM    2  C2  UNL     1       0.397  53.847 -24.777  1.00  0.00    -0.078 C 
HETATM    3  C3  UNL     1      -0.417  52.854 -25.494  1.00  0.00     0.128 C 
HETATM    4  C4  UNL     1       0.449  51.836 -26.274  1.00  0.00     0.052 C 
HETATM    5  C5  UNL     1      -0.336  50.501 -26.266  1.00  0.00     0.010 C 
HETATM    6  C6  UNL     1      -1.674  50.847 -25.621  1.00  0.00     0.002 C 
HETATM    7  C7  UNL     1      -2.538  49.739 -25.002  1.00  0.00    -0.004 C 
HETATM    8  C8  UNL     1      -2.766  48.518 -25.912  1.00  0.00     0.010 C 
HETATM    9  C9  UNL     1      -4.187  48.400 -26.450  1.00  0.00     0.035 C 
HETATM   10  C10 UNL     1      -5.266  48.532 -25.395  1.00  0.00    -0.069 C 
HETATM   11  C11 UNL     1      -6.491  48.046 -25.671  1.00  0.00     0.030 C 
HETATM   12  C12 UNL     1      -7.660  48.280 -24.773  1.00  0.00     0.032 C 
HETATM   13  N1  UNL     1      -8.873  47.864 -24.986  1.00  0.00    -0.271 N 
ATOM     14  H1  UNL     1      -9.655  48.033 -24.354  1.00  0.00     0.194 HD
HETATM   15  C21 UNL     1      -7.424  49.074 -23.504  1.00  0.00     0.060 C 
HETATM   16  C22 UNL     1      -6.252  50.038 -23.655  1.00  0.00     0.020 C 
HETATM   17  C23 UNL     1      -4.949  49.345 -24.134  1.00  0.00    -0.016 C 
HETATM   18  C24 UNL     1      -4.444  48.409 -23.012  1.00  0.00     0.020 C 
HETATM   19  C25 UNL     1      -3.876  50.407 -24.536  1.00  0.00     0.002 C 
HETATM   20  C26 UNL     1      -3.584  51.516 -23.497  1.00  0.00     0.007 C 
HETATM   21  C27 UNL     1      -2.606  52.576 -24.051  1.00  0.00     0.014 C 
HETATM   22  C28 UNL     1      -1.302  51.950 -24.587  1.00  0.00     0.003 C 
HETATM   23  C29 UNL     1      -0.475  51.411 -23.381  1.00  0.00     0.020 C 
ENDROOT
BRANCH   3  24
HETATM   24  O1  UNL     1      -1.224  53.547 -26.451  1.00  0.00    -0.377 OA
HETATM   25  H2  UNL     1      -1.528  54.368 -26.031  1.00  0.00     0.211 HD
ENDBRANCH   3  24
BRANCH  13  26
HETATM   26  O2  UNL     1      -8.976  47.154 -26.195  1.00  0.00    -0.271 OA
BRANCH  26  27
HETATM   27  C13 UNL     1      -9.879  47.817 -27.075  1.00  0.00     0.303 C 
BRANCH  27  28
HETATM   28  C14 UNL     1      -9.363  47.947 -28.507  1.00  0.00     0.244 C 
HETATM   29  O3  UNL     1      -9.996  47.529 -29.475  1.00  0.00    -0.271 OA
HETATM   30  N2  UNL     1      -8.127  48.545 -28.616  1.00  0.00    -0.344 N 
HETATM   31  H16 UNL     1      -7.615  48.600 -27.736  1.00  0.00     0.163 HD
BRANCH  30  32
HETATM   32  C15 UNL     1      -7.382  48.585 -29.875  1.00  0.00     0.186 C 
BRANCH  32  33
HETATM   33  C16 UNL     1      -8.326  49.197 -30.920  1.00  0.00     0.163 C 
HETATM   34  O4  UNL     1      -8.586  48.734 -32.021  1.00  0.00    -0.648 OA
BRANCH  33  35
HETATM   35  O5  UNL     1      -8.880  50.362 -30.534  1.00  0.00    -0.775 OA
HETATM   36  H18 UNL     1      -9.487  50.593 -31.269  1.00  0.00     0.167 HD
ENDBRANCH  33  35
ENDBRANCH  32  33
BRANCH  32  37
HETATM   37  C17 UNL     1      -6.875  47.164 -30.221  1.00  0.00     0.014 C 
HETATM   38  C18 UNL     1      -5.683  47.144 -31.184  1.00  0.00     0.012 C 
BRANCH  37  39
HETATM   39  C19 UNL     1      -6.622  46.279 -28.980  1.00  0.00     0.002 C 
HETATM   40  C20 UNL     1      -7.236  44.889 -29.001  1.00  0.00     0.005 C 
ENDBRANCH  37  39
ENDBRANCH  32  37
ENDBRANCH  30  32
ENDBRANCH  27  28
ENDBRANCH  26  27
ENDBRANCH  13  26
TORSDOF 9
ENDMDL
MODEL 2
REMARK minimizedAffinity -9.35269356
REMARK  9 active torsions:
REMARK  status: ('A' for Active; 'I' for Inactive)
REMARK    1  A    between atoms: C3_3  and  O1_4 
REMARK    2  A    between atoms: N1_14  and  O2_16 
REMARK    3  A    between atoms: O2_16  and  C13_17 
REMARK    4  A    between atoms: C13_17  and  C14_18 
REMARK       I    between atoms: C14_18  and  N2_20 
REMARK    5  A    between atoms: N2_20  and  C15_21 
REMARK    6  A    between atoms: C15_21  and  C16_22 
REMARK    7  A    between atoms: C15_21  and  C17_25 
REMARK    8  A    between atoms: C16_22  and  O5_24 
REMARK    9  A    between atoms: C17_25  and  C19_27 
ROOT
HETATM    1  C1  UNL     1       1.056  54.611 -24.113  1.00  0.00     0.015 C 
HETATM    2  C2  UNL     1       0.370  53.783 -24.652  1.00  0.00    -0.078 C 
HETATM    3  C3  UNL     1      -0.479  52.784 -25.317  1.00  0.00     0.128 C 
HETATM    4  C4  UNL     1       0.349  51.727 -26.087  1.00  0.00     0.052 C 
HETATM    5  C5  UNL     1      -0.458  50.407 -26.018  1.00  0.00     0.010 C 
HETATM    6  C6  UNL     1      -1.773  50.796 -25.349  1.00  0.00     0.002 C 
HETATM    7  C7  UNL     1      -2.639  49.723 -24.675  1.00  0.00    -0.004 C 
HETATM    8  C8  UNL     1      -2.912  48.479 -25.541  1.00  0.00     0.010 C 
HETATM    9  C9  UNL     1      -4.348  48.371 -26.038  1.00  0.00     0.035 C 
HETATM   10  C10 UNL     1      -5.397  48.554 -24.960  1.00  0.00    -0.069 C 
HETATM   11  C11 UNL     1      -6.637  48.082 -25.190  1.00  0.00     0.030 C 
HETATM   12  C12 UNL     1      -7.778  48.364 -24.269  1.00  0.00     0.032 C 
HETATM   13  N1  UNL     1      -9.003  47.964 -24.439  1.00  0.00    -0.271 N 
ATOM     14  H1  UNL     1      -9.765  48.166 -23.793  1.00  0.00     0.194 HD
HETATM   15  C21 UNL     1      -7.495  49.192 -23.032  1.00  0.00     0.060 C 
HETATM   16  C22 UNL     1      -6.311  50.130 -23.243  1.00  0.00     0.020 C 
HETATM   17  C23 UNL     1      -5.033  49.399 -23.734  1.00  0.00    -0.016 C 
HETATM   18  C24 UNL     1      -4.515  48.488 -22.596  1.00  0.00     0.020 C 
HETATM   19  C25 UNL     1      -3.952  50.429 -24.196  1.00  0.00     0.002 C 
HETATM   20  C26 UNL     1      -3.615  51.563 -23.199  1.00  0.00     0.007 C 
HETATM   21  C27 UNL     1      -2.634  52.588 -23.811  1.00  0.00     0.014 C 
HETATM   22  C28 UNL     1      -1.355  51.923 -24.360  1.00  0.00     0.003 C 
HETATM   23  C29 UNL     1      -0.507  51.406 -23.159  1.00  0.00     0.020 C 
ENDROOT
BRANCH   3  24
HETATM   24  O1  UNL     1      -1.298  53.461 -26.274  1.00  0.00    -0.377 OA
HETATM   25  H2  UNL     1      -1.577  54.300 -25.872  1.00  0.00     0.211 HD
ENDBRANCH   3  24
BRANCH  13  26
HETATM   26  O2  UNL     1      -9.150  47.219 -25.622  1.00  0.00    -0.271 OA
BRANCH  26  27
HETATM   27  C13 UNL     1     -10.149  47.809 -26.449  1.00  0.00     0.303 C 
BRANCH  27  28
HETATM   28  C14 UNL     1      -9.941  47.562 -27.942  1.00  0.00     0.244 C 
HETATM   29  O3  UNL     1     -10.823  47.095 -28.661  1.00  0.00    -0.271 OA
HETATM   30  N2  UNL     1      -8.683  47.881 -28.404  1.00  0.00    -0.344 N 
HETATM   31  H16 UNL     1      -7.991  48.004 -27.665  1.00  0.00     0.163 HD
BRANCH  30  32
HETATM   32  C15 UNL     1      -8.231  47.537 -29.752  1.00  0.00     0.186 C 
BRANCH  32  33
HETATM   33  C16 UNL     1      -6.745  47.913 -29.822  1.00  0.00     0.163 C 
HETATM   34  O4  UNL     1      -5.986  47.700 -30.757  1.00  0.00    -0.648 OA
BRANCH  33  35
HETATM   35  O5  UNL     1      -6.286  48.523 -28.711  1.00  0.00    -0.775 OA
HETATM   36  H18 UNL     1      -5.356  48.745 -28.928  1.00  0.00     0.167 HD
ENDBRANCH  33  35
ENDBRANCH  32  33
BRANCH  32  37
HETATM   37  C17 UNL     1      -9.125  48.250 -30.795  1.00  0.00     0.014 C 
HETATM   38  C18 UNL     1      -8.864  49.755 -30.915  1.00  0.00     0.012 C 
BRANCH  37  39
HETATM   39  C19 UNL     1      -9.136  47.560 -32.176  1.00  0.00     0.002 C 
HETATM   40  C20 UNL     1     -10.250  46.556 -32.426  1.00  0.00     0.005 C 
ENDBRANCH  37  39
ENDBRANCH  32  37
ENDBRANCH  30  32
ENDBRANCH  27  28
ENDBRANCH  26  27
ENDBRANCH  13  26
TORSDOF 9
ENDMDL
MODEL 3
REMARK minimizedAffinity -9.29660797
REMARK  9 active torsions:
REMARK  status: ('A' for Active; 'I' for Inactive)
REMARK    1  A    between atoms: C3_3  and  O1_4 
REMARK    2  A    between atoms: N1_14  and  O2_16 
REMARK    3  A    between atoms: O2_16  and  C13_17 
REMARK    4  A    between atoms: C13_17  and  C14_18 
REMARK       I    between atoms: C14_18  and  N2_20 
REMARK    5  A    between atoms: N2_20  and  C15_21 
REMARK    6  A    between atoms: C15_21  and  C16_22 
REMARK    7  A    between atoms: C15_21  and  C17_25 
REMARK    8  A    between atoms: C16_22  and  O5_24 
REMARK    9  A    between atoms: C17_25  and  C19_27 
ROOT
HETATM    1  C1  UNL     1       0.489  50.465 -16.640  1.00  0.00     0.015 C 
HETATM    2  C2  UNL     1      -0.332  50.383 -17.514  1.00  0.00    -0.078 C 
HETATM    3  C3  UNL     1      -1.330  50.266 -18.587  1.00  0.00     0.128 C 
HETATM    4  C4  UNL     1      -2.728  50.765 -18.148  1.00  0.00     0.052 C 
HETATM    5  C5  UNL     1      -3.397  51.354 -19.414  1.00  0.00     0.010 C 
HETATM    6  C6  UNL     1      -2.426  51.033 -20.546  1.00  0.00     0.002 C 
HETATM    7  C7  UNL     1      -2.477  51.836 -21.853  1.00  0.00    -0.004 C 
HETATM    8  C8  UNL     1      -3.881  51.968 -22.472  1.00  0.00     0.010 C 
HETATM    9  C9  UNL     1      -4.076  51.157 -23.748  1.00  0.00     0.035 C 
HETATM   10  C10 UNL     1      -2.982  51.340 -24.778  1.00  0.00    -0.069 C 
HETATM   11  C11 UNL     1      -3.249  51.017 -26.057  1.00  0.00     0.030 C 
HETATM   12  C12 UNL     1      -2.190  50.997 -27.110  1.00  0.00     0.032 C 
HETATM   13  N1  UNL     1      -2.368  50.672 -28.356  1.00  0.00    -0.271 N 
ATOM     14  H1  UNL     1      -1.629  50.670 -29.058  1.00  0.00     0.194 HD
HETATM   15  C21 UNL     1      -0.783  51.382 -26.699  1.00  0.00     0.060 C 
HETATM   16  C22 UNL     1      -0.530  51.093 -25.223  1.00  0.00     0.020 C 
HETATM   17  C23 UNL     1      -1.585  51.739 -24.286  1.00  0.00    -0.016 C 
HETATM   18  C24 UNL     1      -1.421  53.275 -24.338  1.00  0.00     0.020 C 
HETATM   19  C25 UNL     1      -1.441  51.185 -22.831  1.00  0.00     0.002 C 
HETATM   20  C26 UNL     1      -0.022  51.235 -22.215  1.00  0.00     0.007 C 
HETATM   21  C27 UNL     1       0.024  50.548 -20.832  1.00  0.00     0.014 C 
HETATM   22  C28 UNL     1      -1.032  51.113 -19.859  1.00  0.00     0.003 C 
HETATM   23  C29 UNL     1      -0.621  52.564 -19.465  1.00  0.00     0.020 C 
ENDROOT
BRANCH   3  24
HETATM   24  O1  UNL     1      -1.461  48.883 -18.926  1.00  0.00    -0.377 OA
HETATM   25  H2  UNL     1      -0.570  48.495 -18.902  1.00  0.00     0.211 HD
ENDBRANCH   3  24
BRANCH  13  26
HETATM   26  O2  UNL     1      -3.705  50.321 -28.618  1.00  0.00    -0.271 OA
BRANCH  26  27
HETATM   27  C13 UNL     1      -4.026  49.100 -27.958  1.00  0.00     0.303 C 
BRANCH  27  28
HETATM   28  C14 UNL     1      -5.067  48.257 -28.692  1.00  0.00     0.244 C 
HETATM   29  O3  UNL     1      -5.608  47.281 -28.173  1.00  0.00    -0.271 OA
HETATM   30  N2  UNL     1      -5.325  48.664 -29.982  1.00  0.00    -0.344 N 
HETATM   31  H16 UNL     1      -4.629  49.306 -30.359  1.00  0.00     0.163 HD
BRANCH  30  32
HETATM   32  C15 UNL     1      -6.140  47.875 -30.907  1.00  0.00     0.186 C 
BRANCH  32  33
HETATM   33  C16 UNL     1      -5.362  47.814 -32.228  1.00  0.00     0.163 C 
HETATM   34  O4  UNL     1      -5.576  47.053 -33.161  1.00  0.00    -0.648 OA
BRANCH  33  35
HETATM   35  O5  UNL     1      -4.351  48.700 -32.305  1.00  0.00    -0.775 OA
HETATM   36  H18 UNL     1      -3.994  48.578 -33.210  1.00  0.00     0.167 HD
ENDBRANCH  33  35
ENDBRANCH  32  33
BRANCH  32  37
HETATM   37  C17 UNL     1      -7.550  48.504 -31.018  1.00  0.00     0.014 C 
HETATM   38  C18 UNL     1      -8.185  48.369 -32.406  1.00  0.00     0.012 C 
BRANCH  37  39
HETATM   39  C19 UNL     1      -8.517  48.056 -29.900  1.00  0.00     0.002 C 
HETATM   40  C20 UNL     1      -9.989  48.376 -30.106  1.00  0.00     0.005 C 
ENDBRANCH  37  39
ENDBRANCH  32  37
ENDBRANCH  30  32
ENDBRANCH  27  28
ENDBRANCH  26  27
ENDBRANCH  13  26
TORSDOF 9
ENDMDL
MODEL 4
REMARK minimizedAffinity -9.25575161
REMARK  9 active torsions:
REMARK  status: ('A' for Active; 'I' for Inactive)
REMARK    1  A    between atoms: C3_3  and  O1_4 
REMARK    2  A    between atoms: N1_14  and  O2_16 
REMARK    3  A    between atoms: O2_16  and  C13_17 
REMARK    4  A    between atoms: C13_17  and  C14_18 
REMARK       I    between atoms: C14_18  and  N2_20 
REMARK    5  A    between atoms: N2_20  and  C15_21 
REMARK    6  A    between atoms: C15_21  and  C16_22 
REMARK    7  A    between atoms: C15_21  and  C17_25 
REMARK    8  A    between atoms: C16_22  and  O5_24 
REMARK    9  A    between atoms: C17_25  and  C19_27 
ROOT
HETATM    1  C1  UNL     1       0.988  54.573 -24.218  1.00  0.00     0.015 C 
HETATM    2  C2  UNL     1       0.311  53.749 -24.773  1.00  0.00    -0.078 C 
HETATM    3  C3  UNL     1      -0.527  52.755 -25.459  1.00  0.00     0.128 C 
HETATM    4  C4  UNL     1       0.313  51.725 -26.254  1.00  0.00     0.052 C 
HETATM    5  C5  UNL     1      -0.479  50.395 -26.213  1.00  0.00     0.010 C 
HETATM    6  C6  UNL     1      -1.797  50.753 -25.534  1.00  0.00     0.002 C 
HETATM    7  C7  UNL     1      -2.650  49.656 -24.883  1.00  0.00    -0.004 C 
HETATM    8  C8  UNL     1      -2.909  48.428 -25.776  1.00  0.00     0.010 C 
HETATM    9  C9  UNL     1      -4.345  48.314 -26.274  1.00  0.00     0.035 C 
HETATM   10  C10 UNL     1      -5.395  48.461 -25.192  1.00  0.00    -0.069 C 
HETATM   11  C11 UNL     1      -6.629  47.979 -25.431  1.00  0.00     0.030 C 
HETATM   12  C12 UNL     1      -7.772  48.228 -24.504  1.00  0.00     0.032 C 
HETATM   13  N1  UNL     1      -8.993  47.817 -24.681  1.00  0.00    -0.271 N 
ATOM     14  H1  UNL     1      -9.757  47.996 -24.030  1.00  0.00     0.194 HD
HETATM   15  C21 UNL     1      -7.498  49.031 -23.249  1.00  0.00     0.060 C 
HETATM   16  C22 UNL     1      -6.326  49.988 -23.440  1.00  0.00     0.020 C 
HETATM   17  C23 UNL     1      -5.039  49.282 -23.948  1.00  0.00    -0.016 C 
HETATM   18  C24 UNL     1      -4.509  48.354 -22.831  1.00  0.00     0.020 C 
HETATM   19  C25 UNL     1      -3.971  50.336 -24.388  1.00  0.00     0.002 C 
HETATM   20  C26 UNL     1      -3.647  51.452 -23.367  1.00  0.00     0.007 C 
HETATM   21  C27 UNL     1      -2.678  52.501 -23.956  1.00  0.00     0.014 C 
HETATM   22  C28 UNL     1      -1.392  51.863 -24.521  1.00  0.00     0.003 C 
HETATM   23  C29 UNL     1      -0.536  51.330 -23.333  1.00  0.00     0.020 C 
ENDROOT
BRANCH   3  24
HETATM   24  O1  UNL     1      -1.355  53.443 -26.401  1.00  0.00    -0.377 OA
HETATM   25  H2  UNL     1      -1.643  54.270 -25.980  1.00  0.00     0.211 HD
ENDBRANCH   3  24
BRANCH  13  26
HETATM   26  O2  UNL     1      -9.132  47.096 -25.880  1.00  0.00    -0.271 OA
BRANCH  26  27
HETATM   27  C13 UNL     1     -10.331  47.483 -26.545  1.00  0.00     0.303 C 
BRANCH  27  28
HETATM   28  C14 UNL     1     -10.340  47.165 -28.039  1.00  0.00     0.244 C 
HETATM   29  O3  UNL     1     -10.296  46.013 -28.467  1.00  0.00    -0.271 OA
HETATM   30  N2  UNL     1     -10.375  48.272 -28.858  1.00  0.00    -0.344 N 
HETATM   31  H16 UNL     1     -10.146  49.144 -28.383  1.00  0.00     0.163 HD
BRANCH  30  32
HETATM   32  C15 UNL     1     -10.195  48.183 -30.308  1.00  0.00     0.186 C 
BRANCH  32  33
HETATM   33  C16 UNL     1     -11.191  47.128 -30.806  1.00  0.00     0.163 C 
HETATM   34  O4  UNL     1     -10.946  46.200 -31.565  1.00  0.00    -0.648 OA
BRANCH  33  35
HETATM   35  O5  UNL     1     -12.443  47.299 -30.339  1.00  0.00    -0.775 OA
HETATM   36  H18 UNL     1     -12.937  46.531 -30.695  1.00  0.00     0.167 HD
ENDBRANCH  33  35
ENDBRANCH  32  33
BRANCH  32  37
HETATM   37  C17 UNL     1      -8.713  47.870 -30.625  1.00  0.00     0.014 C 
HETATM   38  C18 UNL     1      -8.242  48.391 -31.987  1.00  0.00     0.012 C 
BRANCH  37  39
HETATM   39  C19 UNL     1      -7.740  48.268 -29.493  1.00  0.00     0.002 C 
HETATM   40  C20 UNL     1      -6.534  47.367 -29.283  1.00  0.00     0.005 C 
ENDBRANCH  37  39
ENDBRANCH  32  37
ENDBRANCH  30  32
ENDBRANCH  27  28
ENDBRANCH  26  27
ENDBRANCH  13  26
TORSDOF 9
ENDMDL
MODEL 5
REMARK minimizedAffinity -9.16088963
REMARK  9 active torsions:
REMARK  status: ('A' for Active; 'I' for Inactive)
REMARK    1  A    between atoms: C3_3  and  O1_4 
REMARK    2  A    between atoms: N1_14  and  O2_16 
REMARK    3  A    between atoms: O2_16  and  C13_17 
REMARK    4  A    between atoms: C13_17  and  C14_18 
REMARK       I    between atoms: C14_18  and  N2_20 
REMARK    5  A    between atoms: N2_20  and  C15_21 
REMARK    6  A    between atoms: C15_21  and  C16_22 
REMARK    7  A    between atoms: C15_21  and  C17_25 
REMARK    8  A    between atoms: C16_22  and  O5_24 
REMARK    9  A    between atoms: C17_25  and  C19_27 
ROOT
HETATM    1  C1  UNL     1       0.746  50.704 -16.718  1.00  0.00     0.015 C 
HETATM    2  C2  UNL     1      -0.102  50.584 -17.562  1.00  0.00    -0.078 C 
HETATM    3  C3  UNL     1      -1.133  50.422 -18.598  1.00  0.00     0.128 C 
HETATM    4  C4  UNL     1      -2.523  50.913 -18.126  1.00  0.00     0.052 C 
HETATM    5  C5  UNL     1      -3.243  51.455 -19.386  1.00  0.00     0.010 C 
HETATM    6  C6  UNL     1      -2.304  51.115 -20.540  1.00  0.00     0.002 C 
HETATM    7  C7  UNL     1      -2.410  51.879 -21.867  1.00  0.00    -0.004 C 
HETATM    8  C8  UNL     1      -3.835  51.973 -22.443  1.00  0.00     0.010 C 
HETATM    9  C9  UNL     1      -4.060  51.122 -23.687  1.00  0.00     0.035 C 
HETATM   10  C10 UNL     1      -3.003  51.291 -24.758  1.00  0.00    -0.069 C 
HETATM   11  C11 UNL     1      -3.306  50.927 -26.018  1.00  0.00     0.030 C 
HETATM   12  C12 UNL     1      -2.283  50.892 -27.104  1.00  0.00     0.032 C 
HETATM   13  N1  UNL     1      -2.496  50.528 -28.334  1.00  0.00    -0.271 N 
ATOM     14  H1  UNL     1      -1.780  50.517 -29.060  1.00  0.00     0.194 HD
HETATM   15  C21 UNL     1      -0.869  51.309 -26.752  1.00  0.00     0.060 C 
HETATM   16  C22 UNL     1      -0.564  51.067 -25.277  1.00  0.00     0.020 C 
HETATM   17  C23 UNL     1      -1.598  51.724 -24.324  1.00  0.00    -0.016 C 
HETATM   18  C24 UNL     1      -1.459  53.261 -24.426  1.00  0.00     0.020 C 
HETATM   19  C25 UNL     1      -1.397  51.215 -22.860  1.00  0.00     0.002 C 
HETATM   20  C26 UNL     1       0.040  51.303 -22.293  1.00  0.00     0.007 C 
HETATM   21  C27 UNL     1       0.142  50.658 -20.893  1.00  0.00     0.014 C 
HETATM   22  C28 UNL     1      -0.890  51.235 -19.902  1.00  0.00     0.003 C 
HETATM   23  C29 UNL     1      -0.489  52.703 -19.564  1.00  0.00     0.020 C 
ENDROOT
BRANCH   3  24
HETATM   24  O1  UNL     1      -1.253  49.027 -18.892  1.00  0.00    -0.377 OA
HETATM   25  H2  UNL     1      -0.356  48.653 -18.887  1.00  0.00     0.211 HD
ENDBRANCH   3  24
BRANCH  13  26
HETATM   26  O2  UNL     1      -3.835  50.150 -28.541  1.00  0.00    -0.271 OA
BRANCH  26  27
HETATM   27  C13 UNL     1      -4.041  48.816 -28.088  1.00  0.00     0.303 C 
BRANCH  27  28
HETATM   28  C14 UNL     1      -5.339  48.186 -28.588  1.00  0.00     0.244 C 
HETATM   29  O3  UNL     1      -5.911  47.284 -27.978  1.00  0.00    -0.271 OA
HETATM   30  N2  UNL     1      -5.796  48.694 -29.784  1.00  0.00    -0.344 N 
HETATM   31  H16 UNL     1      -5.099  49.235 -30.296  1.00  0.00     0.163 HD
BRANCH  30  32
HETATM   32  C15 UNL     1      -6.909  48.092 -30.520  1.00  0.00     0.186 C 
BRANCH  32  33
HETATM   33  C16 UNL     1      -8.083  48.003 -29.536  1.00  0.00     0.163 C 
HETATM   34  O4  UNL     1      -8.762  47.012 -29.304  1.00  0.00    -0.648 OA
BRANCH  33  35
HETATM   35  O5  UNL     1      -8.353  49.162 -28.906  1.00  0.00    -0.775 OA
HETATM   36  H18 UNL     1      -9.075  48.934 -28.285  1.00  0.00     0.167 HD
ENDBRANCH  33  35
ENDBRANCH  32  33
BRANCH  32  37
HETATM   37  C17 UNL     1      -6.461  46.733 -31.113  1.00  0.00     0.014 C 
HETATM   38  C18 UNL     1      -7.309  46.261 -32.298  1.00  0.00     0.012 C 
BRANCH  37  39
HETATM   39  C19 UNL     1      -4.951  46.663 -31.426  1.00  0.00     0.002 C 
HETATM   40  C20 UNL     1      -4.563  46.573 -32.893  1.00  0.00     0.005 C 
ENDBRANCH  37  39
ENDBRANCH  32  37
ENDBRANCH  30  32
ENDBRANCH  27  28
ENDBRANCH  26  27
ENDBRANCH  13  26
TORSDOF 9
ENDMDL
MODEL 6
REMARK minimizedAffinity -9.07182789
REMARK  9 active torsions:
REMARK  status: ('A' for Active; 'I' for Inactive)
REMARK    1  A    between atoms: C3_3  and  O1_4 
REMARK    2  A    between atoms: N1_14  and  O2_16 
REMARK    3  A    between atoms: O2_16  and  C13_17 
REMARK    4  A    between atoms: C13_17  and  C14_18 
REMARK       I    between atoms: C14_18  and  N2_20 
REMARK    5  A    between atoms: N2_20  and  C15_21 
REMARK    6  A    between atoms: C15_21  and  C16_22 
REMARK    7  A    between atoms: C15_21  and  C17_25 
REMARK    8  A    between atoms: C16_22  and  O5_24 
REMARK    9  A    between atoms: C17_25  and  C19_27 
ROOT
HETATM    1  C1  UNL     1      -1.634  51.170 -27.518  1.00  0.00     0.015 C 
HETATM    2  C2  UNL     1      -0.991  51.466 -26.547  1.00  0.00    -0.078 C 
HETATM    3  C3  UNL     1      -0.194  51.812 -25.361  1.00  0.00     0.128 C 
HETATM    4  C4  UNL     1       0.334  53.267 -25.410  1.00  0.00     0.052 C 
HETATM    5  C5  UNL     1       0.393  53.758 -23.943  1.00  0.00     0.010 C 
HETATM    6  C6  UNL     1       0.045  52.527 -23.112  1.00  0.00     0.002 C 
HETATM    7  C7  UNL     1      -0.463  52.689 -21.672  1.00  0.00    -0.004 C 
HETATM    8  C8  UNL     1       0.392  53.616 -20.789  1.00  0.00     0.010 C 
HETATM    9  C9  UNL     1       1.189  52.888 -19.713  1.00  0.00     0.035 C 
HETATM   10  C10 UNL     1       0.377  51.910 -18.890  1.00  0.00    -0.069 C 
HETATM   11  C11 UNL     1       0.855  51.536 -17.688  1.00  0.00     0.030 C 
HETATM   12  C12 UNL     1       0.220  50.452 -16.882  1.00  0.00     0.032 C 
HETATM   13  N1  UNL     1       0.639  50.022 -15.729  1.00  0.00    -0.271 N 
ATOM     14  H1  UNL     1       0.185  49.281 -15.195  1.00  0.00     0.194 HD
HETATM   15  C21 UNL     1      -1.017  49.785 -17.451  1.00  0.00     0.060 C 
HETATM   16  C22 UNL     1      -1.035  49.844 -18.975  1.00  0.00     0.020 C 
HETATM   17  C23 UNL     1      -0.866  51.283 -19.532  1.00  0.00    -0.016 C 
HETATM   18  C24 UNL     1      -2.124  52.106 -19.170  1.00  0.00     0.020 C 
HETATM   19  C25 UNL     1      -0.614  51.250 -21.074  1.00  0.00     0.002 C 
HETATM   20  C26 UNL     1      -1.616  50.424 -21.916  1.00  0.00     0.007 C 
HETATM   21  C27 UNL     1      -1.196  50.360 -23.402  1.00  0.00     0.014 C 
HETATM   22  C28 UNL     1      -0.967  51.758 -24.011  1.00  0.00     0.003 C 
HETATM   23  C29 UNL     1      -2.344  52.476 -24.141  1.00  0.00     0.020 C 
ENDROOT
BRANCH   3  24
HETATM   24  O1  UNL     1       0.945  50.949 -25.321  1.00  0.00    -0.377 OA
HETATM   25  H2  UNL     1       0.647  50.066 -25.596  1.00  0.00     0.211 HD
ENDBRANCH   3  24
BRANCH  13  26
HETATM   26  O2  UNL     1       1.796  50.701 -15.308  1.00  0.00    -0.271 OA
BRANCH  26  27
HETATM   27  C13 UNL     1       1.454  52.001 -14.839  1.00  0.00     0.303 C 
BRANCH  27  28
HETATM   28  C14 UNL     1       1.266  52.083 -13.326  1.00  0.00     0.244 C 
HETATM   29  O3  UNL     1       1.964  51.444 -12.540  1.00  0.00    -0.271 OA
HETATM   30  N2  UNL     1       0.239  52.908 -12.922  1.00  0.00    -0.344 N 
HETATM   31  H16 UNL     1      -0.407  53.158 -13.670  1.00  0.00     0.163 HD
BRANCH  30  32
HETATM   32  C15 UNL     1      -0.221  52.968 -11.534  1.00  0.00     0.186 C 
BRANCH  32  33
HETATM   33  C16 UNL     1      -1.693  52.535 -11.545  1.00  0.00     0.163 C 
HETATM   34  O4  UNL     1      -2.284  51.948 -10.649  1.00  0.00    -0.648 OA
BRANCH  33  35
HETATM   35  O5  UNL     1      -2.343  52.849 -12.682  1.00  0.00    -0.775 OA
HETATM   36  H18 UNL     1      -3.266  52.563 -12.516  1.00  0.00     0.167 HD
ENDBRANCH  33  35
ENDBRANCH  32  33
BRANCH  32  37
HETATM   37  C17 UNL     1       0.029  54.386 -10.968  1.00  0.00     0.014 C 
HETATM   38  C18 UNL     1      -1.164  54.973 -10.206  1.00  0.00     0.012 C 
BRANCH  37  39
HETATM   39  C19 UNL     1       1.339  54.507 -10.158  1.00  0.00     0.002 C 
HETATM   40  C20 UNL     1       2.393  55.455 -10.708  1.00  0.00     0.005 C 
ENDBRANCH  37  39
ENDBRANCH  32  37
ENDBRANCH  30  32
ENDBRANCH  27  28
ENDBRANCH  26  27
ENDBRANCH  13  26
TORSDOF 9
ENDMDL
MODEL 7
REMARK minimizedAffinity -9.01514149
REMARK  9 active torsions:
REMARK  status: ('A' for Active; 'I' for Inactive)
REMARK    1  A    between atoms: C3_3  and  O1_4 
REMARK    2  A    between atoms: N1_14  and  O2_16 
REMARK    3  A    between atoms: O2_16  and  C13_17 
REMARK    4  A    between atoms: C13_17  and  C14_18 
REMARK       I    between atoms: C14_18  and  N2_20 
REMARK    5  A    between atoms: N2_20  and  C15_21 
REMARK    6  A    between atoms: C15_21  and  C16_22 
REMARK    7  A    between atoms: C15_21  and  C17_25 
REMARK    8  A    between atoms: C16_22  and  O5_24 
REMARK    9  A    between atoms: C17_25  and  C19_27 
ROOT
HETATM    1  C1  UNL     1       1.045  54.741 -23.905  1.00  0.00     0.015 C 
HETATM    2  C2  UNL     1       0.451  53.904 -24.532  1.00  0.00    -0.078 C 
HETATM    3  C3  UNL     1      -0.285  52.893 -25.306  1.00  0.00     0.128 C 
HETATM    4  C4  UNL     1       0.659  51.904 -26.031  1.00  0.00     0.052 C 
HETATM    5  C5  UNL     1      -0.086  50.548 -26.081  1.00  0.00     0.010 C 
HETATM    6  C6  UNL     1      -1.474  50.853 -25.524  1.00  0.00     0.002 C 
HETATM    7  C7  UNL     1      -2.345  49.718 -24.969  1.00  0.00    -0.004 C 
HETATM    8  C8  UNL     1      -2.478  48.496 -25.897  1.00  0.00     0.010 C 
HETATM    9  C9  UNL     1      -3.857  48.342 -26.528  1.00  0.00     0.035 C 
HETATM   10  C10 UNL     1      -5.007  48.438 -25.547  1.00  0.00    -0.069 C 
HETATM   11  C11 UNL     1      -6.196  47.919 -25.906  1.00  0.00     0.030 C 
HETATM   12  C12 UNL     1      -7.428  48.116 -25.086  1.00  0.00     0.032 C 
HETATM   13  N1  UNL     1      -8.613  47.668 -25.381  1.00  0.00    -0.271 N 
ATOM     14  H1  UNL     1      -9.439  47.811 -24.801  1.00  0.00     0.194 HD
HETATM   15  C21 UNL     1      -7.299  48.908 -23.800  1.00  0.00     0.060 C 
HETATM   16  C22 UNL     1      -6.147  49.905 -23.870  1.00  0.00     0.020 C 
HETATM   17  C23 UNL     1      -4.796  49.251 -24.264  1.00  0.00    -0.016 C 
HETATM   18  C24 UNL     1      -4.341  48.323 -23.115  1.00  0.00     0.020 C 
HETATM   19  C25 UNL     1      -3.729  50.345 -24.590  1.00  0.00     0.002 C 
HETATM   20  C26 UNL     1      -3.539  51.455 -23.529  1.00  0.00     0.007 C 
HETATM   21  C27 UNL     1      -2.556  52.545 -24.013  1.00  0.00     0.014 C 
HETATM   22  C28 UNL     1      -1.202  51.959 -24.463  1.00  0.00     0.003 C 
HETATM   23  C29 UNL     1      -0.442  51.436 -23.207  1.00  0.00     0.020 C 
ENDROOT
BRANCH   3  24
HETATM   24  O1  UNL     1      -1.046  53.569 -26.311  1.00  0.00    -0.377 OA
HETATM   25  H2  UNL     1      -1.400  54.379 -25.909  1.00  0.00     0.211 HD
ENDBRANCH   3  24
BRANCH  13  26
HETATM   26  O2  UNL     1      -8.615  46.962 -26.597  1.00  0.00    -0.271 OA
BRANCH  26  27
HETATM   27  C13 UNL     1      -8.931  47.842 -27.671  1.00  0.00     0.303 C 
BRANCH  27  28
HETATM   28  C14 UNL     1      -9.041  47.149 -29.027  1.00  0.00     0.244 C 
HETATM   29  O3  UNL     1     -10.068  47.184 -29.703  1.00  0.00    -0.271 OA
HETATM   30  N2  UNL     1      -7.909  46.466 -29.413  1.00  0.00    -0.344 N 
HETATM   31  H16 UNL     1      -7.245  46.306 -28.655  1.00  0.00     0.163 HD
BRANCH  30  32
HETATM   32  C15 UNL     1      -7.882  45.584 -30.580  1.00  0.00     0.186 C 
BRANCH  32  33
HETATM   33  C16 UNL     1      -7.405  44.214 -30.079  1.00  0.00     0.163 C 
HETATM   34  O4  UNL     1      -7.407  43.169 -30.713  1.00  0.00    -0.648 OA
BRANCH  33  35
HETATM   35  O5  UNL     1      -6.965  44.225 -28.806  1.00  0.00    -0.775 OA
HETATM   36  H18 UNL     1      -6.650  43.309 -28.655  1.00  0.00     0.167 HD
ENDBRANCH  33  35
ENDBRANCH  32  33
BRANCH  32  37
HETATM   37  C17 UNL     1      -6.995  46.211 -31.682  1.00  0.00     0.014 C 
HETATM   38  C18 UNL     1      -6.643  47.682 -31.437  1.00  0.00     0.012 C 
BRANCH  37  39
HETATM   39  C19 UNL     1      -5.742  45.372 -32.020  1.00  0.00     0.002 C 
HETATM   40  C20 UNL     1      -4.410  46.103 -32.002  1.00  0.00     0.005 C 
ENDBRANCH  37  39
ENDBRANCH  32  37
ENDBRANCH  30  32
ENDBRANCH  27  28
ENDBRANCH  26  27
ENDBRANCH  13  26
TORSDOF 9
ENDMDL
MODEL 8
REMARK minimizedAffinity -8.91314602
REMARK  9 active torsions:
REMARK  status: ('A' for Active; 'I' for Inactive)
REMARK    1  A    between atoms: C3_3  and  O1_4 
REMARK    2  A    between atoms: N1_14  and  O2_16 
REMARK    3  A    between atoms: O2_16  and  C13_17 
REMARK    4  A    between atoms: C13_17  and  C14_18 
REMARK       I    between atoms: C14_18  and  N2_20 
REMARK    5  A    between atoms: N2_20  and  C15_21 
REMARK    6  A    between atoms: C15_21  and  C16_22 
REMARK    7  A    between atoms: C15_21  and  C17_25 
REMARK    8  A    between atoms: C16_22  and  O5_24 
REMARK    9  A    between atoms: C17_25  and  C19_27 
ROOT
HETATM    1  C1  UNL     1       0.960  54.843 -24.269  1.00  0.00     0.015 C 
HETATM    2  C2  UNL     1       0.358  53.984 -24.857  1.00  0.00    -0.078 C 
HETATM    3  C3  UNL     1      -0.389  52.947 -25.583  1.00  0.00     0.128 C 
HETATM    4  C4  UNL     1       0.544  51.950 -26.311  1.00  0.00     0.052 C 
HETATM    5  C5  UNL     1      -0.188  50.585 -26.305  1.00  0.00     0.010 C 
HETATM    6  C6  UNL     1      -1.562  50.889 -25.715  1.00  0.00     0.002 C 
HETATM    7  C7  UNL     1      -2.404  49.760 -25.106  1.00  0.00    -0.004 C 
HETATM    8  C8  UNL     1      -2.550  48.514 -25.999  1.00  0.00     0.010 C 
HETATM    9  C9  UNL     1      -3.945  48.330 -26.585  1.00  0.00     0.035 C 
HETATM   10  C10 UNL     1      -5.067  48.438 -25.573  1.00  0.00    -0.069 C 
HETATM   11  C11 UNL     1      -6.260  47.899 -25.883  1.00  0.00     0.030 C 
HETATM   12  C12 UNL     1      -7.470  48.103 -25.032  1.00  0.00     0.032 C 
HETATM   13  N1  UNL     1      -8.657  47.635 -25.281  1.00  0.00    -0.271 N 
ATOM     14  H1  UNL     1      -9.468  47.785 -24.681  1.00  0.00     0.194 HD
HETATM   15  C21 UNL     1      -7.312  48.928 -23.772  1.00  0.00     0.060 C 
HETATM   16  C22 UNL     1      -6.174  49.936 -23.900  1.00  0.00     0.020 C 
HETATM   17  C23 UNL     1      -4.828  49.285 -24.318  1.00  0.00    -0.016 C 
HETATM   18  C24 UNL     1      -4.328  48.391 -23.160  1.00  0.00     0.020 C 
HETATM   19  C25 UNL     1      -3.783  50.382 -24.702  1.00  0.00     0.002 C 
HETATM   20  C26 UNL     1      -3.574  51.521 -23.675  1.00  0.00     0.007 C 
HETATM   21  C27 UNL     1      -2.618  52.608 -24.215  1.00  0.00     0.014 C 
HETATM   22  C28 UNL     1      -1.271  52.025 -24.691  1.00  0.00     0.003 C 
HETATM   23  C29 UNL     1      -0.469  51.542 -23.445  1.00  0.00     0.020 C 
ENDROOT
BRANCH   3  24
HETATM   24  O1  UNL     1      -1.187  53.589 -26.581  1.00  0.00    -0.377 OA
HETATM   25  H2  UNL     1      -1.538  54.406 -26.189  1.00  0.00     0.211 HD
ENDBRANCH   3  24
BRANCH  13  26
HETATM   26  O2  UNL     1      -8.688  46.899 -26.479  1.00  0.00    -0.271 OA
BRANCH  26  27
HETATM   27  C13 UNL     1      -9.600  47.497 -27.395  1.00  0.00     0.303 C 
BRANCH  27  28
HETATM   28  C14 UNL     1     -11.021  47.634 -26.853  1.00  0.00     0.244 C 
HETATM   29  O3  UNL     1     -11.319  48.457 -25.988  1.00  0.00    -0.271 OA
HETATM   30  N2  UNL     1     -11.926  46.748 -27.393  1.00  0.00    -0.344 N 
HETATM   31  H16 UNL     1     -11.495  45.969 -27.889  1.00  0.00     0.163 HD
BRANCH  30  32
HETATM   32  C15 UNL     1     -13.283  46.592 -26.866  1.00  0.00     0.186 C 
BRANCH  32  33
HETATM   33  C16 UNL     1     -13.179  45.634 -25.672  1.00  0.00     0.163 C 
HETATM   34  O4  UNL     1     -13.379  44.428 -25.690  1.00  0.00    -0.648 OA
BRANCH  33  35
HETATM   35  O5  UNL     1     -12.844  46.241 -24.517  1.00  0.00    -0.775 OA
HETATM   36  H18 UNL     1     -12.765  45.504 -23.875  1.00  0.00     0.167 HD
ENDBRANCH  33  35
ENDBRANCH  32  33
BRANCH  32  37
HETATM   37  C17 UNL     1     -14.223  46.111 -27.998  1.00  0.00     0.014 C 
HETATM   38  C18 UNL     1     -13.537  45.230 -29.047  1.00  0.00     0.012 C 
BRANCH  37  39
HETATM   39  C19 UNL     1     -15.533  45.473 -27.485  1.00  0.00     0.002 C 
HETATM   40  C20 UNL     1     -16.200  44.459 -28.399  1.00  0.00     0.005 C 
ENDBRANCH  37  39
ENDBRANCH  32  37
ENDBRANCH  30  32
ENDBRANCH  27  28
ENDBRANCH  26  27
ENDBRANCH  13  26
TORSDOF 9
ENDMDL
MODEL 9
REMARK minimizedAffinity -8.87388039
REMARK  9 active torsions:
REMARK  status: ('A' for Active; 'I' for Inactive)
REMARK    1  A    between atoms: C3_3  and  O1_4 
REMARK    2  A    between atoms: N1_14  and  O2_16 
REMARK    3  A    between atoms: O2_16  and  C13_17 
REMARK    4  A    between atoms: C13_17  and  C14_18 
REMARK       I    between atoms: C14_18  and  N2_20 
REMARK    5  A    between atoms: N2_20  and  C15_21 
REMARK    6  A    between atoms: C15_21  and  C16_22 
REMARK    7  A    between atoms: C15_21  and  C17_25 
REMARK    8  A    between atoms: C16_22  and  O5_24 
REMARK    9  A    between atoms: C17_25  and  C19_27 
ROOT
HETATM    1  C1  UNL     1       0.057  50.088 -17.542  1.00  0.00     0.015 C 
HETATM    2  C2  UNL     1      -0.813  49.626 -18.231  1.00  0.00    -0.078 C 
HETATM    3  C3  UNL     1      -1.867  49.046 -19.077  1.00  0.00     0.128 C 
HETATM    4  C4  UNL     1      -3.252  49.060 -18.385  1.00  0.00     0.052 C 
HETATM    5  C5  UNL     1      -4.299  49.231 -19.513  1.00  0.00     0.010 C 
HETATM    6  C6  UNL     1      -3.489  49.155 -20.803  1.00  0.00     0.002 C 
HETATM    7  C7  UNL     1      -4.058  49.741 -22.103  1.00  0.00    -0.004 C 
HETATM    8  C8  UNL     1      -5.495  49.298 -22.433  1.00  0.00     0.010 C 
HETATM    9  C9  UNL     1      -5.594  48.337 -23.612  1.00  0.00     0.035 C 
HETATM   10  C10 UNL     1      -4.840  48.784 -24.847  1.00  0.00    -0.069 C 
HETATM   11  C11 UNL     1      -5.185  48.250 -26.033  1.00  0.00     0.030 C 
HETATM   12  C12 UNL     1      -4.393  48.493 -27.275  1.00  0.00     0.032 C 
HETATM   13  N1  UNL     1      -4.651  47.992 -28.447  1.00  0.00    -0.271 N 
ATOM     14  H1  UNL     1      -4.096  48.178 -29.283  1.00  0.00     0.194 HD
HETATM   15  C21 UNL     1      -3.180  49.395 -27.170  1.00  0.00     0.060 C 
HETATM   16  C22 UNL     1      -2.588  49.377 -25.765  1.00  0.00     0.020 C 
HETATM   17  C23 UNL     1      -3.628  49.703 -24.660  1.00  0.00    -0.016 C 
HETATM   18  C24 UNL     1      -4.055  51.183 -24.802  1.00  0.00     0.020 C 
HETATM   19  C25 UNL     1      -3.041  49.399 -23.244  1.00  0.00     0.002 C 
HETATM   20  C26 UNL     1      -1.657  50.016 -22.927  1.00  0.00     0.007 C 
HETATM   21  C27 UNL     1      -1.122  49.545 -21.556  1.00  0.00     0.014 C 
HETATM   22  C28 UNL     1      -2.127  49.800 -20.413  1.00  0.00     0.003 C 
HETATM   23  C29 UNL     1      -2.220  51.335 -20.165  1.00  0.00     0.020 C 
ENDROOT
BRANCH   3  24
HETATM   24  O1  UNL     1      -1.533  47.678 -19.330  1.00  0.00    -0.377 OA
HETATM   25  H2  UNL     1      -0.573  47.637 -19.470  1.00  0.00     0.211 HD
ENDBRANCH   3  24
BRANCH  13  26
HETATM   26  O2  UNL     1      -5.787  47.164 -28.422  1.00  0.00    -0.271 OA
BRANCH  26  27
HETATM   27  C13 UNL     1      -6.585  47.397 -29.578  1.00  0.00     0.303 C 
BRANCH  27  28
HETATM   28  C14 UNL     1      -7.924  48.070 -29.279  1.00  0.00     0.244 C 
HETATM   29  O3  UNL     1      -8.402  48.938 -30.009  1.00  0.00    -0.271 OA
HETATM   30  N2  UNL     1      -8.531  47.643 -28.119  1.00  0.00    -0.344 N 
HETATM   31  H16 UNL     1      -7.911  47.128 -27.495  1.00  0.00     0.163 HD
BRANCH  30  32
HETATM   32  C15 UNL     1      -9.714  48.301 -27.563  1.00  0.00     0.186 C 
BRANCH  32  33
HETATM   33  C16 UNL     1      -9.306  48.838 -26.185  1.00  0.00     0.163 C 
HETATM   34  O4  UNL     1      -8.712  48.220 -25.313  1.00  0.00    -0.648 OA
BRANCH  33  35
HETATM   35  O5  UNL     1      -9.676  50.115 -25.969  1.00  0.00    -0.775 OA
HETATM   36  H18 UNL     1      -9.303  50.325 -25.087  1.00  0.00     0.167 HD
ENDBRANCH  33  35
ENDBRANCH  32  33
BRANCH  32  37
HETATM   37  C17 UNL     1     -10.897  47.303 -27.541  1.00  0.00     0.014 C 
HETATM   38  C18 UNL     1     -12.276  47.969 -27.596  1.00  0.00     0.012 C 
BRANCH  37  39
HETATM   39  C19 UNL     1     -10.769  46.168 -28.581  1.00  0.00     0.002 C 
HETATM   40  C20 UNL     1     -11.473  46.381 -29.911  1.00  0.00     0.005 C 
ENDBRANCH  37  39
ENDBRANCH  32  37
ENDBRANCH  30  32
ENDBRANCH  27  28
ENDBRANCH  26  27
ENDBRANCH  13  26
TORSDOF 9
ENDMDL
