MODEL 1
REMARK minimizedAffinity -6.62912416
REMARK CNNscore 0.584727824
REMARK CNNaffinity 6.19930267
REMARK  6 active torsions:
REMARK  status: ('A' for Active; 'I' for Inactive)
REMARK    1  A    between atoms: C2_2  and  C4_4 
REMARK    2  A    between atoms: C11_11  and  C12_12 
REMARK    3  A    between atoms: C12_12  and  O2_14 
REMARK    4  A    between atoms: C21_23  and  O3_24 
REMARK    5  A    between atoms: C22_25  and  C24_27 
REMARK    6  A    between atoms: C24_27  and  O4_28 
ROOT
HETATM    1  C4  UNL     1      -7.998  45.637 -31.693  1.00  0.00     0.018 C 
HETATM    2  C5  UNL     1      -6.662  46.344 -32.057  1.00  0.00     0.010 C 
HETATM    3  C6  UNL     1      -6.423  47.422 -30.985  1.00  0.00     0.010 C 
HETATM    4  C7  UNL     1      -7.815  47.683 -30.395  1.00  0.00    -0.039 C 
HETATM    5  C8  UNL     1      -8.583  48.625 -31.358  1.00  0.00     0.015 C 
HETATM    6  C9  UNL     1      -7.805  48.286 -28.986  1.00  0.00     0.011 C 
HETATM    7  C10 UNL     1      -9.201  48.218 -28.324  1.00  0.00     0.022 C 
HETATM    8  C11 UNL     1      -9.867  46.784 -28.324  1.00  0.00     0.057 C 
HETATM    9  C13 UNL     1      -9.807  46.217 -29.797  1.00  0.00     0.011 C 
HETATM   10  C14 UNL     1     -10.540  44.887 -29.978  1.00  0.00     0.007 C 
HETATM   11  C15 UNL     1     -11.973  44.934 -29.455  1.00  0.00     0.006 C 
HETATM   12  C16 UNL     1     -12.084  45.427 -27.994  1.00  0.00     0.003 C 
HETATM   13  C17 UNL     1     -13.558  45.249 -27.364  1.00  0.00    -0.035 C 
HETATM   14  C18 UNL     1     -14.645  45.512 -28.439  1.00  0.00     0.016 C 
HETATM   15  C19 UNL     1     -13.671  43.745 -26.949  1.00  0.00     0.012 C 
HETATM   16  C20 UNL     1     -14.871  43.404 -26.081  1.00  0.00     0.033 C 
HETATM   17  C21 UNL     1     -14.857  44.232 -24.804  1.00  0.00     0.128 C 
HETATM   18  C22 UNL     1     -14.922  45.755 -25.076  1.00  0.00     0.007 C 
HETATM   19  C23 UNL     1     -16.316  46.161 -25.637  1.00  0.00     0.020 C 
HETATM   20  C25 UNL     1     -13.769  46.185 -26.098  1.00  0.00     0.007 C 
HETATM   21  C26 UNL     1     -12.402  46.404 -25.423  1.00  0.00     0.007 C 
HETATM   22  C27 UNL     1     -11.441  47.220 -26.288  1.00  0.00     0.011 C 
HETATM   23  C28 UNL     1     -11.396  46.829 -27.796  1.00  0.00    -0.022 C 
HETATM   24  C29 UNL     1     -12.194  47.921 -28.568  1.00  0.00     0.017 C 
HETATM   25  C30 UNL     1      -8.349  46.230 -30.310  1.00  0.00     0.007 C 
ENDROOT
BRANCH   8  26
HETATM   26  C12 UNL     1      -8.985  45.943 -27.354  1.00  0.00     0.149 C 
HETATM   27  O1  UNL     1      -8.215  46.379 -26.510  1.00  0.00    -0.649 OA
BRANCH  26  28
HETATM   28  O2  UNL     1      -9.106  44.614 -27.454  1.00  0.00    -0.776 OA
HETATM   29  H18 UNL     1      -8.496  44.270 -26.768  1.00  0.00     0.167 HD
ENDBRANCH  26  28
ENDBRANCH   8  26
BRANCH   1  30
HETATM   30  C2  UNL     1      -7.857  44.130 -31.851  1.00  0.00    -0.089 C 
HETATM   31  C1  UNL     1      -8.265  43.424 -32.919  1.00  0.00     0.014 C 
HETATM   32  C3  UNL     1      -7.223  43.426 -30.680  1.00  0.00     0.043 C 
ENDBRANCH   1  30
BRANCH  18  33
HETATM   33  C24 UNL     1     -14.840  46.530 -23.723  1.00  0.00     0.176 C 
BRANCH  33  34
HETATM   34  O4  UNL     1     -15.271  47.883 -23.841  1.00  0.00    -0.400 OA
HETATM   35  H39 UNL     1     -15.323  48.243 -22.938  1.00  0.00     0.209 HD
ENDBRANCH  33  34
ENDBRANCH  18  33
BRANCH  17  36
HETATM   36  O3  UNL     1     -15.955  43.811 -23.993  1.00  0.00    -0.395 OA
HETATM   37  H33 UNL     1     -15.708  44.027 -23.076  1.00  0.00     0.210 HD
ENDBRANCH  17  36
TORSDOF 6
ENDMDL
MODEL 2
REMARK minimizedAffinity -6.234519
REMARK CNNscore 0.520951807
REMARK CNNaffinity 6.19358253
REMARK  6 active torsions:
REMARK  status: ('A' for Active; 'I' for Inactive)
REMARK    1  A    between atoms: C2_2  and  C4_4 
REMARK    2  A    between atoms: C11_11  and  C12_12 
REMARK    3  A    between atoms: C12_12  and  O2_14 
REMARK    4  A    between atoms: C21_23  and  O3_24 
REMARK    5  A    between atoms: C22_25  and  C24_27 
REMARK    6  A    between atoms: C24_27  and  O4_28 
ROOT
HETATM    1  C4  UNL     1      -6.176  45.062 -32.462  1.00  0.00     0.018 C 
HETATM    2  C5  UNL     1      -4.887  45.795 -32.929  1.00  0.00     0.010 C 
HETATM    3  C6  UNL     1      -4.778  47.081 -32.090  1.00  0.00     0.010 C 
HETATM    4  C7  UNL     1      -6.209  47.333 -31.597  1.00  0.00    -0.039 C 
HETATM    5  C8  UNL     1      -7.011  47.995 -32.748  1.00  0.00     0.015 C 
HETATM    6  C9  UNL     1      -6.304  48.202 -30.339  1.00  0.00     0.011 C 
HETATM    7  C10 UNL     1      -7.716  48.146 -29.709  1.00  0.00     0.022 C 
HETATM    8  C11 UNL     1      -8.264  46.689 -29.437  1.00  0.00     0.057 C 
HETATM    9  C13 UNL     1      -8.100  45.848 -30.764  1.00  0.00     0.011 C 
HETATM   10  C14 UNL     1      -8.716  44.450 -30.691  1.00  0.00     0.007 C 
HETATM   11  C15 UNL     1     -10.168  44.477 -30.222  1.00  0.00     0.006 C 
HETATM   12  C16 UNL     1     -10.378  45.238 -28.893  1.00  0.00     0.003 C 
HETATM   13  C17 UNL     1     -11.858  45.063 -28.276  1.00  0.00    -0.035 C 
HETATM   14  C18 UNL     1     -12.918  45.012 -29.407  1.00  0.00     0.016 C 
HETATM   15  C19 UNL     1     -11.867  43.667 -27.570  1.00  0.00     0.012 C 
HETATM   16  C20 UNL     1     -13.070  43.403 -26.679  1.00  0.00     0.033 C 
HETATM   17  C21 UNL     1     -13.173  44.466 -25.595  1.00  0.00     0.128 C 
HETATM   18  C22 UNL     1     -13.348  45.892 -26.169  1.00  0.00     0.007 C 
HETATM   19  C23 UNL     1     -14.747  46.058 -26.834  1.00  0.00     0.020 C 
HETATM   20  C25 UNL     1     -12.194  46.209 -27.229  1.00  0.00     0.007 C 
HETATM   21  C26 UNL     1     -10.876  46.674 -26.580  1.00  0.00     0.007 C 
HETATM   22  C27 UNL     1      -9.949  47.383 -27.569  1.00  0.00     0.011 C 
HETATM   23  C28 UNL     1      -9.813  46.706 -28.965  1.00  0.00    -0.022 C 
HETATM   24  C29 UNL     1     -10.663  47.550 -29.960  1.00  0.00     0.017 C 
HETATM   25  C30 UNL     1      -6.628  45.885 -31.235  1.00  0.00     0.007 C 
ENDROOT
BRANCH   8  26
HETATM   26  C12 UNL     1      -7.358  46.136 -28.297  1.00  0.00     0.149 C 
HETATM   27  O1  UNL     1      -6.742  46.799 -27.474  1.00  0.00    -0.649 OA
BRANCH  26  28
HETATM   28  O2  UNL     1      -7.269  44.804 -28.212  1.00  0.00    -0.776 OA
HETATM   29  H18 UNL     1      -6.679  44.656 -27.444  1.00  0.00     0.167 HD
ENDBRANCH  26  28
ENDBRANCH   8  26
BRANCH   1  30
HETATM   30  C2  UNL     1      -5.909  43.571 -32.310  1.00  0.00    -0.089 C 
HETATM   31  C1  UNL     1      -4.695  43.018 -32.143  1.00  0.00     0.014 C 
HETATM   32  C3  UNL     1      -7.133  42.697 -32.379  1.00  0.00     0.043 C 
ENDBRANCH   1  30
BRANCH  18  33
HETATM   33  C24 UNL     1     -13.383  46.925 -24.998  1.00  0.00     0.176 C 
BRANCH  33  34
HETATM   34  O4  UNL     1     -14.710  47.311 -24.650  1.00  0.00    -0.400 OA
HETATM   35  H39 UNL     1     -14.646  47.836 -23.832  1.00  0.00     0.209 HD
ENDBRANCH  33  34
ENDBRANCH  18  33
BRANCH  17  36
HETATM   36  O3  UNL     1     -14.266  44.120 -24.742  1.00  0.00    -0.395 OA
HETATM   37  H33 UNL     1     -14.074  44.535 -23.881  1.00  0.00     0.210 HD
ENDBRANCH  17  36
TORSDOF 6
ENDMDL
MODEL 3
REMARK minimizedAffinity -6.02492476
REMARK CNNscore 0.496795475
REMARK CNNaffinity 6.14439917
REMARK  6 active torsions:
REMARK  status: ('A' for Active; 'I' for Inactive)
REMARK    1  A    between atoms: C2_2  and  C4_4 
REMARK    2  A    between atoms: C11_11  and  C12_12 
REMARK    3  A    between atoms: C12_12  and  O2_14 
REMARK    4  A    between atoms: C21_23  and  O3_24 
REMARK    5  A    between atoms: C22_25  and  C24_27 
REMARK    6  A    between atoms: C24_27  and  O4_28 
ROOT
HETATM    1  C4  UNL     1      -9.789  43.040 -37.484  1.00  0.00     0.018 C 
HETATM    2  C5  UNL     1     -10.067  41.632 -38.083  1.00  0.00     0.010 C 
HETATM    3  C6  UNL     1      -9.901  40.621 -36.935  1.00  0.00     0.010 C 
HETATM    4  C7  UNL     1      -9.028  41.354 -35.908  1.00  0.00    -0.039 C 
HETATM    5  C8  UNL     1      -7.551  41.268 -36.375  1.00  0.00     0.015 C 
HETATM    6  C9  UNL     1      -9.146  40.822 -34.476  1.00  0.00     0.011 C 
HETATM    7  C10 UNL     1      -8.515  41.791 -33.450  1.00  0.00     0.022 C 
HETATM    8  C11 UNL     1      -9.025  43.284 -33.546  1.00  0.00     0.057 C 
HETATM    9  C13 UNL     1      -8.905  43.748 -35.051  1.00  0.00     0.011 C 
HETATM   10  C14 UNL     1      -9.238  45.223 -35.273  1.00  0.00     0.007 C 
HETATM   11  C15 UNL     1      -8.455  46.144 -34.341  1.00  0.00     0.006 C 
HETATM   12  C16 UNL     1      -8.586  45.772 -32.846  1.00  0.00     0.003 C 
HETATM   13  C17 UNL     1      -7.963  46.876 -31.850  1.00  0.00    -0.035 C 
HETATM   14  C18 UNL     1      -6.685  47.506 -32.464  1.00  0.00     0.016 C 
HETATM   15  C19 UNL     1      -9.033  48.011 -31.742  1.00  0.00     0.012 C 
HETATM   16  C20 UNL     1      -8.785  49.029 -30.641  1.00  0.00     0.033 C 
HETATM   17  C21 UNL     1      -8.710  48.340 -29.286  1.00  0.00     0.128 C 
HETATM   18  C22 UNL     1      -7.562  47.305 -29.203  1.00  0.00     0.007 C 
HETATM   19  C23 UNL     1      -6.174  48.010 -29.216  1.00  0.00     0.020 C 
HETATM   20  C25 UNL     1      -7.665  46.265 -30.414  1.00  0.00     0.007 C 
HETATM   21  C26 UNL     1      -8.663  45.120 -30.157  1.00  0.00     0.007 C 
HETATM   22  C27 UNL     1      -8.441  43.925 -31.084  1.00  0.00     0.011 C 
HETATM   23  C28 UNL     1      -8.182  44.273 -32.580  1.00  0.00    -0.022 C 
HETATM   24  C29 UNL     1      -6.656  44.086 -32.829  1.00  0.00     0.017 C 
HETATM   25  C30 UNL     1      -9.669  42.765 -35.969  1.00  0.00     0.007 C 
ENDROOT
BRANCH   8  26
HETATM   26  C12 UNL     1     -10.513  43.220 -33.087  1.00  0.00     0.149 C 
HETATM   27  O1  UNL     1     -11.431  43.909 -33.505  1.00  0.00    -0.649 OA
BRANCH  26  28
HETATM   28  O2  UNL     1     -10.800  42.304 -32.154  1.00  0.00    -0.776 OA
HETATM   29  H18 UNL     1     -11.764  42.408 -32.011  1.00  0.00     0.167 HD
ENDBRANCH  26  28
ENDBRANCH   8  26
BRANCH   1  30
HETATM   30  C2  UNL     1     -10.822  44.040 -37.987  1.00  0.00    -0.089 C 
HETATM   31  C1  UNL     1     -10.606  44.954 -38.947  1.00  0.00     0.014 C 
HETATM   32  C3  UNL     1     -12.162  43.964 -37.306  1.00  0.00     0.043 C 
ENDBRANCH   1  30
BRANCH  18  33
HETATM   33  C24 UNL     1      -7.595  46.602 -27.808  1.00  0.00     0.176 C 
BRANCH  33  34
HETATM   34  O4  UNL     1      -8.051  45.254 -27.887  1.00  0.00    -0.400 OA
HETATM   35  H39 UNL     1      -7.905  44.855 -27.010  1.00  0.00     0.209 HD
ENDBRANCH  33  34
ENDBRANCH  18  33
BRANCH  17  36
HETATM   36  O3  UNL     1      -8.562  49.349 -28.285  1.00  0.00    -0.395 OA
HETATM   37  H33 UNL     1      -8.914  48.963 -27.463  1.00  0.00     0.210 HD
ENDBRANCH  17  36
TORSDOF 6
ENDMDL
MODEL 4
REMARK minimizedAffinity -7.84634256
REMARK CNNscore 0.406491905
REMARK CNNaffinity 6.32129097
REMARK  6 active torsions:
REMARK  status: ('A' for Active; 'I' for Inactive)
REMARK    1  A    between atoms: C2_2  and  C4_4 
REMARK    2  A    between atoms: C11_11  and  C12_12 
REMARK    3  A    between atoms: C12_12  and  O2_14 
REMARK    4  A    between atoms: C21_23  and  O3_24 
REMARK    5  A    between atoms: C22_25  and  C24_27 
REMARK    6  A    between atoms: C24_27  and  O4_28 
ROOT
HETATM    1  C4  UNL     1       5.062  53.951  -6.887  1.00  0.00     0.018 C 
HETATM    2  C5  UNL     1       6.134  55.059  -6.689  1.00  0.00     0.010 C 
HETATM    3  C6  UNL     1       5.698  56.258  -7.550  1.00  0.00     0.010 C 
HETATM    4  C7  UNL     1       4.759  55.648  -8.599  1.00  0.00    -0.039 C 
HETATM    5  C8  UNL     1       5.627  54.998  -9.709  1.00  0.00     0.015 C 
HETATM    6  C9  UNL     1       3.778  56.642  -9.230  1.00  0.00     0.011 C 
HETATM    7  C10 UNL     1       2.659  55.922 -10.016  1.00  0.00     0.022 C 
HETATM    8  C11 UNL     1       1.892  54.802  -9.206  1.00  0.00     0.057 C 
HETATM    9  C13 UNL     1       2.967  53.842  -8.560  1.00  0.00     0.011 C 
HETATM   10  C14 UNL     1       2.365  52.626  -7.854  1.00  0.00     0.007 C 
HETATM   11  C15 UNL     1       1.392  51.857  -8.743  1.00  0.00     0.006 C 
HETATM   12  C16 UNL     1       0.281  52.740  -9.355  1.00  0.00     0.003 C 
HETATM   13  C17 UNL     1      -0.880  51.897 -10.093  1.00  0.00    -0.035 C 
HETATM   14  C18 UNL     1      -0.282  50.658 -10.809  1.00  0.00     0.016 C 
HETATM   15  C19 UNL     1      -1.816  51.368  -8.957  1.00  0.00     0.012 C 
HETATM   16  C20 UNL     1      -3.134  50.779  -9.430  1.00  0.00     0.033 C 
HETATM   17  C21 UNL     1      -3.920  51.807 -10.231  1.00  0.00     0.128 C 
HETATM   18  C22 UNL     1      -3.167  52.286 -11.495  1.00  0.00     0.007 C 
HETATM   19  C23 UNL     1      -3.072  51.147 -12.552  1.00  0.00     0.020 C 
HETATM   20  C25 UNL     1      -1.704  52.801 -11.107  1.00  0.00     0.007 C 
HETATM   21  C26 UNL     1      -1.681  54.252 -10.591  1.00  0.00     0.007 C 
HETATM   22  C27 UNL     1      -0.285  54.875 -10.643  1.00  0.00     0.011 C 
HETATM   23  C28 UNL     1       0.876  53.964 -10.148  1.00  0.00    -0.022 C 
HETATM   24  C29 UNL     1       1.624  53.457 -11.416  1.00  0.00     0.017 C 
HETATM   25  C30 UNL     1       3.963  54.661  -7.707  1.00  0.00     0.007 C 
ENDROOT
BRANCH   8  26
HETATM   26  C12 UNL     1       1.097  55.583  -8.116  1.00  0.00     0.149 C 
HETATM   27  O1  UNL     1       1.572  56.183  -7.163  1.00  0.00    -0.649 OA
BRANCH  26  28
HETATM   28  O2  UNL     1      -0.233  55.603  -8.261  1.00  0.00    -0.776 OA
HETATM   29  H18 UNL     1      -0.544  56.141  -7.504  1.00  0.00     0.167 HD
ENDBRANCH  26  28
ENDBRANCH   8  26
BRANCH   1  30
HETATM   30  C2  UNL     1       4.709  53.314  -5.550  1.00  0.00    -0.089 C 
HETATM   31  C1  UNL     1       5.155  52.120  -5.122  1.00  0.00     0.014 C 
HETATM   32  C3  UNL     1       3.771  54.120  -4.691  1.00  0.00     0.043 C 
ENDBRANCH   1  30
BRANCH  18  33
HETATM   33  C24 UNL     1      -4.012  53.381 -12.222  1.00  0.00     0.176 C 
BRANCH  33  34
HETATM   34  O4  UNL     1      -3.879  53.320 -13.640  1.00  0.00    -0.400 OA
HETATM   35  H39 UNL     1      -4.539  53.933 -14.011  1.00  0.00     0.209 HD
ENDBRANCH  33  34
ENDBRANCH  18  33
BRANCH  17  36
HETATM   36  O3  UNL     1      -5.180  51.228 -10.575  1.00  0.00    -0.395 OA
HETATM   37  H33 UNL     1      -5.791  51.976 -10.706  1.00  0.00     0.210 HD
ENDBRANCH  17  36
TORSDOF 6
ENDMDL
MODEL 5
REMARK minimizedAffinity -7.10631657
REMARK CNNscore 0.40522629
REMARK CNNaffinity 5.83180952
REMARK  6 active torsions:
REMARK  status: ('A' for Active; 'I' for Inactive)
REMARK    1  A    between atoms: C2_2  and  C4_4 
REMARK    2  A    between atoms: C11_11  and  C12_12 
REMARK    3  A    between atoms: C12_12  and  O2_14 
REMARK    4  A    between atoms: C21_23  and  O3_24 
REMARK    5  A    between atoms: C22_25  and  C24_27 
REMARK    6  A    between atoms: C24_27  and  O4_28 
ROOT
HETATM    1  C4  UNL     1     -20.343  41.851 -24.544  1.00  0.00     0.018 C 
HETATM    2  C5  UNL     1     -21.559  41.985 -23.583  1.00  0.00     0.010 C 
HETATM    3  C6  UNL     1     -21.353  43.284 -22.785  1.00  0.00     0.010 C 
HETATM    4  C7  UNL     1     -19.846  43.555 -22.883  1.00  0.00    -0.039 C 
HETATM    5  C8  UNL     1     -19.122  42.651 -21.851  1.00  0.00     0.015 C 
HETATM    6  C9  UNL     1     -19.446  45.016 -22.657  1.00  0.00     0.011 C 
HETATM    7  C10 UNL     1     -17.986  45.284 -23.090  1.00  0.00     0.022 C 
HETATM    8  C11 UNL     1     -17.631  44.818 -24.558  1.00  0.00     0.057 C 
HETATM    9  C13 UNL     1     -18.104  43.320 -24.724  1.00  0.00     0.011 C 
HETATM   10  C14 UNL     1     -17.703  42.689 -26.058  1.00  0.00     0.007 C 
HETATM   11  C15 UNL     1     -16.213  42.840 -26.350  1.00  0.00     0.006 C 
HETATM   12  C16 UNL     1     -15.707  44.298 -26.260  1.00  0.00     0.003 C 
HETATM   13  C17 UNL     1     -14.200  44.492 -26.799  1.00  0.00    -0.035 C 
HETATM   14  C18 UNL     1     -13.328  43.262 -26.436  1.00  0.00     0.016 C 
HETATM   15  C19 UNL     1     -14.304  44.540 -28.360  1.00  0.00     0.012 C 
HETATM   16  C20 UNL     1     -13.043  44.994 -29.076  1.00  0.00     0.033 C 
HETATM   17  C21 UNL     1     -12.629  46.380 -28.601  1.00  0.00     0.128 C 
HETATM   18  C22 UNL     1     -12.322  46.426 -27.085  1.00  0.00     0.007 C 
HETATM   19  C23 UNL     1     -11.021  45.636 -26.756  1.00  0.00     0.020 C 
HETATM   20  C25 UNL     1     -13.551  45.835 -26.251  1.00  0.00     0.007 C 
HETATM   21  C26 UNL     1     -14.680  46.856 -26.013  1.00  0.00     0.007 C 
HETATM   22  C27 UNL     1     -15.617  46.447 -24.877  1.00  0.00     0.011 C 
HETATM   23  C28 UNL     1     -16.048  44.949 -24.868  1.00  0.00    -0.022 C 
HETATM   24  C29 UNL     1     -15.226  44.252 -23.744  1.00  0.00     0.017 C 
HETATM   25  C30 UNL     1     -19.605  43.197 -24.373  1.00  0.00     0.007 C 
ENDROOT
BRANCH   8  26
HETATM   26  C12 UNL     1     -18.443  45.777 -25.479  1.00  0.00     0.149 C 
HETATM   27  O1  UNL     1     -19.013  46.803 -25.136  1.00  0.00    -0.649 OA
BRANCH  26  28
HETATM   28  O2  UNL     1     -18.499  45.440 -26.773  1.00  0.00    -0.776 OA
HETATM   29  H18 UNL     1     -19.029  46.156 -27.180  1.00  0.00     0.167 HD
ENDBRANCH  26  28
ENDBRANCH   8  26
BRANCH   1  30
HETATM   30  C2  UNL     1     -20.810  41.420 -25.927  1.00  0.00    -0.089 C 
HETATM   31  C1  UNL     1     -20.273  41.837 -27.087  1.00  0.00     0.014 C 
HETATM   32  C3  UNL     1     -21.976  40.468 -25.936  1.00  0.00     0.043 C 
ENDBRANCH   1  30
BRANCH  18  33
HETATM   33  C24 UNL     1     -11.968  47.890 -26.669  1.00  0.00     0.176 C 
BRANCH  33  34
HETATM   34  O4  UNL     1     -12.505  48.857 -27.567  1.00  0.00    -0.400 OA
HETATM   35  H39 UNL     1     -12.361  49.730 -27.161  1.00  0.00     0.209 HD
ENDBRANCH  33  34
ENDBRANCH  18  33
BRANCH  17  36
HETATM   36  O3  UNL     1     -11.494  46.787 -29.365  1.00  0.00    -0.395 OA
HETATM   37  H33 UNL     1     -11.498  47.761 -29.352  1.00  0.00     0.210 HD
ENDBRANCH  17  36
TORSDOF 6
ENDMDL
MODEL 6
REMARK minimizedAffinity -7.71873093
REMARK CNNscore 0.376410127
REMARK CNNaffinity 6.54127836
REMARK  6 active torsions:
REMARK  status: ('A' for Active; 'I' for Inactive)
REMARK    1  A    between atoms: C2_2  and  C4_4 
REMARK    2  A    between atoms: C11_11  and  C12_12 
REMARK    3  A    between atoms: C12_12  and  O2_14 
REMARK    4  A    between atoms: C21_23  and  O3_24 
REMARK    5  A    between atoms: C22_25  and  C24_27 
REMARK    6  A    between atoms: C24_27  and  O4_28 
ROOT
HETATM    1  C4  UNL     1       4.846  56.172  -6.682  1.00  0.00     0.018 C 
HETATM    2  C5  UNL     1       6.396  56.301  -6.667  1.00  0.00     0.010 C 
HETATM    3  C6  UNL     1       6.924  55.447  -7.834  1.00  0.00     0.010 C 
HETATM    4  C7  UNL     1       5.790  54.454  -8.120  1.00  0.00    -0.039 C 
HETATM    5  C8  UNL     1       5.869  53.311  -7.074  1.00  0.00     0.015 C 
HETATM    6  C9  UNL     1       5.805  53.861  -9.532  1.00  0.00     0.011 C 
HETATM    7  C10 UNL     1       4.478  53.141  -9.865  1.00  0.00     0.022 C 
HETATM    8  C11 UNL     1       3.176  54.003  -9.625  1.00  0.00     0.057 C 
HETATM    9  C13 UNL     1       3.250  54.607  -8.167  1.00  0.00     0.011 C 
HETATM   10  C14 UNL     1       1.988  55.358  -7.743  1.00  0.00     0.007 C 
HETATM   11  C15 UNL     1       0.722  54.529  -7.940  1.00  0.00     0.006 C 
HETATM   12  C16 UNL     1       0.567  53.962  -9.370  1.00  0.00     0.003 C 
HETATM   13  C17 UNL     1      -0.874  53.294  -9.647  1.00  0.00    -0.035 C 
HETATM   14  C18 UNL     1      -1.390  52.565  -8.379  1.00  0.00     0.016 C 
HETATM   15  C19 UNL     1      -1.852  54.483  -9.928  1.00  0.00     0.012 C 
HETATM   16  C20 UNL     1      -3.208  54.084 -10.487  1.00  0.00     0.033 C 
HETATM   17  C21 UNL     1      -3.041  53.310 -11.787  1.00  0.00     0.128 C 
HETATM   18  C22 UNL     1      -2.231  52.004 -11.607  1.00  0.00     0.007 C 
HETATM   19  C23 UNL     1      -3.037  50.958 -10.781  1.00  0.00     0.020 C 
HETATM   20  C25 UNL     1      -0.834  52.311 -10.894  1.00  0.00     0.007 C 
HETATM   21  C26 UNL     1       0.255  52.806 -11.866  1.00  0.00     0.007 C 
HETATM   22  C27 UNL     1       1.665  52.676 -11.288  1.00  0.00     0.011 C 
HETATM   23  C28 UNL     1       1.828  53.125  -9.806  1.00  0.00    -0.022 C 
HETATM   24  C29 UNL     1       1.920  51.827  -8.950  1.00  0.00     0.017 C 
HETATM   25  C30 UNL     1       4.566  55.398  -7.990  1.00  0.00     0.007 C 
ENDROOT
BRANCH   8  26
HETATM   26  C12 UNL     1       3.241  55.121 -10.708  1.00  0.00     0.149 C 
HETATM   27  O1  UNL     1       4.218  55.427 -11.376  1.00  0.00    -0.649 OA
BRANCH  26  28
HETATM   28  O2  UNL     1       2.104  55.791 -10.930  1.00  0.00    -0.776 OA
HETATM   29  H18 UNL     1       2.339  56.426 -11.638  1.00  0.00     0.167 HD
ENDBRANCH  26  28
ENDBRANCH   8  26
BRANCH   1  30
HETATM   30  C2  UNL     1       4.202  57.533  -6.461  1.00  0.00    -0.089 C 
HETATM   31  C1  UNL     1       3.474  58.199  -7.374  1.00  0.00     0.014 C 
HETATM   32  C3  UNL     1       4.449  58.140  -5.105  1.00  0.00     0.043 C 
ENDBRANCH   1  30
BRANCH  18  33
HETATM   33  C24 UNL     1      -2.054  51.306 -12.993  1.00  0.00     0.176 C 
BRANCH  33  34
HETATM   34  O4  UNL     1      -3.240  50.646 -13.428  1.00  0.00    -0.400 OA
HETATM   35  H39 UNL     1      -3.086  50.367 -14.348  1.00  0.00     0.209 HD
ENDBRANCH  33  34
ENDBRANCH  18  33
BRANCH  17  36
HETATM   36  O3  UNL     1      -4.343  53.037 -12.307  1.00  0.00    -0.395 OA
HETATM   37  H33 UNL     1      -4.229  52.927 -13.268  1.00  0.00     0.210 HD
ENDBRANCH  17  36
TORSDOF 6
ENDMDL
MODEL 7
REMARK minimizedAffinity -6.74182796
REMARK CNNscore 0.372041702
REMARK CNNaffinity 6.35388947
REMARK  6 active torsions:
REMARK  status: ('A' for Active; 'I' for Inactive)
REMARK    1  A    between atoms: C2_2  and  C4_4 
REMARK    2  A    between atoms: C11_11  and  C12_12 
REMARK    3  A    between atoms: C12_12  and  O2_14 
REMARK    4  A    between atoms: C21_23  and  O3_24 
REMARK    5  A    between atoms: C22_25  and  C24_27 
REMARK    6  A    between atoms: C24_27  and  O4_28 
ROOT
HETATM    1  C4  UNL     1      -4.863  43.901 -17.743  1.00  0.00     0.018 C 
HETATM    2  C5  UNL     1      -5.714  43.467 -16.515  1.00  0.00     0.010 C 
HETATM    3  C6  UNL     1      -6.686  44.623 -16.218  1.00  0.00     0.010 C 
HETATM    4  C7  UNL     1      -6.030  45.846 -16.871  1.00  0.00    -0.039 C 
HETATM    5  C8  UNL     1      -4.917  46.365 -15.924  1.00  0.00     0.015 C 
HETATM    6  C9  UNL     1      -6.998  46.988 -17.200  1.00  0.00     0.011 C 
HETATM    7  C10 UNL     1      -6.354  48.033 -18.139  1.00  0.00     0.022 C 
HETATM    8  C11 UNL     1      -5.710  47.438 -19.454  1.00  0.00     0.057 C 
HETATM    9  C13 UNL     1      -4.757  46.249 -19.038  1.00  0.00     0.011 C 
HETATM   10  C14 UNL     1      -3.956  45.661 -20.200  1.00  0.00     0.007 C 
HETATM   11  C15 UNL     1      -3.205  46.730 -20.990  1.00  0.00     0.006 C 
HETATM   12  C16 UNL     1      -4.104  47.890 -21.475  1.00  0.00     0.003 C 
HETATM   13  C17 UNL     1      -3.368  48.888 -22.507  1.00  0.00    -0.035 C 
HETATM   14  C18 UNL     1      -1.876  49.067 -22.122  1.00  0.00     0.016 C 
HETATM   15  C19 UNL     1      -3.405  48.173 -23.897  1.00  0.00     0.012 C 
HETATM   16  C20 UNL     1      -3.016  49.044 -25.080  1.00  0.00     0.033 C 
HETATM   17  C21 UNL     1      -3.924  50.262 -25.167  1.00  0.00     0.128 C 
HETATM   18  C22 UNL     1      -3.845  51.159 -23.908  1.00  0.00     0.007 C 
HETATM   19  C23 UNL     1      -2.462  51.869 -23.815  1.00  0.00     0.020 C 
HETATM   20  C25 UNL     1      -4.109  50.291 -22.591  1.00  0.00     0.007 C 
HETATM   21  C26 UNL     1      -5.603  50.069 -22.291  1.00  0.00     0.007 C 
HETATM   22  C27 UNL     1      -5.858  49.641 -20.846  1.00  0.00     0.011 C 
HETATM   23  C28 UNL     1      -4.888  48.558 -20.285  1.00  0.00    -0.022 C 
HETATM   24  C29 UNL     1      -3.890  49.293 -19.342  1.00  0.00     0.017 C 
HETATM   25  C30 UNL     1      -5.539  45.213 -18.199  1.00  0.00     0.007 C 
ENDROOT
BRANCH   8  26
HETATM   26  C12 UNL     1      -6.923  46.929 -20.288  1.00  0.00     0.149 C 
HETATM   27  O1  UNL     1      -8.096  47.236 -20.125  1.00  0.00    -0.649 OA
BRANCH  26  28
HETATM   28  O2  UNL     1      -6.636  46.088 -21.289  1.00  0.00    -0.776 OA
HETATM   29  H18 UNL     1      -7.508  45.897 -21.693  1.00  0.00     0.167 HD
ENDBRANCH  26  28
ENDBRANCH   8  26
BRANCH   1  30
HETATM   30  C2  UNL     1      -4.726  42.745 -18.724  1.00  0.00    -0.089 C 
HETATM   31  C1  UNL     1      -5.700  42.304 -19.537  1.00  0.00     0.014 C 
HETATM   32  C3  UNL     1      -3.379  42.071 -18.725  1.00  0.00     0.043 C 
ENDBRANCH   1  30
BRANCH  18  33
HETATM   33  C24 UNL     1      -4.850  52.347 -24.051  1.00  0.00     0.176 C 
BRANCH  33  34
HETATM   34  O4  UNL     1      -6.062  52.126 -23.335  1.00  0.00    -0.400 OA
HETATM   35  H39 UNL     1      -6.561  52.962 -23.361  1.00  0.00     0.209 HD
ENDBRANCH  33  34
ENDBRANCH  18  33
BRANCH  17  36
HETATM   36  O3  UNL     1      -3.568  50.996 -26.340  1.00  0.00    -0.395 OA
HETATM   37  H33 UNL     1      -4.365  51.495 -26.595  1.00  0.00     0.210 HD
ENDBRANCH  17  36
TORSDOF 6
ENDMDL
MODEL 8
REMARK minimizedAffinity -6.84275961
REMARK CNNscore 0.349504352
REMARK CNNaffinity 5.85969877
REMARK  6 active torsions:
REMARK  status: ('A' for Active; 'I' for Inactive)
REMARK    1  A    between atoms: C2_2  and  C4_4 
REMARK    2  A    between atoms: C11_11  and  C12_12 
REMARK    3  A    between atoms: C12_12  and  O2_14 
REMARK    4  A    between atoms: C21_23  and  O3_24 
REMARK    5  A    between atoms: C22_25  and  C24_27 
REMARK    6  A    between atoms: C24_27  and  O4_28 
ROOT
HETATM    1  C4  UNL     1     -14.738  45.817 -25.893  1.00  0.00     0.018 C 
HETATM    2  C5  UNL     1     -15.833  44.798 -25.470  1.00  0.00     0.010 C 
HETATM    3  C6  UNL     1     -15.487  43.464 -26.154  1.00  0.00     0.010 C 
HETATM    4  C7  UNL     1     -14.591  43.865 -27.333  1.00  0.00    -0.039 C 
HETATM    5  C8  UNL     1     -15.499  44.371 -28.484  1.00  0.00     0.015 C 
HETATM    6  C9  UNL     1     -13.682  42.745 -27.850  1.00  0.00     0.011 C 
HETATM    7  C10 UNL     1     -12.586  43.288 -28.797  1.00  0.00     0.022 C 
HETATM    8  C11 UNL     1     -11.737  44.486 -28.212  1.00  0.00     0.057 C 
HETATM    9  C13 UNL     1     -12.740  45.579 -27.669  1.00  0.00     0.011 C 
HETATM   10  C14 UNL     1     -12.059  46.863 -27.194  1.00  0.00     0.007 C 
HETATM   11  C15 UNL     1     -11.113  47.443 -28.242  1.00  0.00     0.006 C 
HETATM   12  C16 UNL     1     -10.069  46.431 -28.765  1.00  0.00     0.003 C 
HETATM   13  C17 UNL     1      -8.926  47.100 -29.685  1.00  0.00    -0.035 C 
HETATM   14  C18 UNL     1      -9.522  48.238 -30.554  1.00  0.00     0.016 C 
HETATM   15  C19 UNL     1      -7.909  47.759 -28.695  1.00  0.00     0.012 C 
HETATM   16  C20 UNL     1      -6.601  48.212 -29.322  1.00  0.00     0.033 C 
HETATM   17  C21 UNL     1      -5.896  47.041 -29.992  1.00  0.00     0.128 C 
HETATM   18  C22 UNL     1      -6.737  46.405 -31.125  1.00  0.00     0.007 C 
HETATM   19  C23 UNL     1      -6.855  47.370 -32.341  1.00  0.00     0.020 C 
HETATM   20  C25 UNL     1      -8.192  46.017 -30.586  1.00  0.00     0.007 C 
HETATM   21  C26 UNL     1      -8.233  44.665 -29.849  1.00  0.00     0.007 C 
HETATM   22  C27 UNL     1      -9.650  44.101 -29.731  1.00  0.00     0.011 C 
HETATM   23  C28 UNL     1     -10.750  45.126 -29.324  1.00  0.00    -0.022 C 
HETATM   24  C29 UNL     1     -11.552  45.462 -30.616  1.00  0.00     0.017 C 
HETATM   25  C30 UNL     1     -13.712  44.944 -26.648  1.00  0.00     0.007 C 
ENDROOT
BRANCH   8  26
HETATM   26  C12 UNL     1     -10.907  43.850 -27.056  1.00  0.00     0.149 C 
HETATM   27  O1  UNL     1     -10.448  44.436 -26.086  1.00  0.00    -0.649 OA
BRANCH  26  28
HETATM   28  O2  UNL     1     -10.701  42.531 -27.139  1.00  0.00    -0.776 OA
HETATM   29  H18 UNL     1     -10.184  42.322 -26.333  1.00  0.00     0.167 HD
ENDBRANCH  26  28
ENDBRANCH   8  26
BRANCH   1  30
HETATM   30  C2  UNL     1     -14.288  46.637 -24.693  1.00  0.00    -0.089 C 
HETATM   31  C1  UNL     1     -13.044  46.642 -24.185  1.00  0.00     0.014 C 
HETATM   32  C3  UNL     1     -15.366  47.473 -24.054  1.00  0.00     0.043 C 
ENDBRANCH   1  30
BRANCH  18  33
HETATM   33  C24 UNL     1      -5.973  45.176 -31.714  1.00  0.00     0.176 C 
BRANCH  33  34
HETATM   34  O4  UNL     1      -6.450  44.805 -33.005  1.00  0.00    -0.400 OA
HETATM   35  H39 UNL     1      -5.833  44.135 -33.351  1.00  0.00     0.209 HD
ENDBRANCH  33  34
ENDBRANCH  18  33
BRANCH  17  36
HETATM   36  O3  UNL     1      -4.640  47.506 -30.487  1.00  0.00    -0.395 OA
HETATM   37  H33 UNL     1      -4.063  46.722 -30.531  1.00  0.00     0.210 HD
ENDBRANCH  17  36
TORSDOF 6
ENDMDL
MODEL 9
REMARK minimizedAffinity -6.0912962
REMARK CNNscore 0.319552451
REMARK CNNaffinity 6.15254545
REMARK  6 active torsions:
REMARK  status: ('A' for Active; 'I' for Inactive)
REMARK    1  A    between atoms: C2_2  and  C4_4 
REMARK    2  A    between atoms: C11_11  and  C12_12 
REMARK    3  A    between atoms: C12_12  and  O2_14 
REMARK    4  A    between atoms: C21_23  and  O3_24 
REMARK    5  A    between atoms: C22_25  and  C24_27 
REMARK    6  A    between atoms: C24_27  and  O4_28 
ROOT
HETATM    1  C4  UNL     1      -8.927  44.716 -20.704  1.00  0.00     0.018 C 
HETATM    2  C5  UNL     1     -10.121  44.292 -19.803  1.00  0.00     0.010 C 
HETATM    3  C6  UNL     1     -10.009  45.109 -18.503  1.00  0.00     0.010 C 
HETATM    4  C7  UNL     1      -8.535  45.532 -18.449  1.00  0.00    -0.039 C 
HETATM    5  C8  UNL     1      -7.704  44.333 -17.922  1.00  0.00     0.015 C 
HETATM    6  C9  UNL     1      -8.259  46.768 -17.585  1.00  0.00     0.011 C 
HETATM    7  C10 UNL     1      -6.842  47.334 -17.831  1.00  0.00     0.022 C 
HETATM    8  C11 UNL     1      -6.490  47.610 -19.347  1.00  0.00     0.057 C 
HETATM    9  C13 UNL     1      -6.833  46.309 -20.175  1.00  0.00     0.011 C 
HETATM   10  C14 UNL     1      -6.417  46.382 -21.644  1.00  0.00     0.007 C 
HETATM   11  C15 UNL     1      -4.955  46.785 -21.816  1.00  0.00     0.006 C 
HETATM   12  C16 UNL     1      -4.578  48.088 -21.074  1.00  0.00     0.003 C 
HETATM   13  C17 UNL     1      -3.110  48.641 -21.448  1.00  0.00    -0.035 C 
HETATM   14  C18 UNL     1      -2.122  47.465 -21.663  1.00  0.00     0.016 C 
HETATM   15  C19 UNL     1      -3.263  49.374 -22.822  1.00  0.00     0.012 C 
HETATM   16  C20 UNL     1      -2.068  50.215 -23.241  1.00  0.00     0.033 C 
HETATM   17  C21 UNL     1      -1.766  51.272 -22.188  1.00  0.00     0.128 C 
HETATM   18  C22 UNL     1      -1.420  50.662 -20.809  1.00  0.00     0.007 C 
HETATM   19  C23 UNL     1      -0.045  49.932 -20.851  1.00  0.00     0.020 C 
HETATM   20  C25 UNL     1      -2.567  49.649 -20.347  1.00  0.00     0.007 C 
HETATM   21  C26 UNL     1      -3.775  50.347 -19.691  1.00  0.00     0.007 C 
HETATM   22  C27 UNL     1      -4.639  49.387 -18.873  1.00  0.00     0.011 C 
HETATM   23  C28 UNL     1      -4.934  48.012 -19.543  1.00  0.00    -0.022 C 
HETATM   24  C29 UNL     1      -4.022  46.964 -18.840  1.00  0.00     0.017 C 
HETATM   25  C30 UNL     1      -8.306  45.905 -19.937  1.00  0.00     0.007 C 
ENDROOT
BRANCH   8  26
HETATM   26  C12 UNL     1      -7.410  48.801 -19.751  1.00  0.00     0.149 C 
HETATM   27  O1  UNL     1      -8.001  49.553 -18.989  1.00  0.00    -0.649 OA
BRANCH  26  28
HETATM   28  O2  UNL     1      -7.544  49.020 -21.065  1.00  0.00    -0.776 OA
HETATM   29  H18 UNL     1      -8.135  49.799 -21.115  1.00  0.00     0.167 HD
ENDBRANCH  26  28
ENDBRANCH   8  26
BRANCH   1  30
HETATM   30  C2  UNL     1      -9.393  44.910 -22.140  1.00  0.00    -0.089 C 
HETATM   31  C1  UNL     1     -10.202  45.896 -22.562  1.00  0.00     0.014 C 
HETATM   32  C3  UNL     1      -8.894  43.876 -23.114  1.00  0.00     0.043 C 
ENDBRANCH   1  30
BRANCH  18  33
HETATM   33  C24 UNL     1      -1.185  51.810 -19.776  1.00  0.00     0.176 C 
BRANCH  33  34
HETATM   34  O4  UNL     1       0.106  52.399 -19.899  1.00  0.00    -0.400 OA
HETATM   35  H39 UNL     1       0.113  53.186 -19.324  1.00  0.00     0.209 HD
ENDBRANCH  33  34
ENDBRANCH  18  33
BRANCH  17  36
HETATM   36  O3  UNL     1      -0.693  52.082 -22.673  1.00  0.00    -0.395 OA
HETATM   37  H33 UNL     1      -0.784  52.942 -22.224  1.00  0.00     0.210 HD
ENDBRANCH  17  36
TORSDOF 6
ENDMDL
