MODEL 1
REMARK minimizedAffinity -7.01885128
REMARK CNNscore 0.349122167
REMARK CNNaffinity 6.43111181
REMARK  13 active torsions:
REMARK  status: ('A' for Active; 'I' for Inactive)
REMARK    1  A    between atoms: C3_3  and  O1_4 
REMARK    2  A    between atoms: N1_14  and  O2_16 
REMARK    3  A    between atoms: O2_16  and  C13_17 
REMARK    4  A    between atoms: C13_17  and  C14_18 
REMARK       I    between atoms: C14_18  and  N2_20 
REMARK    5  A    between atoms: N2_20  and  C15_21 
REMARK    6  A    between atoms: C15_21  and  C16_22 
REMARK    7  A    between atoms: C15_21  and  C21_32 
REMARK       I    between atoms: C16_22  and  N3_24 
REMARK    8  A    between atoms: N3_24  and  C17_25 
REMARK    9  A    between atoms: C17_25  and  C18_26 
REMARK   10  A    between atoms: C17_25  and  C19_28 
REMARK   11  A    between atoms: C18_26  and  S1_27 
REMARK   12  A    between atoms: C19_28  and  C20_29 
REMARK   13  A    between atoms: C20_29  and  O6_31 
ROOT
HETATM    1  C1  UNL     1     -11.733  14.421  24.563  1.00  0.00     0.015 C 
HETATM    2  C2  UNL     1     -10.783  13.760  24.247  1.00  0.00    -0.078 C 
HETATM    3  C3  UNL     1      -9.603  12.942  23.875  1.00  0.00     0.128 C 
HETATM    4  C4  UNL     1     -10.031  11.827  22.909  1.00  0.00     0.052 C 
HETATM    5  C5  UNL     1      -9.682  12.325  21.502  1.00  0.00     0.010 C 
HETATM    6  C6  UNL     1      -9.123  13.760  21.658  1.00  0.00     0.002 C 
HETATM    7  C7  UNL     1      -8.184  14.276  20.528  1.00  0.00    -0.004 C 
HETATM    8  C8  UNL     1      -8.491  13.581  19.189  1.00  0.00     0.010 C 
HETATM    9  C9  UNL     1      -7.663  14.142  18.051  1.00  0.00     0.035 C 
HETATM   10  C10 UNL     1      -6.193  13.987  18.336  1.00  0.00    -0.069 C 
HETATM   11  C11 UNL     1      -5.387  13.439  17.408  1.00  0.00     0.030 C 
HETATM   12  C12 UNL     1      -3.907  13.438  17.556  1.00  0.00     0.032 C 
HETATM   13  N1  UNL     1      -3.202  12.890  16.608  1.00  0.00    -0.271 N 
ATOM     14  H1  UNL     1      -3.598  12.409  15.800  1.00  0.00     0.194 HD
HETATM   15  C24 UNL     1      -3.320  14.146  18.762  1.00  0.00     0.060 C 
HETATM   16  C25 UNL     1      -4.267  14.027  19.947  1.00  0.00     0.020 C 
HETATM   17  C26 UNL     1      -5.700  14.555  19.663  1.00  0.00    -0.016 C 
HETATM   18  C27 UNL     1      -5.627  16.099  19.495  1.00  0.00     0.020 C 
HETATM   19  C28 UNL     1      -6.668  14.250  20.888  1.00  0.00     0.002 C 
HETATM   20  C29 UNL     1      -6.374  12.998  21.730  1.00  0.00     0.007 C 
HETATM   21  C30 UNL     1      -7.156  12.961  23.058  1.00  0.00     0.014 C 
HETATM   22  C31 UNL     1      -8.512  13.731  23.075  1.00  0.00     0.003 C 
HETATM   23  C32 UNL     1      -8.294  15.142  23.668  1.00  0.00     0.020 C 
ENDROOT
BRANCH   3  24
HETATM   24  O1  UNL     1      -9.068  12.374  25.063  1.00  0.00    -0.377 OA
HETATM   25  H2  UNL     1      -8.918  13.108  25.683  1.00  0.00     0.211 HD
ENDBRANCH   3  24
BRANCH  13  26
HETATM   26  O2  UNL     1      -1.827  13.046  16.843  1.00  0.00    -0.271 OA
BRANCH  26  27
HETATM   27  C13 UNL     1      -1.180  11.804  16.607  1.00  0.00     0.303 C 
BRANCH  27  28
HETATM   28  C14 UNL     1      -1.585  11.236  15.251  1.00  0.00     0.244 C 
HETATM   29  O3  UNL     1      -1.678  11.900  14.220  1.00  0.00    -0.271 OA
HETATM   30  N2  UNL     1      -1.848   9.883  15.283  1.00  0.00    -0.346 N 
HETATM   31  H16 UNL     1      -1.646   9.337  16.119  1.00  0.00     0.163 HD
BRANCH  30  32
HETATM   32  C15 UNL     1      -2.270   9.122  14.111  1.00  0.00     0.180 C 
BRANCH  32  33
HETATM   33  C16 UNL     1      -1.095   8.175  13.773  1.00  0.00     0.241 C 
HETATM   34  O4  UNL     1      -1.254   6.955  13.666  1.00  0.00    -0.271 OA
HETATM   35  N3  UNL     1       0.126   8.791  13.596  1.00  0.00    -0.353 N 
HETATM   36  H18 UNL     1       0.184   9.798  13.680  1.00  0.00     0.163 HD
BRANCH  35  37
HETATM   37  C17 UNL     1       1.356   8.030  13.371  1.00  0.00     0.103 C 
BRANCH  37  38
HETATM   38  C18 UNL     1       1.906   8.265  11.950  1.00  0.00     0.096 C 
BRANCH  38  39
HETATM   39  S1  UNL     1       0.604   8.236  10.672  1.00  0.00    -0.180 SA
HETATM   40  H22 UNL     1       1.424   8.329   9.617  1.00  0.00     0.101 HD
ENDBRANCH  38  39
ENDBRANCH  37  38
BRANCH  37  41
HETATM   41  C19 UNL     1       2.424   8.431  14.393  1.00  0.00     0.136 C 
BRANCH  41  42
HETATM   42  C20 UNL     1       2.296   7.678  15.690  1.00  0.00     0.141 C 
HETATM   43  O5  UNL     1       1.644   8.007  16.665  1.00  0.00    -0.650 OA
BRANCH  42  44
HETATM   44  O6  UNL     1       3.069   6.571  15.725  1.00  0.00    -0.776 OA
HETATM   45  H25 UNL     1       2.924   6.206  16.626  1.00  0.00     0.167 HD
ENDBRANCH  42  44
ENDBRANCH  41  42
ENDBRANCH  37  41
ENDBRANCH  35  37
ENDBRANCH  32  33
BRANCH  32  46
HETATM   46  C21 UNL     1      -3.617   8.417  14.385  1.00  0.00     0.009 C 
HETATM   47  C22 UNL     1      -4.548   8.410  13.167  1.00  0.00     0.012 C 
HETATM   48  C23 UNL     1      -4.354   8.983  15.601  1.00  0.00     0.012 C 
ENDBRANCH  32  46
ENDBRANCH  30  32
ENDBRANCH  27  28
ENDBRANCH  26  27
ENDBRANCH  13  26
TORSDOF 13
ENDMDL
MODEL 2
REMARK minimizedAffinity -9.09743118
REMARK CNNscore 0.339940876
REMARK CNNaffinity 7.05856848
REMARK  13 active torsions:
REMARK  status: ('A' for Active; 'I' for Inactive)
REMARK    1  A    between atoms: C3_3  and  O1_4 
REMARK    2  A    between atoms: N1_14  and  O2_16 
REMARK    3  A    between atoms: O2_16  and  C13_17 
REMARK    4  A    between atoms: C13_17  and  C14_18 
REMARK       I    between atoms: C14_18  and  N2_20 
REMARK    5  A    between atoms: N2_20  and  C15_21 
REMARK    6  A    between atoms: C15_21  and  C16_22 
REMARK    7  A    between atoms: C15_21  and  C21_32 
REMARK       I    between atoms: C16_22  and  N3_24 
REMARK    8  A    between atoms: N3_24  and  C17_25 
REMARK    9  A    between atoms: C17_25  and  C18_26 
REMARK   10  A    between atoms: C17_25  and  C19_28 
REMARK   11  A    between atoms: C18_26  and  S1_27 
REMARK   12  A    between atoms: C19_28  and  C20_29 
REMARK   13  A    between atoms: C20_29  and  O6_31 
ROOT
HETATM    1  C1  UNL     1      -8.958   5.862  12.471  1.00  0.00     0.015 C 
HETATM    2  C2  UNL     1      -8.101   5.616  13.274  1.00  0.00    -0.078 C 
HETATM    3  C3  UNL     1      -7.053   5.316  14.281  1.00  0.00     0.128 C 
HETATM    4  C4  UNL     1      -6.393   3.969  13.954  1.00  0.00     0.052 C 
HETATM    5  C5  UNL     1      -5.088   4.301  13.221  1.00  0.00     0.010 C 
HETATM    6  C6  UNL     1      -5.042   5.840  13.060  1.00  0.00     0.002 C 
HETATM    7  C7  UNL     1      -3.636   6.487  12.888  1.00  0.00    -0.004 C 
HETATM    8  C8  UNL     1      -2.640   5.495  12.258  1.00  0.00     0.010 C 
HETATM    9  C9  UNL     1      -1.294   6.134  11.983  1.00  0.00     0.035 C 
HETATM   10  C10 UNL     1      -0.688   6.666  13.253  1.00  0.00    -0.069 C 
HETATM   11  C11 UNL     1       0.580   6.348  13.573  1.00  0.00     0.030 C 
HETATM   12  C12 UNL     1       1.290   6.997  14.708  1.00  0.00     0.032 C 
HETATM   13  N1  UNL     1       2.517   6.632  14.945  1.00  0.00    -0.271 N 
ATOM     14  H1  UNL     1       3.005   5.891  14.442  1.00  0.00     0.194 HD
HETATM   15  C24 UNL     1       0.560   8.093  15.460  1.00  0.00     0.060 C 
HETATM   16  C25 UNL     1      -0.934   7.806  15.478  1.00  0.00     0.020 C 
HETATM   17  C26 UNL     1      -1.557   7.621  14.066  1.00  0.00    -0.016 C 
HETATM   18  C27 UNL     1      -1.527   8.993  13.336  1.00  0.00     0.020 C 
HETATM   19  C28 UNL     1      -3.077   7.167  14.174  1.00  0.00     0.002 C 
HETATM   20  C29 UNL     1      -3.484   6.332  15.399  1.00  0.00     0.007 C 
HETATM   21  C30 UNL     1      -5.011   6.213  15.575  1.00  0.00     0.014 C 
HETATM   22  C31 UNL     1      -5.860   6.330  14.272  1.00  0.00     0.003 C 
HETATM   23  C32 UNL     1      -6.361   7.784  14.116  1.00  0.00     0.020 C 
ENDROOT
BRANCH   3  24
HETATM   24  O1  UNL     1      -7.675   5.254  15.557  1.00  0.00    -0.377 OA
HETATM   25  H2  UNL     1      -8.171   6.083  15.669  1.00  0.00     0.211 HD
ENDBRANCH   3  24
BRANCH  13  26
HETATM   26  O2  UNL     1       3.082   7.392  15.982  1.00  0.00    -0.271 OA
BRANCH  26  27
HETATM   27  C13 UNL     1       3.399   8.682  15.482  1.00  0.00     0.303 C 
BRANCH  27  28
HETATM   28  C14 UNL     1       4.828   8.715  14.948  1.00  0.00     0.244 C 
HETATM   29  O3  UNL     1       5.418   9.739  14.609  1.00  0.00    -0.271 OA
HETATM   30  N2  UNL     1       5.411   7.468  14.873  1.00  0.00    -0.346 N 
HETATM   31  H16 UNL     1       4.946   6.655  15.273  1.00  0.00     0.163 HD
BRANCH  30  32
HETATM   32  C15 UNL     1       6.766   7.247  14.377  1.00  0.00     0.180 C 
BRANCH  32  33
HETATM   33  C16 UNL     1       6.643   7.125  12.841  1.00  0.00     0.241 C 
HETATM   34  O4  UNL     1       7.612   6.832  12.133  1.00  0.00    -0.271 OA
HETATM   35  N3  UNL     1       5.383   7.358  12.330  1.00  0.00    -0.353 N 
HETATM   36  H18 UNL     1       4.628   7.575  12.968  1.00  0.00     0.163 HD
BRANCH  35  37
HETATM   37  C17 UNL     1       5.119   7.381  10.891  1.00  0.00     0.103 C 
BRANCH  37  38
HETATM   38  C18 UNL     1       3.925   6.476  10.527  1.00  0.00     0.096 C 
BRANCH  38  39
HETATM   39  S1  UNL     1       3.023   7.053   9.049  1.00  0.00    -0.180 SA
HETATM   40  H22 UNL     1       2.031   6.157   9.116  1.00  0.00     0.101 HD
ENDBRANCH  38  39
ENDBRANCH  37  38
BRANCH  37  41
HETATM   41  C19 UNL     1       4.824   8.810  10.427  1.00  0.00     0.136 C 
BRANCH  41  42
HETATM   42  C20 UNL     1       5.977   9.747  10.666  1.00  0.00     0.141 C 
HETATM   43  O5  UNL     1       5.911  10.911  11.019  1.00  0.00    -0.650 OA
BRANCH  42  44
HETATM   44  O6  UNL     1       7.169   9.188  10.370  1.00  0.00    -0.776 OA
HETATM   45  H25 UNL     1       7.818   9.910  10.528  1.00  0.00     0.167 HD
ENDBRANCH  42  44
ENDBRANCH  41  42
ENDBRANCH  37  41
ENDBRANCH  35  37
ENDBRANCH  32  33
BRANCH  32  46
HETATM   46  C21 UNL     1       7.707   8.370  14.869  1.00  0.00     0.009 C 
HETATM   47  C22 UNL     1       8.376   9.137  13.722  1.00  0.00     0.012 C 
HETATM   48  C23 UNL     1       8.769   7.875  15.853  1.00  0.00     0.012 C 
ENDBRANCH  32  46
ENDBRANCH  30  32
ENDBRANCH  27  28
ENDBRANCH  26  27
ENDBRANCH  13  26
TORSDOF 13
ENDMDL
MODEL 3
REMARK minimizedAffinity -7.95631027
REMARK CNNscore 0.296794653
REMARK CNNaffinity 7.3070426
REMARK  13 active torsions:
REMARK  status: ('A' for Active; 'I' for Inactive)
REMARK    1  A    between atoms: C3_3  and  O1_4 
REMARK    2  A    between atoms: N1_14  and  O2_16 
REMARK    3  A    between atoms: O2_16  and  C13_17 
REMARK    4  A    between atoms: C13_17  and  C14_18 
REMARK       I    between atoms: C14_18  and  N2_20 
REMARK    5  A    between atoms: N2_20  and  C15_21 
REMARK    6  A    between atoms: C15_21  and  C16_22 
REMARK    7  A    between atoms: C15_21  and  C21_32 
REMARK       I    between atoms: C16_22  and  N3_24 
REMARK    8  A    between atoms: N3_24  and  C17_25 
REMARK    9  A    between atoms: C17_25  and  C18_26 
REMARK   10  A    between atoms: C17_25  and  C19_28 
REMARK   11  A    between atoms: C18_26  and  S1_27 
REMARK   12  A    between atoms: C19_28  and  C20_29 
REMARK   13  A    between atoms: C20_29  and  O6_31 
ROOT
HETATM    1  C1  UNL     1       1.171   7.460  14.874  1.00  0.00     0.015 C 
HETATM    2  C2  UNL     1       0.184   8.012  14.471  1.00  0.00    -0.078 C 
HETATM    3  C3  UNL     1      -1.029   8.711  13.982  1.00  0.00     0.128 C 
HETATM    4  C4  UNL     1      -1.278   8.346  12.511  1.00  0.00     0.052 C 
HETATM    5  C5  UNL     1      -2.348   7.249  12.519  1.00  0.00     0.010 C 
HETATM    6  C6  UNL     1      -2.656   6.932  14.003  1.00  0.00     0.002 C 
HETATM    7  C7  UNL     1      -4.050   6.313  14.315  1.00  0.00    -0.004 C 
HETATM    8  C8  UNL     1      -4.595   5.530  13.106  1.00  0.00     0.010 C 
HETATM    9  C9  UNL     1      -5.901   4.829  13.419  1.00  0.00     0.035 C 
HETATM   10  C10 UNL     1      -6.948   5.822  13.847  1.00  0.00    -0.069 C 
HETATM   11  C11 UNL     1      -8.162   5.805  13.267  1.00  0.00     0.030 C 
HETATM   12  C12 UNL     1      -9.289   6.627  13.781  1.00  0.00     0.032 C 
HETATM   13  N1  UNL     1     -10.432   6.546  13.161  1.00  0.00    -0.271 N 
ATOM     14  H1  UNL     1     -10.590   6.002  12.313  1.00  0.00     0.194 HD
HETATM   15  C24 UNL     1      -9.051   7.442  15.037  1.00  0.00     0.060 C 
HETATM   16  C25 UNL     1      -7.602   7.904  15.090  1.00  0.00     0.020 C 
HETATM   17  C26 UNL     1      -6.568   6.748  14.999  1.00  0.00    -0.016 C 
HETATM   18  C27 UNL     1      -6.660   5.908  16.305  1.00  0.00     0.020 C 
HETATM   19  C28 UNL     1      -5.087   7.319  14.898  1.00  0.00     0.002 C 
HETATM   20  C29 UNL     1      -4.898   8.684  14.217  1.00  0.00     0.007 C 
HETATM   21  C30 UNL     1      -3.499   9.290  14.447  1.00  0.00     0.014 C 
HETATM   22  C31 UNL     1      -2.347   8.271  14.704  1.00  0.00     0.003 C 
HETATM   23  C32 UNL     1      -2.128   8.120  16.227  1.00  0.00     0.020 C 
ENDROOT
BRANCH   3  24
HETATM   24  O1  UNL     1      -0.811  10.110  14.103  1.00  0.00    -0.377 OA
HETATM   25  H2  UNL     1      -0.548  10.275  15.025  1.00  0.00     0.211 HD
ENDBRANCH   3  24
BRANCH  13  26
HETATM   26  O2  UNL     1     -11.418   7.305  13.812  1.00  0.00    -0.271 OA
BRANCH  26  27
HETATM   27  C13 UNL     1     -12.376   7.727  12.854  1.00  0.00     0.303 C 
BRANCH  27  28
HETATM   28  C14 UNL     1     -13.735   7.946  13.513  1.00  0.00     0.244 C 
HETATM   29  O3  UNL     1     -14.122   9.023  13.961  1.00  0.00    -0.271 OA
HETATM   30  N2  UNL     1     -14.505   6.804  13.566  1.00  0.00    -0.346 N 
HETATM   31  H16 UNL     1     -14.212   5.959  13.079  1.00  0.00     0.163 HD
BRANCH  30  32
HETATM   32  C15 UNL     1     -15.836   6.765  14.165  1.00  0.00     0.180 C 
BRANCH  32  33
HETATM   33  C16 UNL     1     -16.832   6.681  12.986  1.00  0.00     0.241 C 
HETATM   34  O4  UNL     1     -16.821   5.735  12.192  1.00  0.00    -0.271 OA
HETATM   35  N3  UNL     1     -17.727   7.726  12.895  1.00  0.00    -0.353 N 
HETATM   36  H18 UNL     1     -17.695   8.461  13.590  1.00  0.00     0.163 HD
BRANCH  35  37
HETATM   37  C17 UNL     1     -18.668   7.850  11.781  1.00  0.00     0.103 C 
BRANCH  37  38
HETATM   38  C18 UNL     1     -20.127   7.724  12.265  1.00  0.00     0.096 C 
BRANCH  38  39
HETATM   39  S1  UNL     1     -20.685   5.991  12.387  1.00  0.00    -0.180 SA
HETATM   40  H22 UNL     1     -21.963   6.263  12.684  1.00  0.00     0.101 HD
ENDBRANCH  38  39
ENDBRANCH  37  38
BRANCH  37  41
HETATM   41  C19 UNL     1     -18.489   9.200  11.081  1.00  0.00     0.136 C 
BRANCH  41  42
HETATM   42  C20 UNL     1     -17.043   9.591  10.938  1.00  0.00     0.141 C 
HETATM   43  O5  UNL     1     -16.121   8.871  10.599  1.00  0.00    -0.650 OA
BRANCH  42  44
HETATM   44  O6  UNL     1     -16.812  10.869  11.308  1.00  0.00    -0.776 OA
HETATM   45  H25 UNL     1     -15.840  10.976  11.207  1.00  0.00     0.167 HD
ENDBRANCH  42  44
ENDBRANCH  41  42
ENDBRANCH  37  41
ENDBRANCH  35  37
ENDBRANCH  32  33
BRANCH  32  46
HETATM   46  C21 UNL     1     -15.931   5.606  15.183  1.00  0.00     0.009 C 
HETATM   47  C22 UNL     1     -15.109   4.379  14.773  1.00  0.00     0.012 C 
HETATM   48  C23 UNL     1     -17.372   5.191  15.487  1.00  0.00     0.012 C 
ENDBRANCH  32  46
ENDBRANCH  30  32
ENDBRANCH  27  28
ENDBRANCH  26  27
ENDBRANCH  13  26
TORSDOF 13
ENDMDL
MODEL 4
REMARK minimizedAffinity -8.54240894
REMARK CNNscore 0.278280437
REMARK CNNaffinity 6.50978851
REMARK  13 active torsions:
REMARK  status: ('A' for Active; 'I' for Inactive)
REMARK    1  A    between atoms: C3_3  and  O1_4 
REMARK    2  A    between atoms: N1_14  and  O2_16 
REMARK    3  A    between atoms: O2_16  and  C13_17 
REMARK    4  A    between atoms: C13_17  and  C14_18 
REMARK       I    between atoms: C14_18  and  N2_20 
REMARK    5  A    between atoms: N2_20  and  C15_21 
REMARK    6  A    between atoms: C15_21  and  C16_22 
REMARK    7  A    between atoms: C15_21  and  C21_32 
REMARK       I    between atoms: C16_22  and  N3_24 
REMARK    8  A    between atoms: N3_24  and  C17_25 
REMARK    9  A    between atoms: C17_25  and  C18_26 
REMARK   10  A    between atoms: C17_25  and  C19_28 
REMARK   11  A    between atoms: C18_26  and  S1_27 
REMARK   12  A    between atoms: C19_28  and  C20_29 
REMARK   13  A    between atoms: C20_29  and  O6_31 
ROOT
HETATM    1  C1  UNL     1      -4.429   3.579   9.604  1.00  0.00     0.015 C 
HETATM    2  C2  UNL     1      -3.823   3.640  10.638  1.00  0.00    -0.078 C 
HETATM    3  C3  UNL     1      -3.083   3.700  11.923  1.00  0.00     0.128 C 
HETATM    4  C4  UNL     1      -1.581   3.862  11.648  1.00  0.00     0.052 C 
HETATM    5  C5  UNL     1      -1.277   5.355  11.814  1.00  0.00     0.010 C 
HETATM    6  C6  UNL     1      -2.623   6.059  12.109  1.00  0.00     0.002 C 
HETATM    7  C7  UNL     1      -2.555   7.418  12.867  1.00  0.00    -0.004 C 
HETATM    8  C8  UNL     1      -1.215   8.131  12.612  1.00  0.00     0.010 C 
HETATM    9  C9  UNL     1      -1.166   9.503  13.252  1.00  0.00     0.035 C 
HETATM   10  C10 UNL     1      -1.370   9.403  14.740  1.00  0.00    -0.069 C 
HETATM   11  C11 UNL     1      -0.510  10.015  15.575  1.00  0.00     0.030 C 
HETATM   12  C12 UNL     1      -0.769  10.112  17.036  1.00  0.00     0.032 C 
HETATM   13  N1  UNL     1       0.115  10.725  17.770  1.00  0.00    -0.271 N 
ATOM     14  H1  UNL     1       1.000  11.092  17.420  1.00  0.00     0.194 HD
HETATM   15  C24 UNL     1      -2.081   9.559  17.556  1.00  0.00     0.060 C 
HETATM   16  C25 UNL     1      -2.509   8.361  16.721  1.00  0.00     0.020 C 
HETATM   17  C26 UNL     1      -2.620   8.661  15.201  1.00  0.00    -0.016 C 
HETATM   18  C27 UNL     1      -3.824   9.621  14.980  1.00  0.00     0.020 C 
HETATM   19  C28 UNL     1      -2.912   7.329  14.382  1.00  0.00     0.002 C 
HETATM   20  C29 UNL     1      -2.362   6.011  14.950  1.00  0.00     0.007 C 
HETATM   21  C30 UNL     1      -2.955   4.761  14.270  1.00  0.00     0.014 C 
HETATM   22  C31 UNL     1      -3.440   4.947  12.800  1.00  0.00     0.003 C 
HETATM   23  C32 UNL     1      -4.961   5.221  12.793  1.00  0.00     0.020 C 
ENDROOT
BRANCH   3  24
HETATM   24  O1  UNL     1      -3.318   2.486  12.624  1.00  0.00    -0.377 OA
HETATM   25  H2  UNL     1      -4.283   2.373  12.674  1.00  0.00     0.211 HD
ENDBRANCH   3  24
BRANCH  13  26
HETATM   26  O2  UNL     1      -0.309  10.816  19.106  1.00  0.00    -0.271 OA
BRANCH  26  27
HETATM   27  C13 UNL     1       0.576  11.676  19.808  1.00  0.00     0.303 C 
BRANCH  27  28
HETATM   28  C14 UNL     1       1.929  11.001  20.016  1.00  0.00     0.244 C 
HETATM   29  O3  UNL     1       2.628  10.556  19.108  1.00  0.00    -0.271 OA
HETATM   30  N2  UNL     1       2.304  10.930  21.340  1.00  0.00    -0.346 N 
HETATM   31  H16 UNL     1       1.766  11.413  22.057  1.00  0.00     0.163 HD
BRANCH  30  32
HETATM   32  C15 UNL     1       3.549  10.313  21.786  1.00  0.00     0.180 C 
BRANCH  32  33
HETATM   33  C16 UNL     1       4.529  11.478  22.057  1.00  0.00     0.241 C 
HETATM   34  O4  UNL     1       4.235  12.411  22.811  1.00  0.00    -0.271 OA
HETATM   35  N3  UNL     1       5.741  11.393  21.405  1.00  0.00    -0.353 N 
HETATM   36  H18 UNL     1       5.925  10.591  20.816  1.00  0.00     0.163 HD
BRANCH  35  37
HETATM   37  C17 UNL     1       6.739  12.462  21.474  1.00  0.00     0.103 C 
BRANCH  37  38
HETATM   38  C18 UNL     1       6.235  13.742  20.777  1.00  0.00     0.096 C 
BRANCH  38  39
HETATM   39  S1  UNL     1       7.358  15.162  21.006  1.00  0.00    -0.180 SA
HETATM   40  H22 UNL     1       6.572  16.074  20.417  1.00  0.00     0.101 HD
ENDBRANCH  38  39
ENDBRANCH  37  38
BRANCH  37  41
HETATM   41  C19 UNL     1       7.072  12.785  22.933  1.00  0.00     0.136 C 
BRANCH  41  42
HETATM   42  C20 UNL     1       8.483  12.416  23.301  1.00  0.00     0.141 C 
HETATM   43  O5  UNL     1       9.354  13.167  23.702  1.00  0.00    -0.650 OA
BRANCH  42  44
HETATM   44  O6  UNL     1       8.756  11.114  23.068  1.00  0.00    -0.776 OA
HETATM   45  H25 UNL     1       9.705  11.022  23.309  1.00  0.00     0.167 HD
ENDBRANCH  42  44
ENDBRANCH  41  42
ENDBRANCH  37  41
ENDBRANCH  35  37
ENDBRANCH  32  33
BRANCH  32  46
HETATM   46  C21 UNL     1       3.287   9.387  22.995  1.00  0.00     0.009 C 
HETATM   47  C22 UNL     1       2.347   8.222  22.665  1.00  0.00     0.012 C 
HETATM   48  C23 UNL     1       2.775  10.138  24.226  1.00  0.00     0.012 C 
ENDBRANCH  32  46
ENDBRANCH  30  32
ENDBRANCH  27  28
ENDBRANCH  26  27
ENDBRANCH  13  26
TORSDOF 13
ENDMDL
MODEL 5
REMARK minimizedAffinity -8.83636189
REMARK CNNscore 0.255429566
REMARK CNNaffinity 6.69889402
REMARK  13 active torsions:
REMARK  status: ('A' for Active; 'I' for Inactive)
REMARK    1  A    between atoms: C3_3  and  O1_4 
REMARK    2  A    between atoms: N1_14  and  O2_16 
REMARK    3  A    between atoms: O2_16  and  C13_17 
REMARK    4  A    between atoms: C13_17  and  C14_18 
REMARK       I    between atoms: C14_18  and  N2_20 
REMARK    5  A    between atoms: N2_20  and  C15_21 
REMARK    6  A    between atoms: C15_21  and  C16_22 
REMARK    7  A    between atoms: C15_21  and  C21_32 
REMARK       I    between atoms: C16_22  and  N3_24 
REMARK    8  A    between atoms: N3_24  and  C17_25 
REMARK    9  A    between atoms: C17_25  and  C18_26 
REMARK   10  A    between atoms: C17_25  and  C19_28 
REMARK   11  A    between atoms: C18_26  and  S1_27 
REMARK   12  A    between atoms: C19_28  and  C20_29 
REMARK   13  A    between atoms: C20_29  and  O6_31 
ROOT
HETATM    1  C1  UNL     1      -8.897   5.743  11.849  1.00  0.00     0.015 C 
HETATM    2  C2  UNL     1      -8.077   5.536  12.700  1.00  0.00    -0.078 C 
HETATM    3  C3  UNL     1      -7.076   5.273  13.764  1.00  0.00     0.128 C 
HETATM    4  C4  UNL     1      -5.884   4.506  13.174  1.00  0.00     0.052 C 
HETATM    5  C5  UNL     1      -4.796   5.551  12.905  1.00  0.00     0.010 C 
HETATM    6  C6  UNL     1      -5.396   6.930  13.270  1.00  0.00     0.002 C 
HETATM    7  C7  UNL     1      -4.390   8.059  13.642  1.00  0.00    -0.004 C 
HETATM    8  C8  UNL     1      -3.025   7.833  12.966  1.00  0.00     0.010 C 
HETATM    9  C9  UNL     1      -2.062   8.973  13.227  1.00  0.00     0.035 C 
HETATM   10  C10 UNL     1      -1.833   9.148  14.704  1.00  0.00    -0.069 C 
HETATM   11  C11 UNL     1      -0.576   9.219  15.181  1.00  0.00     0.030 C 
HETATM   12  C12 UNL     1      -0.293   9.584  16.595  1.00  0.00     0.032 C 
HETATM   13  N1  UNL     1       0.953   9.633  16.971  1.00  0.00    -0.271 N 
ATOM     14  H1  UNL     1       1.745   9.383  16.378  1.00  0.00     0.194 HD
HETATM   15  C24 UNL     1      -1.471   9.948  17.477  1.00  0.00     0.060 C 
HETATM   16  C25 UNL     1      -2.698   9.151  17.062  1.00  0.00     0.020 C 
HETATM   17  C26 UNL     1      -3.080   9.317  15.565  1.00  0.00    -0.016 C 
HETATM   18  C27 UNL     1      -3.585  10.773  15.350  1.00  0.00     0.020 C 
HETATM   19  C28 UNL     1      -4.268   8.335  15.171  1.00  0.00     0.002 C 
HETATM   20  C29 UNL     1      -4.367   7.002  15.930  1.00  0.00     0.007 C 
HETATM   21  C30 UNL     1      -5.707   6.273  15.707  1.00  0.00     0.014 C 
HETATM   22  C31 UNL     1      -6.430   6.570  14.358  1.00  0.00     0.003 C 
HETATM   23  C32 UNL     1      -7.488   7.675  14.576  1.00  0.00     0.020 C 
ENDROOT
BRANCH   3  24
HETATM   24  O1  UNL     1      -7.702   4.493  14.774  1.00  0.00    -0.377 OA
HETATM   25  H2  UNL     1      -8.510   4.967  15.035  1.00  0.00     0.211 HD
ENDBRANCH   3  24
BRANCH  13  26
HETATM   26  O2  UNL     1       1.065  10.076  18.299  1.00  0.00    -0.271 OA
BRANCH  26  27
HETATM   27  C13 UNL     1       2.119  11.024  18.376  1.00  0.00     0.303 C 
BRANCH  27  28
HETATM   28  C14 UNL     1       3.052  10.697  19.538  1.00  0.00     0.244 C 
HETATM   29  O3  UNL     1       2.963   9.689  20.236  1.00  0.00    -0.271 OA
HETATM   30  N2  UNL     1       4.022  11.655  19.744  1.00  0.00    -0.346 N 
HETATM   31  H16 UNL     1       4.148  12.415  19.078  1.00  0.00     0.163 HD
BRANCH  30  32
HETATM   32  C15 UNL     1       5.018  11.569  20.807  1.00  0.00     0.180 C 
BRANCH  32  33
HETATM   33  C16 UNL     1       6.376  11.901  20.147  1.00  0.00     0.241 C 
HETATM   34  O4  UNL     1       6.621  11.595  18.976  1.00  0.00    -0.271 OA
HETATM   35  N3  UNL     1       7.278  12.561  20.955  1.00  0.00    -0.353 N 
HETATM   36  H18 UNL     1       7.007  12.799  21.900  1.00  0.00     0.163 HD
BRANCH  35  37
HETATM   37  C17 UNL     1       8.643  12.858  20.516  1.00  0.00     0.103 C 
BRANCH  37  38
HETATM   38  C18 UNL     1       8.829  14.365  20.250  1.00  0.00     0.096 C 
BRANCH  38  39
HETATM   39  S1  UNL     1       7.491  15.381  20.963  1.00  0.00    -0.180 SA
HETATM   40  H22 UNL     1       7.892  16.548  20.442  1.00  0.00     0.101 HD
ENDBRANCH  38  39
ENDBRANCH  37  38
BRANCH  37  41
HETATM   41  C19 UNL     1       9.652  12.410  21.578  1.00  0.00     0.136 C 
BRANCH  41  42
HETATM   42  C20 UNL     1       9.067  12.398  22.964  1.00  0.00     0.141 C 
HETATM   43  O5  UNL     1       8.890  13.359  23.691  1.00  0.00    -0.650 OA
BRANCH  42  44
HETATM   44  O6  UNL     1       8.803  11.149  23.404  1.00  0.00    -0.776 OA
HETATM   45  H25 UNL     1       8.472  11.284  24.321  1.00  0.00     0.167 HD
ENDBRANCH  42  44
ENDBRANCH  41  42
ENDBRANCH  37  41
ENDBRANCH  35  37
ENDBRANCH  32  33
BRANCH  32  46
HETATM   46  C21 UNL     1       4.624  12.486  21.987  1.00  0.00     0.009 C 
HETATM   47  C22 UNL     1       3.778  11.771  23.046  1.00  0.00     0.012 C 
HETATM   48  C23 UNL     1       3.923  13.771  21.540  1.00  0.00     0.012 C 
ENDBRANCH  32  46
ENDBRANCH  30  32
ENDBRANCH  27  28
ENDBRANCH  26  27
ENDBRANCH  13  26
TORSDOF 13
ENDMDL
MODEL 6
REMARK minimizedAffinity -8.57688522
REMARK CNNscore 0.19523865
REMARK CNNaffinity 6.54193926
REMARK  13 active torsions:
REMARK  status: ('A' for Active; 'I' for Inactive)
REMARK    1  A    between atoms: C3_3  and  O1_4 
REMARK    2  A    between atoms: N1_14  and  O2_16 
REMARK    3  A    between atoms: O2_16  and  C13_17 
REMARK    4  A    between atoms: C13_17  and  C14_18 
REMARK       I    between atoms: C14_18  and  N2_20 
REMARK    5  A    between atoms: N2_20  and  C15_21 
REMARK    6  A    between atoms: C15_21  and  C16_22 
REMARK    7  A    between atoms: C15_21  and  C21_32 
REMARK       I    between atoms: C16_22  and  N3_24 
REMARK    8  A    between atoms: N3_24  and  C17_25 
REMARK    9  A    between atoms: C17_25  and  C18_26 
REMARK   10  A    between atoms: C17_25  and  C19_28 
REMARK   11  A    between atoms: C18_26  and  S1_27 
REMARK   12  A    between atoms: C19_28  and  C20_29 
REMARK   13  A    between atoms: C20_29  and  O6_31 
ROOT
HETATM    1  C1  UNL     1      -8.792   5.501  11.801  1.00  0.00     0.015 C 
HETATM    2  C2  UNL     1      -7.973   5.322  12.660  1.00  0.00    -0.078 C 
HETATM    3  C3  UNL     1      -6.974   5.094  13.733  1.00  0.00     0.128 C 
HETATM    4  C4  UNL     1      -5.753   4.365  13.156  1.00  0.00     0.052 C 
HETATM    5  C5  UNL     1      -4.696   5.444  12.894  1.00  0.00     0.010 C 
HETATM    6  C6  UNL     1      -5.344   6.804  13.251  1.00  0.00     0.002 C 
HETATM    7  C7  UNL     1      -4.379   7.965  13.630  1.00  0.00    -0.004 C 
HETATM    8  C8  UNL     1      -3.001   7.782  12.967  1.00  0.00     0.010 C 
HETATM    9  C9  UNL     1      -2.077   8.954  13.233  1.00  0.00     0.035 C 
HETATM   10  C10 UNL     1      -1.868   9.138  14.712  1.00  0.00    -0.069 C 
HETATM   11  C11 UNL     1      -0.618   9.252  15.200  1.00  0.00     0.030 C 
HETATM   12  C12 UNL     1      -0.360   9.628  16.615  1.00  0.00     0.032 C 
HETATM   13  N1  UNL     1       0.880   9.719  17.003  1.00  0.00    -0.271 N 
ATOM     14  H1  UNL     1       1.685   9.493  16.418  1.00  0.00     0.194 HD
HETATM   15  C24 UNL     1      -1.557   9.955  17.486  1.00  0.00     0.060 C 
HETATM   16  C25 UNL     1      -2.754   9.118  17.062  1.00  0.00     0.020 C 
HETATM   17  C26 UNL     1      -3.128   9.269  15.561  1.00  0.00    -0.016 C 
HETATM   18  C27 UNL     1      -3.677  10.707  15.338  1.00  0.00     0.020 C 
HETATM   19  C28 UNL     1      -4.279   8.248  15.159  1.00  0.00     0.002 C 
HETATM   20  C29 UNL     1      -4.342   6.914  15.920  1.00  0.00     0.007 C 
HETATM   21  C30 UNL     1      -5.656   6.142  15.687  1.00  0.00     0.014 C 
HETATM   22  C31 UNL     1      -6.376   6.413  14.330  1.00  0.00     0.003 C 
HETATM   23  C32 UNL     1      -7.471   7.483  14.536  1.00  0.00     0.020 C 
ENDROOT
BRANCH   3  24
HETATM   24  O1  UNL     1      -7.583   4.296  14.739  1.00  0.00    -0.377 OA
HETATM   25  H2  UNL     1      -8.409   4.745  14.992  1.00  0.00     0.211 HD
ENDBRANCH   3  24
BRANCH  13  26
HETATM   26  O2  UNL     1       0.966  10.168  18.331  1.00  0.00    -0.271 OA
BRANCH  26  27
HETATM   27  C13 UNL     1       1.971  11.167  18.410  1.00  0.00     0.303 C 
BRANCH  27  28
HETATM   28  C14 UNL     1       3.003  10.808  19.476  1.00  0.00     0.244 C 
HETATM   29  O3  UNL     1       3.086   9.707  20.016  1.00  0.00    -0.271 OA
HETATM   30  N2  UNL     1       3.848  11.851  19.788  1.00  0.00    -0.346 N 
HETATM   31  H16 UNL     1       3.836  12.709  19.241  1.00  0.00     0.163 HD
BRANCH  30  32
HETATM   32  C15 UNL     1       4.905  11.750  20.791  1.00  0.00     0.180 C 
BRANCH  32  33
HETATM   33  C16 UNL     1       6.123  12.498  20.202  1.00  0.00     0.241 C 
HETATM   34  O4  UNL     1       6.031  13.652  19.771  1.00  0.00    -0.271 OA
HETATM   35  N3  UNL     1       7.306  11.788  20.201  1.00  0.00    -0.353 N 
HETATM   36  H18 UNL     1       7.317  10.853  20.586  1.00  0.00     0.163 HD
BRANCH  35  37
HETATM   37  C17 UNL     1       8.527  12.313  19.588  1.00  0.00     0.103 C 
BRANCH  37  38
HETATM   38  C18 UNL     1       9.780  11.867  20.368  1.00  0.00     0.096 C 
BRANCH  38  39
HETATM   39  S1  UNL     1      11.335  12.267  19.501  1.00  0.00    -0.180 SA
HETATM   40  H22 UNL     1      12.153  11.643  20.359  1.00  0.00     0.101 HD
ENDBRANCH  38  39
ENDBRANCH  37  38
BRANCH  37  41
HETATM   41  C19 UNL     1       8.643  11.833  18.139  1.00  0.00     0.136 C 
BRANCH  41  42
HETATM   42  C20 UNL     1       8.489  10.342  18.008  1.00  0.00     0.141 C 
HETATM   43  O5  UNL     1       9.381   9.523  17.875  1.00  0.00    -0.650 OA
BRANCH  42  44
HETATM   44  O6  UNL     1       7.195   9.956  17.972  1.00  0.00    -0.776 OA
HETATM   45  H25 UNL     1       7.240   8.982  17.844  1.00  0.00     0.167 HD
ENDBRANCH  42  44
ENDBRANCH  41  42
ENDBRANCH  37  41
ENDBRANCH  35  37
ENDBRANCH  32  33
BRANCH  32  46
HETATM   46  C21 UNL     1       4.406  12.286  22.152  1.00  0.00     0.009 C 
HETATM   47  C22 UNL     1       5.507  12.980  22.962  1.00  0.00     0.012 C 
HETATM   48  C23 UNL     1       3.726  11.214  23.006  1.00  0.00     0.012 C 
ENDBRANCH  32  46
ENDBRANCH  30  32
ENDBRANCH  27  28
ENDBRANCH  26  27
ENDBRANCH  13  26
TORSDOF 13
ENDMDL
MODEL 7
REMARK minimizedAffinity -7.44403172
REMARK CNNscore 0.195226535
REMARK CNNaffinity 5.55937147
REMARK  13 active torsions:
REMARK  status: ('A' for Active; 'I' for Inactive)
REMARK    1  A    between atoms: C3_3  and  O1_4 
REMARK    2  A    between atoms: N1_14  and  O2_16 
REMARK    3  A    between atoms: O2_16  and  C13_17 
REMARK    4  A    between atoms: C13_17  and  C14_18 
REMARK       I    between atoms: C14_18  and  N2_20 
REMARK    5  A    between atoms: N2_20  and  C15_21 
REMARK    6  A    between atoms: C15_21  and  C16_22 
REMARK    7  A    between atoms: C15_21  and  C21_32 
REMARK       I    between atoms: C16_22  and  N3_24 
REMARK    8  A    between atoms: N3_24  and  C17_25 
REMARK    9  A    between atoms: C17_25  and  C18_26 
REMARK   10  A    between atoms: C17_25  and  C19_28 
REMARK   11  A    between atoms: C18_26  and  S1_27 
REMARK   12  A    between atoms: C19_28  and  C20_29 
REMARK   13  A    between atoms: C20_29  and  O6_31 
ROOT
HETATM    1  C1  UNL     1      -3.839 -13.181   4.859  1.00  0.00     0.015 C 
HETATM    2  C2  UNL     1      -4.159 -12.085   4.491  1.00  0.00    -0.078 C 
HETATM    3  C3  UNL     1      -4.563 -10.726   4.052  1.00  0.00     0.128 C 
HETATM    4  C4  UNL     1      -3.391 -10.047   3.329  1.00  0.00     0.052 C 
HETATM    5  C5  UNL     1      -3.657 -10.221   1.830  1.00  0.00     0.010 C 
HETATM    6  C6  UNL     1      -4.945 -11.069   1.697  1.00  0.00     0.002 C 
HETATM    7  C7  UNL     1      -5.750 -10.922   0.372  1.00  0.00    -0.004 C 
HETATM    8  C8  UNL     1      -4.834 -10.506  -0.793  1.00  0.00     0.010 C 
HETATM    9  C9  UNL     1      -5.574 -10.459  -2.115  1.00  0.00     0.035 C 
HETATM   10  C10 UNL     1      -6.720  -9.487  -2.047  1.00  0.00    -0.069 C 
HETATM   11  C11 UNL     1      -6.862  -8.553  -3.007  1.00  0.00     0.030 C 
HETATM   12  C12 UNL     1      -8.075  -7.698  -3.097  1.00  0.00     0.032 C 
HETATM   13  N1  UNL     1      -8.131  -6.823  -4.060  1.00  0.00    -0.271 N 
ATOM     14  H1  UNL     1      -7.374  -6.644  -4.721  1.00  0.00     0.194 HD
HETATM   15  C24 UNL     1      -9.195  -7.958  -2.109  1.00  0.00     0.060 C 
HETATM   16  C25 UNL     1      -8.619  -8.435  -0.783  1.00  0.00     0.020 C 
HETATM   17  C26 UNL     1      -7.711  -9.690  -0.906  1.00  0.00    -0.016 C 
HETATM   18  C27 UNL     1      -8.606 -10.902  -1.294  1.00  0.00     0.020 C 
HETATM   19  C28 UNL     1      -7.022 -10.029   0.487  1.00  0.00     0.002 C 
HETATM   20  C29 UNL     1      -6.727  -8.856   1.436  1.00  0.00     0.007 C 
HETATM   21  C30 UNL     1      -6.359  -9.307   2.863  1.00  0.00     0.014 C 
HETATM   22  C31 UNL     1      -5.713 -10.720   2.989  1.00  0.00     0.003 C 
HETATM   23  C32 UNL     1      -6.806 -11.754   3.340  1.00  0.00     0.020 C 
ENDROOT
BRANCH   3  24
HETATM   24  O1  UNL     1      -4.918  -9.978   5.207  1.00  0.00    -0.377 OA
HETATM   25  H2  UNL     1      -5.581 -10.502   5.689  1.00  0.00     0.211 HD
ENDBRANCH   3  24
BRANCH  13  26
HETATM   26  O2  UNL     1      -9.367  -6.157  -4.070  1.00  0.00    -0.271 OA
BRANCH  26  27
HETATM   27  C13 UNL     1      -9.674  -5.785  -5.405  1.00  0.00     0.303 C 
BRANCH  27  28
HETATM   28  C14 UNL     1     -10.094  -4.319  -5.472  1.00  0.00     0.244 C 
HETATM   29  O3  UNL     1     -10.839  -3.774  -4.660  1.00  0.00    -0.271 OA
HETATM   30  N2  UNL     1      -9.556  -3.647  -6.548  1.00  0.00    -0.346 N 
HETATM   31  H16 UNL     1      -8.848  -4.088  -7.133  1.00  0.00     0.163 HD
BRANCH  30  32
HETATM   32  C15 UNL     1      -9.828  -2.241  -6.830  1.00  0.00     0.180 C 
BRANCH  32  33
HETATM   33  C16 UNL     1     -11.278  -1.985  -6.359  1.00  0.00     0.241 C 
HETATM   34  O4  UNL     1     -11.524  -1.353  -5.326  1.00  0.00    -0.271 OA
HETATM   35  N3  UNL     1     -12.263  -2.504  -7.173  1.00  0.00    -0.353 N 
HETATM   36  H18 UNL     1     -11.993  -2.995  -8.016  1.00  0.00     0.163 HD
BRANCH  35  37
HETATM   37  C17 UNL     1     -13.681  -2.437  -6.818  1.00  0.00     0.103 C 
BRANCH  37  38
HETATM   38  C18 UNL     1     -14.490  -1.674  -7.887  1.00  0.00     0.096 C 
BRANCH  38  39
HETATM   39  S1  UNL     1     -16.049  -2.512  -8.328  1.00  0.00    -0.180 SA
HETATM   40  H22 UNL     1     -16.392  -1.683  -9.323  1.00  0.00     0.101 HD
ENDBRANCH  38  39
ENDBRANCH  37  38
BRANCH  37  41
HETATM   41  C19 UNL     1     -14.258  -3.848  -6.667  1.00  0.00     0.136 C 
BRANCH  41  42
HETATM   42  C20 UNL     1     -14.452  -4.244  -5.229  1.00  0.00     0.141 C 
HETATM   43  O5  UNL     1     -15.384  -3.938  -4.506  1.00  0.00    -0.650 OA
BRANCH  42  44
HETATM   44  O6  UNL     1     -13.411  -4.951  -4.741  1.00  0.00    -0.776 OA
HETATM   45  H25 UNL     1     -13.646  -5.104  -3.798  1.00  0.00     0.167 HD
ENDBRANCH  42  44
ENDBRANCH  41  42
ENDBRANCH  37  41
ENDBRANCH  35  37
ENDBRANCH  32  33
BRANCH  32  46
HETATM   46  C21 UNL     1      -8.759  -1.344  -6.167  1.00  0.00     0.009 C 
HETATM   47  C22 UNL     1      -8.181  -1.950  -4.882  1.00  0.00     0.012 C 
HETATM   48  C23 UNL     1      -9.253   0.078  -5.896  1.00  0.00     0.012 C 
ENDBRANCH  32  46
ENDBRANCH  30  32
ENDBRANCH  27  28
ENDBRANCH  26  27
ENDBRANCH  13  26
TORSDOF 13
ENDMDL
MODEL 8
REMARK minimizedAffinity -8.73109818
REMARK CNNscore 0.180095375
REMARK CNNaffinity 6.60562706
REMARK  13 active torsions:
REMARK  status: ('A' for Active; 'I' for Inactive)
REMARK    1  A    between atoms: C3_3  and  O1_4 
REMARK    2  A    between atoms: N1_14  and  O2_16 
REMARK    3  A    between atoms: O2_16  and  C13_17 
REMARK    4  A    between atoms: C13_17  and  C14_18 
REMARK       I    between atoms: C14_18  and  N2_20 
REMARK    5  A    between atoms: N2_20  and  C15_21 
REMARK    6  A    between atoms: C15_21  and  C16_22 
REMARK    7  A    between atoms: C15_21  and  C21_32 
REMARK       I    between atoms: C16_22  and  N3_24 
REMARK    8  A    between atoms: N3_24  and  C17_25 
REMARK    9  A    between atoms: C17_25  and  C18_26 
REMARK   10  A    between atoms: C17_25  and  C19_28 
REMARK   11  A    between atoms: C18_26  and  S1_27 
REMARK   12  A    between atoms: C19_28  and  C20_29 
REMARK   13  A    between atoms: C20_29  and  O6_31 
ROOT
HETATM    1  C1  UNL     1      -9.299   5.726  12.248  1.00  0.00     0.015 C 
HETATM    2  C2  UNL     1      -8.490   5.491  13.103  1.00  0.00    -0.078 C 
HETATM    3  C3  UNL     1      -7.504   5.203  14.172  1.00  0.00     0.128 C 
HETATM    4  C4  UNL     1      -6.719   3.931  13.823  1.00  0.00     0.052 C 
HETATM    5  C5  UNL     1      -5.391   4.401  13.219  1.00  0.00     0.010 C 
HETATM    6  C6  UNL     1      -5.450   5.946  13.152  1.00  0.00     0.002 C 
HETATM    7  C7  UNL     1      -4.088   6.702  13.133  1.00  0.00    -0.004 C 
HETATM    8  C8  UNL     1      -2.974   5.826  12.530  1.00  0.00     0.010 C 
HETATM    9  C9  UNL     1      -1.663   6.575  12.403  1.00  0.00     0.035 C 
HETATM   10  C10 UNL     1      -1.200   7.067  13.747  1.00  0.00    -0.069 C 
HETATM   11  C11 UNL     1       0.061   6.821  14.150  1.00  0.00     0.030 C 
HETATM   12  C12 UNL     1       0.629   7.444  15.375  1.00  0.00     0.032 C 
HETATM   13  N1  UNL     1       1.859   7.154  15.689  1.00  0.00    -0.271 N 
ATOM     14  H1  UNL     1       2.440   6.483  15.185  1.00  0.00     0.194 HD
HETATM   15  C24 UNL     1      -0.237   8.435  16.127  1.00  0.00     0.060 C 
HETATM   16  C25 UNL     1      -1.702   8.042  16.007  1.00  0.00     0.020 C 
HETATM   17  C26 UNL     1      -2.198   7.903  14.541  1.00  0.00    -0.016 C 
HETATM   18  C27 UNL     1      -2.218   9.318  13.897  1.00  0.00     0.020 C 
HETATM   19  C28 UNL     1      -3.684   7.336  14.498  1.00  0.00     0.002 C 
HETATM   20  C29 UNL     1      -4.119   6.397  15.635  1.00  0.00     0.007 C 
HETATM   21  C30 UNL     1      -5.641   6.159  15.679  1.00  0.00     0.014 C 
HETATM   22  C31 UNL     1      -6.394   6.298  14.320  1.00  0.00     0.003 C 
HETATM   23  C32 UNL     1      -6.991   7.720  14.209  1.00  0.00     0.020 C 
ENDROOT
BRANCH   3  24
HETATM   24  O1  UNL     1      -8.215   5.015  15.388  1.00  0.00    -0.377 OA
HETATM   25  H2  UNL     1      -8.780   5.797  15.508  1.00  0.00     0.211 HD
ENDBRANCH   3  24
BRANCH  13  26
HETATM   26  O2  UNL     1       2.283   7.884  16.811  1.00  0.00    -0.271 OA
BRANCH  26  27
HETATM   27  C13 UNL     1       2.649   9.190  16.394  1.00  0.00     0.303 C 
BRANCH  27  28
HETATM   28  C14 UNL     1       2.553  10.173  17.557  1.00  0.00     0.244 C 
HETATM   29  O3  UNL     1       1.638  10.187  18.379  1.00  0.00    -0.271 OA
HETATM   30  N2  UNL     1       3.602  11.066  17.605  1.00  0.00    -0.346 N 
HETATM   31  H16 UNL     1       4.405  10.954  16.988  1.00  0.00     0.163 HD
BRANCH  30  32
HETATM   32  C15 UNL     1       3.718  12.110  18.618  1.00  0.00     0.180 C 
BRANCH  32  33
HETATM   33  C16 UNL     1       4.542  11.494  19.772  1.00  0.00     0.241 C 
HETATM   34  O4  UNL     1       5.619  10.925  19.569  1.00  0.00    -0.271 OA
HETATM   35  N3  UNL     1       3.992  11.634  21.029  1.00  0.00    -0.353 N 
HETATM   36  H18 UNL     1       3.115  12.129  21.127  1.00  0.00     0.163 HD
BRANCH  35  37
HETATM   37  C17 UNL     1       4.593  11.021  22.214  1.00  0.00     0.103 C 
BRANCH  37  38
HETATM   38  C18 UNL     1       5.472  12.030  22.980  1.00  0.00     0.096 C 
BRANCH  38  39
HETATM   39  S1  UNL     1       4.940  13.759  22.740  1.00  0.00    -0.180 SA
HETATM   40  H22 UNL     1       5.958  14.325  23.400  1.00  0.00     0.101 HD
ENDBRANCH  38  39
ENDBRANCH  37  38
BRANCH  37  41
HETATM   41  C19 UNL     1       3.503  10.495  23.152  1.00  0.00     0.136 C 
BRANCH  41  42
HETATM   42  C20 UNL     1       2.782   9.300  22.589  1.00  0.00     0.141 C 
HETATM   43  O5  UNL     1       2.213   9.229  21.514  1.00  0.00    -0.650 OA
BRANCH  42  44
HETATM   44  O6  UNL     1       2.746   8.262  23.452  1.00  0.00    -0.776 OA
HETATM   45  H25 UNL     1       2.219   7.578  22.982  1.00  0.00     0.167 HD
ENDBRANCH  42  44
ENDBRANCH  41  42
ENDBRANCH  37  41
ENDBRANCH  35  37
ENDBRANCH  32  33
BRANCH  32  46
HETATM   46  C21 UNL     1       4.319  13.393  18.000  1.00  0.00     0.009 C 
HETATM   47  C22 UNL     1       4.858  13.179  16.580  1.00  0.00     0.012 C 
HETATM   48  C23 UNL     1       5.398  14.033  18.876  1.00  0.00     0.012 C 
ENDBRANCH  32  46
ENDBRANCH  30  32
ENDBRANCH  27  28
ENDBRANCH  26  27
ENDBRANCH  13  26
TORSDOF 13
ENDMDL
MODEL 9
REMARK minimizedAffinity -7.79239511
REMARK CNNscore 0.17988269
REMARK CNNaffinity 7.17098427
REMARK  13 active torsions:
REMARK  status: ('A' for Active; 'I' for Inactive)
REMARK    1  A    between atoms: C3_3  and  O1_4 
REMARK    2  A    between atoms: N1_14  and  O2_16 
REMARK    3  A    between atoms: O2_16  and  C13_17 
REMARK    4  A    between atoms: C13_17  and  C14_18 
REMARK       I    between atoms: C14_18  and  N2_20 
REMARK    5  A    between atoms: N2_20  and  C15_21 
REMARK    6  A    between atoms: C15_21  and  C16_22 
REMARK    7  A    between atoms: C15_21  and  C21_32 
REMARK       I    between atoms: C16_22  and  N3_24 
REMARK    8  A    between atoms: N3_24  and  C17_25 
REMARK    9  A    between atoms: C17_25  and  C18_26 
REMARK   10  A    between atoms: C17_25  and  C19_28 
REMARK   11  A    between atoms: C18_26  and  S1_27 
REMARK   12  A    between atoms: C19_28  and  C20_29 
REMARK   13  A    between atoms: C20_29  and  O6_31 
ROOT
HETATM    1  C1  UNL     1       1.070   7.563  15.437  1.00  0.00     0.015 C 
HETATM    2  C2  UNL     1       0.104   8.136  15.014  1.00  0.00    -0.078 C 
HETATM    3  C3  UNL     1      -1.086   8.860  14.502  1.00  0.00     0.128 C 
HETATM    4  C4  UNL     1      -1.234   8.607  12.995  1.00  0.00     0.052 C 
HETATM    5  C5  UNL     1      -2.288   7.503  12.850  1.00  0.00     0.010 C 
HETATM    6  C6  UNL     1      -2.686   7.070  14.281  1.00  0.00     0.002 C 
HETATM    7  C7  UNL     1      -4.088   6.416  14.454  1.00  0.00    -0.004 C 
HETATM    8  C8  UNL     1      -4.544   5.724  13.156  1.00  0.00     0.010 C 
HETATM    9  C9  UNL     1      -5.857   4.989  13.329  1.00  0.00     0.035 C 
HETATM   10  C10 UNL     1      -6.942   5.937  13.763  1.00  0.00    -0.069 C 
HETATM   11  C11 UNL     1      -8.117   5.954  13.106  1.00  0.00     0.030 C 
HETATM   12  C12 UNL     1      -9.286   6.724  13.607  1.00  0.00     0.032 C 
HETATM   13  N1  UNL     1     -10.385   6.681  12.910  1.00  0.00    -0.271 N 
ATOM     14  H1  UNL     1     -10.481   6.202  12.014  1.00  0.00     0.194 HD
HETATM   15  C24 UNL     1      -9.140   7.442  14.934  1.00  0.00     0.060 C 
HETATM   16  C25 UNL     1      -7.704   7.911  15.116  1.00  0.00     0.020 C 
HETATM   17  C26 UNL     1      -6.651   6.775  15.004  1.00  0.00    -0.016 C 
HETATM   18  C27 UNL     1      -6.814   5.836  16.233  1.00  0.00     0.020 C 
HETATM   19  C28 UNL     1      -5.174   7.365  15.044  1.00  0.00     0.002 C 
HETATM   20  C29 UNL     1      -4.961   8.781  14.483  1.00  0.00     0.007 C 
HETATM   21  C30 UNL     1      -3.588   9.379  14.848  1.00  0.00     0.014 C 
HETATM   22  C31 UNL     1      -2.441   8.354  15.102  1.00  0.00     0.003 C 
HETATM   23  C32 UNL     1      -2.317   8.087  16.619  1.00  0.00     0.020 C 
ENDROOT
BRANCH   3  24
HETATM   24  O1  UNL     1      -0.894  10.247  14.743  1.00  0.00    -0.377 OA
HETATM   25  H2  UNL     1      -0.694  10.343  15.690  1.00  0.00     0.211 HD
ENDBRANCH   3  24
BRANCH  13  26
HETATM   26  O2  UNL     1     -11.421   7.379  13.551  1.00  0.00    -0.271 OA
BRANCH  26  27
HETATM   27  C13 UNL     1     -11.236   8.770  13.337  1.00  0.00     0.303 C 
BRANCH  27  28
HETATM   28  C14 UNL     1     -12.554   9.520  13.504  1.00  0.00     0.244 C 
HETATM   29  O3  UNL     1     -13.350   9.328  14.421  1.00  0.00    -0.271 OA
HETATM   30  N2  UNL     1     -12.781  10.449  12.512  1.00  0.00    -0.346 N 
HETATM   31  H16 UNL     1     -12.053  10.673  11.836  1.00  0.00     0.163 HD
BRANCH  30  32
HETATM   32  C15 UNL     1     -13.983  11.276  12.451  1.00  0.00     0.180 C 
BRANCH  32  33
HETATM   33  C16 UNL     1     -15.167  10.329  12.752  1.00  0.00     0.241 C 
HETATM   34  O4  UNL     1     -15.815  10.412  13.800  1.00  0.00    -0.271 OA
HETATM   35  N3  UNL     1     -15.445   9.401  11.770  1.00  0.00    -0.353 N 
HETATM   36  H18 UNL     1     -14.887   9.399  10.926  1.00  0.00     0.163 HD
BRANCH  35  37
HETATM   37  C17 UNL     1     -16.467   8.368  11.943  1.00  0.00     0.103 C 
BRANCH  37  38
HETATM   38  C18 UNL     1     -16.378   7.720  13.339  1.00  0.00     0.096 C 
BRANCH  38  39
HETATM   39  S1  UNL     1     -14.939   6.612  13.516  1.00  0.00    -0.180 SA
HETATM   40  H22 UNL     1     -15.250   6.152  14.735  1.00  0.00     0.101 HD
ENDBRANCH  38  39
ENDBRANCH  37  38
BRANCH  37  41
HETATM   41  C19 UNL     1     -17.864   8.966  11.757  1.00  0.00     0.136 C 
BRANCH  41  42
HETATM   42  C20 UNL     1     -17.869  10.151  10.830  1.00  0.00     0.141 C 
HETATM   43  O5  UNL     1     -18.005  11.322  11.141  1.00  0.00    -0.650 OA
BRANCH  42  44
HETATM   44  O6  UNL     1     -17.778   9.794   9.532  1.00  0.00    -0.776 OA
HETATM   45  H25 UNL     1     -17.834  10.647   9.044  1.00  0.00     0.167 HD
ENDBRANCH  42  44
ENDBRANCH  41  42
ENDBRANCH  37  41
ENDBRANCH  35  37
ENDBRANCH  32  33
BRANCH  32  46
HETATM   46  C21 UNL     1     -13.853  12.483  13.407  1.00  0.00     0.009 C 
HETATM   47  C22 UNL     1     -13.961  13.832  12.686  1.00  0.00     0.012 C 
HETATM   48  C23 UNL     1     -12.580  12.444  14.253  1.00  0.00     0.012 C 
ENDBRANCH  32  46
ENDBRANCH  30  32
ENDBRANCH  27  28
ENDBRANCH  26  27
ENDBRANCH  13  26
TORSDOF 13
ENDMDL
