MODEL 1
REMARK minimizedAffinity -9.42758274
REMARK  8 active torsions:
REMARK  status: ('A' for Active; 'I' for Inactive)
REMARK    1  A    between atoms: C2_2  and  C3_3 
REMARK    2  A    between atoms: C2_2  and  C9_12 
REMARK    3  A    between atoms: C3_3  and  C4_4 
REMARK    4  A    between atoms: C4_4  and  C5_5 
REMARK    5  A    between atoms: C6_6  and  C7_7 
REMARK    6  A    between atoms: C6_6  and  C8_9 
REMARK    7  A    between atoms: C7_7  and  O1_8 
REMARK    8  A    between atoms: C8_9  and  O3_11 
ROOT
HETATM    1  C9  UNL     1      -1.299  50.518 -25.491  1.00  0.00    -0.002 C 
HETATM    2  C10 UNL     1      -0.141  51.507 -25.226  1.00  0.00     0.006 C 
HETATM    3  C11 UNL     1      -0.291  51.953 -23.760  1.00  0.00     0.006 C 
HETATM    4  C12 UNL     1      -1.442  51.108 -23.210  1.00  0.00    -0.001 C 
HETATM    5  C13 UNL     1      -2.156  51.605 -21.944  1.00  0.00    -0.000 C 
HETATM    6  C14 UNL     1      -1.114  51.685 -20.809  1.00  0.00     0.006 C 
HETATM    7  C15 UNL     1      -1.644  51.564 -19.389  1.00  0.00     0.007 C 
HETATM    8  C16 UNL     1      -2.530  50.331 -19.141  1.00  0.00     0.010 C 
HETATM    9  C17 UNL     1      -1.771  48.973 -18.914  1.00  0.00     0.018 C 
HETATM   10  C18 UNL     1      -0.913  49.051 -17.632  1.00  0.00     0.023 C 
HETATM   11  C19 UNL     1      -0.863  48.522 -20.067  1.00  0.00     0.023 C 
HETATM   12  C20 UNL     1      -2.819  47.857 -18.728  1.00  0.00     0.135 C 
HETATM   13  O4  UNL     1      -2.779  47.048 -17.799  1.00  0.00    -0.297 OA
HETATM   14  C21 UNL     1      -3.887  47.745 -19.789  1.00  0.00     0.080 C 
HETATM   15  C22 UNL     1      -4.611  49.070 -19.866  1.00  0.00     0.018 C 
HETATM   16  C23 UNL     1      -3.647  50.206 -20.186  1.00  0.00    -0.026 A 
HETATM   17  C24 UNL     1      -4.351  51.453 -20.648  1.00  0.00     0.021 A 
HETATM   18  C25 UNL     1      -3.410  50.749 -21.619  1.00  0.00    -0.028 A 
HETATM   19  C26 UNL     1      -4.158  50.127 -22.815  1.00  0.00     0.011 C 
HETATM   20  C27 UNL     1      -3.313  49.772 -24.040  1.00  0.00     0.011 C 
HETATM   21  C28 UNL     1      -2.365  50.911 -24.425  1.00  0.00    -0.036 C 
HETATM   22  C29 UNL     1      -3.160  52.173 -24.809  1.00  0.00     0.016 C 
ENDROOT
BRANCH   1  23
HETATM   23  C2  UNL     1      -1.751  50.354 -26.969  1.00  0.00    -0.014 C 
HETATM   24  C1  UNL     1      -1.426  51.651 -27.734  1.00  0.00     0.010 C 
BRANCH  23  25
HETATM   25  C3  UNL     1      -3.240  49.998 -27.174  1.00  0.00     0.008 C 
BRANCH  25  26
HETATM   26  C4  UNL     1      -3.475  48.504 -27.435  1.00  0.00     0.028 C 
BRANCH  26  27
HETATM   27  C5  UNL     1      -4.945  48.207 -27.594  1.00  0.00    -0.011 C 
HETATM   28  C6  UNL     1      -5.632  48.042 -28.744  1.00  0.00     0.035 C 
BRANCH  28  29
HETATM   29  C7  UNL     1      -7.094  47.716 -28.775  1.00  0.00     0.209 C 
BRANCH  29  30
HETATM   30  O1  UNL     1      -7.853  48.910 -28.935  1.00  0.00    -0.396 OA
HETATM   31  H12 UNL     1      -7.520  49.555 -28.289  1.00  0.00     0.209 HD
ENDBRANCH  29  30
ENDBRANCH  28  29
BRANCH  28  32
HETATM   32  C8  UNL     1      -4.961  48.192 -30.052  1.00  0.00     0.173 C 
HETATM   33  O2  UNL     1      -4.621  47.294 -30.801  1.00  0.00    -0.646 OA
BRANCH  32  34
HETATM   34  O3  UNL     1      -4.770  49.483 -30.368  1.00  0.00    -0.773 OA
HETATM   35  H13 UNL     1      -4.316  49.443 -31.236  1.00  0.00     0.167 HD
ENDBRANCH  32  34
ENDBRANCH  28  32
ENDBRANCH  26  27
ENDBRANCH  25  26
ENDBRANCH  23  25
ENDBRANCH   1  23
TORSDOF 8
ENDMDL
MODEL 2
REMARK minimizedAffinity -8.95578003
REMARK  8 active torsions:
REMARK  status: ('A' for Active; 'I' for Inactive)
REMARK    1  A    between atoms: C2_2  and  C3_3 
REMARK    2  A    between atoms: C2_2  and  C9_12 
REMARK    3  A    between atoms: C3_3  and  C4_4 
REMARK    4  A    between atoms: C4_4  and  C5_5 
REMARK    5  A    between atoms: C6_6  and  C7_7 
REMARK    6  A    between atoms: C6_6  and  C8_9 
REMARK    7  A    between atoms: C7_7  and  O1_8 
REMARK    8  A    between atoms: C8_9  and  O3_11 
ROOT
HETATM    1  C9  UNL     1      -2.937  50.879 -22.735  1.00  0.00    -0.002 C 
HETATM    2  C10 UNL     1      -3.881  51.689 -23.652  1.00  0.00     0.006 C 
HETATM    3  C11 UNL     1      -5.221  50.929 -23.659  1.00  0.00     0.006 C 
HETATM    4  C12 UNL     1      -5.031  49.795 -22.650  1.00  0.00    -0.001 C 
HETATM    5  C13 UNL     1      -5.977  48.588 -22.742  1.00  0.00    -0.000 C 
HETATM    6  C14 UNL     1      -7.420  49.097 -22.537  1.00  0.00     0.006 C 
HETATM    7  C15 UNL     1      -8.425  48.091 -21.999  1.00  0.00     0.007 C 
HETATM    8  C16 UNL     1      -7.984  47.371 -20.713  1.00  0.00     0.010 C 
HETATM    9  C17 UNL     1      -8.161  48.179 -19.376  1.00  0.00     0.018 C 
HETATM   10  C18 UNL     1      -9.657  48.463 -19.121  1.00  0.00     0.023 C 
HETATM   11  C19 UNL     1      -7.404  49.513 -19.305  1.00  0.00     0.023 C 
HETATM   12  C20 UNL     1      -7.627  47.317 -18.214  1.00  0.00     0.135 C 
HETATM   13  O4  UNL     1      -8.264  47.120 -17.178  1.00  0.00    -0.297 OA
HETATM   14  C21 UNL     1      -6.231  46.762 -18.367  1.00  0.00     0.080 C 
HETATM   15  C22 UNL     1      -6.193  45.933 -19.631  1.00  0.00     0.018 C 
HETATM   16  C23 UNL     1      -6.579  46.767 -20.846  1.00  0.00    -0.026 A 
HETATM   17  C24 UNL     1      -6.190  46.114 -22.145  1.00  0.00     0.021 A 
HETATM   18  C25 UNL     1      -5.546  47.447 -21.781  1.00  0.00    -0.028 A 
HETATM   19  C26 UNL     1      -4.037  47.311 -21.496  1.00  0.00     0.011 C 
HETATM   20  C27 UNL     1      -3.215  48.600 -21.534  1.00  0.00     0.011 C 
HETATM   21  C28 UNL     1      -3.538  49.443 -22.769  1.00  0.00    -0.036 C 
HETATM   22  C29 UNL     1      -3.186  48.676 -24.058  1.00  0.00     0.016 C 
ENDROOT
BRANCH   1  23
HETATM   23  C2  UNL     1      -1.412  51.053 -22.979  1.00  0.00    -0.014 C 
HETATM   24  C1  UNL     1      -0.897  52.210 -22.101  1.00  0.00     0.010 C 
BRANCH  23  25
HETATM   25  C3  UNL     1      -0.997  51.301 -24.446  1.00  0.00     0.008 C 
BRANCH  25  26
HETATM   26  C4  UNL     1       0.195  52.257 -24.585  1.00  0.00     0.028 C 
BRANCH  26  27
HETATM   27  C5  UNL     1       1.096  51.838 -25.718  1.00  0.00    -0.011 C 
HETATM   28  C6  UNL     1       1.114  52.321 -26.979  1.00  0.00     0.035 C 
BRANCH  28  29
HETATM   29  C7  UNL     1       2.085  51.844 -28.015  1.00  0.00     0.209 C 
BRANCH  29  30
HETATM   30  O1  UNL     1       3.310  51.469 -27.395  1.00  0.00    -0.396 OA
HETATM   31  H12 UNL     1       3.566  52.192 -26.797  1.00  0.00     0.209 HD
ENDBRANCH  29  30
ENDBRANCH  28  29
BRANCH  28  32
HETATM   32  C8  UNL     1       0.147  53.353 -27.405  1.00  0.00     0.173 C 
HETATM   33  O2  UNL     1      -0.059  54.424 -26.863  1.00  0.00    -0.646 OA
BRANCH  32  34
HETATM   34  O3  UNL     1      -0.506  52.993 -28.522  1.00  0.00    -0.773 OA
HETATM   35  H13 UNL     1      -1.112  53.745 -28.687  1.00  0.00     0.167 HD
ENDBRANCH  32  34
ENDBRANCH  28  32
ENDBRANCH  26  27
ENDBRANCH  25  26
ENDBRANCH  23  25
ENDBRANCH   1  23
TORSDOF 8
ENDMDL
MODEL 3
REMARK minimizedAffinity -8.8997736
REMARK  8 active torsions:
REMARK  status: ('A' for Active; 'I' for Inactive)
REMARK    1  A    between atoms: C2_2  and  C3_3 
REMARK    2  A    between atoms: C2_2  and  C9_12 
REMARK    3  A    between atoms: C3_3  and  C4_4 
REMARK    4  A    between atoms: C4_4  and  C5_5 
REMARK    5  A    between atoms: C6_6  and  C7_7 
REMARK    6  A    between atoms: C6_6  and  C8_9 
REMARK    7  A    between atoms: C7_7  and  O1_8 
REMARK    8  A    between atoms: C8_9  and  O3_11 
ROOT
HETATM    1  C9  UNL     1      -1.178  49.149 -20.041  1.00  0.00    -0.002 C 
HETATM    2  C10 UNL     1      -1.864  47.792 -19.756  1.00  0.00     0.006 C 
HETATM    3  C11 UNL     1      -3.051  47.704 -20.732  1.00  0.00     0.006 C 
HETATM    4  C12 UNL     1      -2.921  48.943 -21.619  1.00  0.00    -0.001 C 
HETATM    5  C13 UNL     1      -4.169  49.413 -22.382  1.00  0.00    -0.000 C 
HETATM    6  C14 UNL     1      -4.612  48.271 -23.319  1.00  0.00     0.006 C 
HETATM    7  C15 UNL     1      -5.400  48.673 -24.556  1.00  0.00     0.007 C 
HETATM    8  C16 UNL     1      -4.733  49.763 -25.412  1.00  0.00     0.010 C 
HETATM    9  C17 UNL     1      -3.584  49.279 -26.370  1.00  0.00     0.018 C 
HETATM   10  C18 UNL     1      -4.147  48.302 -27.426  1.00  0.00     0.023 C 
HETATM   11  C19 UNL     1      -2.392  48.600 -25.681  1.00  0.00     0.023 C 
HETATM   12  C20 UNL     1      -3.014  50.510 -27.105  1.00  0.00     0.135 C 
HETATM   13  O4  UNL     1      -2.851  50.545 -28.326  1.00  0.00    -0.297 OA
HETATM   14  C21 UNL     1      -2.590  51.677 -26.246  1.00  0.00     0.080 C 
HETATM   15  C22 UNL     1      -3.786  52.119 -25.433  1.00  0.00     0.018 C 
HETATM   16  C23 UNL     1      -4.317  50.979 -24.573  1.00  0.00    -0.026 A 
HETATM   17  C24 UNL     1      -5.237  51.456 -23.482  1.00  0.00     0.021 A 
HETATM   18  C25 UNL     1      -3.931  50.777 -23.085  1.00  0.00    -0.028 A 
HETATM   19  C26 UNL     1      -2.949  51.750 -22.403  1.00  0.00     0.011 C 
HETATM   20  C27 UNL     1      -1.809  51.120 -21.599  1.00  0.00     0.011 C 
HETATM   21  C28 UNL     1      -2.312  50.002 -20.683  1.00  0.00    -0.036 C 
HETATM   22  C29 UNL     1      -3.307  50.556 -19.646  1.00  0.00     0.016 C 
ENDROOT
BRANCH   1  23
HETATM   23  C2  UNL     1      -0.348  49.766 -18.881  1.00  0.00    -0.014 C 
HETATM   24  C1  UNL     1      -1.084  49.510 -17.552  1.00  0.00     0.010 C 
BRANCH  23  25
HETATM   25  C3  UNL     1      -0.042  51.275 -19.013  1.00  0.00     0.008 C 
BRANCH  25  26
HETATM   26  C4  UNL     1       0.029  51.999 -17.662  1.00  0.00     0.028 C 
BRANCH  26  27
HETATM   27  C5  UNL     1       1.459  52.184 -17.222  1.00  0.00    -0.011 C 
HETATM   28  C6  UNL     1       1.966  52.026 -15.981  1.00  0.00     0.035 C 
BRANCH  28  29
HETATM   29  C7  UNL     1       3.420  52.208 -15.670  1.00  0.00     0.209 C 
BRANCH  29  30
HETATM   30  O1  UNL     1       3.873  53.455 -16.186  1.00  0.00    -0.396 OA
HETATM   31  H12 UNL     1       3.569  53.516 -17.108  1.00  0.00     0.209 HD
ENDBRANCH  29  30
ENDBRANCH  28  29
BRANCH  28  32
HETATM   32  C8  UNL     1       1.088  51.671 -14.847  1.00  0.00     0.173 C 
HETATM   33  O2  UNL     1       0.814  50.548 -14.464  1.00  0.00    -0.646 OA
BRANCH  32  34
HETATM   34  O3  UNL     1       0.610  52.762 -14.227  1.00  0.00    -0.773 OA
HETATM   35  H13 UNL     1       0.045  52.394 -13.516  1.00  0.00     0.167 HD
ENDBRANCH  32  34
ENDBRANCH  28  32
ENDBRANCH  26  27
ENDBRANCH  25  26
ENDBRANCH  23  25
ENDBRANCH   1  23
TORSDOF 8
ENDMDL
MODEL 4
REMARK minimizedAffinity -8.87244892
REMARK  8 active torsions:
REMARK  status: ('A' for Active; 'I' for Inactive)
REMARK    1  A    between atoms: C2_2  and  C3_3 
REMARK    2  A    between atoms: C2_2  and  C9_12 
REMARK    3  A    between atoms: C3_3  and  C4_4 
REMARK    4  A    between atoms: C4_4  and  C5_5 
REMARK    5  A    between atoms: C6_6  and  C7_7 
REMARK    6  A    between atoms: C6_6  and  C8_9 
REMARK    7  A    between atoms: C7_7  and  O1_8 
REMARK    8  A    between atoms: C8_9  and  O3_11 
ROOT
HETATM    1  C9  UNL     1      -1.663  50.035 -25.592  1.00  0.00    -0.002 C 
HETATM    2  C10 UNL     1      -0.524  51.079 -25.575  1.00  0.00     0.006 C 
HETATM    3  C11 UNL     1      -0.548  51.710 -24.170  1.00  0.00     0.006 C 
HETATM    4  C12 UNL     1      -1.607  50.915 -23.404  1.00  0.00    -0.001 C 
HETATM    5  C13 UNL     1      -2.214  51.557 -22.146  1.00  0.00    -0.000 C 
HETATM    6  C14 UNL     1      -1.070  51.811 -21.142  1.00  0.00     0.006 C 
HETATM    7  C15 UNL     1      -1.456  51.865 -19.672  1.00  0.00     0.007 C 
HETATM    8  C16 UNL     1      -2.266  50.653 -19.180  1.00  0.00     0.010 C 
HETATM    9  C17 UNL     1      -1.437  49.356 -18.858  1.00  0.00     0.018 C 
HETATM   10  C18 UNL     1      -0.463  49.623 -17.690  1.00  0.00     0.023 C 
HETATM   11  C19 UNL     1      -0.629  48.781 -20.030  1.00  0.00     0.023 C 
HETATM   12  C20 UNL     1      -2.419  48.247 -18.426  1.00  0.00     0.135 C 
HETATM   13  O4  UNL     1      -2.259  47.569 -17.409  1.00  0.00    -0.297 OA
HETATM   14  C21 UNL     1      -3.580  47.970 -19.351  1.00  0.00     0.080 C 
HETATM   15  C22 UNL     1      -4.357  49.255 -19.523  1.00  0.00     0.018 C 
HETATM   16  C23 UNL     1      -3.473  50.363 -20.082  1.00  0.00    -0.026 A 
HETATM   17  C24 UNL     1      -4.266  51.520 -20.627  1.00  0.00     0.021 A 
HETATM   18  C25 UNL     1      -3.396  50.719 -21.589  1.00  0.00    -0.028 A 
HETATM   19  C26 UNL     1      -4.232  49.927 -22.614  1.00  0.00     0.011 C 
HETATM   20  C27 UNL     1      -3.497  49.436 -23.863  1.00  0.00     0.011 C 
HETATM   21  C28 UNL     1      -2.635  50.537 -24.484  1.00  0.00    -0.036 C 
HETATM   22  C29 UNL     1      -3.511  51.718 -24.944  1.00  0.00     0.016 C 
ENDROOT
BRANCH   1  23
HETATM   23  C2  UNL     1      -2.249  49.666 -26.984  1.00  0.00    -0.014 C 
HETATM   24  C1  UNL     1      -3.024  50.879 -27.534  1.00  0.00     0.010 C 
BRANCH  23  25
HETATM   25  C3  UNL     1      -3.162  48.420 -27.013  1.00  0.00     0.008 C 
BRANCH  25  26
HETATM   26  C4  UNL     1      -4.564  48.710 -27.564  1.00  0.00     0.028 C 
BRANCH  26  27
HETATM   27  C5  UNL     1      -4.727  48.144 -28.952  1.00  0.00    -0.011 C 
HETATM   28  C6  UNL     1      -5.865  47.714 -29.537  1.00  0.00     0.035 C 
BRANCH  28  29
HETATM   29  C7  UNL     1      -5.908  47.198 -30.943  1.00  0.00     0.209 C 
BRANCH  29  30
HETATM   30  O1  UNL     1      -4.618  47.302 -31.537  1.00  0.00    -0.396 OA
HETATM   31  H12 UNL     1      -4.291  48.203 -31.367  1.00  0.00     0.209 HD
ENDBRANCH  29  30
ENDBRANCH  28  29
BRANCH  28  32
HETATM   32  C8  UNL     1      -7.143  47.719 -28.797  1.00  0.00     0.173 C 
HETATM   33  O2  UNL     1      -7.577  46.828 -28.089  1.00  0.00    -0.646 OA
BRANCH  32  34
HETATM   34  O3  UNL     1      -7.812  48.871 -28.968  1.00  0.00    -0.773 OA
HETATM   35  H13 UNL     1      -8.630  48.742 -28.444  1.00  0.00     0.167 HD
ENDBRANCH  32  34
ENDBRANCH  28  32
ENDBRANCH  26  27
ENDBRANCH  25  26
ENDBRANCH  23  25
ENDBRANCH   1  23
TORSDOF 8
ENDMDL
MODEL 5
REMARK minimizedAffinity -8.80397987
REMARK  8 active torsions:
REMARK  status: ('A' for Active; 'I' for Inactive)
REMARK    1  A    between atoms: C2_2  and  C3_3 
REMARK    2  A    between atoms: C2_2  and  C9_12 
REMARK    3  A    between atoms: C3_3  and  C4_4 
REMARK    4  A    between atoms: C4_4  and  C5_5 
REMARK    5  A    between atoms: C6_6  and  C7_7 
REMARK    6  A    between atoms: C6_6  and  C8_9 
REMARK    7  A    between atoms: C7_7  and  O1_8 
REMARK    8  A    between atoms: C8_9  and  O3_11 
ROOT
HETATM    1  C9  UNL     1      -1.840  50.625 -21.602  1.00  0.00    -0.002 C 
HETATM    2  C10 UNL     1      -2.016  51.302 -20.224  1.00  0.00     0.006 C 
HETATM    3  C11 UNL     1      -3.508  51.161 -19.869  1.00  0.00     0.006 C 
HETATM    4  C12 UNL     1      -4.096  50.300 -20.989  1.00  0.00    -0.001 C 
HETATM    5  C13 UNL     1      -5.616  50.345 -21.205  1.00  0.00    -0.000 C 
HETATM    6  C14 UNL     1      -6.296  49.866 -19.905  1.00  0.00     0.006 C 
HETATM    7  C15 UNL     1      -7.686  49.265 -20.047  1.00  0.00     0.007 C 
HETATM    8  C16 UNL     1      -7.791  48.136 -21.087  1.00  0.00     0.010 C 
HETATM    9  C17 UNL     1      -7.287  46.722 -20.621  1.00  0.00     0.018 C 
HETATM   10  C18 UNL     1      -8.157  46.204 -19.455  1.00  0.00     0.023 C 
HETATM   11  C19 UNL     1      -5.816  46.655 -20.182  1.00  0.00     0.023 C 
HETATM   12  C20 UNL     1      -7.429  45.741 -21.803  1.00  0.00     0.135 C 
HETATM   13  O4  UNL     1      -7.967  44.638 -21.698  1.00  0.00    -0.297 OA
HETATM   14  C21 UNL     1      -6.812  46.166 -23.114  1.00  0.00     0.080 C 
HETATM   15  C22 UNL     1      -7.426  47.488 -23.514  1.00  0.00     0.018 C 
HETATM   16  C23 UNL     1      -7.199  48.546 -22.442  1.00  0.00    -0.026 A 
HETATM   17  C24 UNL     1      -7.441  49.944 -22.946  1.00  0.00     0.021 A 
HETATM   18  C25 UNL     1      -6.037  49.571 -22.484  1.00  0.00    -0.028 A 
HETATM   19  C26 UNL     1      -5.024  49.546 -23.646  1.00  0.00     0.011 C 
HETATM   20  C27 UNL     1      -3.544  49.602 -23.265  1.00  0.00     0.011 C 
HETATM   21  C28 UNL     1      -3.266  50.689 -22.224  1.00  0.00    -0.036 C 
HETATM   22  C29 UNL     1      -3.613  52.081 -22.788  1.00  0.00     0.016 C 
ENDROOT
BRANCH   1  23
HETATM   23  C2  UNL     1      -0.632  51.095 -22.460  1.00  0.00    -0.014 C 
HETATM   24  C1  UNL     1      -0.105  52.425 -21.888  1.00  0.00     0.010 C 
BRANCH  23  25
HETATM   25  C3  UNL     1      -0.914  51.263 -23.970  1.00  0.00     0.008 C 
BRANCH  25  26
HETATM   26  C4  UNL     1      -0.144  52.430 -24.603  1.00  0.00     0.028 C 
BRANCH  26  27
HETATM   27  C5  UNL     1       0.821  51.936 -25.650  1.00  0.00    -0.011 C 
HETATM   28  C6  UNL     1       0.908  52.328 -26.939  1.00  0.00     0.035 C 
BRANCH  28  29
HETATM   29  C7  UNL     1       1.938  51.785 -27.883  1.00  0.00     0.209 C 
BRANCH  29  30
HETATM   30  O1  UNL     1       3.143  51.507 -27.177  1.00  0.00    -0.396 OA
HETATM   31  H12 UNL     1       3.352  52.290 -26.640  1.00  0.00     0.209 HD
ENDBRANCH  29  30
ENDBRANCH  28  29
BRANCH  28  32
HETATM   32  C8  UNL     1      -0.035  53.321 -27.492  1.00  0.00     0.173 C 
HETATM   33  O2  UNL     1      -0.096  54.504 -27.206  1.00  0.00    -0.646 OA
BRANCH  32  34
HETATM   34  O3  UNL     1      -0.853  52.775 -28.407  1.00  0.00    -0.773 OA
HETATM   35  H13 UNL     1      -1.424  53.523 -28.680  1.00  0.00     0.167 HD
ENDBRANCH  32  34
ENDBRANCH  28  32
ENDBRANCH  26  27
ENDBRANCH  25  26
ENDBRANCH  23  25
ENDBRANCH   1  23
TORSDOF 8
ENDMDL
MODEL 6
REMARK minimizedAffinity -8.66777802
REMARK  8 active torsions:
REMARK  status: ('A' for Active; 'I' for Inactive)
REMARK    1  A    between atoms: C2_2  and  C3_3 
REMARK    2  A    between atoms: C2_2  and  C9_12 
REMARK    3  A    between atoms: C3_3  and  C4_4 
REMARK    4  A    between atoms: C4_4  and  C5_5 
REMARK    5  A    between atoms: C6_6  and  C7_7 
REMARK    6  A    between atoms: C6_6  and  C8_9 
REMARK    7  A    between atoms: C7_7  and  O1_8 
REMARK    8  A    between atoms: C8_9  and  O3_11 
ROOT
HETATM    1  C9  UNL     1      -2.538  51.257 -20.553  1.00  0.00    -0.002 C 
HETATM    2  C10 UNL     1      -3.620  50.164 -20.707  1.00  0.00     0.006 C 
HETATM    3  C11 UNL     1      -3.470  49.243 -19.482  1.00  0.00     0.006 C 
HETATM    4  C12 UNL     1      -2.403  49.915 -18.616  1.00  0.00    -0.001 C 
HETATM    5  C13 UNL     1      -1.681  49.053 -17.569  1.00  0.00    -0.000 C 
HETATM    6  C14 UNL     1      -2.741  48.512 -16.587  1.00  0.00     0.006 C 
HETATM    7  C15 UNL     1      -2.255  48.161 -15.189  1.00  0.00     0.007 C 
HETATM    8  C16 UNL     1      -1.476  49.284 -14.483  1.00  0.00     0.010 C 
HETATM    9  C17 UNL     1      -2.345  50.423 -13.835  1.00  0.00     0.018 C 
HETATM   10  C18 UNL     1      -3.224  49.844 -12.705  1.00  0.00     0.023 C 
HETATM   11  C19 UNL     1      -3.258  51.189 -14.803  1.00  0.00     0.023 C 
HETATM   12  C20 UNL     1      -1.393  51.470 -13.220  1.00  0.00     0.135 C 
HETATM   13  O4  UNL     1      -1.519  51.896 -12.071  1.00  0.00    -0.297 OA
HETATM   14  C21 UNL     1      -0.313  52.017 -14.122  1.00  0.00     0.080 C 
HETATM   15  C22 UNL     1       0.515  50.854 -14.619  1.00  0.00     0.018 C 
HETATM   16  C23 UNL     1      -0.348  49.842 -15.362  1.00  0.00    -0.026 A 
HETATM   17  C24 UNL     1       0.464  48.886 -16.193  1.00  0.00     0.021 A 
HETATM   18  C25 UNL     1      -0.508  49.822 -16.904  1.00  0.00    -0.028 A 
HETATM   19  C26 UNL     1       0.217  50.871 -17.770  1.00  0.00     0.011 C 
HETATM   20  C27 UNL     1      -0.624  51.577 -18.835  1.00  0.00     0.011 C 
HETATM   21  C28 UNL     1      -1.470  50.587 -19.639  1.00  0.00    -0.036 C 
HETATM   22  C29 UNL     1      -0.568  49.594 -20.398  1.00  0.00     0.016 C 
ENDROOT
BRANCH   1  23
HETATM   23  C2  UNL     1      -2.066  51.959 -21.857  1.00  0.00    -0.014 C 
HETATM   24  C1  UNL     1      -3.199  51.885 -22.899  1.00  0.00     0.010 C 
BRANCH  23  25
HETATM   25  C3  UNL     1      -0.764  51.404 -22.477  1.00  0.00     0.008 C 
BRANCH  25  26
HETATM   26  C4  UNL     1       0.067  52.474 -23.197  1.00  0.00     0.028 C 
BRANCH  26  27
HETATM   27  C5  UNL     1       0.764  51.897 -24.403  1.00  0.00    -0.011 C 
HETATM   28  C6  UNL     1       0.748  52.370 -25.668  1.00  0.00     0.035 C 
BRANCH  28  29
HETATM   29  C7  UNL     1       1.512  51.724 -26.783  1.00  0.00     0.209 C 
BRANCH  29  30
HETATM   30  O1  UNL     1       2.876  52.128 -26.734  1.00  0.00    -0.396 OA
HETATM   31  H12 UNL     1       2.890  53.096 -26.643  1.00  0.00     0.209 HD
ENDBRANCH  29  30
ENDBRANCH  28  29
BRANCH  28  32
HETATM   32  C8  UNL     1      -0.049  53.563 -26.018  1.00  0.00     0.173 C 
HETATM   33  O2  UNL     1       0.287  54.727 -25.886  1.00  0.00    -0.646 OA
BRANCH  32  34
HETATM   34  O3  UNL     1      -1.238  53.230 -26.545  1.00  0.00    -0.773 OA
HETATM   35  H13 UNL     1      -1.664  54.095 -26.719  1.00  0.00     0.167 HD
ENDBRANCH  32  34
ENDBRANCH  28  32
ENDBRANCH  26  27
ENDBRANCH  25  26
ENDBRANCH  23  25
ENDBRANCH   1  23
TORSDOF 8
ENDMDL
MODEL 7
REMARK minimizedAffinity -8.66282082
REMARK  8 active torsions:
REMARK  status: ('A' for Active; 'I' for Inactive)
REMARK    1  A    between atoms: C2_2  and  C3_3 
REMARK    2  A    between atoms: C2_2  and  C9_12 
REMARK    3  A    between atoms: C3_3  and  C4_4 
REMARK    4  A    between atoms: C4_4  and  C5_5 
REMARK    5  A    between atoms: C6_6  and  C7_7 
REMARK    6  A    between atoms: C6_6  and  C8_9 
REMARK    7  A    between atoms: C7_7  and  O1_8 
REMARK    8  A    between atoms: C8_9  and  O3_11 
ROOT
HETATM    1  C9  UNL     1      -1.423  50.673 -21.678  1.00  0.00    -0.002 C 
HETATM    2  C10 UNL     1      -1.439  50.306 -23.180  1.00  0.00     0.006 C 
HETATM    3  C11 UNL     1      -2.457  49.159 -23.325  1.00  0.00     0.006 C 
HETATM    4  C12 UNL     1      -3.073  49.005 -21.934  1.00  0.00    -0.001 C 
HETATM    5  C13 UNL     1      -3.772  47.678 -21.602  1.00  0.00    -0.000 C 
HETATM    6  C14 UNL     1      -4.934  47.489 -22.600  1.00  0.00     0.006 C 
HETATM    7  C15 UNL     1      -6.093  46.621 -22.137  1.00  0.00     0.007 C 
HETATM    8  C16 UNL     1      -6.690  47.024 -20.777  1.00  0.00     0.010 C 
HETATM    9  C17 UNL     1      -7.682  48.243 -20.794  1.00  0.00     0.018 C 
HETATM   10  C18 UNL     1      -8.931  47.900 -21.635  1.00  0.00     0.023 C 
HETATM   11  C19 UNL     1      -7.099  49.562 -21.322  1.00  0.00     0.023 C 
HETATM   12  C20 UNL     1      -8.135  48.521 -19.346  1.00  0.00     0.135 C 
HETATM   13  O4  UNL     1      -9.317  48.661 -19.029  1.00  0.00    -0.297 OA
HETATM   14  C21 UNL     1      -7.045  48.684 -18.314  1.00  0.00     0.080 C 
HETATM   15  C22 UNL     1      -6.205  47.427 -18.317  1.00  0.00     0.018 C 
HETATM   16  C23 UNL     1      -5.610  47.168 -19.695  1.00  0.00    -0.026 A 
HETATM   17  C24 UNL     1      -4.479  46.175 -19.662  1.00  0.00     0.021 A 
HETATM   18  C25 UNL     1      -4.179  47.602 -20.106  1.00  0.00    -0.028 A 
HETATM   19  C26 UNL     1      -3.281  48.352 -19.101  1.00  0.00     0.011 C 
HETATM   20  C27 UNL     1      -2.578  49.609 -19.617  1.00  0.00     0.011 C 
HETATM   21  C28 UNL     1      -1.923  49.374 -20.981  1.00  0.00    -0.036 C 
HETATM   22  C29 UNL     1      -0.833  48.289 -20.879  1.00  0.00     0.016 C 
ENDROOT
BRANCH   1  23
HETATM   23  C2  UNL     1      -0.134  51.356 -21.143  1.00  0.00    -0.014 C 
HETATM   24  C1  UNL     1      -0.536  52.513 -20.208  1.00  0.00     0.010 C 
BRANCH  23  25
HETATM   25  C3  UNL     1       0.836  51.885 -22.223  1.00  0.00     0.008 C 
BRANCH  25  26
HETATM   26  C4  UNL     1       0.119  52.420 -23.470  1.00  0.00     0.028 C 
BRANCH  26  27
HETATM   27  C5  UNL     1       0.819  51.974 -24.729  1.00  0.00    -0.011 C 
HETATM   28  C6  UNL     1       0.760  52.546 -25.950  1.00  0.00     0.035 C 
BRANCH  28  29
HETATM   29  C7  UNL     1       1.531  52.027 -27.125  1.00  0.00     0.209 C 
BRANCH  29  30
HETATM   30  O1  UNL     1       2.928  52.109 -26.864  1.00  0.00    -0.396 OA
HETATM   31  H12 UNL     1       3.109  53.005 -26.531  1.00  0.00     0.209 HD
ENDBRANCH  29  30
ENDBRANCH  28  29
BRANCH  28  32
HETATM   32  C8  UNL     1      -0.095  53.725 -26.191  1.00  0.00     0.173 C 
HETATM   33  O2  UNL     1       0.206  54.891 -26.008  1.00  0.00    -0.646 OA
BRANCH  32  34
HETATM   34  O3  UNL     1      -1.297  53.378 -26.679  1.00  0.00    -0.773 OA
HETATM   35  H13 UNL     1      -1.761  54.235 -26.781  1.00  0.00     0.167 HD
ENDBRANCH  32  34
ENDBRANCH  28  32
ENDBRANCH  26  27
ENDBRANCH  25  26
ENDBRANCH  23  25
ENDBRANCH   1  23
TORSDOF 8
ENDMDL
MODEL 8
REMARK minimizedAffinity -8.65442944
REMARK  8 active torsions:
REMARK  status: ('A' for Active; 'I' for Inactive)
REMARK    1  A    between atoms: C2_2  and  C3_3 
REMARK    2  A    between atoms: C2_2  and  C9_12 
REMARK    3  A    between atoms: C3_3  and  C4_4 
REMARK    4  A    between atoms: C4_4  and  C5_5 
REMARK    5  A    between atoms: C6_6  and  C7_7 
REMARK    6  A    between atoms: C6_6  and  C8_9 
REMARK    7  A    between atoms: C7_7  and  O1_8 
REMARK    8  A    between atoms: C8_9  and  O3_11 
ROOT
HETATM    1  C9  UNL     1      -3.103  50.135 -25.089  1.00  0.00    -0.002 C 
HETATM    2  C10 UNL     1      -2.307  51.440 -24.856  1.00  0.00     0.006 C 
HETATM    3  C11 UNL     1      -2.455  51.765 -23.358  1.00  0.00     0.006 C 
HETATM    4  C12 UNL     1      -3.213  50.572 -22.773  1.00  0.00    -0.001 C 
HETATM    5  C13 UNL     1      -3.928  50.767 -21.427  1.00  0.00    -0.000 C 
HETATM    6  C14 UNL     1      -2.865  51.147 -20.374  1.00  0.00     0.006 C 
HETATM    7  C15 UNL     1      -3.192  50.814 -18.927  1.00  0.00     0.007 C 
HETATM    8  C16 UNL     1      -3.604  49.351 -18.686  1.00  0.00     0.010 C 
HETATM    9  C17 UNL     1      -2.429  48.310 -18.602  1.00  0.00     0.018 C 
HETATM   10  C18 UNL     1      -1.526  48.623 -17.389  1.00  0.00     0.023 C 
HETATM   11  C19 UNL     1      -1.536  48.219 -19.849  1.00  0.00     0.023 C 
HETATM   12  C20 UNL     1      -3.037  46.907 -18.404  1.00  0.00     0.135 C 
HETATM   13  O4  UNL     1      -2.651  46.126 -17.532  1.00  0.00    -0.297 OA
HETATM   14  C21 UNL     1      -4.106  46.485 -19.383  1.00  0.00     0.080 C 
HETATM   15  C22 UNL     1      -5.223  47.502 -19.321  1.00  0.00     0.018 C 
HETATM   16  C23 UNL     1      -4.713  48.900 -19.646  1.00  0.00    -0.026 A 
HETATM   17  C24 UNL     1      -5.824  49.862 -19.975  1.00  0.00     0.021 A 
HETATM   18  C25 UNL     1      -4.800  49.537 -21.057  1.00  0.00    -0.028 A 
HETATM   19  C26 UNL     1      -5.416  48.744 -22.227  1.00  0.00     0.011 C 
HETATM   20  C27 UNL     1      -4.621  48.725 -23.534  1.00  0.00     0.011 C 
HETATM   21  C28 UNL     1      -4.132  50.123 -23.921  1.00  0.00    -0.036 C 
HETATM   22  C29 UNL     1      -5.326  51.067 -24.164  1.00  0.00     0.016 C 
ENDROOT
BRANCH   1  23
HETATM   23  C2  UNL     1      -3.613  49.880 -26.535  1.00  0.00    -0.014 C 
HETATM   24  C1  UNL     1      -3.833  48.367 -26.724  1.00  0.00     0.010 C 
BRANCH  23  25
HETATM   25  C3  UNL     1      -2.702  50.410 -27.665  1.00  0.00     0.008 C 
BRANCH  25  26
HETATM   26  C4  UNL     1      -1.848  51.612 -27.240  1.00  0.00     0.028 C 
BRANCH  26  27
HETATM   27  C5  UNL     1      -0.409  51.423 -27.647  1.00  0.00    -0.011 C 
HETATM   28  C6  UNL     1       0.633  52.243 -27.394  1.00  0.00     0.035 C 
BRANCH  28  29
HETATM   29  C7  UNL     1       2.033  51.931 -27.825  1.00  0.00     0.209 C 
BRANCH  29  30
HETATM   30  O1  UNL     1       2.921  52.058 -26.719  1.00  0.00    -0.396 OA
HETATM   31  H12 UNL     1       2.731  52.911 -26.291  1.00  0.00     0.209 HD
ENDBRANCH  29  30
ENDBRANCH  28  29
BRANCH  28  32
HETATM   32  C8  UNL     1       0.432  53.519 -26.678  1.00  0.00     0.173 C 
HETATM   33  O2  UNL     1      -0.115  54.518 -27.111  1.00  0.00    -0.646 OA
BRANCH  32  34
HETATM   34  O3  UNL     1       0.915  53.469 -25.426  1.00  0.00    -0.773 OA
HETATM   35  H13 UNL     1       0.731  54.364 -25.072  1.00  0.00     0.167 HD
ENDBRANCH  32  34
ENDBRANCH  28  32
ENDBRANCH  26  27
ENDBRANCH  25  26
ENDBRANCH  23  25
ENDBRANCH   1  23
TORSDOF 8
ENDMDL
MODEL 9
REMARK minimizedAffinity -8.64539623
REMARK  8 active torsions:
REMARK  status: ('A' for Active; 'I' for Inactive)
REMARK    1  A    between atoms: C2_2  and  C3_3 
REMARK    2  A    between atoms: C2_2  and  C9_12 
REMARK    3  A    between atoms: C3_3  and  C4_4 
REMARK    4  A    between atoms: C4_4  and  C5_5 
REMARK    5  A    between atoms: C6_6  and  C7_7 
REMARK    6  A    between atoms: C6_6  and  C8_9 
REMARK    7  A    between atoms: C7_7  and  O1_8 
REMARK    8  A    between atoms: C8_9  and  O3_11 
ROOT
HETATM    1  C9  UNL     1      -2.118  49.004 -18.959  1.00  0.00    -0.002 C 
HETATM    2  C10 UNL     1      -2.402  47.484 -18.928  1.00  0.00     0.006 C 
HETATM    3  C11 UNL     1      -3.405  47.217 -20.066  1.00  0.00     0.006 C 
HETATM    4  C12 UNL     1      -3.552  48.561 -20.780  1.00  0.00    -0.001 C 
HETATM    5  C13 UNL     1      -4.798  48.776 -21.654  1.00  0.00    -0.000 C 
HETATM    6  C14 UNL     1      -4.789  47.707 -22.767  1.00  0.00     0.006 C 
HETATM    7  C15 UNL     1      -5.528  48.055 -24.049  1.00  0.00     0.007 C 
HETATM    8  C16 UNL     1      -5.125  49.401 -24.675  1.00  0.00     0.010 C 
HETATM    9  C17 UNL     1      -3.793  49.401 -25.509  1.00  0.00     0.018 C 
HETATM   10  C18 UNL     1      -3.934  48.474 -26.736  1.00  0.00     0.023 C 
HETATM   11  C19 UNL     1      -2.531  48.984 -24.740  1.00  0.00     0.023 C 
HETATM   12  C20 UNL     1      -3.536  50.836 -26.013  1.00  0.00     0.135 C 
HETATM   13  O4  UNL     1      -3.266  51.096 -27.187  1.00  0.00    -0.297 OA
HETATM   14  C21 UNL     1      -3.562  51.934 -24.977  1.00  0.00     0.080 C 
HETATM   15  C22 UNL     1      -4.912  51.903 -24.297  1.00  0.00     0.018 C 
HETATM   16  C23 UNL     1      -5.172  50.546 -23.654  1.00  0.00    -0.026 A 
HETATM   17  C24 UNL     1      -6.299  50.583 -22.656  1.00  0.00     0.021 A 
HETATM   18  C25 UNL     1      -4.899  50.241 -22.158  1.00  0.00    -0.028 A 
HETATM   19  C26 UNL     1      -4.320  51.335 -21.239  1.00  0.00     0.011 C 
HETATM   20  C27 UNL     1      -3.135  50.933 -20.359  1.00  0.00     0.011 C 
HETATM   21  C28 UNL     1      -3.379  49.596 -19.655  1.00  0.00    -0.036 C 
HETATM   22  C29 UNL     1      -4.594  49.693 -18.712  1.00  0.00     0.016 C 
ENDROOT
BRANCH   1  23
HETATM   23  C2  UNL     1      -1.629  49.648 -17.632  1.00  0.00    -0.014 C 
HETATM   24  C1  UNL     1      -2.484  50.896 -17.341  1.00  0.00     0.010 C 
BRANCH  23  25
HETATM   25  C3  UNL     1      -0.133  50.033 -17.592  1.00  0.00     0.008 C 
BRANCH  25  26
HETATM   26  C4  UNL     1       0.151  51.421 -18.180  1.00  0.00     0.028 C 
BRANCH  26  27
HETATM   27  C5  UNL     1      -0.027  51.420 -19.677  1.00  0.00    -0.011 C 
HETATM   28  C6  UNL     1       0.228  52.430 -20.537  1.00  0.00     0.035 C 
BRANCH  28  29
HETATM   29  C7  UNL     1       0.042  52.298 -22.018  1.00  0.00     0.209 C 
BRANCH  29  30
HETATM   30  O1  UNL     1       0.947  53.160 -22.699  1.00  0.00    -0.396 OA
HETATM   31  H12 UNL     1       0.881  54.038 -22.284  1.00  0.00     0.209 HD
ENDBRANCH  29  30
ENDBRANCH  28  29
BRANCH  28  32
HETATM   32  C8  UNL     1       0.699  53.740 -20.045  1.00  0.00     0.173 C 
HETATM   33  O2  UNL     1       1.756  54.281 -20.315  1.00  0.00    -0.646 OA
BRANCH  32  34
HETATM   34  O3  UNL     1      -0.206  54.325 -19.243  1.00  0.00    -0.773 OA
HETATM   35  H13 UNL     1       0.226  55.164 -18.981  1.00  0.00     0.167 HD
ENDBRANCH  32  34
ENDBRANCH  28  32
ENDBRANCH  26  27
ENDBRANCH  25  26
ENDBRANCH  23  25
ENDBRANCH   1  23
TORSDOF 8
ENDMDL
