MODEL 1
REMARK minimizedAffinity -10.501646
REMARK CNNscore 0.440820247
REMARK CNNaffinity 7.27430868
REMARK  11 active torsions:
REMARK  status: ('A' for Active; 'I' for Inactive)
REMARK    1  A    between atoms: C3_3  and  O1_4 
REMARK    2  A    between atoms: N1_14  and  O2_16 
REMARK    3  A    between atoms: O2_16  and  C13_17 
REMARK    4  A    between atoms: C13_17  and  C14_18 
REMARK       I    between atoms: C14_18  and  N2_20 
REMARK    5  A    between atoms: N2_20  and  C15_21 
REMARK    6  A    between atoms: C15_21  and  C16_22 
REMARK    7  A    between atoms: C15_21  and  C17_25 
REMARK    8  A    between atoms: C16_22  and  O5_24 
REMARK    9  A    between atoms: C17_25  and  O6_26 
REMARK   10  A    between atoms: C17_25  and  C18_27 
REMARK   11  A    between atoms: C22_31  and  N3_32 
ROOT
HETATM    1  C1  UNL     1       1.250  51.811 -28.519  1.00  0.00     0.015 C 
HETATM    2  C2  UNL     1       0.359  52.212 -27.819  1.00  0.00    -0.078 C 
HETATM    3  C3  UNL     1      -0.731  52.712 -26.966  1.00  0.00     0.128 C 
HETATM    4  C4  UNL     1      -0.224  53.212 -25.609  1.00  0.00     0.052 C 
HETATM    5  C5  UNL     1      -1.385  53.009 -24.625  1.00  0.00     0.010 C 
HETATM    6  C6  UNL     1      -2.522  52.333 -25.415  1.00  0.00     0.002 C 
HETATM    7  C7  UNL     1      -3.449  51.408 -24.597  1.00  0.00    -0.004 C 
HETATM    8  C8  UNL     1      -4.042  52.147 -23.391  1.00  0.00     0.010 C 
HETATM    9  C9  UNL     1      -5.052  51.275 -22.662  1.00  0.00     0.035 C 
HETATM   10  C10 UNL     1      -4.450  49.960 -22.230  1.00  0.00    -0.069 C 
HETATM   11  C11 UNL     1      -4.633  49.536 -20.967  1.00  0.00     0.030 C 
HETATM   12  C12 UNL     1      -4.222  48.182 -20.521  1.00  0.00     0.032 C 
HETATM   13  N1  UNL     1      -4.541  47.829 -19.307  1.00  0.00    -0.271 N 
ATOM     14  H1  UNL     1      -4.999  48.446 -18.635  1.00  0.00     0.194 HD
HETATM   15  C24 UNL     1      -3.548  47.273 -21.527  1.00  0.00     0.060 C 
HETATM   16  C25 UNL     1      -2.824  48.074 -22.602  1.00  0.00     0.020 C 
HETATM   17  C26 UNL     1      -3.709  49.151 -23.298  1.00  0.00    -0.016 C 
HETATM   18  C27 UNL     1      -4.764  48.448 -24.181  1.00  0.00     0.020 C 
HETATM   19  C28 UNL     1      -2.762  50.093 -24.147  1.00  0.00     0.002 C 
HETATM   20  C29 UNL     1      -2.133  49.391 -25.367  1.00  0.00     0.007 C 
HETATM   21  C30 UNL     1      -1.168  50.301 -26.130  1.00  0.00     0.014 C 
HETATM   22  C31 UNL     1      -1.802  51.639 -26.598  1.00  0.00     0.003 C 
HETATM   23  C32 UNL     1      -2.780  51.379 -27.761  1.00  0.00     0.020 C 
ENDROOT
BRANCH   3  24
HETATM   24  O1  UNL     1      -1.349  53.821 -27.624  1.00  0.00    -0.377 OA
HETATM   25  H2  UNL     1      -0.629  54.383 -27.958  1.00  0.00     0.211 HD
ENDBRANCH   3  24
BRANCH  13  26
HETATM   26  O2  UNL     1      -4.181  46.502 -19.033  1.00  0.00    -0.271 OA
BRANCH  26  27
HETATM   27  C13 UNL     1      -2.888  46.503 -18.436  1.00  0.00     0.303 C 
BRANCH  27  28
HETATM   28  C14 UNL     1      -2.768  47.684 -17.487  1.00  0.00     0.244 C 
HETATM   29  O3  UNL     1      -3.603  47.926 -16.620  1.00  0.00    -0.271 OA
HETATM   30  N2  UNL     1      -1.668  48.484 -17.717  1.00  0.00    -0.342 N 
HETATM   31  H16 UNL     1      -0.893  48.056 -18.221  1.00  0.00     0.163 HD
BRANCH  30  32
HETATM   32  C15 UNL     1      -1.338  49.616 -16.840  1.00  0.00     0.216 C 
BRANCH  32  33
HETATM   33  C16 UNL     1       0.128  49.507 -16.420  1.00  0.00     0.166 C 
HETATM   34  O4  UNL     1       0.694  48.482 -16.065  1.00  0.00    -0.648 OA
BRANCH  33  35
HETATM   35  O5  UNL     1       0.807  50.679 -16.440  1.00  0.00    -0.775 OA
HETATM   36  H18 UNL     1       1.723  50.438 -16.183  1.00  0.00     0.167 HD
ENDBRANCH  33  35
ENDBRANCH  32  33
BRANCH  32  37
HETATM   37  C17 UNL     1      -1.511  51.006 -17.510  1.00  0.00     0.184 C 
BRANCH  37  38
HETATM   38  O6  UNL     1      -2.897  51.358 -17.634  1.00  0.00    -0.388 OA
HETATM   39  H20 UNL     1      -3.288  51.364 -16.738  1.00  0.00     0.210 HD
ENDBRANCH  37  38
BRANCH  37  40
HETATM   40  C18 UNL     1      -0.932  51.098 -18.909  1.00  0.00    -0.025 A 
HETATM   41  C19 UNL     1      -1.118  50.053 -19.827  1.00  0.00     0.010 A 
HETATM   42  C20 UNL     1      -0.601  50.134 -21.122  1.00  0.00     0.003 A 
HETATM   43  C21 UNL     1       0.107  51.265 -21.525  1.00  0.00     0.036 A 
HETATM   44  C22 UNL     1       0.303  52.313 -20.616  1.00  0.00     0.103 A 
HETATM   45  C23 UNL     1      -0.204  52.232 -19.314  1.00  0.00     0.045 A 
BRANCH  44  46
HETATM   46  N3  UNL     1       1.047  53.507 -21.035  1.00  0.00    -0.116 N 
HETATM   47  O7  UNL     1       1.087  53.774 -22.245  1.00  0.00    -0.532 OA
HETATM   48  O8  UNL     1       1.585  54.189 -20.148  1.00  0.00    -0.532 OA
ENDBRANCH  44  46
ENDBRANCH  37  40
ENDBRANCH  32  37
ENDBRANCH  30  32
ENDBRANCH  27  28
ENDBRANCH  26  27
ENDBRANCH  13  26
TORSDOF 11
ENDMDL
MODEL 2
REMARK minimizedAffinity -8.23276424
REMARK CNNscore 0.315279275
REMARK CNNaffinity 6.18151855
REMARK  11 active torsions:
REMARK  status: ('A' for Active; 'I' for Inactive)
REMARK    1  A    between atoms: C3_3  and  O1_4 
REMARK    2  A    between atoms: N1_14  and  O2_16 
REMARK    3  A    between atoms: O2_16  and  C13_17 
REMARK    4  A    between atoms: C13_17  and  C14_18 
REMARK       I    between atoms: C14_18  and  N2_20 
REMARK    5  A    between atoms: N2_20  and  C15_21 
REMARK    6  A    between atoms: C15_21  and  C16_22 
REMARK    7  A    between atoms: C15_21  and  C17_25 
REMARK    8  A    between atoms: C16_22  and  O5_24 
REMARK    9  A    between atoms: C17_25  and  O6_26 
REMARK   10  A    between atoms: C17_25  and  C18_27 
REMARK   11  A    between atoms: C22_31  and  N3_32 
ROOT
HETATM    1  C1  UNL     1      -0.324  52.212 -22.061  1.00  0.00     0.015 C 
HETATM    2  C2  UNL     1      -1.353  51.860 -22.574  1.00  0.00    -0.078 C 
HETATM    3  C3  UNL     1      -2.609  51.433 -23.210  1.00  0.00     0.128 C 
HETATM    4  C4  UNL     1      -3.740  52.448 -23.001  1.00  0.00     0.052 C 
HETATM    5  C5  UNL     1      -5.043  51.637 -23.031  1.00  0.00     0.010 C 
HETATM    6  C6  UNL     1      -4.641  50.158 -23.192  1.00  0.00     0.002 C 
HETATM    7  C7  UNL     1      -5.604  49.129 -22.559  1.00  0.00    -0.004 C 
HETATM    8  C8  UNL     1      -7.035  49.322 -23.075  1.00  0.00     0.010 C 
HETATM    9  C9  UNL     1      -7.953  48.229 -22.551  1.00  0.00     0.035 C 
HETATM   10  C10 UNL     1      -7.942  48.162 -21.043  1.00  0.00    -0.069 C 
HETATM   11  C11 UNL     1      -9.109  48.113 -20.377  1.00  0.00     0.030 C 
HETATM   12  C12 UNL     1      -9.176  47.873 -18.914  1.00  0.00     0.032 C 
HETATM   13  N1  UNL     1     -10.359  47.736 -18.384  1.00  0.00    -0.271 N 
ATOM     14  H1  UNL     1     -11.232  47.843 -18.901  1.00  0.00     0.194 HD
HETATM   15  C24 UNL     1      -7.874  47.710 -18.159  1.00  0.00     0.060 C 
HETATM   16  C25 UNL     1      -6.733  48.444 -18.852  1.00  0.00     0.020 C 
HETATM   17  C26 UNL     1      -6.572  48.090 -20.361  1.00  0.00    -0.016 C 
HETATM   18  C27 UNL     1      -6.051  46.642 -20.491  1.00  0.00     0.020 C 
HETATM   19  C28 UNL     1      -5.577  49.136 -21.008  1.00  0.00     0.002 C 
HETATM   20  C29 UNL     1      -4.125  48.989 -20.513  1.00  0.00     0.007 C 
HETATM   21  C30 UNL     1      -3.197  50.055 -21.099  1.00  0.00     0.014 C 
HETATM   22  C31 UNL     1      -3.190  50.098 -22.652  1.00  0.00     0.003 C 
HETATM   23  C32 UNL     1      -2.446  48.868 -23.209  1.00  0.00     0.020 C 
ENDROOT
BRANCH   3  24
HETATM   24  O1  UNL     1      -2.390  51.326 -24.619  1.00  0.00    -0.377 OA
HETATM   25  H2  UNL     1      -1.898  52.121 -24.886  1.00  0.00     0.211 HD
ENDBRANCH   3  24
BRANCH  13  26
HETATM   26  O2  UNL     1     -10.289  47.424 -17.019  1.00  0.00    -0.271 OA
BRANCH  26  27
HETATM   27  C13 UNL     1     -11.399  46.594 -16.692  1.00  0.00     0.303 C 
BRANCH  27  28
HETATM   28  C14 UNL     1     -12.653  47.137 -17.358  1.00  0.00     0.244 C 
HETATM   29  O3  UNL     1     -13.286  48.086 -16.906  1.00  0.00    -0.271 OA
HETATM   30  N2  UNL     1     -13.042  46.439 -18.482  1.00  0.00    -0.342 N 
HETATM   31  H16 UNL     1     -12.320  45.891 -18.948  1.00  0.00     0.163 HD
BRANCH  30  32
HETATM   32  C15 UNL     1     -14.175  46.876 -19.310  1.00  0.00     0.216 C 
BRANCH  32  33
HETATM   33  C16 UNL     1     -13.641  47.428 -20.632  1.00  0.00     0.166 C 
HETATM   34  O4  UNL     1     -14.277  48.101 -21.431  1.00  0.00    -0.648 OA
BRANCH  33  35
HETATM   35  O5  UNL     1     -12.356  47.094 -20.901  1.00  0.00    -0.775 OA
HETATM   36  H18 UNL     1     -12.159  47.546 -21.750  1.00  0.00     0.167 HD
ENDBRANCH  33  35
ENDBRANCH  32  33
BRANCH  32  37
HETATM   37  C17 UNL     1     -15.170  45.739 -19.668  1.00  0.00     0.184 C 
BRANCH  37  38
HETATM   38  O6  UNL     1     -14.729  44.998 -20.815  1.00  0.00    -0.388 OA
HETATM   39  H20 UNL     1     -13.848  44.625 -20.612  1.00  0.00     0.210 HD
ENDBRANCH  37  38
BRANCH  37  40
HETATM   40  C18 UNL     1     -16.571  46.219 -19.997  1.00  0.00    -0.025 A 
HETATM   41  C19 UNL     1     -17.233  47.120 -19.148  1.00  0.00     0.010 A 
HETATM   42  C20 UNL     1     -18.518  47.579 -19.449  1.00  0.00     0.003 A 
HETATM   43  C21 UNL     1     -19.161  47.151 -20.609  1.00  0.00     0.036 A 
HETATM   44  C22 UNL     1     -18.512  46.250 -21.462  1.00  0.00     0.103 A 
HETATM   45  C23 UNL     1     -17.229  45.778 -21.159  1.00  0.00     0.045 A 
BRANCH  44  46
HETATM   46  N3  UNL     1     -19.184  45.796 -22.686  1.00  0.00    -0.116 N 
HETATM   47  O7  UNL     1     -19.185  46.556 -23.666  1.00  0.00    -0.532 OA
HETATM   48  O8  UNL     1     -19.706  44.669 -22.672  1.00  0.00    -0.532 OA
ENDBRANCH  44  46
ENDBRANCH  37  40
ENDBRANCH  32  37
ENDBRANCH  30  32
ENDBRANCH  27  28
ENDBRANCH  26  27
ENDBRANCH  13  26
TORSDOF 11
ENDMDL
MODEL 3
REMARK minimizedAffinity -8.87958527
REMARK CNNscore 0.301694304
REMARK CNNaffinity 6.45535278
REMARK  11 active torsions:
REMARK  status: ('A' for Active; 'I' for Inactive)
REMARK    1  A    between atoms: C3_3  and  O1_4 
REMARK    2  A    between atoms: N1_14  and  O2_16 
REMARK    3  A    between atoms: O2_16  and  C13_17 
REMARK    4  A    between atoms: C13_17  and  C14_18 
REMARK       I    between atoms: C14_18  and  N2_20 
REMARK    5  A    between atoms: N2_20  and  C15_21 
REMARK    6  A    between atoms: C15_21  and  C16_22 
REMARK    7  A    between atoms: C15_21  and  C17_25 
REMARK    8  A    between atoms: C16_22  and  O5_24 
REMARK    9  A    between atoms: C17_25  and  O6_26 
REMARK   10  A    between atoms: C17_25  and  C18_27 
REMARK   11  A    between atoms: C22_31  and  N3_32 
ROOT
HETATM    1  C1  UNL     1       2.221  51.636 -27.782  1.00  0.00     0.015 C 
HETATM    2  C2  UNL     1       1.444  52.141 -27.017  1.00  0.00    -0.078 C 
HETATM    3  C3  UNL     1       0.496  52.767 -26.081  1.00  0.00     0.128 C 
HETATM    4  C4  UNL     1       0.978  52.690 -24.627  1.00  0.00     0.052 C 
HETATM    5  C5  UNL     1      -0.291  52.677 -23.763  1.00  0.00     0.010 C 
HETATM    6  C6  UNL     1      -1.487  52.681 -24.734  1.00  0.00     0.002 C 
HETATM    7  C7  UNL     1      -2.765  51.977 -24.225  1.00  0.00    -0.004 C 
HETATM    8  C8  UNL     1      -3.210  52.550 -22.873  1.00  0.00     0.010 C 
HETATM    9  C9  UNL     1      -4.536  51.947 -22.438  1.00  0.00     0.035 C 
HETATM   10  C10 UNL     1      -4.474  50.440 -22.377  1.00  0.00    -0.069 C 
HETATM   11  C11 UNL     1      -4.940  49.806 -21.287  1.00  0.00     0.030 C 
HETATM   12  C12 UNL     1      -5.072  48.329 -21.227  1.00  0.00     0.032 C 
HETATM   13  N1  UNL     1      -5.634  47.821 -20.166  1.00  0.00    -0.271 N 
ATOM     14  H1  UNL     1      -5.930  48.370 -19.359  1.00  0.00     0.194 HD
HETATM   15  C24 UNL     1      -4.634  47.525 -22.433  1.00  0.00     0.060 C 
HETATM   16  C25 UNL     1      -3.557  48.255 -23.226  1.00  0.00     0.020 C 
HETATM   17  C26 UNL     1      -3.932  49.716 -23.613  1.00  0.00    -0.016 C 
HETATM   18  C27 UNL     1      -5.051  49.689 -24.678  1.00  0.00     0.020 C 
HETATM   19  C28 UNL     1      -2.627  50.435 -24.146  1.00  0.00     0.002 C 
HETATM   20  C29 UNL     1      -2.134  49.887 -25.499  1.00  0.00     0.007 C 
HETATM   21  C30 UNL     1      -0.833  50.549 -25.958  1.00  0.00     0.014 C 
HETATM   22  C31 UNL     1      -0.912  52.097 -26.048  1.00  0.00     0.003 C 
HETATM   23  C32 UNL     1      -1.774  52.510 -27.258  1.00  0.00     0.020 C 
ENDROOT
BRANCH   3  24
HETATM   24  O1  UNL     1       0.377  54.152 -26.416  1.00  0.00    -0.377 OA
HETATM   25  H2  UNL     1       1.279  54.481 -26.565  1.00  0.00     0.211 HD
ENDBRANCH   3  24
BRANCH  13  26
HETATM   26  O2  UNL     1      -5.783  46.430 -20.266  1.00  0.00    -0.271 OA
BRANCH  26  27
HETATM   27  C13 UNL     1      -6.724  46.009 -19.283  1.00  0.00     0.303 C 
BRANCH  27  28
HETATM   28  C14 UNL     1      -8.100  45.888 -19.915  1.00  0.00     0.244 C 
HETATM   29  O3  UNL     1      -8.866  44.961 -19.666  1.00  0.00    -0.271 OA
HETATM   30  N2  UNL     1      -8.391  46.879 -20.829  1.00  0.00    -0.342 N 
HETATM   31  H16 UNL     1      -7.858  47.744 -20.745  1.00  0.00     0.163 HD
BRANCH  30  32
HETATM   32  C15 UNL     1      -9.710  46.978 -21.470  1.00  0.00     0.216 C 
BRANCH  32  33
HETATM   33  C16 UNL     1      -9.573  46.612 -22.948  1.00  0.00     0.166 C 
HETATM   34  O4  UNL     1      -9.908  45.548 -23.452  1.00  0.00    -0.648 OA
BRANCH  33  35
HETATM   35  O5  UNL     1      -9.007  47.573 -23.715  1.00  0.00    -0.775 OA
HETATM   36  H18 UNL     1      -9.023  47.203 -24.624  1.00  0.00     0.167 HD
ENDBRANCH  33  35
ENDBRANCH  32  33
BRANCH  32  37
HETATM   37  C17 UNL     1     -10.777  46.025 -20.868  1.00  0.00     0.184 C 
BRANCH  37  38
HETATM   38  O6  UNL     1     -11.068  44.936 -21.756  1.00  0.00    -0.388 OA
HETATM   39  H20 UNL     1     -10.236  44.450 -21.921  1.00  0.00     0.210 HD
ENDBRANCH  37  38
BRANCH  37  40
HETATM   40  C18 UNL     1     -12.109  46.689 -20.574  1.00  0.00    -0.025 A 
HETATM   41  C19 UNL     1     -13.020  46.947 -21.610  1.00  0.00     0.010 A 
HETATM   42  C20 UNL     1     -14.255  47.546 -21.348  1.00  0.00     0.003 A 
HETATM   43  C21 UNL     1     -14.604  47.890 -20.044  1.00  0.00     0.036 A 
HETATM   44  C22 UNL     1     -13.702  47.641 -19.002  1.00  0.00     0.103 A 
HETATM   45  C23 UNL     1     -12.459  47.051 -19.260  1.00  0.00     0.045 A 
BRANCH  44  46
HETATM   46  N3  UNL     1     -14.065  48.001 -17.625  1.00  0.00    -0.116 N 
HETATM   47  O7  UNL     1     -13.291  47.674 -16.715  1.00  0.00    -0.532 OA
HETATM   48  O8  UNL     1     -15.126  48.624 -17.455  1.00  0.00    -0.532 OA
ENDBRANCH  44  46
ENDBRANCH  37  40
ENDBRANCH  32  37
ENDBRANCH  30  32
ENDBRANCH  27  28
ENDBRANCH  26  27
ENDBRANCH  13  26
TORSDOF 11
ENDMDL
MODEL 4
REMARK minimizedAffinity -8.95289707
REMARK CNNscore 0.270588279
REMARK CNNaffinity 6.37430048
REMARK  11 active torsions:
REMARK  status: ('A' for Active; 'I' for Inactive)
REMARK    1  A    between atoms: C3_3  and  O1_4 
REMARK    2  A    between atoms: N1_14  and  O2_16 
REMARK    3  A    between atoms: O2_16  and  C13_17 
REMARK    4  A    between atoms: C13_17  and  C14_18 
REMARK       I    between atoms: C14_18  and  N2_20 
REMARK    5  A    between atoms: N2_20  and  C15_21 
REMARK    6  A    between atoms: C15_21  and  C16_22 
REMARK    7  A    between atoms: C15_21  and  C17_25 
REMARK    8  A    between atoms: C16_22  and  O5_24 
REMARK    9  A    between atoms: C17_25  and  O6_26 
REMARK   10  A    between atoms: C17_25  and  C18_27 
REMARK   11  A    between atoms: C22_31  and  N3_32 
ROOT
HETATM    1  C1  UNL     1       2.237  51.555 -27.714  1.00  0.00     0.015 C 
HETATM    2  C2  UNL     1       1.436  52.087 -26.993  1.00  0.00    -0.078 C 
HETATM    3  C3  UNL     1       0.460  52.747 -26.112  1.00  0.00     0.128 C 
HETATM    4  C4  UNL     1       0.895  52.724 -24.642  1.00  0.00     0.052 C 
HETATM    5  C5  UNL     1      -0.401  52.743 -23.820  1.00  0.00     0.010 C 
HETATM    6  C6  UNL     1      -1.566  52.711 -24.828  1.00  0.00     0.002 C 
HETATM    7  C7  UNL     1      -2.860  52.027 -24.335  1.00  0.00    -0.004 C 
HETATM    8  C8  UNL     1      -3.347  52.649 -23.020  1.00  0.00     0.010 C 
HETATM    9  C9  UNL     1      -4.688  52.063 -22.606  1.00  0.00     0.035 C 
HETATM   10  C10 UNL     1      -4.630  50.559 -22.487  1.00  0.00    -0.069 C 
HETATM   11  C11 UNL     1      -5.131  49.966 -21.389  1.00  0.00     0.030 C 
HETATM   12  C12 UNL     1      -5.266  48.492 -21.279  1.00  0.00     0.032 C 
HETATM   13  N1  UNL     1      -5.863  48.024 -20.219  1.00  0.00    -0.271 N 
ATOM     14  H1  UNL     1      -6.184  48.603 -19.443  1.00  0.00     0.194 HD
HETATM   15  C24 UNL     1      -4.791  47.644 -22.440  1.00  0.00     0.060 C 
HETATM   16  C25 UNL     1      -3.688  48.344 -23.224  1.00  0.00     0.020 C 
HETATM   17  C26 UNL     1      -4.048  49.790 -23.677  1.00  0.00    -0.016 C 
HETATM   18  C27 UNL     1      -5.133  49.724 -24.776  1.00  0.00     0.020 C 
HETATM   19  C28 UNL     1      -2.726  50.489 -24.194  1.00  0.00     0.002 C 
HETATM   20  C29 UNL     1      -2.191  49.891 -25.510  1.00  0.00     0.007 C 
HETATM   21  C30 UNL     1      -0.875  50.535 -25.951  1.00  0.00     0.014 C 
HETATM   22  C31 UNL     1      -0.949  52.079 -26.101  1.00  0.00     0.003 C 
HETATM   23  C32 UNL     1      -1.772  52.447 -27.352  1.00  0.00     0.020 C 
ENDROOT
BRANCH   3  24
HETATM   24  O1  UNL     1       0.353  54.119 -26.502  1.00  0.00    -0.377 OA
HETATM   25  H2  UNL     1       1.260  54.443 -26.634  1.00  0.00     0.211 HD
ENDBRANCH   3  24
BRANCH  13  26
HETATM   26  O2  UNL     1      -6.010  46.631 -20.272  1.00  0.00    -0.271 OA
BRANCH  26  27
HETATM   27  C13 UNL     1      -6.262  46.156 -18.953  1.00  0.00     0.303 C 
BRANCH  27  28
HETATM   28  C14 UNL     1      -7.762  46.052 -18.729  1.00  0.00     0.244 C 
HETATM   29  O3  UNL     1      -8.557  45.844 -19.641  1.00  0.00    -0.271 OA
HETATM   30  N2  UNL     1      -8.154  46.261 -17.423  1.00  0.00    -0.342 N 
HETATM   31  H16 UNL     1      -7.442  46.117 -16.707  1.00  0.00     0.163 HD
BRANCH  30  32
HETATM   32  C15 UNL     1      -9.552  46.107 -17.000  1.00  0.00     0.216 C 
BRANCH  32  33
HETATM   33  C16 UNL     1      -9.584  45.685 -15.531  1.00  0.00     0.166 C 
HETATM   34  O4  UNL     1      -8.948  44.762 -15.041  1.00  0.00    -0.648 OA
BRANCH  33  35
HETATM   35  O5  UNL     1     -10.420  46.415 -14.755  1.00  0.00    -0.775 OA
HETATM   36  H18 UNL     1     -10.300  46.048 -13.852  1.00  0.00     0.167 HD
ENDBRANCH  33  35
ENDBRANCH  32  33
BRANCH  32  37
HETATM   37  C17 UNL     1     -10.393  47.407 -17.112  1.00  0.00     0.184 C 
BRANCH  37  38
HETATM   38  O6  UNL     1     -10.370  48.153 -15.886  1.00  0.00    -0.388 OA
HETATM   39  H20 UNL     1      -9.438  48.370 -15.683  1.00  0.00     0.210 HD
ENDBRANCH  37  38
BRANCH  37  40
HETATM   40  C18 UNL     1     -11.858  47.175 -17.429  1.00  0.00    -0.025 A 
HETATM   41  C19 UNL     1     -12.689  46.512 -16.513  1.00  0.00     0.010 A 
HETATM   42  C20 UNL     1     -14.043  46.305 -16.789  1.00  0.00     0.003 A 
HETATM   43  C21 UNL     1     -14.592  46.765 -17.985  1.00  0.00     0.036 A 
HETATM   44  C22 UNL     1     -13.772  47.425 -18.909  1.00  0.00     0.103 A 
HETATM   45  C23 UNL     1     -12.412  47.625 -18.641  1.00  0.00     0.045 A 
BRANCH  44  46
HETATM   46  N3  UNL     1     -14.345  47.912 -20.170  1.00  0.00    -0.116 N 
HETATM   47  O7  UNL     1     -15.386  47.379 -20.581  1.00  0.00    -0.532 OA
HETATM   48  O8  UNL     1     -13.758  48.842 -20.747  1.00  0.00    -0.532 OA
ENDBRANCH  44  46
ENDBRANCH  37  40
ENDBRANCH  32  37
ENDBRANCH  30  32
ENDBRANCH  27  28
ENDBRANCH  26  27
ENDBRANCH  13  26
TORSDOF 11
ENDMDL
MODEL 5
REMARK minimizedAffinity -8.34456062
REMARK CNNscore 0.256580532
REMARK CNNaffinity 5.79076624
REMARK  11 active torsions:
REMARK  status: ('A' for Active; 'I' for Inactive)
REMARK    1  A    between atoms: C3_3  and  O1_4 
REMARK    2  A    between atoms: N1_14  and  O2_16 
REMARK    3  A    between atoms: O2_16  and  C13_17 
REMARK    4  A    between atoms: C13_17  and  C14_18 
REMARK       I    between atoms: C14_18  and  N2_20 
REMARK    5  A    between atoms: N2_20  and  C15_21 
REMARK    6  A    between atoms: C15_21  and  C16_22 
REMARK    7  A    between atoms: C15_21  and  C17_25 
REMARK    8  A    between atoms: C16_22  and  O5_24 
REMARK    9  A    between atoms: C17_25  and  O6_26 
REMARK   10  A    between atoms: C17_25  and  C18_27 
REMARK   11  A    between atoms: C22_31  and  N3_32 
ROOT
HETATM    1  C1  UNL     1      -0.122  51.691 -19.518  1.00  0.00     0.015 C 
HETATM    2  C2  UNL     1      -0.649  50.611 -19.560  1.00  0.00    -0.078 C 
HETATM    3  C3  UNL     1      -1.287  49.286 -19.608  1.00  0.00     0.128 C 
HETATM    4  C4  UNL     1      -0.990  48.545 -20.918  1.00  0.00     0.052 C 
HETATM    5  C5  UNL     1      -2.191  47.621 -21.160  1.00  0.00     0.010 C 
HETATM    6  C6  UNL     1      -3.194  47.890 -20.021  1.00  0.00     0.002 C 
HETATM    7  C7  UNL     1      -4.682  47.678 -20.375  1.00  0.00    -0.004 C 
HETATM    8  C8  UNL     1      -4.922  46.271 -20.936  1.00  0.00     0.010 C 
HETATM    9  C9  UNL     1      -6.404  46.022 -21.162  1.00  0.00     0.035 C 
HETATM   10  C10 UNL     1      -7.017  47.062 -22.069  1.00  0.00    -0.069 C 
HETATM   11  C11 UNL     1      -7.788  46.667 -23.097  1.00  0.00     0.030 C 
HETATM   12  C12 UNL     1      -8.560  47.629 -23.921  1.00  0.00     0.032 C 
HETATM   13  N1  UNL     1      -9.361  47.136 -24.824  1.00  0.00    -0.271 N 
ATOM     14  H1  UNL     1      -9.440  46.140 -25.034  1.00  0.00     0.194 HD
HETATM   15  C24 UNL     1      -8.439  49.103 -23.598  1.00  0.00     0.060 C 
HETATM   16  C25 UNL     1      -7.099  49.420 -22.946  1.00  0.00     0.020 C 
HETATM   17  C26 UNL     1      -6.764  48.530 -21.712  1.00  0.00    -0.016 C 
HETATM   18  C27 UNL     1      -7.704  48.904 -20.545  1.00  0.00     0.020 C 
HETATM   19  C28 UNL     1      -5.243  48.754 -21.341  1.00  0.00     0.002 C 
HETATM   20  C29 UNL     1      -4.949  50.159 -20.780  1.00  0.00     0.007 C 
HETATM   21  C30 UNL     1      -3.461  50.375 -20.495  1.00  0.00     0.014 C 
HETATM   22  C31 UNL     1      -2.844  49.319 -19.538  1.00  0.00     0.003 C 
HETATM   23  C32 UNL     1      -3.351  49.553 -18.100  1.00  0.00     0.020 C 
ENDROOT
BRANCH   3  24
HETATM   24  O1  UNL     1      -0.761  48.492 -18.542  1.00  0.00    -0.377 OA
HETATM   25  H2  UNL     1       0.202  48.623 -18.545  1.00  0.00     0.211 HD
ENDBRANCH   3  24
BRANCH  13  26
HETATM   26  O2  UNL     1     -10.099  48.135 -25.473  1.00  0.00    -0.271 OA
BRANCH  26  27
HETATM   27  C13 UNL     1     -10.667  47.577 -26.655  1.00  0.00     0.303 C 
BRANCH  27  28
HETATM   28  C14 UNL     1     -12.183  47.643 -26.570  1.00  0.00     0.244 C 
HETATM   29  O3  UNL     1     -12.857  48.371 -27.292  1.00  0.00    -0.271 OA
HETATM   30  N2  UNL     1     -12.728  46.854 -25.578  1.00  0.00    -0.342 N 
HETATM   31  H16 UNL     1     -12.155  46.076 -25.251  1.00  0.00     0.163 HD
BRANCH  30  32
HETATM   32  C15 UNL     1     -14.181  46.717 -25.409  1.00  0.00     0.216 C 
BRANCH  32  33
HETATM   33  C16 UNL     1     -14.658  45.490 -26.187  1.00  0.00     0.166 C 
HETATM   34  O4  UNL     1     -15.129  44.474 -25.696  1.00  0.00    -0.648 OA
BRANCH  33  35
HETATM   35  O5  UNL     1     -14.504  45.582 -27.530  1.00  0.00    -0.775 OA
HETATM   36  H18 UNL     1     -14.882  44.746 -27.878  1.00  0.00     0.167 HD
ENDBRANCH  33  35
ENDBRANCH  32  33
BRANCH  32  37
HETATM   37  C17 UNL     1     -14.629  46.515 -23.936  1.00  0.00     0.184 C 
BRANCH  37  38
HETATM   38  O6  UNL     1     -14.198  45.245 -23.426  1.00  0.00    -0.388 OA
HETATM   39  H20 UNL     1     -13.223  45.209 -23.491  1.00  0.00     0.210 HD
ENDBRANCH  37  38
BRANCH  37  40
HETATM   40  C18 UNL     1     -16.131  46.558 -23.731  1.00  0.00    -0.025 A 
HETATM   41  C19 UNL     1     -16.977  47.009 -24.757  1.00  0.00     0.010 A 
HETATM   42  C20 UNL     1     -18.363  47.039 -24.583  1.00  0.00     0.003 A 
HETATM   43  C21 UNL     1     -18.929  46.612 -23.384  1.00  0.00     0.036 A 
HETATM   44  C22 UNL     1     -18.095  46.164 -22.351  1.00  0.00     0.103 A 
HETATM   45  C23 UNL     1     -16.705  46.142 -22.516  1.00  0.00     0.045 A 
BRANCH  44  46
HETATM   46  N3  UNL     1     -18.685  45.712 -21.085  1.00  0.00    -0.116 N 
HETATM   47  O7  UNL     1     -18.174  46.111 -20.029  1.00  0.00    -0.532 OA
HETATM   48  O8  UNL     1     -19.673  44.963 -21.147  1.00  0.00    -0.532 OA
ENDBRANCH  44  46
ENDBRANCH  37  40
ENDBRANCH  32  37
ENDBRANCH  30  32
ENDBRANCH  27  28
ENDBRANCH  26  27
ENDBRANCH  13  26
TORSDOF 11
ENDMDL
MODEL 6
REMARK minimizedAffinity -9.93499756
REMARK CNNscore 0.204930052
REMARK CNNaffinity 6.63605499
REMARK  11 active torsions:
REMARK  status: ('A' for Active; 'I' for Inactive)
REMARK    1  A    between atoms: C3_3  and  O1_4 
REMARK    2  A    between atoms: N1_14  and  O2_16 
REMARK    3  A    between atoms: O2_16  and  C13_17 
REMARK    4  A    between atoms: C13_17  and  C14_18 
REMARK       I    between atoms: C14_18  and  N2_20 
REMARK    5  A    between atoms: N2_20  and  C15_21 
REMARK    6  A    between atoms: C15_21  and  C16_22 
REMARK    7  A    between atoms: C15_21  and  C17_25 
REMARK    8  A    between atoms: C16_22  and  O5_24 
REMARK    9  A    between atoms: C17_25  and  O6_26 
REMARK   10  A    between atoms: C17_25  and  C18_27 
REMARK   11  A    between atoms: C22_31  and  N3_32 
ROOT
HETATM    1  C1  UNL     1      -0.328  54.284 -27.763  1.00  0.00     0.015 C 
HETATM    2  C2  UNL     1      -0.849  53.292 -27.326  1.00  0.00    -0.078 C 
HETATM    3  C3  UNL     1      -1.488  52.076 -26.800  1.00  0.00     0.128 C 
HETATM    4  C4  UNL     1      -2.953  52.310 -26.413  1.00  0.00     0.052 C 
HETATM    5  C5  UNL     1      -3.256  51.310 -25.289  1.00  0.00     0.010 C 
HETATM    6  C6  UNL     1      -1.943  50.558 -24.999  1.00  0.00     0.002 C 
HETATM    7  C7  UNL     1      -1.760  50.065 -23.547  1.00  0.00    -0.004 C 
HETATM    8  C8  UNL     1      -2.946  49.200 -23.103  1.00  0.00     0.010 C 
HETATM    9  C9  UNL     1      -2.702  48.611 -21.722  1.00  0.00     0.035 C 
HETATM   10  C10 UNL     1      -2.420  49.683 -20.697  1.00  0.00    -0.069 C 
HETATM   11  C11 UNL     1      -3.076  49.661 -19.524  1.00  0.00     0.030 C 
HETATM   12  C12 UNL     1      -2.728  50.573 -18.406  1.00  0.00     0.032 C 
HETATM   13  N1  UNL     1      -3.352  50.398 -17.275  1.00  0.00    -0.271 N 
ATOM     14  H1  UNL     1      -4.098  49.716 -17.134  1.00  0.00     0.194 HD
HETATM   15  C24 UNL     1      -1.615  51.577 -18.625  1.00  0.00     0.060 C 
HETATM   16  C25 UNL     1      -1.476  51.938 -20.098  1.00  0.00     0.020 C 
HETATM   17  C26 UNL     1      -1.338  50.710 -21.045  1.00  0.00    -0.016 C 
HETATM   18  C27 UNL     1       0.038  50.046 -20.820  1.00  0.00     0.020 C 
HETATM   19  C28 UNL     1      -1.514  51.214 -22.535  1.00  0.00     0.002 C 
HETATM   20  C29 UNL     1      -0.350  52.098 -23.024  1.00  0.00     0.007 C 
HETATM   21  C30 UNL     1      -0.577  52.630 -24.441  1.00  0.00     0.014 C 
HETATM   22  C31 UNL     1      -0.836  51.521 -25.496  1.00  0.00     0.003 C 
HETATM   23  C32 UNL     1       0.470  50.755 -25.786  1.00  0.00     0.020 C 
ENDROOT
BRANCH   3  24
HETATM   24  O1  UNL     1      -1.473  51.078 -27.823  1.00  0.00    -0.377 OA
HETATM   25  H2  UNL     1      -1.752  51.516 -28.645  1.00  0.00     0.211 HD
ENDBRANCH   3  24
BRANCH  13  26
HETATM   26  O2  UNL     1      -2.875  51.257 -16.274  1.00  0.00    -0.271 OA
BRANCH  26  27
HETATM   27  C13 UNL     1      -2.552  50.474 -15.129  1.00  0.00     0.303 C 
BRANCH  27  28
HETATM   28  C14 UNL     1      -2.022  51.378 -14.028  1.00  0.00     0.244 C 
HETATM   29  O3  UNL     1      -0.844  51.714 -13.955  1.00  0.00    -0.271 OA
HETATM   30  N2  UNL     1      -2.968  51.744 -13.094  1.00  0.00    -0.342 N 
HETATM   31  H16 UNL     1      -3.943  51.688 -13.389  1.00  0.00     0.163 HD
BRANCH  30  32
HETATM   32  C15 UNL     1      -2.662  52.690 -12.012  1.00  0.00     0.216 C 
BRANCH  32  33
HETATM   33  C16 UNL     1      -3.921  52.911 -11.173  1.00  0.00     0.166 C 
HETATM   34  O4  UNL     1      -4.213  53.943 -10.585  1.00  0.00    -0.648 OA
BRANCH  33  35
HETATM   35  O5  UNL     1      -4.736  51.833 -11.090  1.00  0.00    -0.775 OA
HETATM   36  H18 UNL     1      -5.500  52.143 -10.556  1.00  0.00     0.167 HD
ENDBRANCH  33  35
ENDBRANCH  32  33
BRANCH  32  37
HETATM   37  C17 UNL     1      -1.555  52.200 -11.039  1.00  0.00     0.184 C 
BRANCH  37  38
HETATM   38  O6  UNL     1      -2.118  51.571  -9.879  1.00  0.00    -0.388 OA
HETATM   39  H20 UNL     1      -2.662  50.816 -10.179  1.00  0.00     0.210 HD
ENDBRANCH  37  38
BRANCH  37  40
HETATM   40  C18 UNL     1      -0.653  53.303 -10.518  1.00  0.00    -0.025 A 
HETATM   41  C19 UNL     1       0.456  53.728 -11.266  1.00  0.00     0.010 A 
HETATM   42  C20 UNL     1       1.286  54.752 -10.801  1.00  0.00     0.003 A 
HETATM   43  C21 UNL     1       1.016  55.374  -9.584  1.00  0.00     0.036 A 
HETATM   44  C22 UNL     1      -0.086  54.956  -8.827  1.00  0.00     0.103 A 
HETATM   45  C23 UNL     1      -0.914  53.923  -9.283  1.00  0.00     0.045 A 
BRANCH  44  46
HETATM   46  N3  UNL     1      -0.376  55.609  -7.544  1.00  0.00    -0.116 N 
HETATM   47  O7  UNL     1      -0.627  54.888  -6.567  1.00  0.00    -0.532 OA
HETATM   48  O8  UNL     1      -0.340  56.849  -7.509  1.00  0.00    -0.532 OA
ENDBRANCH  44  46
ENDBRANCH  37  40
ENDBRANCH  32  37
ENDBRANCH  30  32
ENDBRANCH  27  28
ENDBRANCH  26  27
ENDBRANCH  13  26
TORSDOF 11
ENDMDL
MODEL 7
REMARK minimizedAffinity -8.36904812
REMARK CNNscore 0.192162305
REMARK CNNaffinity 5.97494268
REMARK  11 active torsions:
REMARK  status: ('A' for Active; 'I' for Inactive)
REMARK    1  A    between atoms: C3_3  and  O1_4 
REMARK    2  A    between atoms: N1_14  and  O2_16 
REMARK    3  A    between atoms: O2_16  and  C13_17 
REMARK    4  A    between atoms: C13_17  and  C14_18 
REMARK       I    between atoms: C14_18  and  N2_20 
REMARK    5  A    between atoms: N2_20  and  C15_21 
REMARK    6  A    between atoms: C15_21  and  C16_22 
REMARK    7  A    between atoms: C15_21  and  C17_25 
REMARK    8  A    between atoms: C16_22  and  O5_24 
REMARK    9  A    between atoms: C17_25  and  O6_26 
REMARK   10  A    between atoms: C17_25  and  C18_27 
REMARK   11  A    between atoms: C22_31  and  N3_32 
ROOT
HETATM    1  C1  UNL     1      -0.885  51.075 -24.291  1.00  0.00     0.015 C 
HETATM    2  C2  UNL     1      -1.581  50.711 -23.381  1.00  0.00    -0.078 C 
HETATM    3  C3  UNL     1      -2.440  50.264 -22.273  1.00  0.00     0.128 C 
HETATM    4  C4  UNL     1      -3.314  51.397 -21.722  1.00  0.00     0.052 C 
HETATM    5  C5  UNL     1      -3.565  51.055 -20.246  1.00  0.00     0.010 C 
HETATM    6  C6  UNL     1      -2.778  49.764 -19.952  1.00  0.00     0.002 C 
HETATM    7  C7  UNL     1      -2.274  49.602 -18.500  1.00  0.00    -0.004 C 
HETATM    8  C8  UNL     1      -3.427  49.731 -17.498  1.00  0.00     0.010 C 
HETATM    9  C9  UNL     1      -2.951  49.444 -16.082  1.00  0.00     0.035 C 
HETATM   10  C10 UNL     1      -1.804  50.341 -15.684  1.00  0.00    -0.069 C 
HETATM   11  C11 UNL     1      -1.846  50.976 -14.499  1.00  0.00     0.030 C 
HETATM   12  C12 UNL     1      -0.686  51.732 -13.966  1.00  0.00     0.032 C 
HETATM   13  N1  UNL     1      -0.793  52.220 -12.761  1.00  0.00    -0.271 N 
ATOM     14  H1  UNL     1      -1.640  52.163 -12.195  1.00  0.00     0.194 HD
HETATM   15  C24 UNL     1       0.568  51.805 -14.811  1.00  0.00     0.060 C 
HETATM   16  C25 UNL     1       0.245  51.669 -16.294  1.00  0.00     0.020 C 
HETATM   17  C26 UNL     1      -0.617  50.421 -16.647  1.00  0.00    -0.016 C 
HETATM   18  C27 UNL     1       0.235  49.145 -16.460  1.00  0.00     0.020 C 
HETATM   19  C28 UNL     1      -1.124  50.578 -18.138  1.00  0.00     0.002 C 
HETATM   20  C29 UNL     1       0.002  50.467 -19.184  1.00  0.00     0.007 C 
HETATM   21  C30 UNL     1      -0.503  50.692 -20.611  1.00  0.00     0.014 C 
HETATM   22  C31 UNL     1      -1.662  49.745 -21.026  1.00  0.00     0.003 C 
HETATM   23  C32 UNL     1      -1.124  48.316 -21.236  1.00  0.00     0.020 C 
ENDROOT
BRANCH   3  24
HETATM   24  O1  UNL     1      -3.320  49.250 -22.764  1.00  0.00    -0.377 OA
HETATM   25  H2  UNL     1      -3.666  49.568 -23.615  1.00  0.00     0.211 HD
ENDBRANCH   3  24
BRANCH  13  26
HETATM   26  O2  UNL     1       0.395  52.831 -12.336  1.00  0.00    -0.271 OA
BRANCH  26  27
HETATM   27  C13 UNL     1       0.077  53.751 -11.295  1.00  0.00     0.303 C 
BRANCH  27  28
HETATM   28  C14 UNL     1       1.354  54.182 -10.592  1.00  0.00     0.244 C 
HETATM   29  O3  UNL     1       1.986  53.438  -9.848  1.00  0.00    -0.271 OA
HETATM   30  N2  UNL     1       1.709  55.495 -10.822  1.00  0.00    -0.342 N 
HETATM   31  H16 UNL     1       1.327  55.928 -11.662  1.00  0.00     0.163 HD
BRANCH  30  32
HETATM   32  C15 UNL     1       2.962  56.061 -10.302  1.00  0.00     0.216 C 
BRANCH  32  33
HETATM   33  C16 UNL     1       2.926  56.026  -8.774  1.00  0.00     0.166 C 
HETATM   34  O4  UNL     1       2.573  55.074  -8.091  1.00  0.00    -0.648 OA
BRANCH  33  35
HETATM   35  O5  UNL     1       3.308  57.180  -8.176  1.00  0.00    -0.775 OA
HETATM   36  H18 UNL     1       3.263  56.985  -7.215  1.00  0.00     0.167 HD
ENDBRANCH  33  35
ENDBRANCH  32  33
BRANCH  32  37
HETATM   37  C17 UNL     1       4.233  55.285 -10.740  1.00  0.00     0.184 C 
BRANCH  37  38
HETATM   38  O6  UNL     1       3.902  54.160 -11.567  1.00  0.00    -0.388 OA
HETATM   39  H20 UNL     1       3.423  54.494 -12.351  1.00  0.00     0.210 HD
ENDBRANCH  37  38
BRANCH  37  40
HETATM   40  C18 UNL     1       5.049  54.728  -9.588  1.00  0.00    -0.025 A 
HETATM   41  C19 UNL     1       5.170  53.341  -9.407  1.00  0.00     0.010 A 
HETATM   42  C20 UNL     1       5.930  52.818  -8.358  1.00  0.00     0.003 A 
HETATM   43  C21 UNL     1       6.589  53.672  -7.476  1.00  0.00     0.036 A 
HETATM   44  C22 UNL     1       6.472  55.057  -7.643  1.00  0.00     0.103 A 
HETATM   45  C23 UNL     1       5.703  55.587  -8.687  1.00  0.00     0.045 A 
BRANCH  44  46
HETATM   46  N3  UNL     1       7.164  55.962  -6.717  1.00  0.00    -0.116 N 
HETATM   47  O7  UNL     1       6.567  56.983  -6.345  1.00  0.00    -0.532 OA
HETATM   48  O8  UNL     1       8.307  55.645  -6.351  1.00  0.00    -0.532 OA
ENDBRANCH  44  46
ENDBRANCH  37  40
ENDBRANCH  32  37
ENDBRANCH  30  32
ENDBRANCH  27  28
ENDBRANCH  26  27
ENDBRANCH  13  26
TORSDOF 11
ENDMDL
MODEL 8
REMARK minimizedAffinity -8.53630638
REMARK CNNscore 0.190930992
REMARK CNNaffinity 6.23237848
REMARK  11 active torsions:
REMARK  status: ('A' for Active; 'I' for Inactive)
REMARK    1  A    between atoms: C3_3  and  O1_4 
REMARK    2  A    between atoms: N1_14  and  O2_16 
REMARK    3  A    between atoms: O2_16  and  C13_17 
REMARK    4  A    between atoms: C13_17  and  C14_18 
REMARK       I    between atoms: C14_18  and  N2_20 
REMARK    5  A    between atoms: N2_20  and  C15_21 
REMARK    6  A    between atoms: C15_21  and  C16_22 
REMARK    7  A    between atoms: C15_21  and  C17_25 
REMARK    8  A    between atoms: C16_22  and  O5_24 
REMARK    9  A    between atoms: C17_25  and  O6_26 
REMARK   10  A    between atoms: C17_25  and  C18_27 
REMARK   11  A    between atoms: C22_31  and  N3_32 
ROOT
HETATM    1  C1  UNL     1       0.157  51.757 -28.213  1.00  0.00     0.015 C 
HETATM    2  C2  UNL     1      -0.051  52.130 -27.089  1.00  0.00    -0.078 C 
HETATM    3  C3  UNL     1      -0.303  52.595 -25.716  1.00  0.00     0.128 C 
HETATM    4  C4  UNL     1       0.874  52.300 -24.778  1.00  0.00     0.052 C 
HETATM    5  C5  UNL     1       0.266  52.142 -23.377  1.00  0.00     0.010 C 
HETATM    6  C6  UNL     1      -1.260  52.282 -23.538  1.00  0.00     0.002 C 
HETATM    7  C7  UNL     1      -2.117  51.496 -22.522  1.00  0.00    -0.004 C 
HETATM    8  C8  UNL     1      -1.727  51.849 -21.081  1.00  0.00     0.010 C 
HETATM    9  C9  UNL     1      -2.656  51.174 -20.085  1.00  0.00     0.035 C 
HETATM   10  C10 UNL     1      -2.684  49.676 -20.271  1.00  0.00    -0.069 C 
HETATM   11  C11 UNL     1      -2.541  48.877 -19.199  1.00  0.00     0.030 C 
HETATM   12  C12 UNL     1      -2.730  47.407 -19.278  1.00  0.00     0.032 C 
HETATM   13  N1  UNL     1      -2.675  46.736 -18.162  1.00  0.00    -0.271 N 
ATOM     14  H1  UNL     1      -2.453  47.151 -17.257  1.00  0.00     0.194 HD
HETATM   15  C24 UNL     1      -3.065  46.802 -20.625  1.00  0.00     0.060 C 
HETATM   16  C25 UNL     1      -2.528  47.657 -21.767  1.00  0.00     0.020 C 
HETATM   17  C26 UNL     1      -2.941  49.156 -21.689  1.00  0.00    -0.016 C 
HETATM   18  C27 UNL     1      -4.454  49.282 -21.975  1.00  0.00     0.020 C 
HETATM   19  C28 UNL     1      -2.073  49.962 -22.739  1.00  0.00     0.002 C 
HETATM   20  C29 UNL     1      -2.421  49.633 -24.203  1.00  0.00     0.007 C 
HETATM   21  C30 UNL     1      -1.522  50.371 -25.197  1.00  0.00     0.014 C 
HETATM   22  C31 UNL     1      -1.521  51.914 -25.020  1.00  0.00     0.003 C 
HETATM   23  C32 UNL     1      -2.862  52.500 -25.505  1.00  0.00     0.020 C 
ENDROOT
BRANCH   3  24
HETATM   24  O1  UNL     1      -0.479  54.014 -25.743  1.00  0.00    -0.377 OA
HETATM   25  H2  UNL     1       0.226  54.371 -26.309  1.00  0.00     0.211 HD
ENDBRANCH   3  24
BRANCH  13  26
HETATM   26  O2  UNL     1      -2.958  45.376 -18.352  1.00  0.00    -0.271 OA
BRANCH  26  27
HETATM   27  C13 UNL     1      -3.708  44.914 -17.233  1.00  0.00     0.303 C 
BRANCH  27  28
HETATM   28  C14 UNL     1      -5.185  44.881 -17.590  1.00  0.00     0.244 C 
HETATM   29  O3  UNL     1      -5.609  44.354 -18.615  1.00  0.00    -0.271 OA
HETATM   30  N2  UNL     1      -5.998  45.538 -16.690  1.00  0.00    -0.342 N 
HETATM   31  H16 UNL     1      -5.624  45.666 -15.750  1.00  0.00     0.163 HD
BRANCH  30  32
HETATM   32  C15 UNL     1      -7.462  45.531 -16.821  1.00  0.00     0.216 C 
BRANCH  32  33
HETATM   33  C16 UNL     1      -8.043  44.520 -15.832  1.00  0.00     0.166 C 
HETATM   34  O4  UNL     1      -9.106  43.928 -15.961  1.00  0.00    -0.648 OA
BRANCH  33  35
HETATM   35  O5  UNL     1      -7.288  44.317 -14.727  1.00  0.00    -0.775 OA
HETATM   36  H18 UNL     1      -7.773  43.629 -14.221  1.00  0.00     0.167 HD
ENDBRANCH  33  35
ENDBRANCH  32  33
BRANCH  32  37
HETATM   37  C17 UNL     1      -8.130  46.897 -16.511  1.00  0.00     0.184 C 
BRANCH  37  38
HETATM   38  O6  UNL     1      -8.715  46.909 -15.200  1.00  0.00    -0.388 OA
HETATM   39  H20 UNL     1      -8.006  46.725 -14.552  1.00  0.00     0.210 HD
ENDBRANCH  37  38
BRANCH  37  40
HETATM   40  C18 UNL     1      -9.245  47.275 -17.467  1.00  0.00    -0.025 A 
HETATM   41  C19 UNL     1      -8.954  47.644 -18.790  1.00  0.00     0.010 A 
HETATM   42  C20 UNL     1      -9.975  47.981 -19.682  1.00  0.00     0.003 A 
HETATM   43  C21 UNL     1     -11.305  47.948 -19.271  1.00  0.00     0.036 A 
HETATM   44  C22 UNL     1     -11.608  47.585 -17.952  1.00  0.00     0.103 A 
HETATM   45  C23 UNL     1     -10.588  47.257 -17.050  1.00  0.00     0.045 A 
BRANCH  44  46
HETATM   46  N3  UNL     1     -13.009  47.547 -17.513  1.00  0.00    -0.116 N 
HETATM   47  O7  UNL     1     -13.875  47.964 -18.294  1.00  0.00    -0.532 OA
HETATM   48  O8  UNL     1     -13.244  47.088 -16.384  1.00  0.00    -0.532 OA
ENDBRANCH  44  46
ENDBRANCH  37  40
ENDBRANCH  32  37
ENDBRANCH  30  32
ENDBRANCH  27  28
ENDBRANCH  26  27
ENDBRANCH  13  26
TORSDOF 11
ENDMDL
MODEL 9
REMARK minimizedAffinity -9.17410088
REMARK CNNscore 0.190353632
REMARK CNNaffinity 5.89474106
REMARK  11 active torsions:
REMARK  status: ('A' for Active; 'I' for Inactive)
REMARK    1  A    between atoms: C3_3  and  O1_4 
REMARK    2  A    between atoms: N1_14  and  O2_16 
REMARK    3  A    between atoms: O2_16  and  C13_17 
REMARK    4  A    between atoms: C13_17  and  C14_18 
REMARK       I    between atoms: C14_18  and  N2_20 
REMARK    5  A    between atoms: N2_20  and  C15_21 
REMARK    6  A    between atoms: C15_21  and  C16_22 
REMARK    7  A    between atoms: C15_21  and  C17_25 
REMARK    8  A    between atoms: C16_22  and  O5_24 
REMARK    9  A    between atoms: C17_25  and  O6_26 
REMARK   10  A    between atoms: C17_25  and  C18_27 
REMARK   11  A    between atoms: C22_31  and  N3_32 
ROOT
HETATM    1  C1  UNL     1       0.004  53.634 -19.599  1.00  0.00     0.015 C 
HETATM    2  C2  UNL     1      -0.060  52.977 -20.604  1.00  0.00    -0.078 C 
HETATM    3  C3  UNL     1      -0.130  52.176 -21.836  1.00  0.00     0.128 C 
HETATM    4  C4  UNL     1      -0.699  52.972 -23.016  1.00  0.00     0.052 C 
HETATM    5  C5  UNL     1      -1.373  51.941 -23.933  1.00  0.00     0.010 C 
HETATM    6  C6  UNL     1      -1.239  50.574 -23.236  1.00  0.00     0.002 C 
HETATM    7  C7  UNL     1      -2.369  49.561 -23.524  1.00  0.00    -0.004 C 
HETATM    8  C8  UNL     1      -2.544  49.344 -25.032  1.00  0.00     0.010 C 
HETATM    9  C9  UNL     1      -3.566  48.253 -25.309  1.00  0.00     0.035 C 
HETATM   10  C10 UNL     1      -4.897  48.554 -24.663  1.00  0.00    -0.069 C 
HETATM   11  C11 UNL     1      -6.022  48.442 -25.390  1.00  0.00     0.030 C 
HETATM   12  C12 UNL     1      -7.371  48.551 -24.781  1.00  0.00     0.032 C 
HETATM   13  N1  UNL     1      -8.396  48.320 -25.553  1.00  0.00    -0.271 N 
ATOM     14  H1  UNL     1      -8.326  48.129 -26.553  1.00  0.00     0.194 HD
HETATM   15  C24 UNL     1      -7.462  48.829 -23.296  1.00  0.00     0.060 C 
HETATM   16  C25 UNL     1      -6.236  49.581 -22.795  1.00  0.00     0.020 C 
HETATM   17  C26 UNL     1      -4.881  48.914 -23.174  1.00  0.00    -0.016 C 
HETATM   18  C27 UNL     1      -4.716  47.605 -22.370  1.00  0.00     0.020 C 
HETATM   19  C28 UNL     1      -3.720  49.946 -22.868  1.00  0.00     0.002 C 
HETATM   20  C29 UNL     1      -3.512  50.205 -21.363  1.00  0.00     0.007 C 
HETATM   21  C30 UNL     1      -2.434  51.258 -21.096  1.00  0.00     0.014 C 
HETATM   22  C31 UNL     1      -1.059  50.927 -21.738  1.00  0.00     0.003 C 
HETATM   23  C32 UNL     1      -0.388  49.767 -20.976  1.00  0.00     0.020 C 
ENDROOT
BRANCH   3  24
HETATM   24  O1  UNL     1       1.196  51.777 -22.192  1.00  0.00    -0.377 OA
HETATM   25  H2  UNL     1       1.759  52.564 -22.097  1.00  0.00     0.211 HD
ENDBRANCH   3  24
BRANCH  13  26
HETATM   26  O2  UNL     1      -9.606  48.364 -24.846  1.00  0.00    -0.271 OA
BRANCH  26  27
HETATM   27  C13 UNL     1     -10.155  47.050 -24.814  1.00  0.00     0.303 C 
BRANCH  27  28
HETATM   28  C14 UNL     1     -11.651  47.118 -25.069  1.00  0.00     0.244 C 
HETATM   29  O3  UNL     1     -12.147  47.855 -25.916  1.00  0.00    -0.271 OA
HETATM   30  N2  UNL     1     -12.403  46.320 -24.233  1.00  0.00    -0.342 N 
HETATM   31  H16 UNL     1     -11.918  45.538 -23.795  1.00  0.00     0.163 HD
BRANCH  30  32
HETATM   32  C15 UNL     1     -13.858  46.184 -24.395  1.00  0.00     0.216 C 
BRANCH  32  33
HETATM   33  C16 UNL     1     -14.264  44.749 -24.055  1.00  0.00     0.166 C 
HETATM   34  O4  UNL     1     -14.993  44.037 -24.731  1.00  0.00    -0.648 OA
BRANCH  33  35
HETATM   35  O5  UNL     1     -13.763  44.286 -22.886  1.00  0.00    -0.775 OA
HETATM   36  H18 UNL     1     -14.082  43.359 -22.832  1.00  0.00     0.167 HD
ENDBRANCH  33  35
ENDBRANCH  32  33
BRANCH  32  37
HETATM   37  C17 UNL     1     -14.685  47.115 -23.468  1.00  0.00     0.184 C 
BRANCH  37  38
HETATM   38  O6  UNL     1     -14.211  47.064 -22.115  1.00  0.00    -0.388 OA
HETATM   39  H20 UNL     1     -13.271  47.334 -22.114  1.00  0.00     0.210 HD
ENDBRANCH  37  38
BRANCH  37  40
HETATM   40  C18 UNL     1     -16.163  46.776 -23.404  1.00  0.00    -0.025 A 
HETATM   41  C19 UNL     1     -17.007  47.065 -24.488  1.00  0.00     0.010 A 
HETATM   42  C20 UNL     1     -18.366  46.744 -24.445  1.00  0.00     0.003 A 
HETATM   43  C21 UNL     1     -18.904  46.122 -23.320  1.00  0.00     0.036 A 
HETATM   44  C22 UNL     1     -18.072  45.833 -22.231  1.00  0.00     0.103 A 
HETATM   45  C23 UNL     1     -16.712  46.162 -22.264  1.00  0.00     0.045 A 
BRANCH  44  46
HETATM   46  N3  UNL     1     -18.633  45.176 -21.043  1.00  0.00    -0.116 N 
HETATM   47  O7  UNL     1     -18.206  44.052 -20.743  1.00  0.00    -0.532 OA
HETATM   48  O8  UNL     1     -19.498  45.793 -20.400  1.00  0.00    -0.532 OA
ENDBRANCH  44  46
ENDBRANCH  37  40
ENDBRANCH  32  37
ENDBRANCH  30  32
ENDBRANCH  27  28
ENDBRANCH  26  27
ENDBRANCH  13  26
TORSDOF 11
ENDMDL
