MODEL 1
REMARK minimizedAffinity -7.18861818
REMARK CNNscore 0.667711377
REMARK CNNaffinity 7.27363253
REMARK  7 active torsions:
REMARK  status: ('A' for Active; 'I' for Inactive)
REMARK    1  A    between atoms: C2_2  and  C30_32 
REMARK    2  A    between atoms: C3_3  and  C4_4 
REMARK    3  A    between atoms: C4_4  and  O1_5 
REMARK    4  A    between atoms: C4_4  and  C5_6 
REMARK    5  A    between atoms: C5_6  and  C6_7 
REMARK    6  A    between atoms: C6_7  and  C8_9 
REMARK    7  A    between atoms: C30_32  and  O4_34 
ROOT
HETATM    1  C8  UNL     1      -1.531  51.935 -10.727  1.00  0.00    -0.002 C 
HETATM    2  C9  UNL     1      -0.792  50.601 -11.071  1.00  0.00     0.007 C 
HETATM    3  C10 UNL     1       0.716  50.832 -10.843  1.00  0.00     0.015 C 
HETATM    4  C11 UNL     1       0.782  52.153 -10.058  1.00  0.00    -0.013 C 
HETATM    5  C12 UNL     1       0.483  51.782  -8.561  1.00  0.00     0.021 C 
HETATM    6  C13 UNL     1       2.104  52.924 -10.026  1.00  0.00    -0.070 C 
HETATM    7  C14 UNL     1       3.267  52.280  -9.817  1.00  0.00    -0.022 C 
HETATM    8  C15 UNL     1       4.522  52.963  -9.369  1.00  0.00     0.034 C 
HETATM    9  C16 UNL     1       4.197  54.301  -8.668  1.00  0.00     0.013 C 
HETATM   10  C17 UNL     1       5.433  54.945  -7.941  1.00  0.00     0.018 C 
HETATM   11  C18 UNL     1       5.791  54.080  -6.702  1.00  0.00     0.023 C 
HETATM   12  C19 UNL     1       6.714  55.069  -8.781  1.00  0.00     0.023 C 
HETATM   13  C20 UNL     1       5.055  56.348  -7.442  1.00  0.00     0.135 C 
HETATM   14  O2  UNL     1       5.368  56.763  -6.326  1.00  0.00    -0.297 OA
HETATM   15  C21 UNL     1       4.330  57.254  -8.406  1.00  0.00     0.080 C 
HETATM   16  C22 UNL     1       3.076  56.562  -8.914  1.00  0.00     0.017 C 
HETATM   17  C23 UNL     1       3.355  55.216  -9.626  1.00  0.00    -0.031 C 
HETATM   18  C24 UNL     1       4.100  55.520 -10.959  1.00  0.00     0.016 C 
HETATM   19  C25 UNL     1       2.009  54.460 -10.043  1.00  0.00     0.024 C 
HETATM   20  C26 UNL     1       0.703  54.921  -9.360  1.00  0.00     0.010 C 
HETATM   21  C27 UNL     1      -0.586  54.279  -9.945  1.00  0.00     0.011 C 
HETATM   22  C28 UNL     1      -0.362  52.976 -10.752  1.00  0.00    -0.029 C 
HETATM   23  C29 UNL     1      -0.072  53.320 -12.249  1.00  0.00     0.016 C 
ENDROOT
BRANCH   1  24
HETATM   24  C6  UNL     1      -2.800  52.148 -11.612  1.00  0.00    -0.011 C 
HETATM   25  C7  UNL     1      -4.057  52.390 -10.770  1.00  0.00     0.010 C 
BRANCH  24  26
HETATM   26  C5  UNL     1      -3.005  50.913 -12.539  1.00  0.00     0.040 C 
BRANCH  26  27
HETATM   27  C4  UNL     1      -3.090  51.226 -14.044  1.00  0.00     0.142 C 
BRANCH  27  28
HETATM   28  C3  UNL     1      -1.772  50.977 -14.735  1.00  0.00     0.018 C 
HETATM   29  C2  UNL     1      -1.571  50.677 -16.034  1.00  0.00     0.010 C 
HETATM   30  C1  UNL     1      -0.210  50.524 -16.639  1.00  0.00     0.055 C 
BRANCH  29  31
HETATM   31  C30 UNL     1      -2.686  50.491 -16.986  1.00  0.00     0.171 C 
HETATM   32  O3  UNL     1      -3.466  49.558 -16.984  1.00  0.00    -0.646 OA
BRANCH  31  33
HETATM   33  O4  UNL     1      -2.810  51.532 -17.828  1.00  0.00    -0.773 OA
HETATM   34  H46 UNL     1      -3.542  51.265 -18.420  1.00  0.00     0.167 HD
ENDBRANCH  31  33
ENDBRANCH  29  31
ENDBRANCH  27  28
BRANCH  27  35
HETATM   35  O1  UNL     1      -3.463  52.589 -14.206  1.00  0.00    -0.392 OA
HETATM   36  H6  UNL     1      -2.722  53.135 -13.891  1.00  0.00     0.210 HD
ENDBRANCH  27  35
ENDBRANCH  26  27
ENDBRANCH  24  26
ENDBRANCH   1  24
TORSDOF 7
ENDMDL
MODEL 2
REMARK minimizedAffinity -7.24827194
REMARK CNNscore 0.607735753
REMARK CNNaffinity 6.96526575
REMARK  7 active torsions:
REMARK  status: ('A' for Active; 'I' for Inactive)
REMARK    1  A    between atoms: C2_2  and  C30_32 
REMARK    2  A    between atoms: C3_3  and  C4_4 
REMARK    3  A    between atoms: C4_4  and  O1_5 
REMARK    4  A    between atoms: C4_4  and  C5_6 
REMARK    5  A    between atoms: C5_6  and  C6_7 
REMARK    6  A    between atoms: C6_7  and  C8_9 
REMARK    7  A    between atoms: C30_32  and  O4_34 
ROOT
HETATM    1  C8  UNL     1      -1.785  52.244 -11.013  1.00  0.00    -0.002 C 
HETATM    2  C9  UNL     1      -1.258  52.338 -12.482  1.00  0.00     0.007 C 
HETATM    3  C10 UNL     1       0.182  52.892 -12.425  1.00  0.00     0.015 C 
HETATM    4  C11 UNL     1       0.572  52.780 -10.942  1.00  0.00    -0.013 C 
HETATM    5  C12 UNL     1       1.003  51.285 -10.720  1.00  0.00     0.021 C 
HETATM    6  C13 UNL     1       1.744  53.618 -10.426  1.00  0.00    -0.070 C 
HETATM    7  C14 UNL     1       2.887  53.706 -11.131  1.00  0.00    -0.022 C 
HETATM    8  C15 UNL     1       4.193  54.142 -10.541  1.00  0.00     0.034 C 
HETATM    9  C16 UNL     1       4.197  53.936  -9.010  1.00  0.00     0.013 C 
HETATM   10  C17 UNL     1       5.615  54.120  -8.357  1.00  0.00     0.018 C 
HETATM   11  C18 UNL     1       6.521  52.934  -8.783  1.00  0.00     0.023 C 
HETATM   12  C19 UNL     1       6.363  55.408  -8.734  1.00  0.00     0.023 C 
HETATM   13  C20 UNL     1       5.478  54.081  -6.827  1.00  0.00     0.135 C 
HETATM   14  O2  UNL     1       6.260  53.462  -6.106  1.00  0.00    -0.297 OA
HETATM   15  C21 UNL     1       4.372  54.900  -6.209  1.00  0.00     0.080 C 
HETATM   16  C22 UNL     1       3.040  54.510  -6.828  1.00  0.00     0.017 C 
HETATM   17  C23 UNL     1       2.990  54.703  -8.364  1.00  0.00    -0.031 C 
HETATM   18  C24 UNL     1       3.032  56.230  -8.661  1.00  0.00     0.016 C 
HETATM   19  C25 UNL     1       1.619  54.174  -8.996  1.00  0.00     0.024 C 
HETATM   20  C26 UNL     1       0.764  53.226  -8.128  1.00  0.00     0.010 C 
HETATM   21  C27 UNL     1      -0.636  52.903  -8.722  1.00  0.00     0.011 C 
HETATM   22  C28 UNL     1      -0.780  53.165 -10.241  1.00  0.00    -0.029 C 
HETATM   23  C29 UNL     1      -1.218  54.646 -10.488  1.00  0.00     0.016 C 
ENDROOT
BRANCH   1  24
HETATM   24  C6  UNL     1      -3.322  52.500 -10.923  1.00  0.00    -0.011 C 
HETATM   25  C7  UNL     1      -3.645  53.891 -10.367  1.00  0.00     0.010 C 
BRANCH  24  26
HETATM   26  C5  UNL     1      -3.984  51.402 -10.037  1.00  0.00     0.040 C 
BRANCH  26  27
HETATM   27  C4  UNL     1      -4.825  50.360 -10.797  1.00  0.00     0.142 C 
BRANCH  27  28
HETATM   28  C3  UNL     1      -5.232  49.219  -9.898  1.00  0.00     0.018 C 
HETATM   29  C2  UNL     1      -6.483  48.781  -9.645  1.00  0.00     0.010 C 
HETATM   30  C1  UNL     1      -6.776  47.585  -8.793  1.00  0.00     0.055 C 
BRANCH  29  31
HETATM   31  C30 UNL     1      -7.681  49.438 -10.208  1.00  0.00     0.171 C 
HETATM   32  O3  UNL     1      -8.207  49.156 -11.269  1.00  0.00    -0.646 OA
BRANCH  31  33
HETATM   33  O4  UNL     1      -8.199  50.349  -9.367  1.00  0.00    -0.773 OA
HETATM   34  H46 UNL     1      -8.945  50.732  -9.870  1.00  0.00     0.167 HD
ENDBRANCH  31  33
ENDBRANCH  29  31
ENDBRANCH  27  28
BRANCH  27  35
HETATM   35  O1  UNL     1      -4.056  49.858 -11.884  1.00  0.00    -0.392 OA
HETATM   36  H6  UNL     1      -3.320  49.344 -11.510  1.00  0.00     0.210 HD
ENDBRANCH  27  35
ENDBRANCH  26  27
ENDBRANCH  24  26
ENDBRANCH   1  24
TORSDOF 7
ENDMDL
MODEL 3
REMARK minimizedAffinity -7.294168
REMARK CNNscore 0.600465238
REMARK CNNaffinity 6.23038292
REMARK  7 active torsions:
REMARK  status: ('A' for Active; 'I' for Inactive)
REMARK    1  A    between atoms: C2_2  and  C30_32 
REMARK    2  A    between atoms: C3_3  and  C4_4 
REMARK    3  A    between atoms: C4_4  and  O1_5 
REMARK    4  A    between atoms: C4_4  and  C5_6 
REMARK    5  A    between atoms: C5_6  and  C6_7 
REMARK    6  A    between atoms: C6_7  and  C8_9 
REMARK    7  A    between atoms: C30_32  and  O4_34 
ROOT
HETATM    1  C8  UNL     1     -14.268  45.307 -27.802  1.00  0.00    -0.002 C 
HETATM    2  C9  UNL     1     -14.306  46.649 -27.001  1.00  0.00     0.007 C 
HETATM    3  C10 UNL     1     -12.902  47.284 -27.087  1.00  0.00     0.015 C 
HETATM    4  C11 UNL     1     -12.196  46.489 -28.198  1.00  0.00    -0.013 C 
HETATM    5  C12 UNL     1     -12.695  47.105 -29.554  1.00  0.00     0.021 C 
HETATM    6  C13 UNL     1     -10.668  46.533 -28.273  1.00  0.00    -0.070 C 
HETATM    7  C14 UNL     1     -10.008  47.699 -28.138  1.00  0.00    -0.022 C 
HETATM    8  C15 UNL     1      -8.597  47.908 -28.594  1.00  0.00     0.034 C 
HETATM    9  C16 UNL     1      -8.213  46.880 -29.681  1.00  0.00     0.013 C 
HETATM   10  C17 UNL     1      -6.849  47.199 -30.393  1.00  0.00     0.018 C 
HETATM   11  C18 UNL     1      -7.029  48.462 -31.278  1.00  0.00     0.023 C 
HETATM   12  C19 UNL     1      -5.658  47.476 -29.462  1.00  0.00     0.023 C 
HETATM   13  C20 UNL     1      -6.471  46.029 -31.313  1.00  0.00     0.135 C 
HETATM   14  O2  UNL     1      -6.028  46.195 -32.450  1.00  0.00    -0.297 OA
HETATM   15  C21 UNL     1      -6.593  44.636 -30.749  1.00  0.00     0.080 C 
HETATM   16  C22 UNL     1      -8.006  44.414 -30.234  1.00  0.00     0.017 C 
HETATM   17  C23 UNL     1      -8.432  45.423 -29.139  1.00  0.00    -0.031 C 
HETATM   18  C24 UNL     1      -7.590  45.135 -27.862  1.00  0.00     0.016 C 
HETATM   19  C25 UNL     1      -9.959  45.236 -28.705  1.00  0.00     0.024 C 
HETATM   20  C26 UNL     1     -10.867  44.425 -29.655  1.00  0.00     0.010 C 
HETATM   21  C27 UNL     1     -12.281  44.122 -29.086  1.00  0.00     0.011 C 
HETATM   22  C28 UNL     1     -12.729  45.038 -27.921  1.00  0.00    -0.029 C 
HETATM   23  C29 UNL     1     -12.252  44.440 -26.558  1.00  0.00     0.016 C 
ENDROOT
BRANCH   1  24
HETATM   24  C6  UNL     1     -15.215  44.229 -27.188  1.00  0.00    -0.011 C 
HETATM   25  C7  UNL     1     -16.169  43.637 -28.230  1.00  0.00     0.010 C 
BRANCH  24  26
HETATM   26  C5  UNL     1     -16.025  44.853 -26.012  1.00  0.00     0.040 C 
BRANCH  26  27
HETATM   27  C4  UNL     1     -17.501  45.162 -26.321  1.00  0.00     0.142 C 
BRANCH  27  28
HETATM   28  C3  UNL     1     -18.427  44.240 -25.567  1.00  0.00     0.018 C 
HETATM   29  C2  UNL     1     -19.321  44.574 -24.614  1.00  0.00     0.010 C 
HETATM   30  C1  UNL     1     -20.250  43.587 -23.979  1.00  0.00     0.055 C 
BRANCH  29  31
HETATM   31  C30 UNL     1     -19.474  45.960 -24.123  1.00  0.00     0.171 C 
HETATM   32  O3  UNL     1     -19.029  46.391 -23.077  1.00  0.00    -0.646 OA
BRANCH  31  33
HETATM   33  O4  UNL     1     -20.101  46.745 -25.017  1.00  0.00    -0.773 OA
HETATM   34  H46 UNL     1     -20.175  47.606 -24.558  1.00  0.00     0.167 HD
ENDBRANCH  31  33
ENDBRANCH  29  31
ENDBRANCH  27  28
BRANCH  27  35
HETATM   35  O1  UNL     1     -17.716  45.013 -27.719  1.00  0.00    -0.392 OA
HETATM   36  H6  UNL     1     -17.621  44.070 -27.931  1.00  0.00     0.210 HD
ENDBRANCH  27  35
ENDBRANCH  26  27
ENDBRANCH  24  26
ENDBRANCH   1  24
TORSDOF 7
ENDMDL
MODEL 4
REMARK minimizedAffinity -7.22666121
REMARK CNNscore 0.564396381
REMARK CNNaffinity 5.77131701
REMARK  7 active torsions:
REMARK  status: ('A' for Active; 'I' for Inactive)
REMARK    1  A    between atoms: C2_2  and  C30_32 
REMARK    2  A    between atoms: C3_3  and  C4_4 
REMARK    3  A    between atoms: C4_4  and  O1_5 
REMARK    4  A    between atoms: C4_4  and  C5_6 
REMARK    5  A    between atoms: C5_6  and  C6_7 
REMARK    6  A    between atoms: C6_7  and  C8_9 
REMARK    7  A    between atoms: C30_32  and  O4_34 
ROOT
HETATM    1  C8  UNL     1       3.788  66.123 -37.289  1.00  0.00    -0.002 C 
HETATM    2  C9  UNL     1       2.747  66.098 -36.123  1.00  0.00     0.007 C 
HETATM    3  C10 UNL     1       1.591  67.045 -36.510  1.00  0.00     0.015 C 
HETATM    4  C11 UNL     1       1.814  67.320 -38.007  1.00  0.00    -0.013 C 
HETATM    5  C12 UNL     1       1.221  66.080 -38.768  1.00  0.00     0.021 C 
HETATM    6  C13 UNL     1       1.138  68.541 -38.637  1.00  0.00    -0.070 C 
HETATM    7  C14 UNL     1      -0.150  68.826 -38.369  1.00  0.00    -0.022 C 
HETATM    8  C15 UNL     1      -0.996  69.719 -39.223  1.00  0.00     0.034 C 
HETATM    9  C16 UNL     1      -0.427  69.804 -40.657  1.00  0.00     0.013 C 
HETATM   10  C17 UNL     1      -1.397  70.504 -41.676  1.00  0.00     0.018 C 
HETATM   11  C18 UNL     1      -2.614  69.574 -41.930  1.00  0.00     0.023 C 
HETATM   12  C19 UNL     1      -1.963  71.864 -41.234  1.00  0.00     0.023 C 
HETATM   13  C20 UNL     1      -0.670  70.705 -43.014  1.00  0.00     0.135 C 
HETATM   14  O2  UNL     1      -1.204  70.479 -44.100  1.00  0.00    -0.297 OA
HETATM   15  C21 UNL     1       0.728  71.267 -42.965  1.00  0.00     0.080 C 
HETATM   16  C22 UNL     1       1.596  70.404 -42.063  1.00  0.00     0.017 C 
HETATM   17  C23 UNL     1       1.064  70.293 -40.613  1.00  0.00    -0.031 C 
HETATM   18  C24 UNL     1       1.209  71.687 -39.936  1.00  0.00     0.016 C 
HETATM   19  C25 UNL     1       1.932  69.286 -39.725  1.00  0.00     0.024 C 
HETATM   20  C26 UNL     1       2.857  68.304 -40.476  1.00  0.00     0.010 C 
HETATM   21  C27 UNL     1       3.808  67.489 -39.555  1.00  0.00     0.011 C 
HETATM   22  C28 UNL     1       3.380  67.419 -38.068  1.00  0.00    -0.029 C 
HETATM   23  C29 UNL     1       3.966  68.639 -37.287  1.00  0.00     0.016 C 
ENDROOT
BRANCH   1  24
HETATM   24  C6  UNL     1       5.250  65.936 -36.775  1.00  0.00    -0.011 C 
HETATM   25  C7  UNL     1       5.655  64.460 -36.711  1.00  0.00     0.010 C 
BRANCH  24  26
HETATM   26  C5  UNL     1       5.399  66.594 -35.371  1.00  0.00     0.040 C 
BRANCH  26  27
HETATM   27  C4  UNL     1       6.833  66.995 -34.979  1.00  0.00     0.142 C 
BRANCH  27  28
HETATM   28  C3  UNL     1       6.838  68.153 -34.012  1.00  0.00     0.018 C 
HETATM   29  C2  UNL     1       6.910  68.097 -32.667  1.00  0.00     0.010 C 
HETATM   30  C1  UNL     1       6.985  69.314 -31.798  1.00  0.00     0.055 C 
BRANCH  29  31
HETATM   31  C30 UNL     1       6.942  66.817 -31.928  1.00  0.00     0.171 C 
HETATM   32  O3  UNL     1       6.029  66.016 -31.865  1.00  0.00    -0.646 OA
BRANCH  31  33
HETATM   33  O4  UNL     1       8.148  66.579 -31.384  1.00  0.00    -0.773 OA
HETATM   34  H46 UNL     1       8.022  65.740 -30.897  1.00  0.00     0.167 HD
ENDBRANCH  31  33
ENDBRANCH  29  31
ENDBRANCH  27  28
BRANCH  27  35
HETATM   35  O1  UNL     1       7.543  67.356 -36.158  1.00  0.00    -0.392 OA
HETATM   36  H6  UNL     1       7.150  68.178 -36.496  1.00  0.00     0.210 HD
ENDBRANCH  27  35
ENDBRANCH  26  27
ENDBRANCH  24  26
ENDBRANCH   1  24
TORSDOF 7
ENDMDL
MODEL 5
REMARK minimizedAffinity -7.62267923
REMARK CNNscore 0.552063286
REMARK CNNaffinity 6.26836538
REMARK  7 active torsions:
REMARK  status: ('A' for Active; 'I' for Inactive)
REMARK    1  A    between atoms: C2_2  and  C30_32 
REMARK    2  A    between atoms: C3_3  and  C4_4 
REMARK    3  A    between atoms: C4_4  and  O1_5 
REMARK    4  A    between atoms: C4_4  and  C5_6 
REMARK    5  A    between atoms: C5_6  and  C6_7 
REMARK    6  A    between atoms: C6_7  and  C8_9 
REMARK    7  A    between atoms: C30_32  and  O4_34 
ROOT
HETATM    1  C8  UNL     1     -13.304  46.030 -26.667  1.00  0.00    -0.002 C 
HETATM    2  C9  UNL     1     -14.321  45.813 -27.834  1.00  0.00     0.007 C 
HETATM    3  C10 UNL     1     -13.570  46.064 -29.159  1.00  0.00     0.015 C 
HETATM    4  C11 UNL     1     -12.086  46.080 -28.755  1.00  0.00    -0.013 C 
HETATM    5  C12 UNL     1     -11.652  44.574 -28.648  1.00  0.00     0.021 C 
HETATM    6  C13 UNL     1     -11.074  46.725 -29.704  1.00  0.00    -0.070 C 
HETATM    7  C14 UNL     1     -11.123  46.481 -31.028  1.00  0.00    -0.022 C 
HETATM    8  C15 UNL     1      -9.972  46.719 -31.956  1.00  0.00     0.034 C 
HETATM    9  C16 UNL     1      -8.636  46.728 -31.181  1.00  0.00     0.013 C 
HETATM   10  C17 UNL     1      -7.370  46.708 -32.113  1.00  0.00     0.018 C 
HETATM   11  C18 UNL     1      -7.270  45.315 -32.791  1.00  0.00     0.023 C 
HETATM   12  C19 UNL     1      -7.352  47.753 -33.240  1.00  0.00     0.023 C 
HETATM   13  C20 UNL     1      -6.109  46.908 -31.260  1.00  0.00     0.135 C 
HETATM   14  O2  UNL     1      -5.083  46.247 -31.426  1.00  0.00    -0.297 OA
HETATM   15  C21 UNL     1      -6.134  48.011 -30.232  1.00  0.00     0.080 C 
HETATM   16  C22 UNL     1      -7.324  47.820 -29.305  1.00  0.00     0.017 C 
HETATM   17  C23 UNL     1      -8.687  47.806 -30.041  1.00  0.00    -0.031 C 
HETATM   18  C24 UNL     1      -8.953  49.237 -30.592  1.00  0.00     0.016 C 
HETATM   19  C25 UNL     1      -9.904  47.486 -29.055  1.00  0.00     0.024 C 
HETATM   20  C26 UNL     1      -9.555  46.859 -27.687  1.00  0.00     0.010 C 
HETATM   21  C27 UNL     1     -10.758  46.750 -26.709  1.00  0.00     0.011 C 
HETATM   22  C28 UNL     1     -12.154  46.825 -27.374  1.00  0.00    -0.029 C 
HETATM   23  C29 UNL     1     -12.613  48.315 -27.483  1.00  0.00     0.016 C 
ENDROOT
BRANCH   1  24
HETATM   24  C6  UNL     1     -13.991  46.603 -25.387  1.00  0.00    -0.011 C 
HETATM   25  C7  UNL     1     -13.051  46.604 -24.178  1.00  0.00     0.010 C 
BRANCH  24  26
HETATM   26  C5  UNL     1     -15.274  45.778 -25.069  1.00  0.00     0.040 C 
BRANCH  26  27
HETATM   27  C4  UNL     1     -16.193  46.379 -23.990  1.00  0.00     0.142 C 
BRANCH  27  28
HETATM   28  C3  UNL     1     -17.244  45.391 -23.549  1.00  0.00     0.018 C 
HETATM   29  C2  UNL     1     -18.482  45.227 -24.060  1.00  0.00     0.010 C 
HETATM   30  C1  UNL     1     -19.425  44.160 -23.599  1.00  0.00     0.055 C 
BRANCH  29  31
HETATM   31  C30 UNL     1     -19.010  46.082 -25.144  1.00  0.00     0.171 C 
HETATM   32  O3  UNL     1     -19.642  47.109 -24.987  1.00  0.00    -0.646 OA
BRANCH  31  33
HETATM   33  O4  UNL     1     -18.639  45.643 -26.359  1.00  0.00    -0.773 OA
HETATM   34  H46 UNL     1     -19.083  46.260 -26.975  1.00  0.00     0.167 HD
ENDBRANCH  31  33
ENDBRANCH  29  31
ENDBRANCH  27  28
BRANCH  27  35
HETATM   35  O1  UNL     1     -16.824  47.539 -24.522  1.00  0.00    -0.392 OA
HETATM   36  H6  UNL     1     -17.435  47.246 -25.219  1.00  0.00     0.210 HD
ENDBRANCH  27  35
ENDBRANCH  26  27
ENDBRANCH  24  26
ENDBRANCH   1  24
TORSDOF 7
ENDMDL
MODEL 6
REMARK minimizedAffinity -8.01856899
REMARK CNNscore 0.479339093
REMARK CNNaffinity 5.93288565
REMARK  7 active torsions:
REMARK  status: ('A' for Active; 'I' for Inactive)
REMARK    1  A    between atoms: C2_2  and  C30_32 
REMARK    2  A    between atoms: C3_3  and  C4_4 
REMARK    3  A    between atoms: C4_4  and  O1_5 
REMARK    4  A    between atoms: C4_4  and  C5_6 
REMARK    5  A    between atoms: C5_6  and  C6_7 
REMARK    6  A    between atoms: C6_7  and  C8_9 
REMARK    7  A    between atoms: C30_32  and  O4_34 
ROOT
HETATM    1  C8  UNL     1     -10.966  45.988 -28.074  1.00  0.00    -0.002 C 
HETATM    2  C9  UNL     1     -10.989  44.588 -28.769  1.00  0.00     0.007 C 
HETATM    3  C10 UNL     1     -12.304  43.889 -28.364  1.00  0.00     0.015 C 
HETATM    4  C11 UNL     1     -13.152  45.010 -27.740  1.00  0.00    -0.013 C 
HETATM    5  C12 UNL     1     -13.790  45.791 -28.945  1.00  0.00     0.021 C 
HETATM    6  C13 UNL     1     -14.328  44.627 -26.839  1.00  0.00    -0.070 C 
HETATM    7  C14 UNL     1     -15.174  43.643 -27.199  1.00  0.00    -0.022 C 
HETATM    8  C15 UNL     1     -16.544  43.476 -26.617  1.00  0.00     0.034 C 
HETATM    9  C16 UNL     1     -17.053  44.808 -26.023  1.00  0.00     0.013 C 
HETATM   10  C17 UNL     1     -18.576  44.780 -25.634  1.00  0.00     0.018 C 
HETATM   11  C18 UNL     1     -19.424  44.730 -26.933  1.00  0.00     0.023 C 
HETATM   12  C19 UNL     1     -19.022  43.591 -24.767  1.00  0.00     0.023 C 
HETATM   13  C20 UNL     1     -18.933  46.073 -24.887  1.00  0.00     0.135 C 
HETATM   14  O2  UNL     1     -19.965  46.706 -25.111  1.00  0.00    -0.297 OA
HETATM   15  C21 UNL     1     -17.997  46.524 -23.794  1.00  0.00     0.080 C 
HETATM   16  C22 UNL     1     -16.587  46.654 -24.349  1.00  0.00     0.017 C 
HETATM   17  C23 UNL     1     -16.035  45.340 -24.953  1.00  0.00    -0.031 C 
HETATM   18  C24 UNL     1     -15.815  44.328 -23.791  1.00  0.00     0.016 C 
HETATM   19  C25 UNL     1     -14.601  45.541 -25.632  1.00  0.00     0.024 C 
HETATM   20  C26 UNL     1     -14.171  46.989 -25.952  1.00  0.00     0.010 C 
HETATM   21  C27 UNL     1     -12.699  47.128 -26.432  1.00  0.00     0.011 C 
HETATM   22  C28 UNL     1     -12.056  45.823 -26.962  1.00  0.00    -0.029 C 
HETATM   23  C29 UNL     1     -11.405  45.032 -25.781  1.00  0.00     0.016 C 
ENDROOT
BRANCH   1  24
HETATM   24  C6  UNL     1      -9.517  46.434 -27.701  1.00  0.00    -0.011 C 
HETATM   25  C7  UNL     1      -9.309  46.515 -26.186  1.00  0.00     0.010 C 
BRANCH  24  26
HETATM   26  C5  UNL     1      -9.209  47.813 -28.359  1.00  0.00     0.040 C 
BRANCH  26  27
HETATM   27  C4  UNL     1      -7.890  47.887 -29.149  1.00  0.00     0.142 C 
BRANCH  27  28
HETATM   28  C3  UNL     1      -6.697  47.941 -28.227  1.00  0.00     0.018 C 
HETATM   29  C2  UNL     1      -5.402  48.101 -28.569  1.00  0.00     0.010 C 
HETATM   30  C1  UNL     1      -4.298  48.218 -27.566  1.00  0.00     0.055 C 
BRANCH  29  31
HETATM   31  C30 UNL     1      -4.961  48.194 -29.976  1.00  0.00     0.171 C 
HETATM   32  O3  UNL     1      -4.729  47.249 -30.707  1.00  0.00    -0.646 OA
BRANCH  31  33
HETATM   33  O4  UNL     1      -4.921  49.466 -30.409  1.00  0.00    -0.773 OA
HETATM   34  H46 UNL     1      -4.579  49.390 -31.323  1.00  0.00     0.167 HD
ENDBRANCH  31  33
ENDBRANCH  29  31
ENDBRANCH  27  28
BRANCH  27  35
HETATM   35  O1  UNL     1      -7.912  49.051 -29.967  1.00  0.00    -0.392 OA
HETATM   36  H6  UNL     1      -7.881  49.823 -29.378  1.00  0.00     0.210 HD
ENDBRANCH  27  35
ENDBRANCH  26  27
ENDBRANCH  24  26
ENDBRANCH   1  24
TORSDOF 7
ENDMDL
MODEL 7
REMARK minimizedAffinity -7.15374279
REMARK CNNscore 0.465299159
REMARK CNNaffinity 6.67753839
REMARK  7 active torsions:
REMARK  status: ('A' for Active; 'I' for Inactive)
REMARK    1  A    between atoms: C2_2  and  C30_32 
REMARK    2  A    between atoms: C3_3  and  C4_4 
REMARK    3  A    between atoms: C4_4  and  O1_5 
REMARK    4  A    between atoms: C4_4  and  C5_6 
REMARK    5  A    between atoms: C5_6  and  C6_7 
REMARK    6  A    between atoms: C6_7  and  C8_9 
REMARK    7  A    between atoms: C30_32  and  O4_34 
ROOT
HETATM    1  C8  UNL     1      -0.182  53.829  -9.522  1.00  0.00    -0.002 C 
HETATM    2  C9  UNL     1       0.360  54.461 -10.845  1.00  0.00     0.007 C 
HETATM    3  C10 UNL     1       1.578  55.335 -10.479  1.00  0.00     0.015 C 
HETATM    4  C11 UNL     1       1.919  54.924  -9.037  1.00  0.00    -0.013 C 
HETATM    5  C12 UNL     1       2.748  53.594  -9.151  1.00  0.00     0.021 C 
HETATM    6  C13 UNL     1       2.779  55.864  -8.189  1.00  0.00    -0.070 C 
HETATM    7  C14 UNL     1       3.880  56.440  -8.708  1.00  0.00    -0.022 C 
HETATM    8  C15 UNL     1       4.980  57.023  -7.876  1.00  0.00     0.034 C 
HETATM    9  C16 UNL     1       4.975  56.411  -6.457  1.00  0.00     0.013 C 
HETATM   10  C17 UNL     1       6.252  56.772  -5.615  1.00  0.00     0.018 C 
HETATM   11  C18 UNL     1       7.476  56.032  -6.216  1.00  0.00     0.023 C 
HETATM   12  C19 UNL     1       6.618  58.265  -5.562  1.00  0.00     0.023 C 
HETATM   13  C20 UNL     1       6.065  56.278  -4.172  1.00  0.00     0.135 C 
HETATM   14  O2  UNL     1       6.959  55.712  -3.543  1.00  0.00    -0.297 OA
HETATM   15  C21 UNL     1       4.746  56.574  -3.504  1.00  0.00     0.080 C 
HETATM   16  C22 UNL     1       3.608  56.035  -4.355  1.00  0.00     0.017 C 
HETATM   17  C23 UNL     1       3.572  56.624  -5.787  1.00  0.00    -0.031 C 
HETATM   18  C24 UNL     1       3.190  58.129  -5.681  1.00  0.00     0.016 C 
HETATM   19  C25 UNL     1       2.439  55.950  -6.691  1.00  0.00     0.024 C 
HETATM   20  C26 UNL     1       1.852  54.609  -6.200  1.00  0.00     0.010 C 
HETATM   21  C27 UNL     1       0.630  54.107  -7.019  1.00  0.00     0.011 C 
HETATM   22  C28 UNL     1       0.484  54.731  -8.428  1.00  0.00    -0.029 C 
HETATM   23  C29 UNL     1      -0.347  56.053  -8.342  1.00  0.00     0.016 C 
ENDROOT
BRANCH   1  24
HETATM   24  C6  UNL     1      -1.731  53.637  -9.554  1.00  0.00    -0.011 C 
HETATM   25  C7  UNL     1      -2.193  52.513  -8.620  1.00  0.00     0.010 C 
BRANCH  24  26
HETATM   26  C5  UNL     1      -2.191  53.344 -11.013  1.00  0.00     0.040 C 
BRANCH  26  27
HETATM   27  C4  UNL     1      -3.700  53.088 -11.190  1.00  0.00     0.142 C 
BRANCH  27  28
HETATM   28  C3  UNL     1      -4.006  51.612 -11.236  1.00  0.00     0.018 C 
HETATM   29  C2  UNL     1      -3.609  50.721 -12.168  1.00  0.00     0.010 C 
HETATM   30  C1  UNL     1      -3.905  49.256 -12.081  1.00  0.00     0.055 C 
BRANCH  29  31
HETATM   31  C30 UNL     1      -2.825  51.115 -13.357  1.00  0.00     0.171 C 
HETATM   32  O3  UNL     1      -3.256  51.727 -14.316  1.00  0.00    -0.646 OA
BRANCH  31  33
HETATM   33  O4  UNL     1      -1.525  50.794 -13.233  1.00  0.00    -0.773 OA
HETATM   34  H46 UNL     1      -1.136  51.065 -14.088  1.00  0.00     0.167 HD
ENDBRANCH  31  33
ENDBRANCH  29  31
ENDBRANCH  27  28
BRANCH  27  35
HETATM   35  O1  UNL     1      -4.127  53.701 -12.400  1.00  0.00    -0.392 OA
HETATM   36  H6  UNL     1      -3.716  53.217 -13.136  1.00  0.00     0.210 HD
ENDBRANCH  27  35
ENDBRANCH  26  27
ENDBRANCH  24  26
ENDBRANCH   1  24
TORSDOF 7
ENDMDL
MODEL 8
REMARK minimizedAffinity -7.11863518
REMARK CNNscore 0.460553735
REMARK CNNaffinity 5.87627363
REMARK  7 active torsions:
REMARK  status: ('A' for Active; 'I' for Inactive)
REMARK    1  A    between atoms: C2_2  and  C30_32 
REMARK    2  A    between atoms: C3_3  and  C4_4 
REMARK    3  A    between atoms: C4_4  and  O1_5 
REMARK    4  A    between atoms: C4_4  and  C5_6 
REMARK    5  A    between atoms: C5_6  and  C6_7 
REMARK    6  A    between atoms: C6_7  and  C8_9 
REMARK    7  A    between atoms: C30_32  and  O4_34 
ROOT
HETATM    1  C8  UNL     1     -14.197  45.635 -26.248  1.00  0.00    -0.002 C 
HETATM    2  C9  UNL     1     -13.980  44.087 -26.244  1.00  0.00     0.007 C 
HETATM    3  C10 UNL     1     -12.822  43.777 -27.215  1.00  0.00     0.015 C 
HETATM    4  C11 UNL     1     -12.179  45.147 -27.487  1.00  0.00    -0.013 C 
HETATM    5  C12 UNL     1     -11.241  45.436 -26.260  1.00  0.00     0.021 C 
HETATM    6  C13 UNL     1     -11.289  45.308 -28.722  1.00  0.00    -0.070 C 
HETATM    7  C14 UNL     1     -10.373  44.371 -29.034  1.00  0.00    -0.022 C 
HETATM    8  C15 UNL     1      -9.212  44.621 -29.946  1.00  0.00     0.034 C 
HETATM    9  C16 UNL     1      -8.888  46.130 -30.020  1.00  0.00     0.013 C 
HETATM   10  C17 UNL     1      -7.528  46.444 -30.742  1.00  0.00     0.018 C 
HETATM   11  C18 UNL     1      -6.359  45.969 -29.838  1.00  0.00     0.023 C 
HETATM   12  C19 UNL     1      -7.328  45.777 -32.113  1.00  0.00     0.023 C 
HETATM   13  C20 UNL     1      -7.391  47.963 -30.929  1.00  0.00     0.135 C 
HETATM   14  O2  UNL     1      -6.339  48.566 -30.715  1.00  0.00    -0.297 OA
HETATM   15  C21 UNL     1      -8.590  48.706 -31.461  1.00  0.00     0.080 C 
HETATM   16  C22 UNL     1      -9.797  48.430 -30.579  1.00  0.00     0.017 C 
HETATM   17  C23 UNL     1     -10.160  46.928 -30.477  1.00  0.00    -0.031 C 
HETATM   18  C24 UNL     1     -10.682  46.462 -31.868  1.00  0.00     0.016 C 
HETATM   19  C25 UNL     1     -11.357  46.662 -29.451  1.00  0.00     0.024 C 
HETATM   20  C26 UNL     1     -11.690  47.790 -28.451  1.00  0.00     0.010 C 
HETATM   21  C27 UNL     1     -12.977  47.544 -27.615  1.00  0.00     0.011 C 
HETATM   22  C28 UNL     1     -13.448  46.071 -27.553  1.00  0.00    -0.029 C 
HETATM   23  C29 UNL     1     -14.392  45.761 -28.760  1.00  0.00     0.016 C 
ENDROOT
BRANCH   1  24
HETATM   24  C6  UNL     1     -15.694  46.020 -26.029  1.00  0.00    -0.011 C 
HETATM   25  C7  UNL     1     -15.893  46.876 -24.774  1.00  0.00     0.010 C 
BRANCH  24  26
HETATM   26  C5  UNL     1     -16.558  44.726 -25.938  1.00  0.00     0.040 C 
BRANCH  26  27
HETATM   27  C4  UNL     1     -18.032  44.944 -25.549  1.00  0.00     0.142 C 
BRANCH  27  28
HETATM   28  C3  UNL     1     -18.696  43.647 -25.161  1.00  0.00     0.018 C 
HETATM   29  C2  UNL     1     -19.589  43.448 -24.169  1.00  0.00     0.010 C 
HETATM   30  C1  UNL     1     -20.251  42.130 -23.914  1.00  0.00     0.055 C 
BRANCH  29  31
HETATM   31  C30 UNL     1     -20.010  44.529 -23.254  1.00  0.00     0.171 C 
HETATM   32  O3  UNL     1     -20.184  44.411 -22.055  1.00  0.00    -0.646 OA
BRANCH  31  33
HETATM   33  O4  UNL     1     -20.102  45.715 -23.881  1.00  0.00    -0.773 OA
HETATM   34  H46 UNL     1     -20.424  46.321 -23.185  1.00  0.00     0.167 HD
ENDBRANCH  31  33
ENDBRANCH  29  31
ENDBRANCH  27  28
BRANCH  27  35
HETATM   35  O1  UNL     1     -18.716  45.516 -26.658  1.00  0.00    -0.392 OA
HETATM   36  H6  UNL     1     -18.752  44.844 -27.359  1.00  0.00     0.210 HD
ENDBRANCH  27  35
ENDBRANCH  26  27
ENDBRANCH  24  26
ENDBRANCH   1  24
TORSDOF 7
ENDMDL
MODEL 9
REMARK minimizedAffinity -7.83211565
REMARK CNNscore 0.452191979
REMARK CNNaffinity 6.36689615
REMARK  7 active torsions:
REMARK  status: ('A' for Active; 'I' for Inactive)
REMARK    1  A    between atoms: C2_2  and  C30_32 
REMARK    2  A    between atoms: C3_3  and  C4_4 
REMARK    3  A    between atoms: C4_4  and  O1_5 
REMARK    4  A    between atoms: C4_4  and  C5_6 
REMARK    5  A    between atoms: C5_6  and  C6_7 
REMARK    6  A    between atoms: C6_7  and  C8_9 
REMARK    7  A    between atoms: C30_32  and  O4_34 
ROOT
HETATM    1  C8  UNL     1       5.142  64.152 -35.373  1.00  0.00    -0.002 C 
HETATM    2  C9  UNL     1       3.871  64.923 -34.889  1.00  0.00     0.007 C 
HETATM    3  C10 UNL     1       4.074  66.415 -35.229  1.00  0.00     0.015 C 
HETATM    4  C11 UNL     1       5.273  66.424 -36.191  1.00  0.00    -0.013 C 
HETATM    5  C12 UNL     1       4.698  66.050 -37.604  1.00  0.00     0.021 C 
HETATM    6  C13 UNL     1       6.037  67.733 -36.400  1.00  0.00    -0.070 C 
HETATM    7  C14 UNL     1       5.374  68.892 -36.581  1.00  0.00    -0.022 C 
HETATM    8  C15 UNL     1       5.994  70.113 -37.187  1.00  0.00     0.034 C 
HETATM    9  C16 UNL     1       7.221  69.737 -38.046  1.00  0.00     0.013 C 
HETATM   10  C17 UNL     1       7.762  70.925 -38.922  1.00  0.00     0.018 C 
HETATM   11  C18 UNL     1       6.736  71.227 -40.046  1.00  0.00     0.023 C 
HETATM   12  C19 UNL     1       8.005  72.247 -38.177  1.00  0.00     0.023 C 
HETATM   13  C20 UNL     1       9.081  70.505 -39.587  1.00  0.00     0.135 C 
HETATM   14  O2  UNL     1       9.339  70.755 -40.765  1.00  0.00    -0.297 OA
HETATM   15  C21 UNL     1      10.109  69.823 -38.721  1.00  0.00     0.080 C 
HETATM   16  C22 UNL     1       9.490  68.605 -38.054  1.00  0.00     0.017 C 
HETATM   17  C23 UNL     1       8.256  68.937 -37.179  1.00  0.00    -0.031 C 
HETATM   18  C24 UNL     1       8.744  69.748 -35.944  1.00  0.00     0.016 C 
HETATM   19  C25 UNL     1       7.561  67.623 -36.590  1.00  0.00     0.024 C 
HETATM   20  C26 UNL     1       7.918  66.278 -37.259  1.00  0.00     0.010 C 
HETATM   21  C27 UNL     1       7.358  65.029 -36.521  1.00  0.00     0.011 C 
HETATM   22  C28 UNL     1       6.181  65.310 -35.556  1.00  0.00    -0.029 C 
HETATM   23  C29 UNL     1       6.729  65.675 -34.138  1.00  0.00     0.016 C 
ENDROOT
BRANCH   1  24
HETATM   24  C6  UNL     1       5.471  62.930 -34.459  1.00  0.00    -0.011 C 
HETATM   25  C7  UNL     1       5.674  63.340 -32.997  1.00  0.00     0.010 C 
BRANCH  24  26
HETATM   26  C5  UNL     1       6.743  62.205 -34.994  1.00  0.00     0.040 C 
BRANCH  26  27
HETATM   27  C4  UNL     1       7.938  62.169 -34.024  1.00  0.00     0.142 C 
BRANCH  27  28
HETATM   28  C3  UNL     1       9.217  62.578 -34.710  1.00  0.00     0.018 C 
HETATM   29  C2  UNL     1      10.372  62.964 -34.129  1.00  0.00     0.010 C 
HETATM   30  C1  UNL     1      11.615  63.278 -34.903  1.00  0.00     0.055 C 
BRANCH  29  31
HETATM   31  C30 UNL     1      10.517  63.094 -32.664  1.00  0.00     0.171 C 
HETATM   32  O3  UNL     1      11.108  62.314 -31.942  1.00  0.00    -0.646 OA
BRANCH  31  33
HETATM   33  O4  UNL     1       9.986  64.240 -32.204  1.00  0.00    -0.773 OA
HETATM   34  H46 UNL     1      10.108  64.181 -31.236  1.00  0.00     0.167 HD
ENDBRANCH  31  33
ENDBRANCH  29  31
ENDBRANCH  27  28
BRANCH  27  35
HETATM   35  O1  UNL     1       8.072  60.847 -33.515  1.00  0.00    -0.392 OA
HETATM   36  H6  UNL     1       8.346  60.276 -34.251  1.00  0.00     0.210 HD
ENDBRANCH  27  35
ENDBRANCH  26  27
ENDBRANCH  24  26
ENDBRANCH   1  24
TORSDOF 7
ENDMDL
