MODEL 1
REMARK minimizedAffinity -7.43845081
REMARK CNNscore 0.742848814
REMARK CNNaffinity 7.02665758
REMARK  7 active torsions:
REMARK  status: ('A' for Active; 'I' for Inactive)
REMARK    1  A    between atoms: C2_2  and  C3_3 
REMARK    2  A    between atoms: C2_2  and  C9_11 
REMARK    3  A    between atoms: C3_3  and  C4_4 
REMARK    4  A    between atoms: C5_5  and  C6_6 
REMARK    5  A    between atoms: C6_6  and  O1_9 
REMARK    6  A    between atoms: O1_9  and  O2_10 
REMARK    7  A    between atoms: C10_12  and  O3_13 
ROOT
HETATM    1  C9  UNL     1      -2.475  52.540  -9.991  1.00  0.00     0.028 C 
HETATM    2  C10 UNL     1      -1.964  52.655 -11.457  1.00  0.00     0.124 C 
HETATM    3  C11 UNL     1      -0.707  53.559 -11.430  1.00  0.00     0.046 C 
HETATM    4  C12 UNL     1      -0.631  54.112  -9.986  1.00  0.00    -0.010 C 
HETATM    5  C13 UNL     1      -1.511  55.403  -9.959  1.00  0.00     0.021 C 
HETATM    6  C14 UNL     1       0.726  54.542  -9.438  1.00  0.00    -0.070 C 
HETATM    7  C15 UNL     1       1.668  55.099 -10.228  1.00  0.00    -0.022 C 
HETATM    8  C16 UNL     1       2.976  55.657  -9.736  1.00  0.00     0.034 C 
HETATM    9  C17 UNL     1       3.243  55.308  -8.262  1.00  0.00     0.013 C 
HETATM   10  C18 UNL     1       4.574  55.859  -7.659  1.00  0.00     0.018 C 
HETATM   11  C19 UNL     1       5.774  55.421  -8.524  1.00  0.00     0.023 C 
HETATM   12  C20 UNL     1       4.629  57.383  -7.500  1.00  0.00     0.023 C 
HETATM   13  C21 UNL     1       4.761  55.233  -6.265  1.00  0.00     0.135 C 
HETATM   14  O4  UNL     1       5.834  55.295  -5.661  1.00  0.00    -0.297 OA
HETATM   15  C22 UNL     1       3.578  54.511  -5.653  1.00  0.00     0.080 C 
HETATM   16  C23 UNL     1       2.311  55.325  -5.878  1.00  0.00     0.017 C 
HETATM   17  C24 UNL     1       1.947  55.511  -7.381  1.00  0.00    -0.031 C 
HETATM   18  C25 UNL     1       1.301  56.916  -7.525  1.00  0.00     0.016 C 
HETATM   19  C26 UNL     1       0.928  54.416  -7.910  1.00  0.00     0.024 C 
HETATM   20  C27 UNL     1      -0.409  54.310  -7.132  1.00  0.00     0.010 C 
HETATM   21  C28 UNL     1      -1.465  53.342  -7.717  1.00  0.00     0.011 C 
HETATM   22  C29 UNL     1      -1.192  52.902  -9.167  1.00  0.00    -0.026 C 
HETATM   23  C30 UNL     1      -0.238  51.666  -9.144  1.00  0.00     0.016 C 
ENDROOT
BRANCH   1  24
HETATM   24  C2  UNL     1      -3.214  51.226  -9.579  1.00  0.00    -0.008 C 
HETATM   25  C1  UNL     1      -2.321  50.081  -9.086  1.00  0.00     0.011 C 
BRANCH  24  26
HETATM   26  C3  UNL     1      -4.173  50.712 -10.687  1.00  0.00     0.031 C 
BRANCH  26  27
HETATM   27  C4  UNL     1      -5.540  50.300 -10.219  1.00  0.00    -0.027 C 
HETATM   28  C5  UNL     1      -6.032  49.056 -10.355  1.00  0.00     0.009 C 
BRANCH  28  29
HETATM   29  C6  UNL     1      -7.392  48.534  -9.913  1.00  0.00     0.106 C 
HETATM   30  C7  UNL     1      -8.281  49.596  -9.244  1.00  0.00     0.053 C 
HETATM   31  C8  UNL     1      -7.218  47.365  -8.930  1.00  0.00     0.053 C 
BRANCH  29  32
HETATM   32  O1  UNL     1      -8.141  48.098 -11.071  1.00  0.00    -0.229 OA
BRANCH  32  33
HETATM   33  O2  UNL     1      -8.904  49.234 -11.583  1.00  0.00    -0.249 OA
HETATM   34  H15 UNL     1      -9.781  48.867 -11.373  1.00  0.00     0.253 HD
ENDBRANCH  32  33
ENDBRANCH  29  32
ENDBRANCH  28  29
ENDBRANCH  26  27
ENDBRANCH  24  26
ENDBRANCH   1  24
BRANCH   2  35
HETATM   35  O3  UNL     1      -2.959  53.211 -12.306  1.00  0.00    -0.395 OA
HETATM   36  H18 UNL     1      -3.127  54.127 -12.030  1.00  0.00     0.210 HD
ENDBRANCH   2  35
TORSDOF 7
ENDMDL
MODEL 2
REMARK minimizedAffinity -8.41697407
REMARK CNNscore 0.7407372
REMARK CNNaffinity 7.16045809
REMARK  7 active torsions:
REMARK  status: ('A' for Active; 'I' for Inactive)
REMARK    1  A    between atoms: C2_2  and  C3_3 
REMARK    2  A    between atoms: C2_2  and  C9_11 
REMARK    3  A    between atoms: C3_3  and  C4_4 
REMARK    4  A    between atoms: C5_5  and  C6_6 
REMARK    5  A    between atoms: C6_6  and  O1_9 
REMARK    6  A    between atoms: O1_9  and  O2_10 
REMARK    7  A    between atoms: C10_12  and  O3_13 
ROOT
HETATM    1  C9  UNL     1       0.600  51.505 -18.100  1.00  0.00     0.028 C 
HETATM    2  C10 UNL     1       0.277  52.925 -18.648  1.00  0.00     0.124 C 
HETATM    3  C11 UNL     1      -0.791  52.753 -19.756  1.00  0.00     0.046 C 
HETATM    4  C12 UNL     1      -0.917  51.224 -19.968  1.00  0.00    -0.010 C 
HETATM    5  C13 UNL     1       0.174  50.829 -21.013  1.00  0.00     0.021 C 
HETATM    6  C14 UNL     1      -2.224  50.669 -20.525  1.00  0.00    -0.070 C 
HETATM    7  C15 UNL     1      -2.960  51.353 -21.427  1.00  0.00    -0.022 C 
HETATM    8  C16 UNL     1      -4.189  50.818 -22.109  1.00  0.00     0.034 C 
HETATM    9  C17 UNL     1      -4.671  49.493 -21.493  1.00  0.00     0.013 C 
HETATM   10  C18 UNL     1      -5.935  48.853 -22.149  1.00  0.00     0.018 C 
HETATM   11  C19 UNL     1      -7.096  49.869 -22.171  1.00  0.00     0.023 C 
HETATM   12  C20 UNL     1      -5.729  48.328 -23.574  1.00  0.00     0.023 C 
HETATM   13  C21 UNL     1      -6.380  47.669 -21.271  1.00  0.00     0.135 C 
HETATM   14  O4  UNL     1      -7.482  47.133 -21.408  1.00  0.00    -0.297 OA
HETATM   15  C22 UNL     1      -5.419  47.184 -20.205  1.00  0.00     0.080 C 
HETATM   16  C23 UNL     1      -4.010  47.127 -20.775  1.00  0.00     0.017 C 
HETATM   17  C24 UNL     1      -3.461  48.513 -21.223  1.00  0.00    -0.031 C 
HETATM   18  C25 UNL     1      -2.558  48.270 -22.464  1.00  0.00     0.016 C 
HETATM   19  C26 UNL     1      -2.607  49.233 -20.096  1.00  0.00     0.024 C 
HETATM   20  C27 UNL     1      -1.401  48.427 -19.547  1.00  0.00     0.010 C 
HETATM   21  C28 UNL     1      -0.483  49.168 -18.546  1.00  0.00     0.011 C 
HETATM   22  C29 UNL     1      -0.676  50.695 -18.514  1.00  0.00    -0.026 C 
HETATM   23  C30 UNL     1      -1.836  51.033 -17.525  1.00  0.00     0.016 C 
ENDROOT
BRANCH   1  24
HETATM   24  C2  UNL     1       1.040  51.385 -16.604  1.00  0.00    -0.008 C 
HETATM   25  C1  UNL     1      -0.004  51.804 -15.562  1.00  0.00     0.011 C 
BRANCH  24  26
HETATM   26  C3  UNL     1       2.388  52.102 -16.323  1.00  0.00     0.031 C 
BRANCH  26  27
HETATM   27  C4  UNL     1       3.146  51.607 -15.123  1.00  0.00    -0.027 C 
HETATM   28  C5  UNL     1       2.755  50.563 -14.371  1.00  0.00     0.009 C 
BRANCH  28  29
HETATM   29  C6  UNL     1       3.447  49.980 -13.148  1.00  0.00     0.106 C 
HETATM   30  C7  UNL     1       2.937  48.585 -12.747  1.00  0.00     0.053 C 
HETATM   31  C8  UNL     1       3.275  50.918 -11.943  1.00  0.00     0.053 C 
BRANCH  29  32
HETATM   32  O1  UNL     1       4.853  49.795 -13.432  1.00  0.00    -0.229 OA
BRANCH  32  33
HETATM   33  O2  UNL     1       5.572  49.695 -12.162  1.00  0.00    -0.249 OA
HETATM   34  H15 UNL     1       6.069  50.526 -12.265  1.00  0.00     0.253 HD
ENDBRANCH  32  33
ENDBRANCH  29  32
ENDBRANCH  28  29
ENDBRANCH  26  27
ENDBRANCH  24  26
ENDBRANCH   1  24
BRANCH   2  35
HETATM   35  O3  UNL     1       1.441  53.552 -19.171  1.00  0.00    -0.395 OA
HETATM   36  H18 UNL     1       1.743  53.049 -19.946  1.00  0.00     0.210 HD
ENDBRANCH   2  35
TORSDOF 7
ENDMDL
MODEL 3
REMARK minimizedAffinity -7.22023869
REMARK CNNscore 0.358539611
REMARK CNNaffinity 5.77757835
REMARK  7 active torsions:
REMARK  status: ('A' for Active; 'I' for Inactive)
REMARK    1  A    between atoms: C2_2  and  C3_3 
REMARK    2  A    between atoms: C2_2  and  C9_11 
REMARK    3  A    between atoms: C3_3  and  C4_4 
REMARK    4  A    between atoms: C5_5  and  C6_6 
REMARK    5  A    between atoms: C6_6  and  O1_9 
REMARK    6  A    between atoms: O1_9  and  O2_10 
REMARK    7  A    between atoms: C10_12  and  O3_13 
ROOT
HETATM    1  C9  UNL     1     -12.676  45.403 -26.569  1.00  0.00     0.028 C 
HETATM    2  C10 UNL     1     -12.478  43.869 -26.737  1.00  0.00     0.124 C 
HETATM    3  C11 UNL     1     -11.538  43.662 -27.950  1.00  0.00     0.046 C 
HETATM    4  C12 UNL     1     -11.374  45.065 -28.584  1.00  0.00    -0.010 C 
HETATM    5  C13 UNL     1     -12.561  45.242 -29.584  1.00  0.00     0.021 C 
HETATM    6  C14 UNL     1     -10.118  45.357 -29.399  1.00  0.00    -0.070 C 
HETATM    7  C15 UNL     1      -9.519  44.406 -30.148  1.00  0.00    -0.022 C 
HETATM    8  C16 UNL     1      -8.355  44.651 -31.069  1.00  0.00     0.034 C 
HETATM    9  C17 UNL     1      -7.753  46.055 -30.891  1.00  0.00     0.013 C 
HETATM   10  C18 UNL     1      -6.546  46.405 -31.819  1.00  0.00     0.018 C 
HETATM   11  C19 UNL     1      -5.438  45.341 -31.678  1.00  0.00     0.023 C 
HETATM   12  C20 UNL     1      -6.893  46.542 -33.306  1.00  0.00     0.023 C 
HETATM   13  C21 UNL     1      -5.956  47.747 -31.347  1.00  0.00     0.135 C 
HETATM   14  O4  UNL     1      -4.856  48.146 -31.735  1.00  0.00    -0.297 OA
HETATM   15  C22 UNL     1      -6.767  48.566 -30.365  1.00  0.00     0.080 C 
HETATM   16  C23 UNL     1      -8.229  48.568 -30.786  1.00  0.00     0.017 C 
HETATM   17  C24 UNL     1      -8.883  47.154 -30.781  1.00  0.00    -0.031 C 
HETATM   18  C25 UNL     1      -9.911  47.119 -31.945  1.00  0.00     0.016 C 
HETATM   19  C26 UNL     1      -9.629  46.824 -29.420  1.00  0.00     0.024 C 
HETATM   20  C27 UNL     1     -10.730  47.832 -28.996  1.00  0.00     0.010 C 
HETATM   21  C28 UNL     1     -11.557  47.452 -27.744  1.00  0.00     0.011 C 
HETATM   22  C29 UNL     1     -11.425  45.980 -27.314  1.00  0.00    -0.026 C 
HETATM   23  C30 UNL     1     -10.174  45.838 -26.391  1.00  0.00     0.016 C 
ENDROOT
BRANCH   1  24
HETATM   24  C2  UNL     1     -12.936  45.951 -25.128  1.00  0.00    -0.008 C 
HETATM   25  C1  UNL     1     -13.131  44.894 -24.034  1.00  0.00     0.011 C 
BRANCH  24  26
HETATM   26  C3  UNL     1     -14.099  46.979 -25.086  1.00  0.00     0.031 C 
BRANCH  26  27
HETATM   27  C4  UNL     1     -15.482  46.390 -25.070  1.00  0.00    -0.027 C 
HETATM   28  C5  UNL     1     -16.513  46.923 -24.390  1.00  0.00     0.009 C 
BRANCH  28  29
HETATM   29  C6  UNL     1     -17.945  46.415 -24.312  1.00  0.00     0.106 C 
HETATM   30  C7  UNL     1     -18.464  46.225 -22.877  1.00  0.00     0.053 C 
HETATM   31  C8  UNL     1     -18.073  45.074 -25.051  1.00  0.00     0.053 C 
BRANCH  29  32
HETATM   32  O1  UNL     1     -18.835  47.390 -24.903  1.00  0.00    -0.229 OA
BRANCH  32  33
HETATM   33  O2  UNL     1     -20.133  46.755 -25.129  1.00  0.00    -0.249 OA
HETATM   34  H15 UNL     1     -20.092  46.792 -26.101  1.00  0.00     0.253 HD
ENDBRANCH  32  33
ENDBRANCH  29  32
ENDBRANCH  28  29
ENDBRANCH  26  27
ENDBRANCH  24  26
ENDBRANCH   1  24
BRANCH   2  35
HETATM   35  O3  UNL     1     -13.718  43.209 -26.949  1.00  0.00    -0.395 OA
HETATM   36  H18 UNL     1     -14.086  43.505 -27.799  1.00  0.00     0.210 HD
ENDBRANCH   2  35
TORSDOF 7
ENDMDL
MODEL 4
REMARK minimizedAffinity -8.51835155
REMARK CNNscore 0.342320859
REMARK CNNaffinity 6.25400209
REMARK  7 active torsions:
REMARK  status: ('A' for Active; 'I' for Inactive)
REMARK    1  A    between atoms: C2_2  and  C3_3 
REMARK    2  A    between atoms: C2_2  and  C9_11 
REMARK    3  A    between atoms: C3_3  and  C4_4 
REMARK    4  A    between atoms: C5_5  and  C6_6 
REMARK    5  A    between atoms: C6_6  and  O1_9 
REMARK    6  A    between atoms: O1_9  and  O2_10 
REMARK    7  A    between atoms: C10_12  and  O3_13 
ROOT
HETATM    1  C9  UNL     1      -7.856  47.827 -20.133  1.00  0.00     0.028 C 
HETATM    2  C10 UNL     1      -6.820  47.112 -19.218  1.00  0.00     0.124 C 
HETATM    3  C11 UNL     1      -5.432  47.280 -19.885  1.00  0.00     0.046 C 
HETATM    4  C12 UNL     1      -5.717  47.911 -21.270  1.00  0.00    -0.010 C 
HETATM    5  C13 UNL     1      -6.000  46.725 -22.248  1.00  0.00     0.021 C 
HETATM    6  C14 UNL     1      -4.619  48.729 -21.941  1.00  0.00    -0.070 C 
HETATM    7  C15 UNL     1      -3.313  48.415 -21.803  1.00  0.00    -0.022 C 
HETATM    8  C16 UNL     1      -2.188  49.099 -22.531  1.00  0.00     0.034 C 
HETATM    9  C17 UNL     1      -2.653  50.364 -23.271  1.00  0.00     0.013 C 
HETATM   10  C18 UNL     1      -1.554  51.134 -24.069  1.00  0.00     0.018 C 
HETATM   11  C19 UNL     1      -0.366  51.477 -23.146  1.00  0.00     0.023 C 
HETATM   12  C20 UNL     1      -1.009  50.393 -25.296  1.00  0.00     0.023 C 
HETATM   13  C21 UNL     1      -2.158  52.465 -24.552  1.00  0.00     0.135 C 
HETATM   14  O4  UNL     1      -1.457  53.377 -24.994  1.00  0.00    -0.297 OA
HETATM   15  C22 UNL     1      -3.660  52.633 -24.451  1.00  0.00     0.080 C 
HETATM   16  C23 UNL     1      -4.350  51.357 -24.911  1.00  0.00     0.017 C 
HETATM   17  C24 UNL     1      -4.015  50.114 -24.034  1.00  0.00    -0.031 C 
HETATM   18  C25 UNL     1      -3.991  48.880 -24.976  1.00  0.00     0.016 C 
HETATM   19  C26 UNL     1      -5.078  49.867 -22.882  1.00  0.00     0.024 C 
HETATM   20  C27 UNL     1      -6.549  49.707 -23.349  1.00  0.00     0.010 C 
HETATM   21  C28 UNL     1      -7.575  49.332 -22.253  1.00  0.00     0.011 C 
HETATM   22  C29 UNL     1      -6.951  48.818 -20.943  1.00  0.00    -0.026 C 
HETATM   23  C30 UNL     1      -6.604  50.043 -20.039  1.00  0.00     0.016 C 
ENDROOT
BRANCH   1  24
HETATM   24  C2  UNL     1      -9.123  48.444 -19.457  1.00  0.00    -0.008 C 
HETATM   25  C1  UNL     1      -9.026  48.683 -17.945  1.00  0.00     0.011 C 
BRANCH  24  26
HETATM   26  C3  UNL     1     -10.417  47.651 -19.787  1.00  0.00     0.031 C 
BRANCH  26  27
HETATM   27  C4  UNL     1     -11.483  47.683 -18.728  1.00  0.00    -0.027 C 
HETATM   28  C5  UNL     1     -12.782  47.432 -18.969  1.00  0.00     0.009 C 
BRANCH  28  29
HETATM   29  C6  UNL     1     -13.934  47.431 -17.975  1.00  0.00     0.106 C 
HETATM   30  C7  UNL     1     -14.785  46.150 -18.006  1.00  0.00     0.053 C 
HETATM   31  C8  UNL     1     -14.860  48.629 -18.235  1.00  0.00     0.053 C 
BRANCH  29  32
HETATM   32  O1  UNL     1     -13.410  47.496 -16.628  1.00  0.00    -0.229 OA
BRANCH  32  33
HETATM   33  O2  UNL     1     -14.276  46.705 -15.755  1.00  0.00    -0.249 OA
HETATM   34  H15 UNL     1     -14.608  47.459 -15.237  1.00  0.00     0.253 HD
ENDBRANCH  32  33
ENDBRANCH  29  32
ENDBRANCH  28  29
ENDBRANCH  26  27
ENDBRANCH  24  26
ENDBRANCH   1  24
BRANCH   2  35
HETATM   35  O3  UNL     1      -7.135  45.735 -19.062  1.00  0.00    -0.395 OA
HETATM   36  H18 UNL     1      -7.047  45.297 -19.925  1.00  0.00     0.210 HD
ENDBRANCH   2  35
TORSDOF 7
ENDMDL
MODEL 5
REMARK minimizedAffinity -7.25006342
REMARK CNNscore 0.3338539
REMARK CNNaffinity 6.46228075
REMARK  7 active torsions:
REMARK  status: ('A' for Active; 'I' for Inactive)
REMARK    1  A    between atoms: C2_2  and  C3_3 
REMARK    2  A    between atoms: C2_2  and  C9_11 
REMARK    3  A    between atoms: C3_3  and  C4_4 
REMARK    4  A    between atoms: C5_5  and  C6_6 
REMARK    5  A    between atoms: C6_6  and  O1_9 
REMARK    6  A    between atoms: O1_9  and  O2_10 
REMARK    7  A    between atoms: C10_12  and  O3_13 
ROOT
HETATM    1  C9  UNL     1      -3.923  49.421 -22.959  1.00  0.00     0.028 C 
HETATM    2  C10 UNL     1      -5.009  50.421 -23.451  1.00  0.00     0.124 C 
HETATM    3  C11 UNL     1      -6.345  50.004 -22.786  1.00  0.00     0.046 C 
HETATM    4  C12 UNL     1      -6.049  48.656 -22.085  1.00  0.00    -0.010 C 
HETATM    5  C13 UNL     1      -6.280  47.540 -23.154  1.00  0.00     0.021 C 
HETATM    6  C14 UNL     1      -6.908  48.248 -20.892  1.00  0.00    -0.070 C 
HETATM    7  C15 UNL     1      -8.218  48.565 -20.817  1.00  0.00    -0.022 C 
HETATM    8  C16 UNL     1      -9.151  48.094 -19.735  1.00  0.00     0.034 C 
HETATM    9  C17 UNL     1      -8.406  47.409 -18.578  1.00  0.00     0.013 C 
HETATM   10  C18 UNL     1      -9.296  46.872 -17.412  1.00  0.00     0.018 C 
HETATM   11  C19 UNL     1     -10.190  48.001 -16.860  1.00  0.00     0.023 C 
HETATM   12  C20 UNL     1     -10.195  45.685 -17.780  1.00  0.00     0.023 C 
HETATM   13  C21 UNL     1      -8.367  46.423 -16.270  1.00  0.00     0.135 C 
HETATM   14  O4  UNL     1      -8.793  46.185 -15.138  1.00  0.00    -0.297 OA
HETATM   15  C22 UNL     1      -6.889  46.296 -16.574  1.00  0.00     0.080 C 
HETATM   16  C23 UNL     1      -6.700  45.615 -17.922  1.00  0.00     0.017 C 
HETATM   17  C24 UNL     1      -7.299  46.417 -19.115  1.00  0.00    -0.031 C 
HETATM   18  C25 UNL     1      -7.828  45.381 -20.144  1.00  0.00     0.016 C 
HETATM   19  C26 UNL     1      -6.233  47.355 -19.825  1.00  0.00     0.024 C 
HETATM   20  C27 UNL     1      -4.959  46.645 -20.352  1.00  0.00     0.010 C 
HETATM   21  C28 UNL     1      -3.975  47.522 -21.163  1.00  0.00     0.011 C 
HETATM   22  C29 UNL     1      -4.562  48.862 -21.642  1.00  0.00    -0.026 C 
HETATM   23  C30 UNL     1      -4.389  49.920 -20.506  1.00  0.00     0.016 C 
ENDROOT
BRANCH   1  24
HETATM   24  C2  UNL     1      -2.453  49.939 -22.849  1.00  0.00    -0.008 C 
HETATM   25  C1  UNL     1      -1.519  49.120 -21.949  1.00  0.00     0.011 C 
BRANCH  24  26
HETATM   26  C3  UNL     1      -2.381  51.441 -22.460  1.00  0.00     0.031 C 
BRANCH  26  27
HETATM   27  C4  UNL     1      -1.324  51.800 -21.453  1.00  0.00    -0.027 C 
HETATM   28  C5  UNL     1      -0.372  52.724 -21.668  1.00  0.00     0.009 C 
BRANCH  28  29
HETATM   29  C6  UNL     1       0.734  53.165 -20.720  1.00  0.00     0.106 C 
HETATM   30  C7  UNL     1       2.110  52.557 -21.039  1.00  0.00     0.053 C 
HETATM   31  C8  UNL     1       0.371  52.797 -19.273  1.00  0.00     0.053 C 
BRANCH  29  32
HETATM   32  O1  UNL     1       0.924  54.595 -20.832  1.00  0.00    -0.229 OA
BRANCH  32  33
HETATM   33  O2  UNL     1       1.977  54.846 -21.815  1.00  0.00    -0.249 OA
HETATM   34  H15 UNL     1       2.618  55.212 -21.181  1.00  0.00     0.253 HD
ENDBRANCH  32  33
ENDBRANCH  29  32
ENDBRANCH  28  29
ENDBRANCH  26  27
ENDBRANCH  24  26
ENDBRANCH   1  24
BRANCH   2  35
HETATM   35  O3  UNL     1      -5.129  50.397 -24.866  1.00  0.00    -0.395 OA
HETATM   36  H18 UNL     1      -5.457  49.523 -25.135  1.00  0.00     0.210 HD
ENDBRANCH   2  35
TORSDOF 7
ENDMDL
MODEL 6
REMARK minimizedAffinity -8.36395836
REMARK CNNscore 0.311241955
REMARK CNNaffinity 6.06745386
REMARK  7 active torsions:
REMARK  status: ('A' for Active; 'I' for Inactive)
REMARK    1  A    between atoms: C2_2  and  C3_3 
REMARK    2  A    between atoms: C2_2  and  C9_11 
REMARK    3  A    between atoms: C3_3  and  C4_4 
REMARK    4  A    between atoms: C5_5  and  C6_6 
REMARK    5  A    between atoms: C6_6  and  O1_9 
REMARK    6  A    between atoms: O1_9  and  O2_10 
REMARK    7  A    between atoms: C10_12  and  O3_13 
ROOT
HETATM    1  C9  UNL     1      -3.216  49.960 -23.286  1.00  0.00     0.028 C 
HETATM    2  C10 UNL     1      -4.319  50.913 -23.831  1.00  0.00     0.124 C 
HETATM    3  C11 UNL     1      -5.665  50.444 -23.225  1.00  0.00     0.046 C 
HETATM    4  C12 UNL     1      -5.346  49.111 -22.504  1.00  0.00    -0.010 C 
HETATM    5  C13 UNL     1      -5.482  47.983 -23.576  1.00  0.00     0.021 C 
HETATM    6  C14 UNL     1      -6.240  48.673 -21.348  1.00  0.00    -0.070 C 
HETATM    7  C15 UNL     1      -7.565  48.936 -21.334  1.00  0.00    -0.022 C 
HETATM    8  C16 UNL     1      -8.525  48.431 -20.293  1.00  0.00     0.034 C 
HETATM    9  C17 UNL     1      -7.806  47.781 -19.099  1.00  0.00     0.013 C 
HETATM   10  C18 UNL     1      -8.725  47.212 -17.972  1.00  0.00     0.018 C 
HETATM   11  C19 UNL     1      -9.689  48.306 -17.467  1.00  0.00     0.023 C 
HETATM   12  C20 UNL     1      -9.558  45.989 -18.373  1.00  0.00     0.023 C 
HETATM   13  C21 UNL     1      -7.831  46.806 -16.787  1.00  0.00     0.135 C 
HETATM   14  O4  UNL     1      -8.298  46.555 -15.674  1.00  0.00    -0.297 OA
HETATM   15  C22 UNL     1      -6.337  46.739 -17.023  1.00  0.00     0.080 C 
HETATM   16  C23 UNL     1      -6.060  46.061 -18.357  1.00  0.00     0.017 C 
HETATM   17  C24 UNL     1      -6.636  46.834 -19.581  1.00  0.00    -0.031 C 
HETATM   18  C25 UNL     1      -7.075  45.773 -20.627  1.00  0.00     0.016 C 
HETATM   19  C26 UNL     1      -5.579  47.812 -20.247  1.00  0.00     0.024 C 
HETATM   20  C27 UNL     1      -4.254  47.153 -20.712  1.00  0.00     0.010 C 
HETATM   21  C28 UNL     1      -3.271  48.067 -21.484  1.00  0.00     0.011 C 
HETATM   22  C29 UNL     1      -3.890  49.380 -21.996  1.00  0.00    -0.026 C 
HETATM   23  C30 UNL     1      -3.812  50.448 -20.859  1.00  0.00     0.016 C 
ENDROOT
BRANCH   1  24
HETATM   24  C2  UNL     1      -1.774  50.539 -23.112  1.00  0.00    -0.008 C 
HETATM   25  C1  UNL     1      -1.014  50.080 -21.861  1.00  0.00     0.011 C 
BRANCH  24  26
HETATM   26  C3  UNL     1      -1.741  52.088 -23.214  1.00  0.00     0.031 C 
BRANCH  26  27
HETATM   27  C4  UNL     1      -1.060  52.641 -24.435  1.00  0.00    -0.027 C 
HETATM   28  C5  UNL     1      -0.211  51.933 -25.202  1.00  0.00     0.009 C 
BRANCH  28  29
HETATM   29  C6  UNL     1       0.521  52.391 -26.454  1.00  0.00     0.106 C 
HETATM   30  C7  UNL     1      -0.212  52.057 -27.764  1.00  0.00     0.053 C 
HETATM   31  C8  UNL     1       1.920  51.759 -26.512  1.00  0.00     0.053 C 
BRANCH  29  32
HETATM   32  O1  UNL     1       0.633  53.834 -26.448  1.00  0.00    -0.229 OA
BRANCH  32  33
HETATM   33  O2  UNL     1      -0.351  54.377 -27.383  1.00  0.00    -0.249 OA
HETATM   34  H15 UNL     1       0.299  54.728 -28.017  1.00  0.00     0.253 HD
ENDBRANCH  32  33
ENDBRANCH  29  32
ENDBRANCH  28  29
ENDBRANCH  26  27
ENDBRANCH  24  26
ENDBRANCH   1  24
BRANCH   2  35
HETATM   35  O3  UNL     1      -4.373  50.879 -25.250  1.00  0.00    -0.395 OA
HETATM   36  H18 UNL     1      -4.653  49.991 -25.529  1.00  0.00     0.210 HD
ENDBRANCH   2  35
TORSDOF 7
ENDMDL
MODEL 7
REMARK minimizedAffinity -8.61949825
REMARK CNNscore 0.289231271
REMARK CNNaffinity 6.55207109
REMARK  7 active torsions:
REMARK  status: ('A' for Active; 'I' for Inactive)
REMARK    1  A    between atoms: C2_2  and  C3_3 
REMARK    2  A    between atoms: C2_2  and  C9_11 
REMARK    3  A    between atoms: C3_3  and  C4_4 
REMARK    4  A    between atoms: C5_5  and  C6_6 
REMARK    5  A    between atoms: C6_6  and  O1_9 
REMARK    6  A    between atoms: O1_9  and  O2_10 
REMARK    7  A    between atoms: C10_12  and  O3_13 
ROOT
HETATM    1  C9  UNL     1      -0.086  52.639 -21.405  1.00  0.00     0.028 C 
HETATM    2  C10 UNL     1       1.364  52.918 -20.914  1.00  0.00     0.124 C 
HETATM    3  C11 UNL     1       1.463  52.386 -19.463  1.00  0.00     0.046 C 
HETATM    4  C12 UNL     1       0.018  51.994 -19.071  1.00  0.00    -0.010 C 
HETATM    5  C13 UNL     1      -0.656  53.287 -18.509  1.00  0.00     0.021 C 
HETATM    6  C14 UNL     1      -0.186  50.936 -17.992  1.00  0.00    -0.070 C 
HETATM    7  C15 UNL     1       0.657  50.818 -16.943  1.00  0.00    -0.022 C 
HETATM    8  C16 UNL     1       0.451  49.883 -15.783  1.00  0.00     0.034 C 
HETATM    9  C17 UNL     1      -0.699  48.891 -16.027  1.00  0.00     0.013 C 
HETATM   10  C18 UNL     1      -0.997  47.890 -14.866  1.00  0.00     0.018 C 
HETATM   11  C19 UNL     1       0.284  47.119 -14.485  1.00  0.00     0.023 C 
HETATM   12  C20 UNL     1      -1.570  48.526 -13.594  1.00  0.00     0.023 C 
HETATM   13  C21 UNL     1      -2.018  46.857 -15.378  1.00  0.00     0.135 C 
HETATM   14  O4  UNL     1      -2.252  45.813 -14.765  1.00  0.00    -0.297 OA
HETATM   15  C22 UNL     1      -2.724  47.154 -16.684  1.00  0.00     0.080 C 
HETATM   16  C23 UNL     1      -3.149  48.615 -16.714  1.00  0.00     0.017 C 
HETATM   17  C24 UNL     1      -1.956  49.614 -16.656  1.00  0.00    -0.031 C 
HETATM   18  C25 UNL     1      -2.435  50.855 -15.856  1.00  0.00     0.016 C 
HETATM   19  C26 UNL     1      -1.470  50.080 -18.093  1.00  0.00     0.024 C 
HETATM   20  C27 UNL     1      -2.556  50.726 -18.993  1.00  0.00     0.010 C 
HETATM   21  C28 UNL     1      -2.068  51.307 -20.342  1.00  0.00     0.011 C 
HETATM   22  C29 UNL     1      -0.543  51.489 -20.443  1.00  0.00    -0.026 C 
HETATM   23  C30 UNL     1       0.093  50.145 -20.921  1.00  0.00     0.016 C 
ENDROOT
BRANCH   1  24
HETATM   24  C2  UNL     1      -0.302  52.390 -22.933  1.00  0.00    -0.008 C 
HETATM   25  C1  UNL     1       0.596  53.196 -23.878  1.00  0.00     0.011 C 
BRANCH  24  26
HETATM   26  C3  UNL     1      -1.789  52.544 -23.353  1.00  0.00     0.031 C 
BRANCH  26  27
HETATM   27  C4  UNL     1      -2.097  52.193 -24.782  1.00  0.00    -0.027 C 
HETATM   28  C5  UNL     1      -1.379  52.633 -25.830  1.00  0.00     0.009 C 
BRANCH  28  29
HETATM   29  C6  UNL     1      -1.599  52.334 -27.306  1.00  0.00     0.106 C 
HETATM   30  C7  UNL     1      -2.708  51.304 -27.576  1.00  0.00     0.053 C 
HETATM   31  C8  UNL     1      -0.299  51.818 -27.942  1.00  0.00     0.053 C 
BRANCH  29  32
HETATM   32  O1  UNL     1      -2.035  53.536 -27.982  1.00  0.00    -0.229 OA
BRANCH  32  33
HETATM   33  O2  UNL     1      -0.986  54.546 -27.853  1.00  0.00    -0.249 OA
HETATM   34  H15 UNL     1      -1.501  55.153 -27.293  1.00  0.00     0.253 HD
ENDBRANCH  32  33
ENDBRANCH  29  32
ENDBRANCH  28  29
ENDBRANCH  26  27
ENDBRANCH  24  26
ENDBRANCH   1  24
BRANCH   2  35
HETATM   35  O3  UNL     1       1.664  54.307 -20.957  1.00  0.00    -0.395 OA
HETATM   36  H18 UNL     1       1.094  54.767 -20.319  1.00  0.00     0.210 HD
ENDBRANCH   2  35
TORSDOF 7
ENDMDL
MODEL 8
REMARK minimizedAffinity -7.37722826
REMARK CNNscore 0.280952513
REMARK CNNaffinity 6.23294258
REMARK  7 active torsions:
REMARK  status: ('A' for Active; 'I' for Inactive)
REMARK    1  A    between atoms: C2_2  and  C3_3 
REMARK    2  A    between atoms: C2_2  and  C9_11 
REMARK    3  A    between atoms: C3_3  and  C4_4 
REMARK    4  A    between atoms: C5_5  and  C6_6 
REMARK    5  A    between atoms: C6_6  and  O1_9 
REMARK    6  A    between atoms: O1_9  and  O2_10 
REMARK    7  A    between atoms: C10_12  and  O3_13 
ROOT
HETATM    1  C9  UNL     1       1.575  55.272  -8.874  1.00  0.00     0.028 C 
HETATM    2  C10 UNL     1       2.463  54.654  -9.992  1.00  0.00     0.124 C 
HETATM    3  C11 UNL     1       3.939  54.883  -9.578  1.00  0.00     0.046 C 
HETATM    4  C12 UNL     1       3.877  55.802  -8.335  1.00  0.00    -0.010 C 
HETATM    5  C13 UNL     1       3.841  57.270  -8.869  1.00  0.00     0.021 C 
HETATM    6  C14 UNL     1       5.034  55.767  -7.341  1.00  0.00    -0.070 C 
HETATM    7  C15 UNL     1       6.308  55.563  -7.739  1.00  0.00    -0.022 C 
HETATM    8  C16 UNL     1       7.508  55.638  -6.836  1.00  0.00     0.034 C 
HETATM    9  C17 UNL     1       7.118  55.730  -5.351  1.00  0.00     0.013 C 
HETATM   10  C18 UNL     1       8.302  55.827  -4.337  1.00  0.00     0.018 C 
HETATM   11  C19 UNL     1       9.281  54.653  -4.546  1.00  0.00     0.023 C 
HETATM   12  C20 UNL     1       9.100  57.134  -4.398  1.00  0.00     0.023 C 
HETATM   13  C21 UNL     1       7.724  55.694  -2.916  1.00  0.00     0.135 C 
HETATM   14  O4  UNL     1       8.444  55.491  -1.936  1.00  0.00    -0.297 OA
HETATM   15  C22 UNL     1       6.222  55.802  -2.754  1.00  0.00     0.080 C 
HETATM   16  C23 UNL     1       5.698  56.950  -3.605  1.00  0.00     0.017 C 
HETATM   17  C24 UNL     1       5.934  56.753  -5.132  1.00  0.00    -0.031 C 
HETATM   18  C25 UNL     1       6.195  58.158  -5.740  1.00  0.00     0.016 C 
HETATM   19  C26 UNL     1       4.693  56.092  -5.868  1.00  0.00     0.024 C 
HETATM   20  C27 UNL     1       3.343  56.839  -5.712  1.00  0.00     0.010 C 
HETATM   21  C28 UNL     1       2.156  56.282  -6.533  1.00  0.00     0.011 C 
HETATM   22  C29 UNL     1       2.557  55.306  -7.653  1.00  0.00    -0.026 C 
HETATM   23  C30 UNL     1       2.668  53.869  -7.051  1.00  0.00     0.016 C 
ENDROOT
BRANCH   1  24
HETATM   24  C2  UNL     1       0.175  54.626  -8.616  1.00  0.00    -0.008 C 
HETATM   25  C1  UNL     1       0.058  53.130  -8.929  1.00  0.00     0.011 C 
BRANCH  24  26
HETATM   26  C3  UNL     1      -0.974  55.405  -9.313  1.00  0.00     0.031 C 
BRANCH  26  27
HETATM   27  C4  UNL     1      -1.635  54.694 -10.460  1.00  0.00    -0.027 C 
HETATM   28  C5  UNL     1      -2.652  53.826 -10.315  1.00  0.00     0.009 C 
BRANCH  28  29
HETATM   29  C6  UNL     1      -3.392  53.062 -11.403  1.00  0.00     0.106 C 
HETATM   30  C7  UNL     1      -4.336  51.972 -10.868  1.00  0.00     0.053 C 
HETATM   31  C8  UNL     1      -2.390  52.401 -12.362  1.00  0.00     0.053 C 
BRANCH  29  32
HETATM   32  O1  UNL     1      -4.249  53.970 -12.133  1.00  0.00    -0.229 OA
BRANCH  32  33
HETATM   33  O2  UNL     1      -4.175  53.634 -13.554  1.00  0.00    -0.249 OA
HETATM   34  H15 UNL     1      -3.737  54.459 -13.828  1.00  0.00     0.253 HD
ENDBRANCH  32  33
ENDBRANCH  29  32
ENDBRANCH  28  29
ENDBRANCH  26  27
ENDBRANCH  24  26
ENDBRANCH   1  24
BRANCH   2  35
HETATM   35  O3  UNL     1       2.200  55.258 -11.251  1.00  0.00    -0.395 OA
HETATM   36  H18 UNL     1       2.467  56.191 -11.210  1.00  0.00     0.210 HD
ENDBRANCH   2  35
TORSDOF 7
ENDMDL
MODEL 9
REMARK minimizedAffinity -7.40730286
REMARK CNNscore 0.280565828
REMARK CNNaffinity 5.85751343
REMARK  7 active torsions:
REMARK  status: ('A' for Active; 'I' for Inactive)
REMARK    1  A    between atoms: C2_2  and  C3_3 
REMARK    2  A    between atoms: C2_2  and  C9_11 
REMARK    3  A    between atoms: C3_3  and  C4_4 
REMARK    4  A    between atoms: C5_5  and  C6_6 
REMARK    5  A    between atoms: C6_6  and  O1_9 
REMARK    6  A    between atoms: O1_9  and  O2_10 
REMARK    7  A    between atoms: C10_12  and  O3_13 
ROOT
HETATM    1  C9  UNL     1      -7.381  48.139 -29.845  1.00  0.00     0.028 C 
HETATM    2  C10 UNL     1      -8.180  47.688 -28.588  1.00  0.00     0.124 C 
HETATM    3  C11 UNL     1      -9.208  46.629 -29.059  1.00  0.00     0.046 C 
HETATM    4  C12 UNL     1      -9.123  46.634 -30.604  1.00  0.00    -0.010 C 
HETATM    5  C13 UNL     1     -10.102  47.746 -31.099  1.00  0.00     0.021 C 
HETATM    6  C14 UNL     1      -9.531  45.376 -31.364  1.00  0.00    -0.070 C 
HETATM    7  C15 UNL     1     -10.527  44.574 -30.929  1.00  0.00    -0.022 C 
HETATM    8  C16 UNL     1     -11.063  43.390 -31.686  1.00  0.00     0.034 C 
HETATM    9  C17 UNL     1     -10.195  43.032 -32.904  1.00  0.00     0.013 C 
HETATM   10  C18 UNL     1     -10.684  41.823 -33.761  1.00  0.00     0.018 C 
HETATM   11  C19 UNL     1     -10.869  40.577 -32.870  1.00  0.00     0.023 C 
HETATM   12  C20 UNL     1     -11.990  42.060 -34.529  1.00  0.00     0.023 C 
HETATM   13  C21 UNL     1      -9.587  41.491 -34.789  1.00  0.00     0.135 C 
HETATM   14  O4  UNL     1      -9.591  40.439 -35.431  1.00  0.00    -0.297 OA
HETATM   15  C22 UNL     1      -8.473  42.500 -34.979  1.00  0.00     0.080 C 
HETATM   16  C23 UNL     1      -9.059  43.904 -35.026  1.00  0.00     0.017 C 
HETATM   17  C24 UNL     1      -9.776  44.326 -33.709  1.00  0.00    -0.031 C 
HETATM   18  C25 UNL     1     -10.971  45.234 -34.108  1.00  0.00     0.016 C 
HETATM   19  C26 UNL     1      -8.827  45.124 -32.718  1.00  0.00     0.024 C 
HETATM   20  C27 UNL     1      -8.167  46.400 -33.301  1.00  0.00     0.010 C 
HETATM   21  C28 UNL     1      -7.349  47.260 -32.307  1.00  0.00     0.011 C 
HETATM   22  C29 UNL     1      -7.602  46.935 -30.824  1.00  0.00    -0.026 C 
HETATM   23  C30 UNL     1      -6.665  45.759 -30.402  1.00  0.00     0.016 C 
ENDROOT
BRANCH   1  24
HETATM   24  C2  UNL     1      -5.902  48.601 -29.641  1.00  0.00    -0.008 C 
HETATM   25  C1  UNL     1      -5.014  48.580 -30.891  1.00  0.00     0.011 C 
BRANCH  24  26
HETATM   26  C3  UNL     1      -5.200  47.847 -28.478  1.00  0.00     0.031 C 
BRANCH  26  27
HETATM   27  C4  UNL     1      -4.259  48.673 -27.647  1.00  0.00    -0.027 C 
HETATM   28  C5  UNL     1      -4.234  48.651 -26.303  1.00  0.00     0.009 C 
BRANCH  28  29
HETATM   29  C6  UNL     1      -3.323  49.436 -25.371  1.00  0.00     0.106 C 
HETATM   30  C7  UNL     1      -2.001  49.882 -26.019  1.00  0.00     0.053 C 
HETATM   31  C8  UNL     1      -2.988  48.599 -24.127  1.00  0.00     0.053 C 
BRANCH  29  32
HETATM   32  O1  UNL     1      -3.978  50.664 -24.978  1.00  0.00    -0.229 OA
BRANCH  32  33
HETATM   33  O2  UNL     1      -5.367  50.360 -24.639  1.00  0.00    -0.249 OA
HETATM   34  H15 UNL     1      -5.760  50.855 -25.379  1.00  0.00     0.253 HD
ENDBRANCH  32  33
ENDBRANCH  29  32
ENDBRANCH  28  29
ENDBRANCH  26  27
ENDBRANCH  24  26
ENDBRANCH   1  24
BRANCH   2  35
HETATM   35  O3  UNL     1      -8.842  48.788 -27.978  1.00  0.00    -0.395 OA
HETATM   36  H18 UNL     1      -9.516  49.125 -28.592  1.00  0.00     0.210 HD
ENDBRANCH   2  35
TORSDOF 7
ENDMDL
