MODEL 1
REMARK minimizedAffinity -10.0021753
REMARK  6 active torsions:
REMARK  status: ('A' for Active; 'I' for Inactive)
REMARK    1  A    between atoms: C4_4  and  C5_5 
REMARK    2  A    between atoms: C5_5  and  C6_6 
REMARK    3  A    between atoms: C6_6  and  C7_7 
REMARK    4  A    between atoms: C7_7  and  C9_9 
REMARK    5  A    between atoms: C24_24  and  O1_25 
REMARK    6  A    between atoms: C27_28  and  O2_29 
ROOT
HETATM    1  C9  UNL     1      -1.219  49.203 -18.757  1.00  0.00    -0.002 C 
HETATM    2  C10 UNL     1      -2.525  48.370 -18.673  1.00  0.00     0.007 C 
HETATM    3  C11 UNL     1      -3.181  48.426 -20.073  1.00  0.00     0.015 C 
HETATM    4  C12 UNL     1      -2.081  48.970 -21.005  1.00  0.00    -0.013 C 
HETATM    5  C13 UNL     1      -1.183  47.757 -21.403  1.00  0.00     0.021 C 
HETATM    6  C14 UNL     1      -2.457  49.617 -22.335  1.00  0.00    -0.065 C 
HETATM    7  C15 UNL     1      -1.640  50.555 -22.887  1.00  0.00    -0.068 C 
HETATM    8  C16 UNL     1      -0.414  51.097 -22.132  1.00  0.00     0.036 C 
HETATM    9  C17 UNL     1      -0.131  50.530 -20.724  1.00  0.00     0.015 C 
HETATM   10  C18 UNL     1      -1.418  50.038 -20.055  1.00  0.00    -0.029 C 
HETATM   11  C19 UNL     1      -2.342  51.266 -19.808  1.00  0.00     0.016 C 
HETATM   12  C20 UNL     1      -1.950  51.199 -24.265  1.00  0.00    -0.014 C 
HETATM   13  C21 UNL     1      -2.548  52.596 -23.950  1.00  0.00     0.020 C 
HETATM   14  C22 UNL     1      -0.659  51.349 -25.132  1.00  0.00     0.016 C 
HETATM   15  C23 UNL     1      -0.834  51.103 -26.640  1.00  0.00     0.033 C 
HETATM   16  C24 UNL     1      -2.175  51.564 -27.185  1.00  0.00     0.118 C 
HETATM   17  C25 UNL     1      -3.355  50.946 -26.425  1.00  0.00     0.039 C 
HETATM   18  C26 UNL     1      -2.950  50.318 -25.072  1.00  0.00     0.029 C 
HETATM   19  C27 UNL     1      -4.167  49.926 -24.229  1.00  0.00     0.127 C 
HETATM   20  C28 UNL     1      -3.730  49.136 -22.991  1.00  0.00     0.067 C 
ENDROOT
BRANCH   1  21
HETATM   21  C7  UNL     1      -0.747  49.861 -17.428  1.00  0.00    -0.014 C 
HETATM   22  C8  UNL     1      -0.022  48.945 -16.434  1.00  0.00     0.010 C 
BRANCH  21  23
HETATM   23  C6  UNL     1       0.192  51.073 -17.687  1.00  0.00     0.008 C 
BRANCH  23  24
HETATM   24  C5  UNL     1       0.714  51.770 -16.424  1.00  0.00     0.028 C 
BRANCH  24  25
HETATM   25  C4  UNL     1       2.136  52.225 -16.619  1.00  0.00    -0.025 C 
HETATM   26  C2  UNL     1       3.181  52.076 -15.780  1.00  0.00    -0.091 C 
HETATM   27  C1  UNL     1       4.549  52.572 -16.169  1.00  0.00     0.042 C 
HETATM   28  C3  UNL     1       3.121  51.428 -14.426  1.00  0.00     0.042 C 
ENDBRANCH  24  25
ENDBRANCH  23  24
ENDBRANCH  21  23
ENDBRANCH   1  21
BRANCH  19  29
HETATM   29  O2  UNL     1      -5.074  49.128 -24.996  1.00  0.00    -0.395 OA
HETATM   30  H44 UNL     1      -4.600  48.329 -25.279  1.00  0.00     0.210 HD
ENDBRANCH  19  29
BRANCH  16  31
HETATM   31  O1  UNL     1      -2.248  52.985 -27.119  1.00  0.00    -0.396 OA
HETATM   32  H39 UNL     1      -1.526  53.343 -27.663  1.00  0.00     0.210 HD
ENDBRANCH  16  31
TORSDOF 6
ENDMDL
MODEL 2
REMARK minimizedAffinity -9.66159534
REMARK  6 active torsions:
REMARK  status: ('A' for Active; 'I' for Inactive)
REMARK    1  A    between atoms: C4_4  and  C5_5 
REMARK    2  A    between atoms: C5_5  and  C6_6 
REMARK    3  A    between atoms: C6_6  and  C7_7 
REMARK    4  A    between atoms: C7_7  and  C9_9 
REMARK    5  A    between atoms: C24_24  and  O1_25 
REMARK    6  A    between atoms: C27_28  and  O2_29 
ROOT
HETATM    1  C9  UNL     1      -0.281  52.483 -22.090  1.00  0.00    -0.002 C 
HETATM    2  C10 UNL     1       0.415  52.236 -23.455  1.00  0.00     0.007 C 
HETATM    3  C11 UNL     1      -0.553  51.374 -24.300  1.00  0.00     0.015 C 
HETATM    4  C12 UNL     1      -1.903  51.452 -23.561  1.00  0.00    -0.013 C 
HETATM    5  C13 UNL     1      -2.590  52.780 -24.008  1.00  0.00     0.021 C 
HETATM    6  C14 UNL     1      -2.963  50.378 -23.790  1.00  0.00    -0.065 C 
HETATM    7  C15 UNL     1      -3.868  50.101 -22.813  1.00  0.00    -0.068 C 
HETATM    8  C16 UNL     1      -3.763  50.736 -21.415  1.00  0.00     0.036 C 
HETATM    9  C17 UNL     1      -2.596  51.714 -21.159  1.00  0.00     0.015 C 
HETATM   10  C18 UNL     1      -1.402  51.403 -22.067  1.00  0.00    -0.029 C 
HETATM   11  C19 UNL     1      -0.840  50.005 -21.676  1.00  0.00     0.016 C 
HETATM   12  C20 UNL     1      -5.001  49.060 -23.020  1.00  0.00    -0.014 C 
HETATM   13  C21 UNL     1      -4.531  47.776 -22.286  1.00  0.00     0.020 C 
HETATM   14  C22 UNL     1      -6.355  49.557 -22.421  1.00  0.00     0.016 C 
HETATM   15  C23 UNL     1      -7.616  49.193 -23.223  1.00  0.00     0.033 C 
HETATM   16  C24 UNL     1      -7.537  47.838 -23.905  1.00  0.00     0.118 C 
HETATM   17  C25 UNL     1      -6.303  47.711 -24.807  1.00  0.00     0.039 C 
HETATM   18  C26 UNL     1      -5.235  48.797 -24.538  1.00  0.00     0.029 C 
HETATM   19  C27 UNL     1      -3.922  48.510 -25.272  1.00  0.00     0.127 C 
HETATM   20  C28 UNL     1      -2.963  49.698 -25.139  1.00  0.00     0.067 C 
ENDROOT
BRANCH   1  21
HETATM   21  C7  UNL     1       0.665  52.703 -20.875  1.00  0.00    -0.014 C 
HETATM   22  C8  UNL     1       1.711  53.817 -21.018  1.00  0.00     0.010 C 
BRANCH  21  23
HETATM   23  C6  UNL     1      -0.130  53.001 -19.572  1.00  0.00     0.008 C 
BRANCH  23  24
HETATM   24  C5  UNL     1       0.235  52.115 -18.374  1.00  0.00     0.028 C 
BRANCH  24  25
HETATM   25  C4  UNL     1       1.533  52.565 -17.758  1.00  0.00    -0.025 C 
HETATM   26  C2  UNL     1       2.073  52.187 -16.582  1.00  0.00    -0.091 C 
HETATM   27  C1  UNL     1       3.411  52.726 -16.147  1.00  0.00     0.042 C 
HETATM   28  C3  UNL     1       1.447  51.228 -15.609  1.00  0.00     0.042 C 
ENDBRANCH  24  25
ENDBRANCH  23  24
ENDBRANCH  21  23
ENDBRANCH   1  21
BRANCH  19  29
HETATM   29  O2  UNL     1      -4.166  48.261 -26.660  1.00  0.00    -0.395 OA
HETATM   30  H44 UNL     1      -4.585  49.053 -27.034  1.00  0.00     0.210 HD
ENDBRANCH  19  29
BRANCH  16  31
HETATM   31  O1  UNL     1      -7.523  46.812 -22.918  1.00  0.00    -0.396 OA
HETATM   32  H39 UNL     1      -8.348  46.881 -22.409  1.00  0.00     0.210 HD
ENDBRANCH  16  31
TORSDOF 6
ENDMDL
MODEL 3
REMARK minimizedAffinity -9.03882313
REMARK  6 active torsions:
REMARK  status: ('A' for Active; 'I' for Inactive)
REMARK    1  A    between atoms: C4_4  and  C5_5 
REMARK    2  A    between atoms: C5_5  and  C6_6 
REMARK    3  A    between atoms: C6_6  and  C7_7 
REMARK    4  A    between atoms: C7_7  and  C9_9 
REMARK    5  A    between atoms: C24_24  and  O1_25 
REMARK    6  A    between atoms: C27_28  and  O2_29 
ROOT
HETATM    1  C9  UNL     1      -2.439  49.645 -18.998  1.00  0.00    -0.002 C 
HETATM    2  C10 UNL     1      -3.746  48.973 -18.503  1.00  0.00     0.007 C 
HETATM    3  C11 UNL     1      -4.515  48.508 -19.762  1.00  0.00     0.015 C 
HETATM    4  C12 UNL     1      -3.487  48.592 -20.908  1.00  0.00    -0.013 C 
HETATM    5  C13 UNL     1      -2.644  47.279 -20.858  1.00  0.00     0.021 C 
HETATM    6  C14 UNL     1      -3.962  48.685 -22.355  1.00  0.00    -0.065 C 
HETATM    7  C15 UNL     1      -3.179  49.293 -23.287  1.00  0.00    -0.068 C 
HETATM    8  C16 UNL     1      -1.885  50.029 -22.894  1.00  0.00     0.036 C 
HETATM    9  C17 UNL     1      -1.496  50.044 -21.400  1.00  0.00     0.015 C 
HETATM   10  C18 UNL     1      -2.731  49.914 -20.504  1.00  0.00    -0.029 C 
HETATM   11  C19 UNL     1      -3.612  51.183 -20.696  1.00  0.00     0.016 C 
HETATM   12  C20 UNL     1      -3.591  49.361 -24.782  1.00  0.00    -0.014 C 
HETATM   13  C21 UNL     1      -4.139  50.796 -25.001  1.00  0.00     0.020 C 
HETATM   14  C22 UNL     1      -2.374  49.100 -25.726  1.00  0.00     0.016 C 
HETATM   15  C23 UNL     1      -2.677  48.293 -26.999  1.00  0.00     0.033 C 
HETATM   16  C24 UNL     1      -4.051  48.566 -27.587  1.00  0.00     0.118 C 
HETATM   17  C25 UNL     1      -5.174  48.350 -26.565  1.00  0.00     0.039 C 
HETATM   18  C26 UNL     1      -4.668  48.283 -25.105  1.00  0.00     0.029 C 
HETATM   19  C27 UNL     1      -5.817  48.310 -24.094  1.00  0.00     0.127 C 
HETATM   20  C28 UNL     1      -5.292  48.046 -22.678  1.00  0.00     0.067 C 
ENDROOT
BRANCH   1  21
HETATM   21  C7  UNL     1      -1.848  50.747 -18.073  1.00  0.00    -0.014 C 
HETATM   22  C8  UNL     1      -0.746  50.303 -17.101  1.00  0.00     0.010 C 
BRANCH  21  23
HETATM   23  C6  UNL     1      -1.270  51.938 -18.890  1.00  0.00     0.008 C 
BRANCH  23  24
HETATM   24  C5  UNL     1       0.235  52.173 -18.715  1.00  0.00     0.028 C 
BRANCH  24  25
HETATM   25  C4  UNL     1       0.700  53.305 -19.593  1.00  0.00    -0.025 C 
HETATM   26  C2  UNL     1       1.099  53.252 -20.880  1.00  0.00    -0.091 C 
HETATM   27  C1  UNL     1       1.499  54.508 -21.608  1.00  0.00     0.042 C 
HETATM   28  C3  UNL     1       1.185  52.002 -21.711  1.00  0.00     0.042 C 
ENDBRANCH  24  25
ENDBRANCH  23  24
ENDBRANCH  21  23
ENDBRANCH   1  21
BRANCH  19  29
HETATM   29  O2  UNL     1      -6.797  47.319 -24.419  1.00  0.00    -0.395 OA
HETATM   30  H44 UNL     1      -6.360  46.451 -24.397  1.00  0.00     0.210 HD
ENDBRANCH  19  29
BRANCH  16  31
HETATM   31  O1  UNL     1      -4.096  49.901 -28.080  1.00  0.00    -0.396 OA
HETATM   32  H39 UNL     1      -3.416  49.984 -28.770  1.00  0.00     0.210 HD
ENDBRANCH  16  31
TORSDOF 6
ENDMDL
MODEL 4
REMARK minimizedAffinity -8.88883305
REMARK  6 active torsions:
REMARK  status: ('A' for Active; 'I' for Inactive)
REMARK    1  A    between atoms: C4_4  and  C5_5 
REMARK    2  A    between atoms: C5_5  and  C6_6 
REMARK    3  A    between atoms: C6_6  and  C7_7 
REMARK    4  A    between atoms: C7_7  and  C9_9 
REMARK    5  A    between atoms: C24_24  and  O1_25 
REMARK    6  A    between atoms: C27_28  and  O2_29 
ROOT
HETATM    1  C9  UNL     1      -3.912  48.654 -20.118  1.00  0.00    -0.002 C 
HETATM    2  C10 UNL     1      -4.765  47.609 -20.886  1.00  0.00     0.007 C 
HETATM    3  C11 UNL     1      -4.408  47.754 -22.384  1.00  0.00     0.015 C 
HETATM    4  C12 UNL     1      -3.122  48.603 -22.405  1.00  0.00    -0.013 C 
HETATM    5  C13 UNL     1      -1.930  47.629 -22.148  1.00  0.00     0.021 C 
HETATM    6  C14 UNL     1      -2.727  49.363 -23.668  1.00  0.00    -0.065 C 
HETATM    7  C15 UNL     1      -1.977  50.493 -23.573  1.00  0.00    -0.068 C 
HETATM    8  C16 UNL     1      -1.637  51.120 -22.209  1.00  0.00     0.036 C 
HETATM    9  C17 UNL     1      -2.168  50.412 -20.944  1.00  0.00     0.015 C 
HETATM   10  C18 UNL     1      -3.444  49.620 -21.245  1.00  0.00    -0.029 C 
HETATM   11  C19 UNL     1      -4.565  50.628 -21.634  1.00  0.00     0.016 C 
HETATM   12  C20 UNL     1      -1.501  51.267 -24.832  1.00  0.00    -0.014 C 
HETATM   13  C21 UNL     1      -2.456  52.484 -24.962  1.00  0.00     0.020 C 
HETATM   14  C22 UNL     1      -0.025  51.755 -24.683  1.00  0.00     0.016 C 
HETATM   15  C23 UNL     1       0.829  51.702 -25.961  1.00  0.00     0.033 C 
HETATM   16  C24 UNL     1       0.052  52.004 -27.231  1.00  0.00     0.118 C 
HETATM   17  C25 UNL     1      -1.172  51.094 -27.395  1.00  0.00     0.039 C 
HETATM   18  C26 UNL     1      -1.564  50.356 -26.094  1.00  0.00     0.029 C 
HETATM   19  C27 UNL     1      -2.916  49.648 -26.216  1.00  0.00     0.127 C 
HETATM   20  C28 UNL     1      -3.177  48.773 -24.985  1.00  0.00     0.067 C 
ENDROOT
BRANCH   1  21
HETATM   21  C7  UNL     1      -4.521  49.184 -18.789  1.00  0.00    -0.014 C 
HETATM   22  C8  UNL     1      -5.812  48.505 -18.311  1.00  0.00     0.010 C 
BRANCH  21  23
HETATM   23  C6  UNL     1      -3.507  49.094 -17.613  1.00  0.00     0.008 C 
BRANCH  23  24
HETATM   24  C5  UNL     1      -2.143  48.496 -17.979  1.00  0.00     0.028 C 
BRANCH  24  25
HETATM   25  C4  UNL     1      -1.115  48.843 -16.934  1.00  0.00    -0.025 C 
HETATM   26  C2  UNL     1      -0.230  49.860 -16.941  1.00  0.00    -0.091 C 
HETATM   27  C1  UNL     1       0.705  50.067 -15.778  1.00  0.00     0.042 C 
HETATM   28  C3  UNL     1      -0.074  50.867 -18.046  1.00  0.00     0.042 C 
ENDBRANCH  24  25
ENDBRANCH  23  24
ENDBRANCH  21  23
ENDBRANCH   1  21
BRANCH  19  29
HETATM   29  O2  UNL     1      -2.951  48.828 -27.387  1.00  0.00    -0.395 OA
HETATM   30  H44 UNL     1      -2.242  48.168 -27.309  1.00  0.00     0.210 HD
ENDBRANCH  19  29
BRANCH  16  31
HETATM   31  O1  UNL     1      -0.357  53.368 -27.220  1.00  0.00    -0.396 OA
HETATM   32  H39 UNL     1       0.444  53.916 -27.181  1.00  0.00     0.210 HD
ENDBRANCH  16  31
TORSDOF 6
ENDMDL
MODEL 5
REMARK minimizedAffinity -8.7679739
REMARK  6 active torsions:
REMARK  status: ('A' for Active; 'I' for Inactive)
REMARK    1  A    between atoms: C4_4  and  C5_5 
REMARK    2  A    between atoms: C5_5  and  C6_6 
REMARK    3  A    between atoms: C6_6  and  C7_7 
REMARK    4  A    between atoms: C7_7  and  C9_9 
REMARK    5  A    between atoms: C24_24  and  O1_25 
REMARK    6  A    between atoms: C27_28  and  O2_29 
ROOT
HETATM    1  C9  UNL     1      -0.541  50.004 -20.694  1.00  0.00    -0.002 C 
HETATM    2  C10 UNL     1      -0.961  49.296 -19.379  1.00  0.00     0.007 C 
HETATM    3  C11 UNL     1      -2.317  48.605 -19.657  1.00  0.00     0.015 C 
HETATM    4  C12 UNL     1      -2.464  48.621 -21.191  1.00  0.00    -0.013 C 
HETATM    5  C13 UNL     1      -1.656  47.402 -21.737  1.00  0.00     0.021 C 
HETATM    6  C14 UNL     1      -3.843  48.480 -21.828  1.00  0.00    -0.065 C 
HETATM    7  C15 UNL     1      -4.082  49.022 -23.053  1.00  0.00    -0.068 C 
HETATM    8  C16 UNL     1      -3.040  49.910 -23.756  1.00  0.00     0.036 C 
HETATM    9  C17 UNL     1      -1.701  50.157 -23.028  1.00  0.00     0.015 C 
HETATM   10  C18 UNL     1      -1.867  50.044 -21.510  1.00  0.00    -0.029 C 
HETATM   11  C19 UNL     1      -2.796  51.198 -21.031  1.00  0.00     0.016 C 
HETATM   12  C20 UNL     1      -5.450  48.855 -23.768  1.00  0.00    -0.014 C 
HETATM   13  C21 UNL     1      -6.200  50.197 -23.556  1.00  0.00     0.020 C 
HETATM   14  C22 UNL     1      -5.270  48.574 -25.294  1.00  0.00     0.016 C 
HETATM   15  C23 UNL     1      -6.269  47.581 -25.912  1.00  0.00     0.033 C 
HETATM   16  C24 UNL     1      -7.662  47.658 -25.312  1.00  0.00     0.118 C 
HETATM   17  C25 UNL     1      -7.648  47.487 -23.787  1.00  0.00     0.039 C 
HETATM   18  C26 UNL     1      -6.243  47.658 -23.165  1.00  0.00     0.029 C 
HETATM   19  C27 UNL     1      -6.292  47.722 -21.636  1.00  0.00     0.127 C 
HETATM   20  C28 UNL     1      -4.875  47.694 -21.053  1.00  0.00     0.067 C 
ENDROOT
BRANCH   1  21
HETATM   21  C7  UNL     1       0.355  51.265 -20.531  1.00  0.00    -0.014 C 
HETATM   22  C8  UNL     1       0.505  52.159 -21.769  1.00  0.00     0.010 C 
BRANCH  21  23
HETATM   23  C6  UNL     1      -0.142  52.180 -19.376  1.00  0.00     0.008 C 
BRANCH  23  24
HETATM   24  C5  UNL     1       0.964  52.738 -18.472  1.00  0.00     0.028 C 
BRANCH  24  25
HETATM   25  C4  UNL     1       0.978  52.020 -17.148  1.00  0.00    -0.025 C 
HETATM   26  C2  UNL     1       1.976  51.961 -16.242  1.00  0.00    -0.091 C 
HETATM   27  C1  UNL     1       1.789  51.214 -14.948  1.00  0.00     0.042 C 
HETATM   28  C3  UNL     1       3.327  52.601 -16.397  1.00  0.00     0.042 C 
ENDBRANCH  24  25
ENDBRANCH  23  24
ENDBRANCH  21  23
ENDBRANCH   1  21
BRANCH  19  29
HETATM   29  O2  UNL     1      -7.034  46.618 -21.110  1.00  0.00    -0.395 OA
HETATM   30  H44 UNL     1      -6.590  45.801 -21.389  1.00  0.00     0.210 HD
ENDBRANCH  19  29
BRANCH  16  31
HETATM   31  O1  UNL     1      -8.255  48.906 -25.653  1.00  0.00    -0.396 OA
HETATM   32  H39 UNL     1      -8.308  48.953 -26.622  1.00  0.00     0.210 HD
ENDBRANCH  16  31
TORSDOF 6
ENDMDL
MODEL 6
REMARK minimizedAffinity -8.7200222
REMARK  6 active torsions:
REMARK  status: ('A' for Active; 'I' for Inactive)
REMARK    1  A    between atoms: C4_4  and  C5_5 
REMARK    2  A    between atoms: C5_5  and  C6_6 
REMARK    3  A    between atoms: C6_6  and  C7_7 
REMARK    4  A    between atoms: C7_7  and  C9_9 
REMARK    5  A    between atoms: C24_24  and  O1_25 
REMARK    6  A    between atoms: C27_28  and  O2_29 
ROOT
HETATM    1  C9  UNL     1      -1.191  50.642 -21.831  1.00  0.00    -0.002 C 
HETATM    2  C10 UNL     1      -1.125  50.000 -20.419  1.00  0.00     0.007 C 
HETATM    3  C11 UNL     1      -2.359  49.077 -20.290  1.00  0.00     0.015 C 
HETATM    4  C12 UNL     1      -2.896  48.927 -21.727  1.00  0.00    -0.013 C 
HETATM    5  C13 UNL     1      -2.050  47.809 -22.413  1.00  0.00     0.021 C 
HETATM    6  C14 UNL     1      -4.344  48.508 -21.963  1.00  0.00    -0.065 C 
HETATM    7  C15 UNL     1      -4.982  48.889 -23.102  1.00  0.00    -0.068 C 
HETATM    8  C16 UNL     1      -4.333  49.863 -24.100  1.00  0.00     0.036 C 
HETATM    9  C17 UNL     1      -2.919  50.389 -23.771  1.00  0.00     0.015 C 
HETATM   10  C18 UNL     1      -2.666  50.392 -22.261  1.00  0.00    -0.029 C 
HETATM   11  C19 UNL     1      -3.633  51.420 -21.604  1.00  0.00     0.016 C 
HETATM   12  C20 UNL     1      -6.435  48.438 -23.414  1.00  0.00    -0.014 C 
HETATM   13  C21 UNL     1      -7.334  49.656 -23.071  1.00  0.00     0.020 C 
HETATM   14  C22 UNL     1      -6.606  48.049 -24.917  1.00  0.00     0.016 C 
HETATM   15  C23 UNL     1      -7.534  46.856 -25.197  1.00  0.00     0.033 C 
HETATM   16  C24 UNL     1      -8.717  46.763 -24.248  1.00  0.00     0.118 C 
HETATM   17  C25 UNL     1      -8.281  46.738 -22.778  1.00  0.00     0.039 C 
HETATM   18  C26 UNL     1      -6.818  47.189 -22.565  1.00  0.00     0.029 C 
HETATM   19  C27 UNL     1      -6.483  47.386 -21.084  1.00  0.00     0.127 C 
HETATM   20  C28 UNL     1      -4.983  47.641 -20.902  1.00  0.00     0.067 C 
ENDROOT
BRANCH   1  21
HETATM   21  C7  UNL     1      -0.525  52.040 -21.974  1.00  0.00    -0.014 C 
HETATM   22  C8  UNL     1       0.928  52.156 -21.493  1.00  0.00     0.010 C 
BRANCH  21  23
HETATM   23  C6  UNL     1      -0.551  52.543 -23.445  1.00  0.00     0.008 C 
BRANCH  23  24
HETATM   24  C5  UNL     1       0.681  52.169 -24.279  1.00  0.00     0.028 C 
BRANCH  24  25
HETATM   25  C4  UNL     1       0.327  52.090 -25.741  1.00  0.00    -0.025 C 
HETATM   26  C2  UNL     1       1.125  51.756 -26.775  1.00  0.00    -0.091 C 
HETATM   27  C1  UNL     1       0.576  51.700 -28.176  1.00  0.00     0.042 C 
HETATM   28  C3  UNL     1       2.584  51.411 -26.668  1.00  0.00     0.042 C 
ENDBRANCH  24  25
ENDBRANCH  23  24
ENDBRANCH  21  23
ENDBRANCH   1  21
BRANCH  19  29
HETATM   29  O2  UNL     1      -6.854  46.231 -20.326  1.00  0.00    -0.395 OA
HETATM   30  H44 UNL     1      -6.357  45.473 -20.677  1.00  0.00     0.210 HD
ENDBRANCH  19  29
BRANCH  16  31
HETATM   31  O1  UNL     1      -9.592  47.862 -24.475  1.00  0.00    -0.396 OA
HETATM   32  H39 UNL     1      -9.899  47.810 -25.396  1.00  0.00     0.210 HD
ENDBRANCH  16  31
TORSDOF 6
ENDMDL
MODEL 7
REMARK minimizedAffinity -8.68187904
REMARK  6 active torsions:
REMARK  status: ('A' for Active; 'I' for Inactive)
REMARK    1  A    between atoms: C4_4  and  C5_5 
REMARK    2  A    between atoms: C5_5  and  C6_6 
REMARK    3  A    between atoms: C6_6  and  C7_7 
REMARK    4  A    between atoms: C7_7  and  C9_9 
REMARK    5  A    between atoms: C24_24  and  O1_25 
REMARK    6  A    between atoms: C27_28  and  O2_29 
ROOT
HETATM    1  C9  UNL     1      -3.986  49.994 -25.024  1.00  0.00    -0.002 C 
HETATM    2  C10 UNL     1      -5.324  49.685 -24.302  1.00  0.00     0.007 C 
HETATM    3  C11 UNL     1      -5.105  49.992 -22.802  1.00  0.00     0.015 C 
HETATM    4  C12 UNL     1      -3.792  50.799 -22.750  1.00  0.00    -0.013 C 
HETATM    5  C13 UNL     1      -4.159  52.283 -23.067  1.00  0.00     0.021 C 
HETATM    6  C14 UNL     1      -2.991  50.874 -21.453  1.00  0.00    -0.065 C 
HETATM    7  C15 UNL     1      -1.646  51.073 -21.499  1.00  0.00    -0.068 C 
HETATM    8  C16 UNL     1      -0.878  51.075 -22.832  1.00  0.00     0.036 C 
HETATM    9  C17 UNL     1      -1.690  50.855 -24.127  1.00  0.00     0.015 C 
HETATM   10  C18 UNL     1      -2.960  50.043 -23.854  1.00  0.00    -0.029 C 
HETATM   11  C19 UNL     1      -2.539  48.613 -23.404  1.00  0.00     0.016 C 
HETATM   12  C20 UNL     1      -0.797  51.214 -20.206  1.00  0.00    -0.014 C 
HETATM   13  C21 UNL     1      -0.106  49.840 -20.006  1.00  0.00     0.020 C 
HETATM   14  C22 UNL     1       0.275  52.341 -20.344  1.00  0.00     0.016 C 
HETATM   15  C23 UNL     1       0.535  53.175 -19.079  1.00  0.00     0.033 C 
HETATM   16  C24 UNL     1       0.427  52.382 -17.789  1.00  0.00     0.118 C 
HETATM   17  C25 UNL     1      -0.921  51.663 -17.659  1.00  0.00     0.039 C 
HETATM   18  C26 UNL     1      -1.701  51.581 -18.992  1.00  0.00     0.029 C 
HETATM   19  C27 UNL     1      -2.919  50.658 -18.893  1.00  0.00     0.127 C 
HETATM   20  C28 UNL     1      -3.770  50.755 -20.164  1.00  0.00     0.067 C 
ENDROOT
BRANCH   1  21
HETATM   21  C7  UNL     1      -3.708  49.178 -26.319  1.00  0.00    -0.014 C 
HETATM   22  C8  UNL     1      -4.765  48.136 -26.708  1.00  0.00     0.010 C 
BRANCH  21  23
HETATM   23  C6  UNL     1      -3.516  50.103 -27.554  1.00  0.00     0.008 C 
BRANCH  23  24
HETATM   24  C5  UNL     1      -2.737  51.396 -27.279  1.00  0.00     0.028 C 
BRANCH  24  25
HETATM   25  C4  UNL     1      -1.266  51.191 -27.530  1.00  0.00    -0.025 C 
HETATM   26  C2  UNL     1      -0.322  52.126 -27.758  1.00  0.00    -0.091 C 
HETATM   27  C1  UNL     1       1.117  51.726 -27.955  1.00  0.00     0.042 C 
HETATM   28  C3  UNL     1      -0.568  53.607 -27.837  1.00  0.00     0.042 C 
ENDBRANCH  24  25
ENDBRANCH  23  24
ENDBRANCH  21  23
ENDBRANCH   1  21
BRANCH  19  29
HETATM   29  O2  UNL     1      -3.726  51.008 -17.765  1.00  0.00    -0.395 OA
HETATM   30  H44 UNL     1      -4.019  51.927 -17.883  1.00  0.00     0.210 HD
ENDBRANCH  19  29
BRANCH  16  31
HETATM   31  O1  UNL     1       1.488  51.434 -17.726  1.00  0.00    -0.396 OA
HETATM   32  H39 UNL     1       2.326  51.928 -17.745  1.00  0.00     0.210 HD
ENDBRANCH  16  31
TORSDOF 6
ENDMDL
MODEL 8
REMARK minimizedAffinity -8.64368343
REMARK  6 active torsions:
REMARK  status: ('A' for Active; 'I' for Inactive)
REMARK    1  A    between atoms: C4_4  and  C5_5 
REMARK    2  A    between atoms: C5_5  and  C6_6 
REMARK    3  A    between atoms: C6_6  and  C7_7 
REMARK    4  A    between atoms: C7_7  and  C9_9 
REMARK    5  A    between atoms: C24_24  and  O1_25 
REMARK    6  A    between atoms: C27_28  and  O2_29 
ROOT
HETATM    1  C9  UNL     1      -2.949  50.027 -21.395  1.00  0.00    -0.002 C 
HETATM    2  C10 UNL     1      -2.343  51.327 -21.987  1.00  0.00     0.007 C 
HETATM    3  C11 UNL     1      -1.265  51.813 -20.989  1.00  0.00     0.015 C 
HETATM    4  C12 UNL     1      -1.025  50.614 -20.050  1.00  0.00    -0.013 C 
HETATM    5  C13 UNL     1      -0.019  49.665 -20.775  1.00  0.00     0.021 C 
HETATM    6  C14 UNL     1      -0.413  50.834 -18.670  1.00  0.00    -0.065 C 
HETATM    7  C15 UNL     1      -0.689  49.965 -17.660  1.00  0.00    -0.068 C 
HETATM    8  C16 UNL     1      -1.726  48.841 -17.828  1.00  0.00     0.036 C 
HETATM    9  C17 UNL     1      -2.440  48.723 -19.191  1.00  0.00     0.015 C 
HETATM   10  C18 UNL     1      -2.499  50.076 -19.906  1.00  0.00    -0.029 C 
HETATM   11  C19 UNL     1      -3.399  51.033 -19.070  1.00  0.00     0.016 C 
HETATM   12  C20 UNL     1      -0.044  50.114 -16.255  1.00  0.00    -0.014 C 
HETATM   13  C21 UNL     1      -1.136  50.756 -15.359  1.00  0.00     0.020 C 
HETATM   14  C22 UNL     1       0.386  48.730 -15.671  1.00  0.00     0.016 C 
HETATM   15  C23 UNL     1       1.696  48.723 -14.866  1.00  0.00     0.033 C 
HETATM   16  C24 UNL     1       1.932  49.993 -14.067  1.00  0.00     0.118 C 
HETATM   17  C25 UNL     1       1.877  51.251 -14.943  1.00  0.00     0.039 C 
HETATM   18  C26 UNL     1       1.232  51.005 -16.327  1.00  0.00     0.029 C 
HETATM   19  C27 UNL     1       0.970  52.310 -17.083  1.00  0.00     0.127 C 
HETATM   20  C28 UNL     1       0.515  52.017 -18.517  1.00  0.00     0.067 C 
ENDROOT
BRANCH   1  21
HETATM   21  C7  UNL     1      -4.421  49.721 -21.793  1.00  0.00    -0.014 C 
HETATM   22  C8  UNL     1      -5.487  50.685 -21.255  1.00  0.00     0.010 C 
BRANCH  21  23
HETATM   23  C6  UNL     1      -4.603  49.670 -23.337  1.00  0.00     0.008 C 
BRANCH  23  24
HETATM   24  C5  UNL     1      -4.739  48.261 -23.926  1.00  0.00     0.028 C 
BRANCH  24  25
HETATM   25  C4  UNL     1      -4.964  48.328 -25.414  1.00  0.00    -0.025 C 
HETATM   26  C2  UNL     1      -4.046  48.480 -26.390  1.00  0.00    -0.091 C 
HETATM   27  C1  UNL     1      -4.463  48.490 -27.837  1.00  0.00     0.042 C 
HETATM   28  C3  UNL     1      -2.568  48.644 -26.171  1.00  0.00     0.042 C 
ENDBRANCH  24  25
ENDBRANCH  23  24
ENDBRANCH  21  23
ENDBRANCH   1  21
BRANCH  19  29
HETATM   29  O2  UNL     1       2.154  53.113 -17.125  1.00  0.00    -0.395 OA
HETATM   30  H44 UNL     1       2.843  52.602 -17.580  1.00  0.00     0.210 HD
ENDBRANCH  19  29
BRANCH  16  31
HETATM   31  O1  UNL     1       0.962  50.085 -13.029  1.00  0.00    -0.396 OA
HETATM   32  H39 UNL     1       1.068  49.306 -12.456  1.00  0.00     0.210 HD
ENDBRANCH  16  31
TORSDOF 6
ENDMDL
MODEL 9
REMARK minimizedAffinity -8.57669926
REMARK  6 active torsions:
REMARK  status: ('A' for Active; 'I' for Inactive)
REMARK    1  A    between atoms: C4_4  and  C5_5 
REMARK    2  A    between atoms: C5_5  and  C6_6 
REMARK    3  A    between atoms: C6_6  and  C7_7 
REMARK    4  A    between atoms: C7_7  and  C9_9 
REMARK    5  A    between atoms: C24_24  and  O1_25 
REMARK    6  A    between atoms: C27_28  and  O2_29 
ROOT
HETATM    1  C9  UNL     1      -1.647  48.651 -18.977  1.00  0.00    -0.002 C 
HETATM    2  C10 UNL     1      -2.990  47.875 -19.016  1.00  0.00     0.007 C 
HETATM    3  C11 UNL     1      -3.579  48.071 -20.433  1.00  0.00     0.015 C 
HETATM    4  C12 UNL     1      -2.416  48.635 -21.271  1.00  0.00    -0.013 C 
HETATM    5  C13 UNL     1      -1.553  47.416 -21.728  1.00  0.00     0.021 C 
HETATM    6  C14 UNL     1      -2.702  49.402 -22.559  1.00  0.00    -0.065 C 
HETATM    7  C15 UNL     1      -1.822  50.341 -22.999  1.00  0.00    -0.068 C 
HETATM    8  C16 UNL     1      -0.608  50.764 -22.153  1.00  0.00     0.036 C 
HETATM    9  C17 UNL     1      -0.414  50.075 -20.785  1.00  0.00     0.015 C 
HETATM   10  C18 UNL     1      -1.750  49.593 -20.212  1.00  0.00    -0.029 C 
HETATM   11  C19 UNL     1      -2.630  50.840 -19.905  1.00  0.00     0.016 C 
HETATM   12  C20 UNL     1      -2.040  51.105 -24.333  1.00  0.00    -0.014 C 
HETATM   13  C21 UNL     1      -2.591  52.499 -23.932  1.00  0.00     0.020 C 
HETATM   14  C22 UNL     1      -0.706  51.262 -25.130  1.00  0.00     0.016 C 
HETATM   15  C23 UNL     1      -0.823  51.144 -26.659  1.00  0.00     0.033 C 
HETATM   16  C24 UNL     1      -2.116  51.709 -27.220  1.00  0.00     0.118 C 
HETATM   17  C25 UNL     1      -3.356  51.089 -26.563  1.00  0.00     0.039 C 
HETATM   18  C26 UNL     1      -3.040  50.338 -25.248  1.00  0.00     0.029 C 
HETATM   19  C27 UNL     1      -4.310  49.939 -24.492  1.00  0.00     0.127 C 
HETATM   20  C28 UNL     1      -3.964  49.033 -23.304  1.00  0.00     0.067 C 
ENDROOT
BRANCH   1  21
HETATM   21  C7  UNL     1      -1.207  49.179 -17.582  1.00  0.00    -0.014 C 
HETATM   22  C8  UNL     1      -0.328  50.437 -17.575  1.00  0.00     0.010 C 
BRANCH  21  23
HETATM   23  C6  UNL     1      -2.429  49.484 -16.669  1.00  0.00     0.008 C 
BRANCH  23  24
HETATM   24  C5  UNL     1      -2.087  49.760 -15.200  1.00  0.00     0.028 C 
BRANCH  24  25
HETATM   25  C4  UNL     1      -2.971  50.845 -14.645  1.00  0.00    -0.025 C 
HETATM   26  C2  UNL     1      -2.660  51.790 -13.735  1.00  0.00    -0.091 C 
HETATM   27  C1  UNL     1      -3.678  52.822 -13.325  1.00  0.00     0.042 C 
HETATM   28  C3  UNL     1      -1.328  51.932 -13.053  1.00  0.00     0.042 C 
ENDBRANCH  24  25
ENDBRANCH  23  24
ENDBRANCH  21  23
ENDBRANCH   1  21
BRANCH  19  29
HETATM   29  O2  UNL     1      -5.215  49.247 -25.357  1.00  0.00    -0.395 OA
HETATM   30  H44 UNL     1      -4.763  48.451 -25.684  1.00  0.00     0.210 HD
ENDBRANCH  19  29
BRANCH  16  31
HETATM   31  O1  UNL     1      -2.131  53.121 -27.044  1.00  0.00    -0.396 OA
HETATM   32  H39 UNL     1      -1.370  53.487 -27.526  1.00  0.00     0.210 HD
ENDBRANCH  16  31
TORSDOF 6
ENDMDL
