MODEL 1
REMARK minimizedAffinity -7.12885904
REMARK CNNscore 0.585801005
REMARK CNNaffinity 6.83143234
REMARK  8 active torsions:
REMARK  status: ('A' for Active; 'I' for Inactive)
REMARK    1  A    between atoms: C12_14  and  C13_15 
REMARK    2  A    between atoms: C13_15  and  C15_17 
REMARK    3  A    between atoms: C15_17  and  C16_18 
REMARK    4  A    between atoms: C16_18  and  C17_19 
REMARK    5  A    between atoms: C26_28  and  C27_29 
REMARK    6  A    between atoms: C27_29  and  C28_30 
REMARK    7  A    between atoms: C28_30  and  C29_31 
REMARK    8  A    between atoms: C29_31  and  O4_33 
ROOT
HETATM    1  C1  UNL     1      -5.661  50.344 -10.160  1.00  0.00     0.025 C 
HETATM    2  C2  UNL     1      -4.361  50.065 -10.011  1.00  0.00     0.015 C 
HETATM    3  C3  UNL     1      -3.915  48.978  -9.107  1.00  0.00     0.289 C 
HETATM    4  O1  UNL     1      -4.616  48.130  -8.586  1.00  0.00    -0.260 OA
HETATM    5  O2  UNL     1      -2.566  49.081  -8.972  1.00  0.00    -0.311 OA
HETATM    6  C4  UNL     1      -2.101  50.305  -9.572  1.00  0.00     0.142 C 
HETATM    7  C5  UNL     1      -1.895  51.332  -8.465  1.00  0.00     0.039 C 
HETATM    8  C6  UNL     1      -1.541  52.753  -8.931  1.00  0.00     0.006 C 
HETATM    9  C7  UNL     1      -2.367  53.232 -10.151  1.00  0.00    -0.027 A 
HETATM   10  C8  UNL     1      -1.972  54.636 -10.656  1.00  0.00     0.011 C 
HETATM   11  C9  UNL     1      -0.464  54.904 -10.748  1.00  0.00     0.011 C 
HETATM   12  C10 UNL     1       0.242  54.553  -9.429  1.00  0.00    -0.032 C 
HETATM   13  C11 UNL     1      -0.296  55.486  -8.298  1.00  0.00     0.016 C 
HETATM   14  C12 UNL     1       1.804  54.620  -9.411  1.00  0.00    -0.002 C 
HETATM   15  C21 UNL     1       2.163  53.612  -8.274  1.00  0.00     0.006 C 
HETATM   16  C22 UNL     1       0.910  52.763  -7.980  1.00  0.00     0.011 C 
HETATM   17  C23 UNL     1      -0.018  53.011  -9.178  1.00  0.00    -0.032 C 
HETATM   18  C24 UNL     1       0.494  52.095 -10.335  1.00  0.00     0.016 C 
HETATM   19  C25 UNL     1      -3.872  53.112 -10.102  1.00  0.00     0.022 A 
HETATM   20  C26 UNL     1      -3.125  52.166 -11.018  1.00  0.00    -0.021 A 
HETATM   21  C31 UNL     1      -3.139  50.684 -10.614  1.00  0.00     0.063 C 
ENDROOT
BRANCH  14  22
HETATM   22  C13 UNL     1       2.537  55.988  -9.231  1.00  0.00    -0.014 C 
HETATM   23  C14 UNL     1       3.456  56.310 -10.413  1.00  0.00     0.010 C 
BRANCH  22  24
HETATM   24  C15 UNL     1       3.353  55.982  -7.906  1.00  0.00     0.008 C 
BRANCH  24  25
HETATM   25  C16 UNL     1       4.328  57.148  -7.690  1.00  0.00     0.028 C 
BRANCH  25  26
HETATM   26  C17 UNL     1       5.574  56.766  -6.940  1.00  0.00    -0.025 C 
HETATM   27  C18 UNL     1       6.577  55.973  -7.366  1.00  0.00    -0.091 C 
HETATM   28  C19 UNL     1       6.609  55.272  -8.697  1.00  0.00     0.042 C 
HETATM   29  C20 UNL     1       7.773  55.706  -6.489  1.00  0.00     0.042 C 
ENDBRANCH  25  26
ENDBRANCH  24  25
ENDBRANCH  22  24
ENDBRANCH  14  22
BRANCH  20  30
HETATM   30  C27 UNL     1      -3.103  52.361 -12.539  1.00  0.00     0.021 C 
BRANCH  30  31
HETATM   31  C28 UNL     1      -2.062  51.530 -13.281  1.00  0.00     0.112 C 
BRANCH  31  32
HETATM   32  C29 UNL     1      -2.679  50.628 -14.319  1.00  0.00     0.258 C 
HETATM   33  O3  UNL     1      -2.756  49.412 -14.218  1.00  0.00    -0.265 OA
BRANCH  32  34
HETATM   34  O4  UNL     1      -3.127  51.355 -15.382  1.00  0.00    -0.326 OA
HETATM   35  C30 UNL     1      -2.976  50.695 -16.639  1.00  0.00     0.213 C 
ENDBRANCH  32  34
ENDBRANCH  31  32
ENDBRANCH  30  31
ENDBRANCH  20  30
TORSDOF 8
ENDMDL
MODEL 2
REMARK minimizedAffinity -6.83753204
REMARK CNNscore 0.300037086
REMARK CNNaffinity 6.18922949
REMARK  8 active torsions:
REMARK  status: ('A' for Active; 'I' for Inactive)
REMARK    1  A    between atoms: C12_14  and  C13_15 
REMARK    2  A    between atoms: C13_15  and  C15_17 
REMARK    3  A    between atoms: C15_17  and  C16_18 
REMARK    4  A    between atoms: C16_18  and  C17_19 
REMARK    5  A    between atoms: C26_28  and  C27_29 
REMARK    6  A    between atoms: C27_29  and  C28_30 
REMARK    7  A    between atoms: C28_30  and  C29_31 
REMARK    8  A    between atoms: C29_31  and  O4_33 
ROOT
HETATM    1  C1  UNL     1       4.460  59.903  -4.059  1.00  0.00     0.025 C 
HETATM    2  C2  UNL     1       5.021  58.734  -4.392  1.00  0.00     0.015 C 
HETATM    3  C3  UNL     1       6.496  58.580  -4.425  1.00  0.00     0.289 C 
HETATM    4  O1  UNL     1       7.320  59.363  -3.990  1.00  0.00    -0.260 OA
HETATM    5  O2  UNL     1       6.773  57.388  -5.017  1.00  0.00    -0.311 OA
HETATM    6  C4  UNL     1       5.572  56.820  -5.572  1.00  0.00     0.142 C 
HETATM    7  C5  UNL     1       5.552  57.111  -7.068  1.00  0.00     0.039 C 
HETATM    8  C6  UNL     1       4.267  56.710  -7.809  1.00  0.00     0.006 C 
HETATM    9  C7  UNL     1       2.969  57.056  -7.037  1.00  0.00    -0.027 A 
HETATM   10  C8  UNL     1       1.681  56.601  -7.753  1.00  0.00     0.011 C 
HETATM   11  C9  UNL     1       1.722  55.188  -8.353  1.00  0.00     0.011 C 
HETATM   12  C10 UNL     1       2.963  54.998  -9.237  1.00  0.00    -0.032 C 
HETATM   13  C11 UNL     1       2.881  55.981 -10.449  1.00  0.00     0.016 C 
HETATM   14  C12 UNL     1       3.235  53.563  -9.794  1.00  0.00    -0.002 C 
HETATM   15  C21 UNL     1       4.781  53.582 -10.009  1.00  0.00     0.006 C 
HETATM   16  C22 UNL     1       5.352  54.792  -9.244  1.00  0.00     0.011 C 
HETATM   17  C23 UNL     1       4.220  55.225  -8.301  1.00  0.00    -0.032 C 
HETATM   18  C24 UNL     1       4.267  54.259  -7.074  1.00  0.00     0.016 C 
HETATM   19  C25 UNL     1       2.791  58.460  -6.508  1.00  0.00     0.022 A 
HETATM   20  C26 UNL     1       3.061  57.362  -5.500  1.00  0.00    -0.021 A 
HETATM   21  C31 UNL     1       4.420  57.422  -4.786  1.00  0.00     0.063 C 
ENDROOT
BRANCH  14  22
HETATM   22  C13 UNL     1       2.476  53.046 -11.058  1.00  0.00    -0.014 C 
HETATM   23  C14 UNL     1       0.999  52.764 -10.769  1.00  0.00     0.010 C 
BRANCH  22  24
HETATM   24  C15 UNL     1       3.168  51.764 -11.604  1.00  0.00     0.008 C 
BRANCH  24  25
HETATM   25  C16 UNL     1       2.655  51.220 -12.945  1.00  0.00     0.028 C 
BRANCH  25  26
HETATM   26  C17 UNL     1       3.333  51.823 -14.144  1.00  0.00    -0.025 C 
HETATM   27  C18 UNL     1       2.849  51.919 -15.398  1.00  0.00    -0.091 C 
HETATM   28  C19 UNL     1       1.515  51.386 -15.844  1.00  0.00     0.042 C 
HETATM   29  C20 UNL     1       3.657  52.576 -16.487  1.00  0.00     0.042 C 
ENDBRANCH  25  26
ENDBRANCH  24  25
ENDBRANCH  22  24
ENDBRANCH  14  22
BRANCH  20  30
HETATM   30  C27 UNL     1       1.951  56.793  -4.608  1.00  0.00     0.021 C 
BRANCH  30  31
HETATM   31  C28 UNL     1       0.897  57.802  -4.167  1.00  0.00     0.112 C 
BRANCH  31  32
HETATM   32  C29 UNL     1      -0.507  57.298  -4.379  1.00  0.00     0.258 C 
HETATM   33  O3  UNL     1      -1.517  57.926  -4.094  1.00  0.00    -0.265 OA
BRANCH  32  34
HETATM   34  O4  UNL     1      -0.492  56.047  -4.920  1.00  0.00    -0.326 OA
HETATM   35  C30 UNL     1      -1.203  55.075  -4.154  1.00  0.00     0.213 C 
ENDBRANCH  32  34
ENDBRANCH  31  32
ENDBRANCH  30  31
ENDBRANCH  20  30
TORSDOF 8
ENDMDL
MODEL 3
REMARK minimizedAffinity -8.44119263
REMARK CNNscore 0.294039041
REMARK CNNaffinity 6.66346741
REMARK  8 active torsions:
REMARK  status: ('A' for Active; 'I' for Inactive)
REMARK    1  A    between atoms: C12_14  and  C13_15 
REMARK    2  A    between atoms: C13_15  and  C15_17 
REMARK    3  A    between atoms: C15_17  and  C16_18 
REMARK    4  A    between atoms: C16_18  and  C17_19 
REMARK    5  A    between atoms: C26_28  and  C27_29 
REMARK    6  A    between atoms: C27_29  and  C28_30 
REMARK    7  A    between atoms: C28_30  and  C29_31 
REMARK    8  A    between atoms: C29_31  and  O4_33 
ROOT
HETATM    1  C1  UNL     1       0.226  53.921 -25.534  1.00  0.00     0.025 C 
HETATM    2  C2  UNL     1      -0.113  52.654 -25.796  1.00  0.00     0.015 C 
HETATM    3  C3  UNL     1      -0.116  52.138 -27.186  1.00  0.00     0.289 C 
HETATM    4  O1  UNL     1       0.352  52.686 -28.167  1.00  0.00    -0.260 OA
HETATM    5  O2  UNL     1      -0.721  50.921 -27.173  1.00  0.00    -0.311 OA
HETATM    6  C4  UNL     1      -1.314  50.676 -25.884  1.00  0.00     0.142 C 
HETATM    7  C5  UNL     1      -2.805  50.979 -25.977  1.00  0.00     0.039 C 
HETATM    8  C6  UNL     1      -3.581  50.918 -24.652  1.00  0.00     0.006 C 
HETATM    9  C7  UNL     1      -2.833  51.568 -23.462  1.00  0.00    -0.027 A 
HETATM   10  C8  UNL     1      -3.586  51.456 -22.119  1.00  0.00     0.011 C 
HETATM   11  C9  UNL     1      -4.209  50.084 -21.824  1.00  0.00     0.011 C 
HETATM   12  C10 UNL     1      -5.068  49.601 -23.002  1.00  0.00    -0.032 C 
HETATM   13  C11 UNL     1      -6.264  50.587 -23.199  1.00  0.00     0.016 C 
HETATM   14  C12 UNL     1      -5.643  48.150 -22.924  1.00  0.00    -0.002 C 
HETATM   15  C21 UNL     1      -5.823  47.786 -24.431  1.00  0.00     0.006 C 
HETATM   16  C22 UNL     1      -5.024  48.807 -25.265  1.00  0.00     0.011 C 
HETATM   17  C23 UNL     1      -4.100  49.498 -24.251  1.00  0.00    -0.032 C 
HETATM   18  C24 UNL     1      -2.889  48.536 -24.024  1.00  0.00     0.016 C 
HETATM   19  C25 UNL     1      -2.284  52.966 -23.624  1.00  0.00     0.022 A 
HETATM   20  C26 UNL     1      -1.290  51.825 -23.585  1.00  0.00    -0.021 A 
HETATM   21  C31 UNL     1      -0.544  51.537 -24.897  1.00  0.00     0.063 C 
ENDROOT
BRANCH  14  22
HETATM   22  C13 UNL     1      -6.933  47.852 -22.094  1.00  0.00    -0.014 C 
HETATM   23  C14 UNL     1      -7.118  48.840 -20.939  1.00  0.00     0.010 C 
BRANCH  22  24
HETATM   24  C15 UNL     1      -6.887  46.395 -21.548  1.00  0.00     0.008 C 
BRANCH  24  25
HETATM   25  C16 UNL     1      -5.502  45.742 -21.438  1.00  0.00     0.028 C 
BRANCH  25  26
HETATM   26  C17 UNL     1      -4.784  46.054 -20.153  1.00  0.00    -0.025 C 
HETATM   27  C18 UNL     1      -3.528  46.519 -20.007  1.00  0.00    -0.091 C 
HETATM   28  C19 UNL     1      -2.574  46.780 -21.141  1.00  0.00     0.042 C 
HETATM   29  C20 UNL     1      -2.965  46.799 -18.638  1.00  0.00     0.042 C 
ENDBRANCH  25  26
ENDBRANCH  24  25
ENDBRANCH  22  24
ENDBRANCH  14  22
BRANCH  20  30
HETATM   30  C27 UNL     1      -0.433  51.539 -22.346  1.00  0.00     0.021 C 
BRANCH  30  31
HETATM   31  C28 UNL     1       0.788  52.438 -22.186  1.00  0.00     0.112 C 
BRANCH  31  32
HETATM   32  C29 UNL     1       0.669  53.367 -21.006  1.00  0.00     0.258 C 
HETATM   33  O3  UNL     1       1.289  54.415 -20.887  1.00  0.00    -0.265 OA
BRANCH  32  34
HETATM   34  O4  UNL     1      -0.214  52.873 -20.093  1.00  0.00    -0.326 OA
HETATM   35  C30 UNL     1       0.313  52.779 -18.769  1.00  0.00     0.213 C 
ENDBRANCH  32  34
ENDBRANCH  31  32
ENDBRANCH  30  31
ENDBRANCH  20  30
TORSDOF 8
ENDMDL
MODEL 4
REMARK minimizedAffinity -7.22248983
REMARK CNNscore 0.232688963
REMARK CNNaffinity 6.49798155
REMARK  8 active torsions:
REMARK  status: ('A' for Active; 'I' for Inactive)
REMARK    1  A    between atoms: C12_14  and  C13_15 
REMARK    2  A    between atoms: C13_15  and  C15_17 
REMARK    3  A    between atoms: C15_17  and  C16_18 
REMARK    4  A    between atoms: C16_18  and  C17_19 
REMARK    5  A    between atoms: C26_28  and  C27_29 
REMARK    6  A    between atoms: C27_29  and  C28_30 
REMARK    7  A    between atoms: C28_30  and  C29_31 
REMARK    8  A    between atoms: C29_31  and  O4_33 
ROOT
HETATM    1  C1  UNL     1      -7.396  44.631 -19.290  1.00  0.00     0.025 C 
HETATM    2  C2  UNL     1      -6.137  44.697 -19.736  1.00  0.00     0.015 C 
HETATM    3  C3  UNL     1      -5.048  43.955 -19.056  1.00  0.00     0.289 C 
HETATM    4  O1  UNL     1      -5.174  43.096 -18.203  1.00  0.00    -0.260 OA
HETATM    5  O2  UNL     1      -3.868  44.392 -19.569  1.00  0.00    -0.311 OA
HETATM    6  C4  UNL     1      -4.088  45.537 -20.414  1.00  0.00     0.142 C 
HETATM    7  C5  UNL     1      -3.755  46.792 -19.616  1.00  0.00     0.039 C 
HETATM    8  C6  UNL     1      -4.075  48.127 -20.307  1.00  0.00     0.006 C 
HETATM    9  C7  UNL     1      -5.439  48.137 -21.041  1.00  0.00    -0.027 A 
HETATM   10  C8  UNL     1      -5.734  49.457 -21.784  1.00  0.00     0.011 C 
HETATM   11  C9  UNL     1      -4.562  50.040 -22.585  1.00  0.00     0.011 C 
HETATM   12  C10 UNL     1      -3.298  50.145 -21.719  1.00  0.00    -0.032 C 
HETATM   13  C11 UNL     1      -3.563  51.144 -20.547  1.00  0.00     0.016 C 
HETATM   14  C12 UNL     1      -1.973  50.572 -22.430  1.00  0.00    -0.002 C 
HETATM   15  C21 UNL     1      -0.885  49.934 -21.511  1.00  0.00     0.006 C 
HETATM   16  C22 UNL     1      -1.579  48.900 -20.602  1.00  0.00     0.011 C 
HETATM   17  C23 UNL     1      -2.952  48.672 -21.251  1.00  0.00    -0.032 C 
HETATM   18  C24 UNL     1      -2.726  47.678 -22.434  1.00  0.00     0.016 C 
HETATM   19  C25 UNL     1      -6.671  47.686 -20.292  1.00  0.00     0.022 A 
HETATM   20  C26 UNL     1      -6.133  46.768 -21.369  1.00  0.00    -0.021 A 
HETATM   21  C31 UNL     1      -5.530  45.441 -20.884  1.00  0.00     0.063 C 
ENDROOT
BRANCH  14  22
HETATM   22  C13 UNL     1      -1.681  52.079 -22.723  1.00  0.00    -0.014 C 
HETATM   23  C14 UNL     1      -2.791  52.733 -23.550  1.00  0.00     0.010 C 
BRANCH  22  24
HETATM   24  C15 UNL     1      -0.314  52.221 -23.455  1.00  0.00     0.008 C 
BRANCH  24  25
HETATM   25  C16 UNL     1      -0.337  52.117 -24.987  1.00  0.00     0.028 C 
BRANCH  25  26
HETATM   26  C17 UNL     1       1.023  51.943 -25.604  1.00  0.00    -0.025 C 
HETATM   27  C18 UNL     1       1.319  51.808 -26.912  1.00  0.00    -0.091 C 
HETATM   28  C19 UNL     1       0.302  51.763 -28.020  1.00  0.00     0.042 C 
HETATM   29  C20 UNL     1       2.748  51.663 -27.366  1.00  0.00     0.042 C 
ENDBRANCH  25  26
ENDBRANCH  24  25
ENDBRANCH  22  24
ENDBRANCH  14  22
BRANCH  20  30
HETATM   30  C27 UNL     1      -6.813  46.641 -22.738  1.00  0.00     0.021 C 
BRANCH  30  31
HETATM   31  C28 UNL     1      -8.109  47.429 -22.889  1.00  0.00     0.112 C 
BRANCH  31  32
HETATM   32  C29 UNL     1      -9.246  46.577 -23.392  1.00  0.00     0.258 C 
HETATM   33  O3  UNL     1      -9.281  45.357 -23.313  1.00  0.00    -0.265 OA
BRANCH  32  34
HETATM   34  O4  UNL     1     -10.217  47.353 -23.951  1.00  0.00    -0.326 OA
HETATM   35  C30 UNL     1     -10.257  47.292 -25.377  1.00  0.00     0.213 C 
ENDBRANCH  32  34
ENDBRANCH  31  32
ENDBRANCH  30  31
ENDBRANCH  20  30
TORSDOF 8
ENDMDL
MODEL 5
REMARK minimizedAffinity -7.31332064
REMARK CNNscore 0.229415298
REMARK CNNaffinity 6.0320859
REMARK  8 active torsions:
REMARK  status: ('A' for Active; 'I' for Inactive)
REMARK    1  A    between atoms: C12_14  and  C13_15 
REMARK    2  A    between atoms: C13_15  and  C15_17 
REMARK    3  A    between atoms: C15_17  and  C16_18 
REMARK    4  A    between atoms: C16_18  and  C17_19 
REMARK    5  A    between atoms: C26_28  and  C27_29 
REMARK    6  A    between atoms: C27_29  and  C28_30 
REMARK    7  A    between atoms: C28_30  and  C29_31 
REMARK    8  A    between atoms: C29_31  and  O4_33 
ROOT
HETATM    1  C1  UNL     1      -0.111  53.227 -19.148  1.00  0.00     0.025 C 
HETATM    2  C2  UNL     1      -0.016  52.398 -20.194  1.00  0.00     0.015 C 
HETATM    3  C3  UNL     1       0.877  52.713 -21.336  1.00  0.00     0.289 C 
HETATM    4  O1  UNL     1       1.727  53.583 -21.377  1.00  0.00    -0.260 OA
HETATM    5  O2  UNL     1       0.592  51.836 -22.335  1.00  0.00    -0.311 OA
HETATM    6  C4  UNL     1      -0.587  51.078 -22.008  1.00  0.00     0.142 C 
HETATM    7  C5  UNL     1      -1.771  51.694 -22.744  1.00  0.00     0.039 C 
HETATM    8  C6  UNL     1      -3.149  51.107 -22.398  1.00  0.00     0.006 C 
HETATM    9  C7  UNL     1      -3.355  50.850 -20.885  1.00  0.00    -0.027 A 
HETATM   10  C8  UNL     1      -4.715  50.207 -20.543  1.00  0.00     0.011 C 
HETATM   11  C9  UNL     1      -5.152  49.057 -21.462  1.00  0.00     0.011 C 
HETATM   12  C10 UNL     1      -5.070  49.469 -22.940  1.00  0.00    -0.032 C 
HETATM   13  C11 UNL     1      -6.074  50.637 -23.201  1.00  0.00     0.016 C 
HETATM   14  C12 UNL     1      -5.329  48.358 -24.010  1.00  0.00    -0.002 C 
HETATM   15  C21 UNL     1      -4.535  48.897 -25.241  1.00  0.00     0.006 C 
HETATM   16  C22 UNL     1      -3.586  50.006 -24.746  1.00  0.00     0.011 C 
HETATM   17  C23 UNL     1      -3.556  49.839 -23.220  1.00  0.00    -0.032 C 
HETATM   18  C24 UNL     1      -2.562  48.672 -22.919  1.00  0.00     0.016 C 
HETATM   19  C25 UNL     1      -3.059  51.966 -19.911  1.00  0.00     0.022 A 
HETATM   20  C26 UNL     1      -2.097  50.797 -19.947  1.00  0.00    -0.021 A 
HETATM   21  C31 UNL     1      -0.692  51.098 -20.493  1.00  0.00     0.063 C 
ENDROOT
BRANCH  14  22
HETATM   22  C13 UNL     1      -6.788  47.948 -24.390  1.00  0.00    -0.014 C 
HETATM   23  C14 UNL     1      -7.298  46.778 -23.544  1.00  0.00     0.010 C 
BRANCH  22  24
HETATM   24  C15 UNL     1      -6.860  47.587 -25.902  1.00  0.00     0.008 C 
BRANCH  24  25
HETATM   25  C16 UNL     1      -8.248  47.631 -26.557  1.00  0.00     0.028 C 
BRANCH  25  26
HETATM   26  C17 UNL     1      -8.228  48.073 -27.994  1.00  0.00    -0.025 C 
HETATM   27  C18 UNL     1      -9.108  47.752 -28.963  1.00  0.00    -0.091 C 
HETATM   28  C19 UNL     1     -10.283  46.831 -28.782  1.00  0.00     0.042 C 
HETATM   29  C20 UNL     1      -8.951  48.301 -30.358  1.00  0.00     0.042 C 
ENDBRANCH  25  26
ENDBRANCH  24  25
ENDBRANCH  22  24
ENDBRANCH  14  22
BRANCH  20  30
HETATM   30  C27 UNL     1      -2.087  49.723 -18.852  1.00  0.00     0.021 C 
BRANCH  30  31
HETATM   31  C28 UNL     1      -2.032  48.287 -19.360  1.00  0.00     0.112 C 
BRANCH  31  32
HETATM   32  C29 UNL     1      -2.608  47.305 -18.372  1.00  0.00     0.258 C 
HETATM   33  O3  UNL     1      -2.554  47.436 -17.157  1.00  0.00    -0.265 OA
BRANCH  32  34
HETATM   34  O4  UNL     1      -3.185  46.254 -19.020  1.00  0.00    -0.326 OA
HETATM   35  C30 UNL     1      -3.133  46.352 -20.443  1.00  0.00     0.213 C 
ENDBRANCH  32  34
ENDBRANCH  31  32
ENDBRANCH  30  31
ENDBRANCH  20  30
TORSDOF 8
ENDMDL
MODEL 6
REMARK minimizedAffinity -6.6369381
REMARK CNNscore 0.218944192
REMARK CNNaffinity 5.62221098
REMARK  8 active torsions:
REMARK  status: ('A' for Active; 'I' for Inactive)
REMARK    1  A    between atoms: C12_14  and  C13_15 
REMARK    2  A    between atoms: C13_15  and  C15_17 
REMARK    3  A    between atoms: C15_17  and  C16_18 
REMARK    4  A    between atoms: C16_18  and  C17_19 
REMARK    5  A    between atoms: C26_28  and  C27_29 
REMARK    6  A    between atoms: C27_29  and  C28_30 
REMARK    7  A    between atoms: C28_30  and  C29_31 
REMARK    8  A    between atoms: C29_31  and  O4_33 
ROOT
HETATM    1  C1  UNL     1      -5.177  45.986 -31.959  1.00  0.00     0.025 C 
HETATM    2  C2  UNL     1      -6.120  46.895 -31.690  1.00  0.00     0.015 C 
HETATM    3  C3  UNL     1      -5.759  48.237 -31.172  1.00  0.00     0.289 C 
HETATM    4  O1  UNL     1      -4.645  48.724 -31.126  1.00  0.00    -0.260 OA
HETATM    5  O2  UNL     1      -6.906  48.846 -30.770  1.00  0.00    -0.311 OA
HETATM    6  C4  UNL     1      -8.000  47.911 -30.797  1.00  0.00     0.142 C 
HETATM    7  C5  UNL     1      -8.234  47.408 -29.377  1.00  0.00     0.039 C 
HETATM    8  C6  UNL     1      -9.270  46.282 -29.230  1.00  0.00     0.006 C 
HETATM    9  C7  UNL     1      -9.161  45.190 -30.324  1.00  0.00    -0.027 A 
HETATM   10  C8  UNL     1     -10.238  44.090 -30.211  1.00  0.00     0.011 C 
HETATM   11  C9  UNL     1     -11.663  44.587 -29.928  1.00  0.00     0.011 C 
HETATM   12  C10 UNL     1     -11.689  45.536 -28.721  1.00  0.00    -0.032 C 
HETATM   13  C11 UNL     1     -11.243  44.751 -27.446  1.00  0.00     0.016 C 
HETATM   14  C12 UNL     1     -13.040  46.254 -28.400  1.00  0.00    -0.002 C 
HETATM   15  C21 UNL     1     -12.560  47.540 -27.657  1.00  0.00     0.006 C 
HETATM   16  C22 UNL     1     -11.050  47.703 -27.917  1.00  0.00     0.011 C 
HETATM   17  C23 UNL     1     -10.753  46.759 -29.091  1.00  0.00    -0.032 C 
HETATM   18  C24 UNL     1     -11.192  47.510 -30.388  1.00  0.00     0.016 C 
HETATM   19  C25 UNL     1      -7.815  44.560 -30.592  1.00  0.00     0.022 A 
HETATM   20  C26 UNL     1      -8.364  45.509 -31.637  1.00  0.00    -0.021 A 
HETATM   21  C31 UNL     1      -7.612  46.839 -31.801  1.00  0.00     0.063 C 
ENDROOT
BRANCH  14  22
HETATM   22  C13 UNL     1     -14.166  45.510 -27.613  1.00  0.00    -0.014 C 
HETATM   23  C14 UNL     1     -15.327  45.094 -28.521  1.00  0.00     0.010 C 
BRANCH  22  24
HETATM   24  C15 UNL     1     -14.688  46.411 -26.456  1.00  0.00     0.008 C 
BRANCH  24  25
HETATM   25  C16 UNL     1     -15.551  45.728 -25.385  1.00  0.00     0.028 C 
BRANCH  25  26
HETATM   26  C17 UNL     1     -16.972  46.219 -25.347  1.00  0.00    -0.025 C 
HETATM   27  C18 UNL     1     -17.729  46.453 -24.257  1.00  0.00    -0.091 C 
HETATM   28  C19 UNL     1     -17.286  46.218 -22.839  1.00  0.00     0.042 C 
HETATM   29  C20 UNL     1     -19.139  46.966 -24.396  1.00  0.00     0.042 C 
ENDBRANCH  25  26
ENDBRANCH  24  25
ENDBRANCH  22  24
ENDBRANCH  14  22
BRANCH  20  30
HETATM   30  C27 UNL     1      -8.959  45.002 -32.956  1.00  0.00     0.021 C 
BRANCH  30  31
HETATM   31  C28 UNL     1      -9.700  46.054 -33.774  1.00  0.00     0.112 C 
BRANCH  31  32
HETATM   32  C29 UNL     1      -9.054  46.302 -35.113  1.00  0.00     0.258 C 
HETATM   33  O3  UNL     1      -8.148  47.101 -35.304  1.00  0.00    -0.265 OA
BRANCH  32  34
HETATM   34  O4  UNL     1      -9.626  45.522 -36.074  1.00  0.00    -0.326 OA
HETATM   35  C30 UNL     1      -9.860  46.202 -37.307  1.00  0.00     0.213 C 
ENDBRANCH  32  34
ENDBRANCH  31  32
ENDBRANCH  30  31
ENDBRANCH  20  30
TORSDOF 8
ENDMDL
MODEL 7
REMARK minimizedAffinity -7.71940136
REMARK CNNscore 0.213381588
REMARK CNNaffinity 6.15679121
REMARK  8 active torsions:
REMARK  status: ('A' for Active; 'I' for Inactive)
REMARK    1  A    between atoms: C12_14  and  C13_15 
REMARK    2  A    between atoms: C13_15  and  C15_17 
REMARK    3  A    between atoms: C15_17  and  C16_18 
REMARK    4  A    between atoms: C16_18  and  C17_19 
REMARK    5  A    between atoms: C26_28  and  C27_29 
REMARK    6  A    between atoms: C27_29  and  C28_30 
REMARK    7  A    between atoms: C28_30  and  C29_31 
REMARK    8  A    between atoms: C29_31  and  O4_33 
ROOT
HETATM    1  C1  UNL     1       0.208  53.468 -19.192  1.00  0.00     0.025 C 
HETATM    2  C2  UNL     1       0.323  52.872 -20.383  1.00  0.00     0.015 C 
HETATM    3  C3  UNL     1       1.001  53.552 -21.513  1.00  0.00     0.289 C 
HETATM    4  O1  UNL     1       1.670  54.567 -21.456  1.00  0.00    -0.260 OA
HETATM    5  O2  UNL     1       0.758  52.827 -22.637  1.00  0.00    -0.311 OA
HETATM    6  C4  UNL     1      -0.219  51.805 -22.366  1.00  0.00     0.142 C 
HETATM    7  C5  UNL     1      -1.574  52.294 -22.863  1.00  0.00     0.039 C 
HETATM    8  C6  UNL     1      -2.773  51.395 -22.523  1.00  0.00     0.006 C 
HETATM    9  C7  UNL     1      -2.745  50.840 -21.077  1.00  0.00    -0.027 A 
HETATM   10  C8  UNL     1      -3.918  49.890 -20.754  1.00  0.00     0.011 C 
HETATM   11  C9  UNL     1      -4.251  48.857 -21.840  1.00  0.00     0.011 C 
HETATM   12  C10 UNL     1      -4.422  49.530 -23.210  1.00  0.00    -0.032 C 
HETATM   13  C11 UNL     1      -5.643  50.504 -23.151  1.00  0.00     0.016 C 
HETATM   14  C12 UNL     1      -4.606  48.597 -24.450  1.00  0.00    -0.002 C 
HETATM   15  C21 UNL     1      -4.076  49.489 -25.615  1.00  0.00     0.006 C 
HETATM   16  C22 UNL     1      -3.287  50.660 -24.995  1.00  0.00     0.011 C 
HETATM   17  C23 UNL     1      -3.044  50.236 -23.539  1.00  0.00    -0.032 C 
HETATM   18  C24 UNL     1      -1.829  49.254 -23.559  1.00  0.00     0.016 C 
HETATM   19  C25 UNL     1      -2.538  51.803 -19.933  1.00  0.00     0.022 A 
HETATM   20  C26 UNL     1      -1.395  50.873 -20.279  1.00  0.00    -0.021 A 
HETATM   21  C31 UNL     1      -0.142  51.536 -20.872  1.00  0.00     0.063 C 
ENDROOT
BRANCH  14  22
HETATM   22  C13 UNL     1      -6.004  47.979 -24.778  1.00  0.00    -0.014 C 
HETATM   23  C14 UNL     1      -6.197  47.751 -26.280  1.00  0.00     0.010 C 
BRANCH  22  24
HETATM   24  C15 UNL     1      -7.132  48.900 -24.227  1.00  0.00     0.008 C 
BRANCH  24  25
HETATM   25  C16 UNL     1      -8.523  48.270 -24.071  1.00  0.00     0.028 C 
BRANCH  25  26
HETATM   26  C17 UNL     1      -9.415  48.463 -25.266  1.00  0.00    -0.025 C 
HETATM   27  C18 UNL     1     -10.378  47.633 -25.714  1.00  0.00    -0.091 C 
HETATM   28  C19 UNL     1     -10.713  46.301 -25.101  1.00  0.00     0.042 C 
HETATM   29  C20 UNL     1     -11.200  47.991 -26.925  1.00  0.00     0.042 C 
ENDBRANCH  25  26
ENDBRANCH  24  25
ENDBRANCH  22  24
ENDBRANCH  14  22
BRANCH  20  30
HETATM   30  C27 UNL     1      -1.061  49.647 -19.420  1.00  0.00     0.021 C 
BRANCH  30  31
HETATM   31  C28 UNL     1      -1.345  49.806 -17.931  1.00  0.00     0.112 C 
BRANCH  31  32
HETATM   32  C29 UNL     1      -0.099  49.694 -17.092  1.00  0.00     0.258 C 
HETATM   33  O3  UNL     1       0.180  48.728 -16.395  1.00  0.00    -0.265 OA
BRANCH  32  34
HETATM   34  O4  UNL     1       0.664  50.817 -17.212  1.00  0.00    -0.326 OA
HETATM   35  C30 UNL     1       1.247  51.256 -15.985  1.00  0.00     0.213 C 
ENDBRANCH  32  34
ENDBRANCH  31  32
ENDBRANCH  30  31
ENDBRANCH  20  30
TORSDOF 8
ENDMDL
MODEL 8
REMARK minimizedAffinity -7.23088551
REMARK CNNscore 0.212820455
REMARK CNNaffinity 5.88397408
REMARK  8 active torsions:
REMARK  status: ('A' for Active; 'I' for Inactive)
REMARK    1  A    between atoms: C12_14  and  C13_15 
REMARK    2  A    between atoms: C13_15  and  C15_17 
REMARK    3  A    between atoms: C15_17  and  C16_18 
REMARK    4  A    between atoms: C16_18  and  C17_19 
REMARK    5  A    between atoms: C26_28  and  C27_29 
REMARK    6  A    between atoms: C27_29  and  C28_30 
REMARK    7  A    between atoms: C28_30  and  C29_31 
REMARK    8  A    between atoms: C29_31  and  O4_33 
ROOT
HETATM    1  C1  UNL     1       0.391  52.959 -19.002  1.00  0.00     0.025 C 
HETATM    2  C2  UNL     1       0.294  52.311 -20.168  1.00  0.00     0.015 C 
HETATM    3  C3  UNL     1       0.862  52.888 -21.410  1.00  0.00     0.289 C 
HETATM    4  O1  UNL     1       1.611  53.844 -21.492  1.00  0.00    -0.260 OA
HETATM    5  O2  UNL     1       0.412  52.144 -22.455  1.00  0.00    -0.311 OA
HETATM    6  C4  UNL     1      -0.596  51.219 -22.006  1.00  0.00     0.142 C 
HETATM    7  C5  UNL     1      -1.964  51.802 -22.342  1.00  0.00     0.039 C 
HETATM    8  C6  UNL     1      -3.172  51.022 -21.802  1.00  0.00     0.006 C 
HETATM    9  C7  UNL     1      -2.991  50.521 -20.347  1.00  0.00    -0.027 A 
HETATM   10  C8  UNL     1      -4.179  49.687 -19.824  1.00  0.00     0.011 C 
HETATM   11  C9  UNL     1      -4.737  48.646 -20.805  1.00  0.00     0.011 C 
HETATM   12  C10 UNL     1      -5.042  49.278 -22.170  1.00  0.00    -0.032 C 
HETATM   13  C11 UNL     1      -6.162  50.354 -21.997  1.00  0.00     0.016 C 
HETATM   14  C12 UNL     1      -5.467  48.318 -23.329  1.00  0.00    -0.002 C 
HETATM   15  C21 UNL     1      -5.032  49.118 -24.596  1.00  0.00     0.006 C 
HETATM   16  C22 UNL     1      -4.076  50.240 -24.144  1.00  0.00     0.011 C 
HETATM   17  C23 UNL     1      -3.670  49.852 -22.715  1.00  0.00    -0.032 C 
HETATM   18  C24 UNL     1      -2.550  48.771 -22.848  1.00  0.00     0.016 C 
HETATM   19  C25 UNL     1      -2.554  51.506 -19.288  1.00  0.00     0.022 A 
HETATM   20  C26 UNL     1      -1.545  50.469 -19.738  1.00  0.00    -0.021 A 
HETATM   21  C31 UNL     1      -0.337  51.002 -20.525  1.00  0.00     0.063 C 
ENDROOT
BRANCH  14  22
HETATM   22  C13 UNL     1      -6.940  47.810 -23.436  1.00  0.00    -0.014 C 
HETATM   23  C14 UNL     1      -7.031  46.283 -23.364  1.00  0.00     0.010 C 
BRANCH  22  24
HETATM   24  C15 UNL     1      -7.582  48.322 -24.758  1.00  0.00     0.008 C 
BRANCH  24  25
HETATM   25  C16 UNL     1      -9.010  47.844 -25.063  1.00  0.00     0.028 C 
BRANCH  25  26
HETATM   26  C17 UNL     1      -9.458  48.130 -26.470  1.00  0.00    -0.025 C 
HETATM   27  C18 UNL     1      -9.660  47.241 -27.462  1.00  0.00    -0.091 C 
HETATM   28  C19 UNL     1      -9.425  45.760 -27.347  1.00  0.00     0.042 C 
HETATM   29  C20 UNL     1     -10.133  47.697 -28.819  1.00  0.00     0.042 C 
ENDBRANCH  25  26
ENDBRANCH  24  25
ENDBRANCH  22  24
ENDBRANCH  14  22
BRANCH  20  30
HETATM   30  C27 UNL     1      -1.195  49.252 -18.873  1.00  0.00     0.021 C 
BRANCH  30  31
HETATM   31  C28 UNL     1      -1.531  49.396 -17.393  1.00  0.00     0.112 C 
BRANCH  31  32
HETATM   32  C29 UNL     1      -0.524  50.239 -16.653  1.00  0.00     0.258 C 
HETATM   33  O3  UNL     1       0.687  50.155 -16.801  1.00  0.00    -0.265 OA
BRANCH  32  34
HETATM   34  O4  UNL     1      -1.151  51.094 -15.796  1.00  0.00    -0.326 OA
HETATM   35  C30 UNL     1      -2.494  50.722 -15.486  1.00  0.00     0.213 C 
ENDBRANCH  32  34
ENDBRANCH  31  32
ENDBRANCH  30  31
ENDBRANCH  20  30
TORSDOF 8
ENDMDL
MODEL 9
REMARK minimizedAffinity -7.63268757
REMARK CNNscore 0.20873563
REMARK CNNaffinity 6.59036779
REMARK  8 active torsions:
REMARK  status: ('A' for Active; 'I' for Inactive)
REMARK    1  A    between atoms: C12_14  and  C13_15 
REMARK    2  A    between atoms: C13_15  and  C15_17 
REMARK    3  A    between atoms: C15_17  and  C16_18 
REMARK    4  A    between atoms: C16_18  and  C17_19 
REMARK    5  A    between atoms: C26_28  and  C27_29 
REMARK    6  A    between atoms: C27_29  and  C28_30 
REMARK    7  A    between atoms: C28_30  and  C29_31 
REMARK    8  A    between atoms: C29_31  and  O4_33 
ROOT
HETATM    1  C1  UNL     1      -5.217  44.851 -18.840  1.00  0.00     0.025 C 
HETATM    2  C2  UNL     1      -5.616  46.126 -18.920  1.00  0.00     0.015 C 
HETATM    3  C3  UNL     1      -7.057  46.476 -18.882  1.00  0.00     0.289 C 
HETATM    4  O1  UNL     1      -7.978  45.738 -18.587  1.00  0.00    -0.260 OA
HETATM    5  O2  UNL     1      -7.171  47.788 -19.219  1.00  0.00    -0.311 OA
HETATM    6  C4  UNL     1      -5.906  48.292 -19.685  1.00  0.00     0.142 C 
HETATM    7  C5  UNL     1      -5.927  48.304 -21.209  1.00  0.00     0.039 C 
HETATM    8  C6  UNL     1      -4.600  48.672 -21.892  1.00  0.00     0.006 C 
HETATM    9  C7  UNL     1      -3.360  48.011 -21.239  1.00  0.00    -0.027 A 
HETATM   10  C8  UNL     1      -2.022  48.426 -21.887  1.00  0.00     0.011 C 
HETATM   11  C9  UNL     1      -1.874  49.922 -22.196  1.00  0.00     0.011 C 
HETATM   12  C10 UNL     1      -3.079  50.446 -22.991  1.00  0.00    -0.032 C 
HETATM   13  C11 UNL     1      -3.132  49.722 -24.374  1.00  0.00     0.016 C 
HETATM   14  C12 UNL     1      -3.157  51.986 -23.247  1.00  0.00    -0.002 C 
HETATM   15  C21 UNL     1      -4.691  52.214 -23.418  1.00  0.00     0.006 C 
HETATM   16  C22 UNL     1      -5.419  50.962 -22.890  1.00  0.00     0.011 C 
HETATM   17  C23 UNL     1      -4.354  50.205 -22.083  1.00  0.00    -0.032 C 
HETATM   18  C24 UNL     1      -4.270  50.906 -20.690  1.00  0.00     0.016 C 
HETATM   19  C25 UNL     1      -3.371  46.519 -21.002  1.00  0.00     0.022 A 
HETATM   20  C26 UNL     1      -3.490  47.421 -19.791  1.00  0.00    -0.021 A 
HETATM   21  C31 UNL     1      -4.844  47.399 -19.065  1.00  0.00     0.063 C 
ENDROOT
BRANCH  14  22
HETATM   22  C13 UNL     1      -2.336  52.640 -24.405  1.00  0.00    -0.014 C 
HETATM   23  C14 UNL     1      -2.861  52.234 -25.785  1.00  0.00     0.010 C 
BRANCH  22  24
HETATM   24  C15 UNL     1      -0.833  52.258 -24.270  1.00  0.00     0.008 C 
BRANCH  24  25
HETATM   25  C16 UNL     1       0.179  53.188 -24.954  1.00  0.00     0.028 C 
BRANCH  25  26
HETATM   26  C17 UNL     1       0.393  52.886 -26.412  1.00  0.00    -0.025 C 
HETATM   27  C18 UNL     1       1.281  52.027 -26.950  1.00  0.00    -0.091 C 
HETATM   28  C19 UNL     1       2.278  51.221 -26.163  1.00  0.00     0.042 C 
HETATM   29  C20 UNL     1       1.351  51.826 -28.442  1.00  0.00     0.042 C 
ENDBRANCH  25  26
ENDBRANCH  24  25
ENDBRANCH  22  24
ENDBRANCH  14  22
BRANCH  20  30
HETATM   30  C27 UNL     1      -2.313  47.651 -18.835  1.00  0.00     0.021 C 
BRANCH  30  31
HETATM   31  C28 UNL     1      -2.619  48.546 -17.639  1.00  0.00     0.112 C 
BRANCH  31  32
HETATM   32  C29 UNL     1      -1.960  49.896 -17.747  1.00  0.00     0.258 C 
HETATM   33  O3  UNL     1      -2.534  50.961 -17.569  1.00  0.00    -0.265 OA
BRANCH  32  34
HETATM   34  O4  UNL     1      -0.644  49.763 -18.077  1.00  0.00    -0.326 OA
HETATM   35  C30 UNL     1       0.219  50.676 -17.398  1.00  0.00     0.213 C 
ENDBRANCH  32  34
ENDBRANCH  31  32
ENDBRANCH  30  31
ENDBRANCH  20  30
TORSDOF 8
ENDMDL
