MODEL 1
REMARK minimizedAffinity -8.47241688
REMARK CNNscore 0.702829838
REMARK CNNaffinity 6.64467812
REMARK  9 active torsions:
REMARK  status: ('A' for Active; 'I' for Inactive)
REMARK    1  A    between atoms: C2_2  and  C32_37 
REMARK    2  A    between atoms: C3_3  and  C4_4 
REMARK    3  A    between atoms: C4_4  and  O1_5 
REMARK    4  A    between atoms: C4_4  and  C5_6 
REMARK    5  A    between atoms: C5_6  and  C6_7 
REMARK    6  A    between atoms: C6_7  and  C8_9 
REMARK    7  A    between atoms: C10_11  and  O2_12 
REMARK    8  A    between atoms: C31_35  and  O5_36 
REMARK    9  A    between atoms: C32_37  and  O7_39 
ROOT
HETATM    1  C8  UNL     1      -0.597  10.374  17.643  1.00  0.00     0.001 C 
HETATM    2  C9  UNL     1      -2.038  10.605  17.107  1.00  0.00     0.038 C 
HETATM    3  C10 UNL     1      -2.105  10.013  15.688  1.00  0.00     0.132 C 
HETATM    4  C11 UNL     1      -0.833   9.126  15.559  1.00  0.00     0.017 C 
HETATM    5  C12 UNL     1      -1.114   7.741  16.221  1.00  0.00     0.023 C 
HETATM    6  C13 UNL     1      -0.255   8.805  14.168  1.00  0.00    -0.029 C 
HETATM    7  C14 UNL     1       1.073   8.554  14.005  1.00  0.00     0.002 C 
HETATM    8  C15 UNL     1       1.971   8.606  15.240  1.00  0.00     0.157 C 
HETATM    9  O3  UNL     1       3.116   8.157  15.209  1.00  0.00    -0.293 OA
HETATM   10  C16 UNL     1       1.473   9.227  16.536  1.00  0.00     0.094 C 
HETATM   11  C17 UNL     1       0.194  10.035  16.340  1.00  0.00    -0.019 C 
HETATM   12  C18 UNL     1       0.547  11.360  15.590  1.00  0.00     0.017 C 
HETATM   13  C19 UNL     1       1.766   8.306  12.639  1.00  0.00    -0.007 C 
HETATM   14  C20 UNL     1       2.829   9.435  12.463  1.00  0.00     0.021 C 
HETATM   15  C21 UNL     1       2.452   6.915  12.597  1.00  0.00     0.022 C 
HETATM   16  C22 UNL     1       3.280   6.673  11.343  1.00  0.00     0.080 C 
HETATM   17  C23 UNL     1       2.725   7.359  10.121  1.00  0.00     0.136 C 
HETATM   18  O4  UNL     1       3.459   7.577   9.155  1.00  0.00    -0.297 OA
HETATM   19  C24 UNL     1       1.227   7.670  10.089  1.00  0.00     0.025 C 
HETATM   20  C25 UNL     1       0.952   8.604   8.885  1.00  0.00     0.024 C 
HETATM   21  C26 UNL     1       0.517   6.306   9.802  1.00  0.00     0.044 C 
HETATM   22  C27 UNL     1      -0.301   5.751  10.928  1.00  0.00    -0.029 C 
HETATM   23  C28 UNL     1      -0.847   6.546  11.853  1.00  0.00    -0.023 C 
HETATM   24  C29 UNL     1      -0.679   8.042  11.756  1.00  0.00     0.047 C 
HETATM   25  C30 UNL     1       0.773   8.423  11.404  1.00  0.00     0.024 C 
HETATM   26  C31 UNL     1      -1.187   8.823  12.982  1.00  0.00     0.156 C 
ENDROOT
BRANCH   1  27
HETATM   27  C6  UNL     1      -0.128  11.543  18.566  1.00  0.00    -0.011 C 
HETATM   28  C7  UNL     1       0.958  12.397  17.901  1.00  0.00     0.010 C 
BRANCH  27  29
HETATM   29  C5  UNL     1       0.417  10.985  19.920  1.00  0.00     0.040 C 
BRANCH  29  30
HETATM   30  C4  UNL     1       1.949  10.798  19.993  1.00  0.00     0.142 C 
BRANCH  30  31
HETATM   31  C3  UNL     1       2.457  10.509  21.376  1.00  0.00     0.018 C 
HETATM   32  C2  UNL     1       3.697  10.612  21.900  1.00  0.00     0.010 C 
HETATM   33  C1  UNL     1       4.913  11.155  21.214  1.00  0.00     0.055 C 
BRANCH  32  34
HETATM   34  C32 UNL     1       3.839  10.173  23.312  1.00  0.00     0.171 C 
HETATM   35  O6  UNL     1       2.939   9.854  24.071  1.00  0.00    -0.646 OA
BRANCH  34  36
HETATM   36  O7  UNL     1       5.120  10.126  23.713  1.00  0.00    -0.773 OA
HETATM   37  H44 UNL     1       5.057   9.812  24.639  1.00  0.00     0.167 HD
ENDBRANCH  34  36
ENDBRANCH  32  34
ENDBRANCH  30  31
BRANCH  30  38
HETATM   38  O1  UNL     1       2.328   9.787  19.072  1.00  0.00    -0.392 OA
HETATM   39  H6  UNL     1       2.059  10.086  18.188  1.00  0.00     0.210 HD
ENDBRANCH  30  38
ENDBRANCH  29  30
ENDBRANCH  27  29
ENDBRANCH   1  27
BRANCH   3  40
HETATM   40  O2  UNL     1      -3.334   9.315  15.553  1.00  0.00    -0.394 OA
HETATM   41  H17 UNL     1      -3.231   8.761  14.749  1.00  0.00     0.210 HD
ENDBRANCH   3  40
BRANCH  26  42
HETATM   42  O5  UNL     1      -2.481   8.334  13.340  1.00  0.00    -0.390 OA
HETATM   43  H43 UNL     1      -2.995   8.253  12.516  1.00  0.00     0.210 HD
ENDBRANCH  26  42
TORSDOF 9
ENDMDL
MODEL 2
REMARK minimizedAffinity -7.3437748
REMARK CNNscore 0.651813388
REMARK CNNaffinity 6.79632378
REMARK  9 active torsions:
REMARK  status: ('A' for Active; 'I' for Inactive)
REMARK    1  A    between atoms: C2_2  and  C32_37 
REMARK    2  A    between atoms: C3_3  and  C4_4 
REMARK    3  A    between atoms: C4_4  and  O1_5 
REMARK    4  A    between atoms: C4_4  and  C5_6 
REMARK    5  A    between atoms: C5_6  and  C6_7 
REMARK    6  A    between atoms: C6_7  and  C8_9 
REMARK    7  A    between atoms: C10_11  and  O2_12 
REMARK    8  A    between atoms: C31_35  and  O5_36 
REMARK    9  A    between atoms: C32_37  and  O7_39 
ROOT
HETATM    1  C8  UNL     1      -0.445   7.740  13.816  1.00  0.00     0.001 C 
HETATM    2  C9  UNL     1       0.949   8.392  13.593  1.00  0.00     0.038 C 
HETATM    3  C10 UNL     1       0.996   9.682  14.432  1.00  0.00     0.132 C 
HETATM    4  C11 UNL     1      -0.211   9.573  15.409  1.00  0.00     0.017 C 
HETATM    5  C12 UNL     1       0.204   8.689  16.627  1.00  0.00     0.023 C 
HETATM    6  C13 UNL     1      -0.825  10.846  16.019  1.00  0.00    -0.029 C 
HETATM    7  C14 UNL     1      -2.136  10.883  16.384  1.00  0.00     0.002 C 
HETATM    8  C15 UNL     1      -2.978   9.627  16.164  1.00  0.00     0.157 C 
HETATM    9  O3  UNL     1      -4.087   9.510  16.685  1.00  0.00    -0.293 OA
HETATM   10  C16 UNL     1      -2.471   8.497  15.282  1.00  0.00     0.094 C 
HETATM   11  C17 UNL     1      -1.267   8.911  14.442  1.00  0.00    -0.019 C 
HETATM   12  C18 UNL     1      -1.752   9.866  13.305  1.00  0.00     0.017 C 
HETATM   13  C19 UNL     1      -2.870  12.139  16.925  1.00  0.00    -0.007 C 
HETATM   14  C20 UNL     1      -4.022  12.453  15.921  1.00  0.00     0.021 C 
HETATM   15  C21 UNL     1      -3.450  11.887  18.342  1.00  0.00     0.022 C 
HETATM   16  C22 UNL     1      -4.313  13.026  18.866  1.00  0.00     0.080 C 
HETATM   17  C23 UNL     1      -3.868  14.383  18.382  1.00  0.00     0.136 C 
HETATM   18  O4  UNL     1      -4.660  15.328  18.395  1.00  0.00    -0.297 OA
HETATM   19  C24 UNL     1      -2.401  14.558  17.984  1.00  0.00     0.025 C 
HETATM   20  C25 UNL     1      -2.253  15.925  17.272  1.00  0.00     0.024 C 
HETATM   21  C26 UNL     1      -1.603  14.634  19.327  1.00  0.00     0.044 C 
HETATM   22  C27 UNL     1      -0.695  13.477  19.610  1.00  0.00    -0.029 C 
HETATM   23  C28 UNL     1      -0.169  12.745  18.623  1.00  0.00    -0.023 C 
HETATM   24  C29 UNL     1      -0.454  13.101  17.186  1.00  0.00     0.047 C 
HETATM   25  C30 UNL     1      -1.946  13.430  16.972  1.00  0.00     0.024 C 
HETATM   26  C31 UNL     1       0.048  12.068  16.159  1.00  0.00     0.156 C 
ENDROOT
BRANCH   1  27
HETATM   27  C6  UNL     1      -0.959   7.017  12.530  1.00  0.00    -0.011 C 
HETATM   28  C7  UNL     1      -0.678   5.509  12.570  1.00  0.00     0.010 C 
BRANCH  27  29
HETATM   29  C5  UNL     1      -0.291   7.628  11.256  1.00  0.00     0.040 C 
BRANCH  29  30
HETATM   30  C4  UNL     1       0.682   6.694  10.503  1.00  0.00     0.142 C 
BRANCH  30  31
HETATM   31  C3  UNL     1       1.110   7.222   9.163  1.00  0.00     0.018 C 
HETATM   32  C2  UNL     1       2.124   6.851   8.353  1.00  0.00     0.010 C 
HETATM   33  C1  UNL     1       3.061   5.702   8.563  1.00  0.00     0.055 C 
BRANCH  32  34
HETATM   34  C32 UNL     1       2.284   7.654   7.112  1.00  0.00     0.171 C 
HETATM   35  O6  UNL     1       1.908   7.349   5.993  1.00  0.00    -0.646 OA
BRANCH  34  36
HETATM   36  O7  UNL     1       2.889   8.833   7.334  1.00  0.00    -0.773 OA
HETATM   37  H44 UNL     1       2.910   9.247   6.446  1.00  0.00     0.167 HD
ENDBRANCH  34  36
ENDBRANCH  32  34
ENDBRANCH  30  31
BRANCH  30  38
HETATM   38  O1  UNL     1       1.795   6.423  11.341  1.00  0.00    -0.392 OA
HETATM   39  H6  UNL     1       1.453   5.992  12.143  1.00  0.00     0.210 HD
ENDBRANCH  30  38
ENDBRANCH  29  30
ENDBRANCH  27  29
ENDBRANCH   1  27
BRANCH   3  40
HETATM   40  O2  UNL     1       2.266   9.759  15.060  1.00  0.00    -0.394 OA
HETATM   41  H17 UNL     1       2.169  10.443  15.758  1.00  0.00     0.210 HD
ENDBRANCH   3  40
BRANCH  26  42
HETATM   42  O5  UNL     1       1.390  11.704  16.487  1.00  0.00    -0.390 OA
HETATM   43  H43 UNL     1       1.871  12.529  16.684  1.00  0.00     0.210 HD
ENDBRANCH  26  42
TORSDOF 9
ENDMDL
MODEL 3
REMARK minimizedAffinity -7.72521496
REMARK CNNscore 0.616301358
REMARK CNNaffinity 6.49550772
REMARK  9 active torsions:
REMARK  status: ('A' for Active; 'I' for Inactive)
REMARK    1  A    between atoms: C2_2  and  C32_37 
REMARK    2  A    between atoms: C3_3  and  C4_4 
REMARK    3  A    between atoms: C4_4  and  O1_5 
REMARK    4  A    between atoms: C4_4  and  C5_6 
REMARK    5  A    between atoms: C5_6  and  C6_7 
REMARK    6  A    between atoms: C6_7  and  C8_9 
REMARK    7  A    between atoms: C10_11  and  O2_12 
REMARK    8  A    between atoms: C31_35  and  O5_36 
REMARK    9  A    between atoms: C32_37  and  O7_39 
ROOT
HETATM    1  C8  UNL     1      -2.365  10.276  17.216  1.00  0.00     0.001 C 
HETATM    2  C9  UNL     1      -3.685  10.165  16.402  1.00  0.00     0.038 C 
HETATM    3  C10 UNL     1      -3.349   9.481  15.065  1.00  0.00     0.132 C 
HETATM    4  C11 UNL     1      -1.931   8.873  15.267  1.00  0.00     0.017 C 
HETATM    5  C12 UNL     1      -2.068   7.505  16.007  1.00  0.00     0.023 C 
HETATM    6  C13 UNL     1      -1.033   8.589  14.048  1.00  0.00    -0.029 C 
HETATM    7  C14 UNL     1       0.323   8.611  14.161  1.00  0.00     0.002 C 
HETATM    8  C15 UNL     1       0.926   8.930  15.528  1.00  0.00     0.157 C 
HETATM    9  O3  UNL     1       2.119   8.729  15.756  1.00  0.00    -0.293 OA
HETATM   10  C16 UNL     1       0.067   9.516  16.637  1.00  0.00     0.094 C 
HETATM   11  C17 UNL     1      -1.277  10.025  16.124  1.00  0.00    -0.019 C 
HETATM   12  C18 UNL     1      -1.041  11.342  15.318  1.00  0.00     0.017 C 
HETATM   13  C19 UNL     1       1.312   8.424  12.979  1.00  0.00    -0.007 C 
HETATM   14  C20 UNL     1       2.152   9.736  12.886  1.00  0.00     0.021 C 
HETATM   15  C21 UNL     1       2.247   7.208  13.211  1.00  0.00     0.022 C 
HETATM   16  C22 UNL     1       3.342   7.063  12.164  1.00  0.00     0.080 C 
HETATM   17  C23 UNL     1       2.924   7.536  10.795  1.00  0.00     0.136 C 
HETATM   18  O4  UNL     1       3.783   7.839   9.964  1.00  0.00    -0.297 OA
HETATM   19  C24 UNL     1       1.433   7.525  10.455  1.00  0.00     0.025 C 
HETATM   20  C25 UNL     1       1.232   8.301   9.130  1.00  0.00     0.024 C 
HETATM   21  C26 UNL     1       1.070   6.027  10.187  1.00  0.00     0.044 C 
HETATM   22  C27 UNL     1       0.164   5.388  11.194  1.00  0.00    -0.029 C 
HETATM   23  C28 UNL     1      -0.700   6.110  11.914  1.00  0.00    -0.023 C 
HETATM   24  C29 UNL     1      -0.807   7.598  11.693  1.00  0.00     0.047 C 
HETATM   25  C30 UNL     1       0.586   8.251  11.578  1.00  0.00     0.024 C 
HETATM   26  C31 UNL     1      -1.692   8.335  12.716  1.00  0.00     0.156 C 
ENDROOT
BRANCH   1  27
HETATM   27  C6  UNL     1      -2.325  11.575  18.082  1.00  0.00    -0.011 C 
HETATM   28  C7  UNL     1      -1.145  11.573  19.062  1.00  0.00     0.010 C 
BRANCH  27  29
HETATM   29  C5  UNL     1      -3.656  11.736  18.886  1.00  0.00     0.040 C 
BRANCH  29  30
HETATM   30  C4  UNL     1      -4.404  13.070  18.670  1.00  0.00     0.142 C 
BRANCH  30  31
HETATM   31  C3  UNL     1      -4.155  14.084  19.749  1.00  0.00     0.018 C 
HETATM   32  C2  UNL     1      -4.744  14.254  20.953  1.00  0.00     0.010 C 
HETATM   33  C1  UNL     1      -5.780  13.367  21.573  1.00  0.00     0.055 C 
BRANCH  32  34
HETATM   34  C32 UNL     1      -4.272  15.421  21.742  1.00  0.00     0.171 C 
HETATM   35  O6  UNL     1      -3.226  15.508  22.362  1.00  0.00    -0.646 OA
BRANCH  34  36
HETATM   36  O7  UNL     1      -5.129  16.455  21.698  1.00  0.00    -0.773 OA
HETATM   37  H44 UNL     1      -4.685  17.141  22.239  1.00  0.00     0.167 HD
ENDBRANCH  34  36
ENDBRANCH  32  34
ENDBRANCH  30  31
BRANCH  30  38
HETATM   38  O1  UNL     1      -4.072  13.577  17.386  1.00  0.00    -0.392 OA
HETATM   39  H6  UNL     1      -4.352  12.914  16.733  1.00  0.00     0.210 HD
ENDBRANCH  30  38
ENDBRANCH  29  30
ENDBRANCH  27  29
ENDBRANCH   1  27
BRANCH   3  40
HETATM   40  O2  UNL     1      -4.367   8.534  14.780  1.00  0.00    -0.394 OA
HETATM   41  H17 UNL     1      -4.000   7.963  14.071  1.00  0.00     0.210 HD
ENDBRANCH   3  40
BRANCH  26  42
HETATM   42  O5  UNL     1      -2.913   7.611  12.878  1.00  0.00    -0.390 OA
HETATM   43  H43 UNL     1      -3.225   7.371  11.986  1.00  0.00     0.210 HD
ENDBRANCH  26  42
TORSDOF 9
ENDMDL
MODEL 4
REMARK minimizedAffinity -7.89262867
REMARK CNNscore 0.578833044
REMARK CNNaffinity 7.36278009
REMARK  9 active torsions:
REMARK  status: ('A' for Active; 'I' for Inactive)
REMARK    1  A    between atoms: C2_2  and  C32_37 
REMARK    2  A    between atoms: C3_3  and  C4_4 
REMARK    3  A    between atoms: C4_4  and  O1_5 
REMARK    4  A    between atoms: C4_4  and  C5_6 
REMARK    5  A    between atoms: C5_6  and  C6_7 
REMARK    6  A    between atoms: C6_7  and  C8_9 
REMARK    7  A    between atoms: C10_11  and  O2_12 
REMARK    8  A    between atoms: C31_35  and  O5_36 
REMARK    9  A    between atoms: C32_37  and  O7_39 
ROOT
HETATM    1  C8  UNL     1      -7.305   5.188  13.905  1.00  0.00     0.001 C 
HETATM    2  C9  UNL     1      -6.142   6.201  14.101  1.00  0.00     0.038 C 
HETATM    3  C10 UNL     1      -6.768   7.558  14.472  1.00  0.00     0.132 C 
HETATM    4  C11 UNL     1      -8.242   7.234  14.849  1.00  0.00     0.017 C 
HETATM    5  C12 UNL     1      -8.288   6.735  16.327  1.00  0.00     0.023 C 
HETATM    6  C13 UNL     1      -9.320   8.330  14.754  1.00  0.00    -0.029 C 
HETATM    7  C14 UNL     1     -10.621   8.010  14.517  1.00  0.00     0.002 C 
HETATM    8  C15 UNL     1     -10.978   6.535  14.341  1.00  0.00     0.157 C 
HETATM    9  O3  UNL     1     -12.150   6.159  14.367  1.00  0.00    -0.293 OA
HETATM   10  C16 UNL     1      -9.892   5.495  14.116  1.00  0.00     0.094 C 
HETATM   11  C17 UNL     1      -8.547   6.125  13.768  1.00  0.00    -0.019 C 
HETATM   12  C18 UNL     1      -8.615   6.682  12.309  1.00  0.00     0.017 C 
HETATM   13  C19 UNL     1     -11.765   9.041  14.319  1.00  0.00    -0.007 C 
HETATM   14  C20 UNL     1     -12.335   8.809  12.884  1.00  0.00     0.021 C 
HETATM   15  C21 UNL     1     -12.886   8.852  15.375  1.00  0.00     0.022 C 
HETATM   16  C22 UNL     1     -14.107   9.729  15.142  1.00  0.00     0.080 C 
HETATM   17  C23 UNL     1     -13.774  11.060  14.517  1.00  0.00     0.136 C 
HETATM   18  O4  UNL     1     -14.651  11.696  13.928  1.00  0.00    -0.297 OA
HETATM   19  C24 UNL     1     -12.367  11.622  14.729  1.00  0.00     0.025 C 
HETATM   20  C25 UNL     1     -12.181  12.832  13.780  1.00  0.00     0.024 C 
HETATM   21  C26 UNL     1     -12.342  12.162  16.197  1.00  0.00     0.044 C 
HETATM   22  C27 UNL     1     -11.464  11.411  17.150  1.00  0.00    -0.029 C 
HETATM   23  C28 UNL     1     -10.393  10.733  16.726  1.00  0.00    -0.023 C 
HETATM   24  C29 UNL     1     -10.023  10.744  15.264  1.00  0.00     0.047 C 
HETATM   25  C30 UNL     1     -11.263  10.547  14.368  1.00  0.00     0.024 C 
HETATM   26  C31 UNL     1      -8.892   9.770  14.883  1.00  0.00     0.156 C 
ENDROOT
BRANCH   1  27
HETATM   27  C6  UNL     1      -6.982   4.142  12.791  1.00  0.00    -0.011 C 
HETATM   28  C7  UNL     1      -7.806   2.859  12.954  1.00  0.00     0.010 C 
BRANCH  27  29
HETATM   29  C5  UNL     1      -5.462   3.779  12.807  1.00  0.00     0.040 C 
BRANCH  29  30
HETATM   30  C4  UNL     1      -4.767   3.769  11.428  1.00  0.00     0.142 C 
BRANCH  30  31
HETATM   31  C3  UNL     1      -3.584   2.845  11.355  1.00  0.00     0.018 C 
HETATM   32  C2  UNL     1      -2.274   3.104  11.154  1.00  0.00     0.010 C 
HETATM   33  C1  UNL     1      -1.638   4.455  11.042  1.00  0.00     0.055 C 
BRANCH  32  34
HETATM   34  C32 UNL     1      -1.387   1.914  11.081  1.00  0.00     0.171 C 
HETATM   35  O6  UNL     1      -0.171   1.904  11.174  1.00  0.00    -0.646 OA
BRANCH  34  36
HETATM   36  O7  UNL     1      -2.070   0.769  10.918  1.00  0.00    -0.773 OA
HETATM   37  H44 UNL     1      -1.368   0.086  10.903  1.00  0.00     0.167 HD
ENDBRANCH  34  36
ENDBRANCH  32  34
ENDBRANCH  30  31
BRANCH  30  38
HETATM   38  O1  UNL     1      -5.732   3.467  10.433  1.00  0.00    -0.392 OA
HETATM   39  H6  UNL     1      -6.412   4.159  10.471  1.00  0.00     0.210 HD
ENDBRANCH  30  38
ENDBRANCH  29  30
ENDBRANCH  27  29
ENDBRANCH   1  27
BRANCH   3  40
HETATM   40  O2  UNL     1      -5.998   8.132  15.517  1.00  0.00    -0.394 OA
HETATM   41  H17 UNL     1      -6.555   8.854  15.883  1.00  0.00     0.210 HD
ENDBRANCH   3  40
BRANCH  26  42
HETATM   42  O5  UNL     1      -7.827   9.906  15.827  1.00  0.00    -0.390 OA
HETATM   43  H43 UNL     1      -7.680  10.860  15.957  1.00  0.00     0.210 HD
ENDBRANCH  26  42
TORSDOF 9
ENDMDL
MODEL 5
REMARK minimizedAffinity -9.18798733
REMARK CNNscore 0.567517698
REMARK CNNaffinity 7.09479904
REMARK  9 active torsions:
REMARK  status: ('A' for Active; 'I' for Inactive)
REMARK    1  A    between atoms: C2_2  and  C32_37 
REMARK    2  A    between atoms: C3_3  and  C4_4 
REMARK    3  A    between atoms: C4_4  and  O1_5 
REMARK    4  A    between atoms: C4_4  and  C5_6 
REMARK    5  A    between atoms: C5_6  and  C6_7 
REMARK    6  A    between atoms: C6_7  and  C8_9 
REMARK    7  A    between atoms: C10_11  and  O2_12 
REMARK    8  A    between atoms: C31_35  and  O5_36 
REMARK    9  A    between atoms: C32_37  and  O7_39 
ROOT
HETATM    1  C8  UNL     1      -0.177   7.953  13.783  1.00  0.00     0.001 C 
HETATM    2  C9  UNL     1      -0.671   9.426  13.720  1.00  0.00     0.038 C 
HETATM    3  C10 UNL     1      -2.209   9.401  13.792  1.00  0.00     0.132 C 
HETATM    4  C11 UNL     1      -2.568   7.963  14.265  1.00  0.00     0.017 C 
HETATM    5  C12 UNL     1      -2.430   7.893  15.818  1.00  0.00     0.023 C 
HETATM    6  C13 UNL     1      -3.956   7.373  13.952  1.00  0.00    -0.029 C 
HETATM    7  C14 UNL     1      -4.130   6.030  13.822  1.00  0.00     0.002 C 
HETATM    8  C15 UNL     1      -2.909   5.127  13.989  1.00  0.00     0.157 C 
HETATM    9  O3  UNL     1      -3.035   3.911  14.126  1.00  0.00    -0.293 OA
HETATM   10  C16 UNL     1      -1.505   5.712  13.978  1.00  0.00     0.094 C 
HETATM   11  C17 UNL     1      -1.477   7.149  13.468  1.00  0.00    -0.019 C 
HETATM   12  C18 UNL     1      -1.716   7.138  11.923  1.00  0.00     0.017 C 
HETATM   13  C19 UNL     1      -5.465   5.344  13.424  1.00  0.00    -0.007 C 
HETATM   14  C20 UNL     1      -5.195   4.578  12.091  1.00  0.00     0.021 C 
HETATM   15  C21 UNL     1      -5.942   4.356  14.521  1.00  0.00     0.022 C 
HETATM   16  C22 UNL     1      -7.161   3.537  14.125  1.00  0.00     0.080 C 
HETATM   17  C23 UNL     1      -8.105   4.276  13.210  1.00  0.00     0.136 C 
HETATM   18  O4  UNL     1      -8.903   3.645  12.514  1.00  0.00    -0.297 OA
HETATM   19  C24 UNL     1      -8.102   5.805  13.258  1.00  0.00     0.025 C 
HETATM   20  C25 UNL     1      -8.930   6.329  12.059  1.00  0.00     0.024 C 
HETATM   21  C26 UNL     1      -8.868   6.190  14.567  1.00  0.00     0.044 C 
HETATM   22  C27 UNL     1      -8.038   6.819  15.644  1.00  0.00    -0.029 C 
HETATM   23  C28 UNL     1      -6.926   7.503  15.359  1.00  0.00    -0.023 C 
HETATM   24  C29 UNL     1      -6.502   7.689  13.924  1.00  0.00     0.047 C 
HETATM   25  C30 UNL     1      -6.632   6.378  13.123  1.00  0.00     0.024 C 
HETATM   26  C31 UNL     1      -5.109   8.324  13.745  1.00  0.00     0.156 C 
ENDROOT
BRANCH   1  27
HETATM   27  C6  UNL     1       1.110   7.737  12.924  1.00  0.00    -0.011 C 
HETATM   28  C7  UNL     1       1.381   8.924  11.990  1.00  0.00     0.010 C 
BRANCH  27  29
HETATM   29  C5  UNL     1       0.986   6.434  12.072  1.00  0.00     0.040 C 
BRANCH  29  30
HETATM   30  C4  UNL     1       2.168   6.147  11.119  1.00  0.00     0.142 C 
BRANCH  30  31
HETATM   31  C3  UNL     1       2.045   6.824   9.784  1.00  0.00     0.018 C 
HETATM   32  C2  UNL     1       2.501   6.461   8.566  1.00  0.00     0.010 C 
HETATM   33  C1  UNL     1       3.198   5.181   8.219  1.00  0.00     0.055 C 
BRANCH  32  34
HETATM   34  C32 UNL     1       2.239   7.425   7.466  1.00  0.00     0.171 C 
HETATM   35  O6  UNL     1       1.577   7.224   6.462  1.00  0.00    -0.646 OA
BRANCH  34  36
HETATM   36  O7  UNL     1       2.801   8.625   7.686  1.00  0.00    -0.773 OA
HETATM   37  H44 UNL     1       2.535   9.148   6.901  1.00  0.00     0.167 HD
ENDBRANCH  34  36
ENDBRANCH  32  34
ENDBRANCH  30  31
BRANCH  30  38
HETATM   38  O1  UNL     1       3.377   6.496  11.776  1.00  0.00    -0.392 OA
HETATM   39  H6  UNL     1       3.438   5.949  12.577  1.00  0.00     0.210 HD
ENDBRANCH  30  38
ENDBRANCH  29  30
ENDBRANCH  27  29
ENDBRANCH   1  27
BRANCH   3  40
HETATM   40  O2  UNL     1      -2.631  10.438  14.664  1.00  0.00    -0.394 OA
HETATM   41  H17 UNL     1      -3.570  10.237  14.871  1.00  0.00     0.210 HD
ENDBRANCH   3  40
BRANCH  26  42
HETATM   42  O5  UNL     1      -5.001   9.456  14.609  1.00  0.00    -0.390 OA
HETATM   43  H43 UNL     1      -5.828   9.964  14.520  1.00  0.00     0.210 HD
ENDBRANCH  26  42
TORSDOF 9
ENDMDL
MODEL 6
REMARK minimizedAffinity -7.49960756
REMARK CNNscore 0.500227809
REMARK CNNaffinity 6.35612822
REMARK  9 active torsions:
REMARK  status: ('A' for Active; 'I' for Inactive)
REMARK    1  A    between atoms: C2_2  and  C32_37 
REMARK    2  A    between atoms: C3_3  and  C4_4 
REMARK    3  A    between atoms: C4_4  and  O1_5 
REMARK    4  A    between atoms: C4_4  and  C5_6 
REMARK    5  A    between atoms: C5_6  and  C6_7 
REMARK    6  A    between atoms: C6_7  and  C8_9 
REMARK    7  A    between atoms: C10_11  and  O2_12 
REMARK    8  A    between atoms: C31_35  and  O5_36 
REMARK    9  A    between atoms: C32_37  and  O7_39 
ROOT
HETATM    1  C8  UNL     1     -15.405  -4.896  12.504  1.00  0.00     0.001 C 
HETATM    2  C9  UNL     1     -14.454  -4.981  13.732  1.00  0.00     0.038 C 
HETATM    3  C10 UNL     1     -14.614  -3.676  14.532  1.00  0.00     0.132 C 
HETATM    4  C11 UNL     1     -15.910  -3.016  13.976  1.00  0.00     0.017 C 
HETATM    5  C12 UNL     1     -17.147  -3.670  14.670  1.00  0.00     0.023 C 
HETATM    6  C13 UNL     1     -16.120  -1.497  14.113  1.00  0.00    -0.029 C 
HETATM    7  C14 UNL     1     -16.879  -0.814  13.212  1.00  0.00     0.002 C 
HETATM    8  C15 UNL     1     -17.508  -1.598  12.061  1.00  0.00     0.157 C 
HETATM    9  O3  UNL     1     -18.389  -1.098  11.363  1.00  0.00    -0.293 OA
HETATM   10  C16 UNL     1     -17.049  -3.013  11.744  1.00  0.00     0.094 C 
HETATM   11  C17 UNL     1     -15.745  -3.373  12.448  1.00  0.00    -0.019 C 
HETATM   12  C18 UNL     1     -14.572  -2.607  11.755  1.00  0.00     0.017 C 
HETATM   13  C19 UNL     1     -17.082   0.725  13.212  1.00  0.00    -0.007 C 
HETATM   14  C20 UNL     1     -16.520   1.251  11.853  1.00  0.00     0.021 C 
HETATM   15  C21 UNL     1     -18.581   1.097  13.349  1.00  0.00     0.022 C 
HETATM   16  C22 UNL     1     -18.863   2.585  13.200  1.00  0.00     0.080 C 
HETATM   17  C23 UNL     1     -17.743   3.458  13.707  1.00  0.00     0.136 C 
HETATM   18  O4  UNL     1     -17.650   4.624  13.316  1.00  0.00    -0.297 OA
HETATM   19  C24 UNL     1     -16.814   2.885  14.779  1.00  0.00     0.025 C 
HETATM   20  C25 UNL     1     -15.604   3.839  14.932  1.00  0.00     0.024 C 
HETATM   21  C26 UNL     1     -17.627   2.933  16.115  1.00  0.00     0.044 C 
HETATM   22  C27 UNL     1     -18.014   1.604  16.688  1.00  0.00    -0.029 C 
HETATM   23  C28 UNL     1     -17.297   0.502  16.443  1.00  0.00    -0.023 C 
HETATM   24  C29 UNL     1     -16.046   0.588  15.606  1.00  0.00     0.047 C 
HETATM   25  C30 UNL     1     -16.263   1.463  14.355  1.00  0.00     0.024 C 
HETATM   26  C31 UNL     1     -15.426  -0.775  15.241  1.00  0.00     0.156 C 
ENDROOT
BRANCH   1  27
HETATM   27  C6  UNL     1     -14.804  -5.615  11.255  1.00  0.00    -0.011 C 
HETATM   28  C7  UNL     1     -13.442  -6.251  11.561  1.00  0.00     0.010 C 
BRANCH  27  29
HETATM   29  C5  UNL     1     -14.643  -4.609  10.070  1.00  0.00     0.040 C 
BRANCH  29  30
HETATM   30  C4  UNL     1     -15.586  -4.841   8.869  1.00  0.00     0.142 C 
BRANCH  30  31
HETATM   31  C3  UNL     1     -14.921  -4.655   7.535  1.00  0.00     0.018 C 
HETATM   32  C2  UNL     1     -13.900  -5.324   6.958  1.00  0.00     0.010 C 
HETATM   33  C1  UNL     1     -13.207  -6.537   7.500  1.00  0.00     0.055 C 
BRANCH  32  34
HETATM   34  C32 UNL     1     -13.462  -4.813   5.633  1.00  0.00     0.171 C 
HETATM   35  O6  UNL     1     -12.392  -5.024   5.088  1.00  0.00    -0.646 OA
BRANCH  34  36
HETATM   36  O7  UNL     1     -14.405  -4.073   5.027  1.00  0.00    -0.773 OA
HETATM   37  H44 UNL     1     -13.986  -3.824   4.177  1.00  0.00     0.167 HD
ENDBRANCH  34  36
ENDBRANCH  32  34
ENDBRANCH  30  31
BRANCH  30  38
HETATM   38  O1  UNL     1     -16.170  -6.129   8.991  1.00  0.00    -0.392 OA
HETATM   39  H6  UNL     1     -16.666  -6.143   9.826  1.00  0.00     0.210 HD
ENDBRANCH  30  38
ENDBRANCH  29  30
ENDBRANCH  27  29
ENDBRANCH   1  27
BRANCH   3  40
HETATM   40  O2  UNL     1     -14.657  -4.002  15.913  1.00  0.00    -0.394 OA
HETATM   41  H17 UNL     1     -14.999  -3.197  16.359  1.00  0.00     0.210 HD
ENDBRANCH   3  40
BRANCH  26  42
HETATM   42  O5  UNL     1     -15.373  -1.589  16.414  1.00  0.00    -0.390 OA
HETATM   43  H43 UNL     1     -15.030  -1.030  17.135  1.00  0.00     0.210 HD
ENDBRANCH  26  42
TORSDOF 9
ENDMDL
MODEL 7
REMARK minimizedAffinity -9.26101017
REMARK CNNscore 0.477751404
REMARK CNNaffinity 6.65587044
REMARK  9 active torsions:
REMARK  status: ('A' for Active; 'I' for Inactive)
REMARK    1  A    between atoms: C2_2  and  C32_37 
REMARK    2  A    between atoms: C3_3  and  C4_4 
REMARK    3  A    between atoms: C4_4  and  O1_5 
REMARK    4  A    between atoms: C4_4  and  C5_6 
REMARK    5  A    between atoms: C5_6  and  C6_7 
REMARK    6  A    between atoms: C6_7  and  C8_9 
REMARK    7  A    between atoms: C10_11  and  O2_12 
REMARK    8  A    between atoms: C31_35  and  O5_36 
REMARK    9  A    between atoms: C32_37  and  O7_39 
ROOT
HETATM    1  C8  UNL     1       7.190   9.640  14.897  1.00  0.00     0.001 C 
HETATM    2  C9  UNL     1       6.067  10.179  15.828  1.00  0.00     0.038 C 
HETATM    3  C10 UNL     1       4.718   9.757  15.217  1.00  0.00     0.132 C 
HETATM    4  C11 UNL     1       5.074   8.675  14.157  1.00  0.00     0.017 C 
HETATM    5  C12 UNL     1       5.252   7.301  14.877  1.00  0.00     0.023 C 
HETATM    6  C13 UNL     1       4.115   8.400  12.984  1.00  0.00    -0.029 C 
HETATM    7  C14 UNL     1       4.583   7.934  11.795  1.00  0.00     0.002 C 
HETATM    8  C15 UNL     1       6.086   7.697  11.656  1.00  0.00     0.157 C 
HETATM    9  O3  UNL     1       6.542   7.057  10.710  1.00  0.00    -0.293 OA
HETATM   10  C16 UNL     1       7.058   8.261  12.682  1.00  0.00     0.094 C 
HETATM   11  C17 UNL     1       6.407   9.300  13.589  1.00  0.00    -0.019 C 
HETATM   12  C18 UNL     1       6.178  10.611  12.769  1.00  0.00     0.017 C 
HETATM   13  C19 UNL     1       3.714   7.707  10.528  1.00  0.00    -0.007 C 
HETATM   14  C20 UNL     1       4.289   8.640   9.417  1.00  0.00     0.021 C 
HETATM   15  C21 UNL     1       3.767   6.228  10.064  1.00  0.00     0.022 C 
HETATM   16  C22 UNL     1       3.061   5.972   8.740  1.00  0.00     0.080 C 
HETATM   17  C23 UNL     1       1.869   6.868   8.516  1.00  0.00     0.136 C 
HETATM   18  O4  UNL     1       1.446   7.049   7.373  1.00  0.00    -0.297 OA
HETATM   19  C24 UNL     1       1.162   7.443   9.745  1.00  0.00     0.025 C 
HETATM   20  C25 UNL     1       0.169   8.531   9.267  1.00  0.00     0.024 C 
HETATM   21  C26 UNL     1       0.325   6.265  10.343  1.00  0.00     0.044 C 
HETATM   22  C27 UNL     1       0.783   5.753  11.674  1.00  0.00    -0.029 C 
HETATM   23  C28 UNL     1       1.446   6.533  12.533  1.00  0.00    -0.023 C 
HETATM   24  C29 UNL     1       1.713   7.977  12.187  1.00  0.00     0.047 C 
HETATM   25  C30 UNL     1       2.195   8.127  10.730  1.00  0.00     0.024 C 
HETATM   26  C31 UNL     1       2.649   8.707  13.169  1.00  0.00     0.156 C 
ENDROOT
BRANCH   1  27
HETATM   27  C6  UNL     1       8.417  10.605  14.852  1.00  0.00    -0.011 C 
HETATM   28  C7  UNL     1       9.628   9.958  14.169  1.00  0.00     0.010 C 
BRANCH  27  29
HETATM   29  C5  UNL     1       8.819  11.046  16.295  1.00  0.00     0.040 C 
BRANCH  29  30
HETATM   30  C4  UNL     1       9.752  10.075  17.052  1.00  0.00     0.142 C 
BRANCH  30  31
HETATM   31  C3  UNL     1      10.493  10.714  18.191  1.00  0.00     0.018 C 
HETATM   32  C2  UNL     1      10.040  11.367  19.283  1.00  0.00     0.010 C 
HETATM   33  C1  UNL     1       8.608  11.540  19.688  1.00  0.00     0.055 C 
BRANCH  32  34
HETATM   34  C32 UNL     1      11.084  11.927  20.179  1.00  0.00     0.171 C 
HETATM   35  O6  UNL     1      11.040  12.989  20.776  1.00  0.00    -0.646 OA
BRANCH  34  36
HETATM   36  O7  UNL     1      12.142  11.110  20.314  1.00  0.00    -0.773 OA
HETATM   37  H44 UNL     1      12.727  11.596  20.931  1.00  0.00     0.167 HD
ENDBRANCH  34  36
ENDBRANCH  32  34
ENDBRANCH  30  31
BRANCH  30  38
HETATM   38  O1  UNL     1       8.993   8.955  17.480  1.00  0.00    -0.392 OA
HETATM   39  H6  UNL     1       8.627   8.533  16.685  1.00  0.00     0.210 HD
ENDBRANCH  30  38
ENDBRANCH  29  30
ENDBRANCH  27  29
ENDBRANCH   1  27
BRANCH   3  40
HETATM   40  O2  UNL     1       3.875   9.307  16.267  1.00  0.00    -0.394 OA
HETATM   41  H17 UNL     1       3.140   8.830  15.823  1.00  0.00     0.210 HD
ENDBRANCH   3  40
BRANCH  26  42
HETATM   42  O5  UNL     1       2.231   8.422  14.506  1.00  0.00    -0.390 OA
HETATM   43  H43 UNL     1       1.262   8.520  14.530  1.00  0.00     0.210 HD
ENDBRANCH  26  42
TORSDOF 9
ENDMDL
MODEL 8
REMARK minimizedAffinity -9.02947426
REMARK CNNscore 0.452099532
REMARK CNNaffinity 6.778162
REMARK  9 active torsions:
REMARK  status: ('A' for Active; 'I' for Inactive)
REMARK    1  A    between atoms: C2_2  and  C32_37 
REMARK    2  A    between atoms: C3_3  and  C4_4 
REMARK    3  A    between atoms: C4_4  and  O1_5 
REMARK    4  A    between atoms: C4_4  and  C5_6 
REMARK    5  A    between atoms: C5_6  and  C6_7 
REMARK    6  A    between atoms: C6_7  and  C8_9 
REMARK    7  A    between atoms: C10_11  and  O2_12 
REMARK    8  A    between atoms: C31_35  and  O5_36 
REMARK    9  A    between atoms: C32_37  and  O7_39 
ROOT
HETATM    1  C8  UNL     1      -5.996   6.038  14.629  1.00  0.00     0.001 C 
HETATM    2  C9  UNL     1      -6.420   5.199  13.391  1.00  0.00     0.038 C 
HETATM    3  C10 UNL     1      -5.171   5.009  12.511  1.00  0.00     0.132 C 
HETATM    4  C11 UNL     1      -3.972   5.412  13.418  1.00  0.00     0.017 C 
HETATM    5  C12 UNL     1      -3.597   4.201  14.328  1.00  0.00     0.023 C 
HETATM    6  C13 UNL     1      -2.647   5.873  12.784  1.00  0.00    -0.029 C 
HETATM    7  C14 UNL     1      -1.821   6.732  13.441  1.00  0.00     0.002 C 
HETATM    8  C15 UNL     1      -2.249   7.228  14.820  1.00  0.00     0.157 C 
HETATM    9  O3  UNL     1      -1.452   7.802  15.563  1.00  0.00    -0.293 OA
HETATM   10  C16 UNL     1      -3.678   7.036  15.305  1.00  0.00     0.094 C 
HETATM   11  C17 UNL     1      -4.624   6.632  14.179  1.00  0.00    -0.019 C 
HETATM   12  C18 UNL     1      -4.874   7.873  13.263  1.00  0.00     0.017 C 
HETATM   13  C19 UNL     1      -0.510   7.321  12.855  1.00  0.00    -0.007 C 
HETATM   14  C20 UNL     1      -0.691   8.871  12.819  1.00  0.00     0.021 C 
HETATM   15  C21 UNL     1       0.718   6.949  13.727  1.00  0.00     0.022 C 
HETATM   16  C22 UNL     1       2.011   7.624  13.294  1.00  0.00     0.080 C 
HETATM   17  C23 UNL     1       2.092   7.856  11.806  1.00  0.00     0.136 C 
HETATM   18  O4  UNL     1       2.864   8.708  11.361  1.00  0.00    -0.297 OA
HETATM   19  C24 UNL     1       1.277   6.941  10.890  1.00  0.00     0.025 C 
HETATM   20  C25 UNL     1       1.302   7.539   9.462  1.00  0.00     0.024 C 
HETATM   21  C26 UNL     1       2.051   5.583  10.849  1.00  0.00     0.044 C 
HETATM   22  C27 UNL     1       1.365   4.424  11.506  1.00  0.00    -0.029 C 
HETATM   23  C28 UNL     1       0.035   4.370  11.615  1.00  0.00    -0.023 C 
HETATM   24  C29 UNL     1      -0.815   5.473  11.033  1.00  0.00     0.047 C 
HETATM   25  C30 UNL     1      -0.233   6.863  11.359  1.00  0.00     0.024 C 
HETATM   26  C31 UNL     1      -2.310   5.388  11.396  1.00  0.00     0.156 C 
ENDROOT
BRANCH   1  27
HETATM   27  C6  UNL     1      -7.143   6.983  15.109  1.00  0.00    -0.011 C 
HETATM   28  C7  UNL     1      -7.306   6.958  16.634  1.00  0.00     0.010 C 
BRANCH  27  29
HETATM   29  C5  UNL     1      -8.498   6.580  14.443  1.00  0.00     0.040 C 
BRANCH  29  30
HETATM   30  C4  UNL     1      -9.768   7.098  15.154  1.00  0.00     0.142 C 
BRANCH  30  31
HETATM   31  C3  UNL     1      -9.887   8.595  15.161  1.00  0.00     0.018 C 
HETATM   32  C2  UNL     1     -10.626   9.425  14.394  1.00  0.00     0.010 C 
HETATM   33  C1  UNL     1     -11.628   9.024  13.354  1.00  0.00     0.055 C 
BRANCH  32  34
HETATM   34  C32 UNL     1     -10.440  10.877  14.650  1.00  0.00     0.171 C 
HETATM   35  O6  UNL     1      -9.610  11.388  15.383  1.00  0.00    -0.646 OA
BRANCH  34  36
HETATM   36  O7  UNL     1     -11.294  11.640  13.947  1.00  0.00    -0.773 OA
HETATM   37  H44 UNL     1     -11.046  12.552  14.203  1.00  0.00     0.167 HD
ENDBRANCH  34  36
ENDBRANCH  32  34
ENDBRANCH  30  31
BRANCH  30  38
HETATM   38  O1  UNL     1     -10.903   6.483  14.564  1.00  0.00    -0.392 OA
HETATM   39  H6  UNL     1     -10.807   5.524  14.685  1.00  0.00     0.210 HD
ENDBRANCH  30  38
ENDBRANCH  29  30
ENDBRANCH  27  29
ENDBRANCH   1  27
BRANCH   3  40
HETATM   40  O2  UNL     1      -5.147   3.665  12.056  1.00  0.00    -0.394 OA
HETATM   41  H17 UNL     1      -4.237   3.522  11.716  1.00  0.00     0.210 HD
ENDBRANCH   3  40
BRANCH  26  42
HETATM   42  O5  UNL     1      -2.758   4.046  11.199  1.00  0.00    -0.390 OA
HETATM   43  H43 UNL     1      -2.406   3.749  10.340  1.00  0.00     0.210 HD
ENDBRANCH  26  42
TORSDOF 9
ENDMDL
MODEL 9
REMARK minimizedAffinity -8.03778934
REMARK CNNscore 0.403385103
REMARK CNNaffinity 6.29044104
REMARK  9 active torsions:
REMARK  status: ('A' for Active; 'I' for Inactive)
REMARK    1  A    between atoms: C2_2  and  C32_37 
REMARK    2  A    between atoms: C3_3  and  C4_4 
REMARK    3  A    between atoms: C4_4  and  O1_5 
REMARK    4  A    between atoms: C4_4  and  C5_6 
REMARK    5  A    between atoms: C5_6  and  C6_7 
REMARK    6  A    between atoms: C6_7  and  C8_9 
REMARK    7  A    between atoms: C10_11  and  O2_12 
REMARK    8  A    between atoms: C31_35  and  O5_36 
REMARK    9  A    between atoms: C32_37  and  O7_39 
ROOT
HETATM    1  C8  UNL     1      -2.058   9.102  15.500  1.00  0.00     0.001 C 
HETATM    2  C9  UNL     1      -1.072   8.561  16.574  1.00  0.00     0.038 C 
HETATM    3  C10 UNL     1       0.184   8.059  15.838  1.00  0.00     0.132 C 
HETATM    4  C11 UNL     1       0.073   8.647  14.402  1.00  0.00     0.017 C 
HETATM    5  C12 UNL     1       0.591  10.119  14.418  1.00  0.00     0.023 C 
HETATM    6  C13 UNL     1       0.809   7.967  13.232  1.00  0.00    -0.029 C 
HETATM    7  C14 UNL     1       0.333   8.058  11.961  1.00  0.00     0.002 C 
HETATM    8  C15 UNL     1      -0.954   8.848  11.730  1.00  0.00     0.157 C 
HETATM    9  O3  UNL     1      -1.303   9.173  10.596  1.00  0.00    -0.293 OA
HETATM   10  C16 UNL     1      -1.843   9.242  12.900  1.00  0.00     0.094 C 
HETATM   11  C17 UNL     1      -1.482   8.497  14.181  1.00  0.00    -0.019 C 
HETATM   12  C18 UNL     1      -1.950   7.012  14.048  1.00  0.00     0.017 C 
HETATM   13  C19 UNL     1       0.950   7.341  10.731  1.00  0.00    -0.007 C 
HETATM   14  C20 UNL     1      -0.151   6.391  10.166  1.00  0.00     0.021 C 
HETATM   15  C21 UNL     1       1.386   8.358   9.643  1.00  0.00     0.022 C 
HETATM   16  C22 UNL     1       1.857   7.712   8.348  1.00  0.00     0.080 C 
HETATM   17  C23 UNL     1       2.535   6.382   8.557  1.00  0.00     0.136 C 
HETATM   18  O4  UNL     1       2.618   5.583   7.622  1.00  0.00    -0.297 OA
HETATM   19  C24 UNL     1       3.192   6.116   9.913  1.00  0.00     0.025 C 
HETATM   20  C25 UNL     1       3.567   4.615   9.983  1.00  0.00     0.024 C 
HETATM   21  C26 UNL     1       4.523   6.937   9.909  1.00  0.00     0.044 C 
HETATM   22  C27 UNL     1       4.576   8.093  10.860  1.00  0.00    -0.029 C 
HETATM   23  C28 UNL     1       3.847   8.110  11.980  1.00  0.00    -0.023 C 
HETATM   24  C29 UNL     1       2.975   6.929  12.330  1.00  0.00     0.047 C 
HETATM   25  C30 UNL     1       2.193   6.423  11.101  1.00  0.00     0.024 C 
HETATM   26  C31 UNL     1       2.045   7.157  13.537  1.00  0.00     0.156 C 
ENDROOT
BRANCH   1  27
HETATM   27  C6  UNL     1      -3.546   8.848  15.899  1.00  0.00    -0.011 C 
HETATM   28  C7  UNL     1      -4.024   7.455  15.469  1.00  0.00     0.010 C 
BRANCH  27  29
HETATM   29  C5  UNL     1      -4.476   9.928  15.259  1.00  0.00     0.040 C 
BRANCH  29  30
HETATM   30  C4  UNL     1      -4.072  11.395  15.523  1.00  0.00     0.142 C 
BRANCH  30  31
HETATM   31  C3  UNL     1      -3.953  11.735  16.981  1.00  0.00     0.018 C 
HETATM   32  C2  UNL     1      -4.543  12.706  17.711  1.00  0.00     0.010 C 
HETATM   33  C1  UNL     1      -5.584  13.672  17.236  1.00  0.00     0.055 C 
BRANCH  32  34
HETATM   34  C32 UNL     1      -4.132  12.779  19.138  1.00  0.00     0.171 C 
HETATM   35  O6  UNL     1      -4.866  12.748  20.111  1.00  0.00    -0.646 OA
BRANCH  34  36
HETATM   36  O7  UNL     1      -2.800  12.862  19.288  1.00  0.00    -0.773 OA
HETATM   37  H44 UNL     1      -2.682  12.887  20.260  1.00  0.00     0.167 HD
ENDBRANCH  34  36
ENDBRANCH  32  34
ENDBRANCH  30  31
BRANCH  30  38
HETATM   38  O1  UNL     1      -2.870  11.670  14.820  1.00  0.00    -0.392 OA
HETATM   39  H6  UNL     1      -3.049  11.526  13.876  1.00  0.00     0.210 HD
ENDBRANCH  30  38
ENDBRANCH  29  30
ENDBRANCH  27  29
ENDBRANCH   1  27
BRANCH   3  40
HETATM   40  O2  UNL     1       1.326   8.480  16.568  1.00  0.00    -0.394 OA
HETATM   41  H17 UNL     1       2.084   8.359  15.956  1.00  0.00     0.210 HD
ENDBRANCH   3  40
BRANCH  26  42
HETATM   42  O5  UNL     1       2.797   7.749  14.597  1.00  0.00    -0.390 OA
HETATM   43  H43 UNL     1       3.636   7.256  14.663  1.00  0.00     0.210 HD
ENDBRANCH  26  42
TORSDOF 9
ENDMDL
