MODEL 1
REMARK minimizedAffinity -7.27909946
REMARK CNNscore 0.628460109
REMARK CNNaffinity 6.1733489
REMARK  10 active torsions:
REMARK  status: ('A' for Active; 'I' for Inactive)
REMARK    1  A    between atoms: C2_2  and  C3_3 
REMARK    2  A    between atoms: C2_2  and  C4_6 
REMARK    3  A    between atoms: C3_3  and  O2_5 
REMARK    4  A    between atoms: C4_6  and  C5_8 
REMARK    5  A    between atoms: C5_8  and  O4_9 
REMARK    6  A    between atoms: C5_8  and  C6_10 
REMARK    7  A    between atoms: C6_10  and  C7_11 
REMARK    8  A    between atoms: C7_11  and  C9_13 
REMARK    9  A    between atoms: C11_15  and  O5_16 
REMARK   10  A    between atoms: C30_37  and  O8_38 
ROOT
HETATM    1  C9  UNL     1      10.470  11.302  15.867  1.00  0.00     0.001 C 
HETATM    2  C10 UNL     1      10.131  10.335  17.042  1.00  0.00     0.038 C 
HETATM    3  C11 UNL     1       9.037   9.370  16.550  1.00  0.00     0.132 C 
HETATM    4  C12 UNL     1       9.039   9.528  15.008  1.00  0.00     0.017 C 
HETATM    5  C13 UNL     1      10.191   8.656  14.409  1.00  0.00     0.023 C 
HETATM    6  C14 UNL     1       7.766   9.167  14.232  1.00  0.00    -0.029 C 
HETATM    7  C15 UNL     1       7.486   9.769  13.049  1.00  0.00     0.002 C 
HETATM    8  C16 UNL     1       8.552  10.683  12.479  1.00  0.00     0.157 C 
HETATM    9  O6  UNL     1       8.658  10.819  11.259  1.00  0.00    -0.293 OA
HETATM   10  C17 UNL     1       9.522  11.410  13.412  1.00  0.00     0.094 C 
HETATM   11  C18 UNL     1       9.268  11.089  14.890  1.00  0.00    -0.019 C 
HETATM   12  C19 UNL     1       8.055  11.944  15.379  1.00  0.00     0.017 C 
HETATM   13  C20 UNL     1       6.182   9.560  12.246  1.00  0.00    -0.008 C 
HETATM   14  C21 UNL     1       5.640  10.951  11.819  1.00  0.00     0.021 C 
HETATM   15  C22 UNL     1       6.495   8.719  10.977  1.00  0.00     0.022 C 
HETATM   16  C23 UNL     1       5.358   7.842  10.461  1.00  0.00     0.080 C 
HETATM   17  C24 UNL     1       4.006   8.357  10.880  1.00  0.00     0.135 C 
HETATM   18  O7  UNL     1       3.132   8.591  10.045  1.00  0.00    -0.297 OA
HETATM   19  C25 UNL     1       3.752   8.476  12.384  1.00  0.00     0.018 C 
HETATM   20  C26 UNL     1       2.674   9.558  12.640  1.00  0.00     0.023 C 
HETATM   21  C27 UNL     1       3.124   7.135  12.822  1.00  0.00     0.023 C 
HETATM   22  C28 UNL     1       5.085   8.851  13.143  1.00  0.00     0.016 C 
HETATM   23  C29 UNL     1       5.737   7.669  13.886  1.00  0.00     0.043 C 
HETATM   24  C30 UNL     1       6.834   8.150  14.836  1.00  0.00     0.149 C 
ENDROOT
BRANCH   1  25
HETATM   25  C7  UNL     1      10.841  12.732  16.381  1.00  0.00    -0.011 C 
HETATM   26  C8  UNL     1      11.743  13.475  15.398  1.00  0.00     0.010 C 
BRANCH  25  27
HETATM   27  C6  UNL     1      11.520  12.629  17.781  1.00  0.00     0.044 C 
BRANCH  27  28
HETATM   28  C5  UNL     1      12.483  11.450  18.030  1.00  0.00     0.188 C 
BRANCH  28  29
HETATM   29  C4  UNL     1      13.917  11.678  17.497  1.00  0.00     0.169 C 
HETATM   30  O3  UNL     1      14.250  11.311  16.361  1.00  0.00    -0.294 OA
BRANCH  29  31
HETATM   31  C2  UNL     1      14.945  12.351  18.393  1.00  0.00     0.152 C 
HETATM   32  C1  UNL     1      15.809  13.327  17.593  1.00  0.00     0.029 C 
BRANCH  31  33
HETATM   33  C3  UNL     1      14.395  13.012  19.626  1.00  0.00     0.150 C 
HETATM   34  O1  UNL     1      13.856  14.109  19.676  1.00  0.00    -0.649 OA
BRANCH  33  35
HETATM   35  O2  UNL     1      14.615  12.340  20.772  1.00  0.00    -0.776 OA
HETATM   36  H5  UNL     1      14.292  12.957  21.465  1.00  0.00     0.167 HD
ENDBRANCH  33  35
ENDBRANCH  31  33
ENDBRANCH  29  31
ENDBRANCH  28  29
BRANCH  28  37
HETATM   37  O4  UNL     1      12.418  11.070  19.392  1.00  0.00    -0.388 OA
HETATM   38  H7  UNL     1      12.023  10.179  19.431  1.00  0.00     0.210 HD
ENDBRANCH  28  37
ENDBRANCH  27  28
ENDBRANCH  25  27
ENDBRANCH   1  25
BRANCH   3  39
HETATM   39  O5  UNL     1       9.324   8.059  17.006  1.00  0.00    -0.394 OA
HETATM   40  H18 UNL     1       8.690   7.459  16.553  1.00  0.00     0.210 HD
ENDBRANCH   3  39
BRANCH  24  41
HETATM   41  O8  UNL     1       7.573   7.013  15.265  1.00  0.00    -0.391 OA
HETATM   42  H44 UNL     1       7.943   6.590  14.469  1.00  0.00     0.210 HD
ENDBRANCH  24  41
TORSDOF 10
ENDMDL
MODEL 2
REMARK minimizedAffinity -8.53037834
REMARK CNNscore 0.605005383
REMARK CNNaffinity 6.29606962
REMARK  10 active torsions:
REMARK  status: ('A' for Active; 'I' for Inactive)
REMARK    1  A    between atoms: C2_2  and  C3_3 
REMARK    2  A    between atoms: C2_2  and  C4_6 
REMARK    3  A    between atoms: C3_3  and  O2_5 
REMARK    4  A    between atoms: C4_6  and  C5_8 
REMARK    5  A    between atoms: C5_8  and  O4_9 
REMARK    6  A    between atoms: C5_8  and  C6_10 
REMARK    7  A    between atoms: C6_10  and  C7_11 
REMARK    8  A    between atoms: C7_11  and  C9_13 
REMARK    9  A    between atoms: C11_15  and  O5_16 
REMARK   10  A    between atoms: C30_37  and  O8_38 
ROOT
HETATM    1  C9  UNL     1       0.692  11.176  17.237  1.00  0.00     0.001 C 
HETATM    2  C10 UNL     1      -0.479  11.979  16.594  1.00  0.00     0.038 C 
HETATM    3  C11 UNL     1      -0.847  11.285  15.269  1.00  0.00     0.132 C 
HETATM    4  C12 UNL     1      -0.169   9.894  15.353  1.00  0.00     0.017 C 
HETATM    5  C13 UNL     1      -1.074   8.938  16.199  1.00  0.00     0.023 C 
HETATM    6  C14 UNL     1       0.152   9.154  14.049  1.00  0.00    -0.029 C 
HETATM    7  C15 UNL     1       1.182   8.273  13.992  1.00  0.00     0.002 C 
HETATM    8  C16 UNL     1       1.883   7.956  15.297  1.00  0.00     0.157 C 
HETATM    9  O6  UNL     1       2.398   6.850  15.467  1.00  0.00    -0.293 OA
HETATM   10  C17 UNL     1       1.921   8.992  16.421  1.00  0.00     0.094 C 
HETATM   11  C18 UNL     1       1.195  10.292  16.049  1.00  0.00    -0.019 C 
HETATM   12  C19 UNL     1       2.140  11.143  15.142  1.00  0.00     0.017 C 
HETATM   13  C20 UNL     1       1.657   7.562  12.703  1.00  0.00    -0.008 C 
HETATM   14  C21 UNL     1       3.203   7.680  12.620  1.00  0.00     0.021 C 
HETATM   15  C22 UNL     1       1.258   6.062  12.774  1.00  0.00     0.022 C 
HETATM   16  C23 UNL     1       0.990   5.379  11.437  1.00  0.00     0.080 C 
HETATM   17  C24 UNL     1       1.699   6.062  10.297  1.00  0.00     0.135 C 
HETATM   18  O7  UNL     1       2.453   5.434   9.554  1.00  0.00    -0.297 OA
HETATM   19  C25 UNL     1       1.355   7.534  10.056  1.00  0.00     0.018 C 
HETATM   20  C26 UNL     1       2.545   8.233   9.354  1.00  0.00     0.023 C 
HETATM   21  C27 UNL     1       0.192   7.544   9.041  1.00  0.00     0.023 C 
HETATM   22  C28 UNL     1       1.035   8.257  11.423  1.00  0.00     0.016 C 
HETATM   23  C29 UNL     1      -0.467   8.498  11.668  1.00  0.00     0.043 C 
HETATM   24  C30 UNL     1      -0.691   9.456  12.838  1.00  0.00     0.149 C 
ENDROOT
BRANCH   1  25
HETATM   25  C7  UNL     1       1.678  12.109  18.013  1.00  0.00    -0.011 C 
HETATM   26  C8  UNL     1       3.100  12.020  17.463  1.00  0.00     0.010 C 
BRANCH  25  27
HETATM   27  C6  UNL     1       1.654  11.754  19.531  1.00  0.00     0.044 C 
BRANCH  27  28
HETATM   28  C5  UNL     1       2.762  10.825  20.072  1.00  0.00     0.188 C 
BRANCH  28  29
HETATM   29  C4  UNL     1       2.969  10.910  21.603  1.00  0.00     0.169 C 
HETATM   30  O3  UNL     1       2.680  11.934  22.238  1.00  0.00    -0.294 OA
BRANCH  29  31
HETATM   31  C2  UNL     1       3.558   9.717  22.339  1.00  0.00     0.152 C 
HETATM   32  C1  UNL     1       4.646  10.166  23.317  1.00  0.00     0.029 C 
BRANCH  31  33
HETATM   33  C3  UNL     1       2.563   8.821  23.022  1.00  0.00     0.150 C 
HETATM   34  O1  UNL     1       2.353   8.763  24.226  1.00  0.00    -0.649 OA
BRANCH  33  35
HETATM   35  O2  UNL     1       1.929   7.958  22.206  1.00  0.00    -0.776 OA
HETATM   36  H5  UNL     1       1.413   7.396  22.825  1.00  0.00     0.167 HD
ENDBRANCH  33  35
ENDBRANCH  31  33
ENDBRANCH  29  31
ENDBRANCH  28  29
BRANCH  28  37
HETATM   37  O4  UNL     1       2.557   9.514  19.580  1.00  0.00    -0.388 OA
HETATM   38  H7  UNL     1       3.294   9.308  18.975  1.00  0.00     0.210 HD
ENDBRANCH  28  37
ENDBRANCH  27  28
ENDBRANCH  25  27
ENDBRANCH   1  25
BRANCH   3  39
HETATM   39  O5  UNL     1      -2.257  11.244  15.133  1.00  0.00    -0.394 OA
HETATM   40  H18 UNL     1      -2.448  10.671  14.357  1.00  0.00     0.210 HD
ENDBRANCH   3  39
BRANCH  24  41
HETATM   41  O8  UNL     1      -2.070   9.410  13.186  1.00  0.00    -0.391 OA
HETATM   42  H44 UNL     1      -2.277   8.489  13.428  1.00  0.00     0.210 HD
ENDBRANCH  24  41
TORSDOF 10
ENDMDL
MODEL 3
REMARK minimizedAffinity -9.46901894
REMARK CNNscore 0.599451661
REMARK CNNaffinity 6.63649559
REMARK  10 active torsions:
REMARK  status: ('A' for Active; 'I' for Inactive)
REMARK    1  A    between atoms: C2_2  and  C3_3 
REMARK    2  A    between atoms: C2_2  and  C4_6 
REMARK    3  A    between atoms: C3_3  and  O2_5 
REMARK    4  A    between atoms: C4_6  and  C5_8 
REMARK    5  A    between atoms: C5_8  and  O4_9 
REMARK    6  A    between atoms: C5_8  and  C6_10 
REMARK    7  A    between atoms: C6_10  and  C7_11 
REMARK    8  A    between atoms: C7_11  and  C9_13 
REMARK    9  A    between atoms: C11_15  and  O5_16 
REMARK   10  A    between atoms: C30_37  and  O8_38 
ROOT
HETATM    1  C9  UNL     1      -4.957   6.486  14.767  1.00  0.00     0.001 C 
HETATM    2  C10 UNL     1      -5.341   5.273  13.866  1.00  0.00     0.038 C 
HETATM    3  C11 UNL     1      -4.109   4.918  13.014  1.00  0.00     0.132 C 
HETATM    4  C12 UNL     1      -2.931   5.656  13.699  1.00  0.00     0.017 C 
HETATM    5  C13 UNL     1      -2.436   4.804  14.915  1.00  0.00     0.023 C 
HETATM    6  C14 UNL     1      -1.690   5.991  12.864  1.00  0.00    -0.029 C 
HETATM    7  C15 UNL     1      -0.913   7.058  13.181  1.00  0.00     0.002 C 
HETATM    8  C16 UNL     1      -1.248   7.789  14.465  1.00  0.00     0.157 C 
HETATM    9  O6  UNL     1      -0.357   8.353  15.102  1.00  0.00    -0.293 OA
HETATM   10  C17 UNL     1      -2.683   7.797  14.994  1.00  0.00     0.094 C 
HETATM   11  C18 UNL     1      -3.646   7.011  14.095  1.00  0.00    -0.019 C 
HETATM   12  C19 UNL     1      -4.022   7.907  12.871  1.00  0.00     0.017 C 
HETATM   13  C20 UNL     1       0.290   7.546  12.341  1.00  0.00    -0.008 C 
HETATM   14  C21 UNL     1       0.174   9.084  12.166  1.00  0.00     0.021 C 
HETATM   15  C22 UNL     1       1.606   7.213  13.099  1.00  0.00     0.022 C 
HETATM   16  C23 UNL     1       2.831   6.956  12.226  1.00  0.00     0.080 C 
HETATM   17  C24 UNL     1       2.719   7.620  10.879  1.00  0.00     0.135 C 
HETATM   18  O7  UNL     1       3.592   8.391  10.479  1.00  0.00    -0.297 OA
HETATM   19  C25 UNL     1       1.530   7.210  10.007  1.00  0.00     0.018 C 
HETATM   20  C26 UNL     1       1.189   8.359   9.027  1.00  0.00     0.023 C 
HETATM   21  C27 UNL     1       2.020   6.034   9.135  1.00  0.00     0.023 C 
HETATM   22  C28 UNL     1       0.274   6.877  10.905  1.00  0.00     0.016 C 
HETATM   23  C29 UNL     1      -0.002   5.369  11.061  1.00  0.00     0.043 C 
HETATM   24  C30 UNL     1      -1.380   5.120  11.675  1.00  0.00     0.149 C 
ENDROOT
BRANCH   1  25
HETATM   25  C7  UNL     1      -6.173   7.441  15.003  1.00  0.00    -0.011 C 
HETATM   26  C8  UNL     1      -5.729   8.888  15.211  1.00  0.00     0.010 C 
BRANCH  25  27
HETATM   27  C6  UNL     1      -7.006   6.942  16.223  1.00  0.00     0.044 C 
BRANCH  27  28
HETATM   28  C5  UNL     1      -8.285   6.128  15.938  1.00  0.00     0.188 C 
BRANCH  28  29
HETATM   29  C4  UNL     1      -9.058   6.582  14.678  1.00  0.00     0.169 C 
HETATM   30  O3  UNL     1      -8.654   6.309  13.539  1.00  0.00    -0.294 OA
BRANCH  29  31
HETATM   31  C2  UNL     1     -10.331   7.398  14.841  1.00  0.00     0.152 C 
HETATM   32  C1  UNL     1     -10.027   8.897  14.781  1.00  0.00     0.029 C 
BRANCH  31  33
HETATM   33  C3  UNL     1     -11.453   7.043  13.906  1.00  0.00     0.150 C 
HETATM   34  O1  UNL     1     -11.715   7.602  12.850  1.00  0.00    -0.649 OA
BRANCH  33  35
HETATM   35  O2  UNL     1     -12.272   6.072  14.352  1.00  0.00    -0.776 OA
HETATM   36  H5  UNL     1     -12.988   6.050  13.679  1.00  0.00     0.167 HD
ENDBRANCH  33  35
ENDBRANCH  31  33
ENDBRANCH  29  31
ENDBRANCH  28  29
BRANCH  28  37
HETATM   37  O4  UNL     1      -7.980   4.746  15.972  1.00  0.00    -0.388 OA
HETATM   38  H7  UNL     1      -8.439   4.362  16.742  1.00  0.00     0.210 HD
ENDBRANCH  28  37
ENDBRANCH  27  28
ENDBRANCH  25  27
ENDBRANCH   1  25
BRANCH   3  39
HETATM   39  O5  UNL     1      -3.966   3.509  12.955  1.00  0.00    -0.394 OA
HETATM   40  H18 UNL     1      -3.096   3.333  12.531  1.00  0.00     0.210 HD
ENDBRANCH   3  39
BRANCH  24  41
HETATM   41  O8  UNL     1      -1.453   3.749  12.049  1.00  0.00    -0.391 OA
HETATM   42  H44 UNL     1      -0.737   3.585  12.689  1.00  0.00     0.210 HD
ENDBRANCH  24  41
TORSDOF 10
ENDMDL
MODEL 4
REMARK minimizedAffinity -7.7018671
REMARK CNNscore 0.543438911
REMARK CNNaffinity 6.35222483
REMARK  10 active torsions:
REMARK  status: ('A' for Active; 'I' for Inactive)
REMARK    1  A    between atoms: C2_2  and  C3_3 
REMARK    2  A    between atoms: C2_2  and  C4_6 
REMARK    3  A    between atoms: C3_3  and  O2_5 
REMARK    4  A    between atoms: C4_6  and  C5_8 
REMARK    5  A    between atoms: C5_8  and  O4_9 
REMARK    6  A    between atoms: C5_8  and  C6_10 
REMARK    7  A    between atoms: C6_10  and  C7_11 
REMARK    8  A    between atoms: C7_11  and  C9_13 
REMARK    9  A    between atoms: C11_15  and  O5_16 
REMARK   10  A    between atoms: C30_37  and  O8_38 
ROOT
HETATM    1  C9  UNL     1      -3.314   7.134  14.820  1.00  0.00     0.001 C 
HETATM    2  C10 UNL     1      -3.969   6.024  13.943  1.00  0.00     0.038 C 
HETATM    3  C11 UNL     1      -2.906   5.532  12.944  1.00  0.00     0.132 C 
HETATM    4  C12 UNL     1      -1.564   6.067  13.504  1.00  0.00     0.017 C 
HETATM    5  C13 UNL     1      -1.065   5.106  14.634  1.00  0.00     0.023 C 
HETATM    6  C14 UNL     1      -0.388   6.254  12.537  1.00  0.00    -0.029 C 
HETATM    7  C15 UNL     1       0.566   7.187  12.786  1.00  0.00     0.002 C 
HETATM    8  C16 UNL     1       0.488   7.906  14.116  1.00  0.00     0.157 C 
HETATM    9  O6  UNL     1       1.517   8.313  14.658  1.00  0.00    -0.293 OA
HETATM   10  C17 UNL     1      -0.862   8.098  14.809  1.00  0.00     0.094 C 
HETATM   11  C18 UNL     1      -2.024   7.493  14.011  1.00  0.00    -0.019 C 
HETATM   12  C19 UNL     1      -2.400   8.481  12.861  1.00  0.00     0.017 C 
HETATM   13  C20 UNL     1       1.726   7.531  11.823  1.00  0.00    -0.008 C 
HETATM   14  C21 UNL     1       1.816   9.076  11.697  1.00  0.00     0.021 C 
HETATM   15  C22 UNL     1       3.056   6.984  12.413  1.00  0.00     0.022 C 
HETATM   16  C23 UNL     1       4.124   6.591  11.398  1.00  0.00     0.080 C 
HETATM   17  C24 UNL     1       3.960   7.316  10.088  1.00  0.00     0.135 C 
HETATM   18  O7  UNL     1       4.885   7.970   9.607  1.00  0.00    -0.297 OA
HETATM   19  C25 UNL     1       2.634   7.114   9.353  1.00  0.00     0.018 C 
HETATM   20  C26 UNL     1       2.356   8.338   8.445  1.00  0.00     0.023 C 
HETATM   21  C27 UNL     1       2.846   5.916   8.402  1.00  0.00     0.023 C 
HETATM   22  C28 UNL     1       1.452   6.928  10.383  1.00  0.00     0.016 C 
HETATM   23  C29 UNL     1       0.977   5.470  10.536  1.00  0.00     0.043 C 
HETATM   24  C30 UNL     1      -0.344   5.396  11.301  1.00  0.00     0.149 C 
ENDROOT
BRANCH   1  25
HETATM   25  C7  UNL     1      -4.343   8.243  15.218  1.00  0.00    -0.011 C 
HETATM   26  C8  UNL     1      -5.082   8.798  14.003  1.00  0.00     0.010 C 
BRANCH  25  27
HETATM   27  C6  UNL     1      -3.613   9.386  15.987  1.00  0.00     0.044 C 
BRANCH  27  28
HETATM   28  C5  UNL     1      -3.783  10.828  15.465  1.00  0.00     0.188 C 
BRANCH  28  29
HETATM   29  C4  UNL     1      -4.201  11.850  16.549  1.00  0.00     0.169 C 
HETATM   30  O3  UNL     1      -5.219  12.546  16.423  1.00  0.00    -0.294 OA
BRANCH  29  31
HETATM   31  C2  UNL     1      -3.334  12.016  17.787  1.00  0.00     0.152 C 
HETATM   32  C1  UNL     1      -3.666  10.947  18.830  1.00  0.00     0.029 C 
BRANCH  31  33
HETATM   33  C3  UNL     1      -1.853  12.077  17.538  1.00  0.00     0.150 C 
HETATM   34  O1  UNL     1      -1.010  11.332  18.018  1.00  0.00    -0.649 OA
BRANCH  33  35
HETATM   35  O2  UNL     1      -1.452  13.114  16.779  1.00  0.00    -0.776 OA
HETATM   36  H5  UNL     1      -0.471  13.056  16.812  1.00  0.00     0.167 HD
ENDBRANCH  33  35
ENDBRANCH  31  33
ENDBRANCH  29  31
ENDBRANCH  28  29
BRANCH  28  37
HETATM   37  O4  UNL     1      -2.636  11.198  14.723  1.00  0.00    -0.388 OA
HETATM   38  H7  UNL     1      -2.908  11.301  13.792  1.00  0.00     0.210 HD
ENDBRANCH  28  37
ENDBRANCH  27  28
ENDBRANCH  25  27
ENDBRANCH   1  25
BRANCH   3  39
HETATM   39  O5  UNL     1      -2.977   4.120  12.837  1.00  0.00    -0.394 OA
HETATM   40  H18 UNL     1      -2.196   3.839  12.310  1.00  0.00     0.210 HD
ENDBRANCH   3  39
BRANCH  24  41
HETATM   41  O8  UNL     1      -0.574   4.036  11.649  1.00  0.00    -0.391 OA
HETATM   42  H44 UNL     1       0.178   3.746  12.198  1.00  0.00     0.210 HD
ENDBRANCH  24  41
TORSDOF 10
ENDMDL
MODEL 5
REMARK minimizedAffinity -7.77273321
REMARK CNNscore 0.482163906
REMARK CNNaffinity 7.34526634
REMARK  10 active torsions:
REMARK  status: ('A' for Active; 'I' for Inactive)
REMARK    1  A    between atoms: C2_2  and  C3_3 
REMARK    2  A    between atoms: C2_2  and  C4_6 
REMARK    3  A    between atoms: C3_3  and  O2_5 
REMARK    4  A    between atoms: C4_6  and  C5_8 
REMARK    5  A    between atoms: C5_8  and  O4_9 
REMARK    6  A    between atoms: C5_8  and  C6_10 
REMARK    7  A    between atoms: C6_10  and  C7_11 
REMARK    8  A    between atoms: C7_11  and  C9_13 
REMARK    9  A    between atoms: C11_15  and  O5_16 
REMARK   10  A    between atoms: C30_37  and  O8_38 
ROOT
HETATM    1  C9  UNL     1      -5.291   6.012  14.526  1.00  0.00     0.001 C 
HETATM    2  C10 UNL     1      -5.222   6.863  15.830  1.00  0.00     0.038 C 
HETATM    3  C11 UNL     1      -6.644   7.373  16.129  1.00  0.00     0.132 C 
HETATM    4  C12 UNL     1      -7.568   6.504  15.239  1.00  0.00     0.017 C 
HETATM    5  C13 UNL     1      -7.820   5.135  15.953  1.00  0.00     0.023 C 
HETATM    6  C14 UNL     1      -8.944   7.057  14.850  1.00  0.00    -0.029 C 
HETATM    7  C15 UNL     1      -9.543   6.666  13.697  1.00  0.00     0.002 C 
HETATM    8  C16 UNL     1      -8.860   5.565  12.911  1.00  0.00     0.157 C 
HETATM    9  O6  UNL     1      -9.530   4.793  12.223  1.00  0.00    -0.293 OA
HETATM   10  C17 UNL     1      -7.344   5.385  12.998  1.00  0.00     0.094 C 
HETATM   11  C18 UNL     1      -6.682   6.407  13.931  1.00  0.00    -0.019 C 
HETATM   12  C19 UNL     1      -6.543   7.760  13.162  1.00  0.00     0.017 C 
HETATM   13  C20 UNL     1     -10.872   7.246  13.160  1.00  0.00    -0.008 C 
HETATM   14  C21 UNL     1     -10.689   7.582  11.655  1.00  0.00     0.021 C 
HETATM   15  C22 UNL     1     -11.991   6.178  13.316  1.00  0.00     0.022 C 
HETATM   16  C23 UNL     1     -13.404   6.718  13.519  1.00  0.00     0.080 C 
HETATM   17  C24 UNL     1     -13.567   8.109  12.966  1.00  0.00     0.135 C 
HETATM   18  O7  UNL     1     -14.451   8.364  12.147  1.00  0.00    -0.297 OA
HETATM   19  C25 UNL     1     -12.652   9.191  13.544  1.00  0.00     0.018 C 
HETATM   20  C26 UNL     1     -12.471  10.323  12.503  1.00  0.00     0.023 C 
HETATM   21  C27 UNL     1     -13.421   9.817  14.728  1.00  0.00     0.023 C 
HETATM   22  C28 UNL     1     -11.247   8.580  13.927  1.00  0.00     0.016 C 
HETATM   23  C29 UNL     1     -11.052   8.357  15.439  1.00  0.00     0.043 C 
HETATM   24  C30 UNL     1      -9.590   8.059  15.770  1.00  0.00     0.149 C 
ENDROOT
BRANCH   1  25
HETATM   25  C7  UNL     1      -3.988   6.149  13.673  1.00  0.00    -0.011 C 
HETATM   26  C8  UNL     1      -3.776   7.580  13.180  1.00  0.00     0.010 C 
BRANCH  25  27
HETATM   27  C6  UNL     1      -4.038   5.157  12.471  1.00  0.00     0.044 C 
BRANCH  27  28
HETATM   28  C5  UNL     1      -3.293   3.813  12.614  1.00  0.00     0.188 C 
BRANCH  28  29
HETATM   29  C4  UNL     1      -3.964   2.633  11.872  1.00  0.00     0.169 C 
HETATM   30  O3  UNL     1      -3.388   1.545  11.735  1.00  0.00    -0.294 OA
BRANCH  29  31
HETATM   31  C2  UNL     1      -5.353   2.821  11.282  1.00  0.00     0.152 C 
HETATM   32  C1  UNL     1      -5.268   3.224   9.809  1.00  0.00     0.029 C 
BRANCH  31  33
HETATM   33  C3  UNL     1      -6.296   1.665  11.465  1.00  0.00     0.150 C 
HETATM   34  O1  UNL     1      -6.307   0.633  10.809  1.00  0.00    -0.649 OA
BRANCH  33  35
HETATM   35  O2  UNL     1      -7.256   1.861  12.389  1.00  0.00    -0.776 OA
HETATM   36  H5  UNL     1      -7.828   1.067  12.296  1.00  0.00     0.167 HD
ENDBRANCH  33  35
ENDBRANCH  31  33
ENDBRANCH  29  31
ENDBRANCH  28  29
BRANCH  28  37
HETATM   37  O4  UNL     1      -1.925   3.999  12.303  1.00  0.00    -0.388 OA
HETATM   38  H7  UNL     1      -1.416   3.863  13.124  1.00  0.00     0.210 HD
ENDBRANCH  28  37
ENDBRANCH  27  28
ENDBRANCH  25  27
ENDBRANCH   1  25
BRANCH   3  39
HETATM   39  O5  UNL     1      -6.899   7.269  17.519  1.00  0.00    -0.394 OA
HETATM   40  H18 UNL     1      -7.856   7.464  17.644  1.00  0.00     0.210 HD
ENDBRANCH   3  39
BRANCH  24  41
HETATM   41  O8  UNL     1      -9.531   7.589  17.113  1.00  0.00    -0.391 OA
HETATM   42  H44 UNL     1     -10.085   6.789  17.164  1.00  0.00     0.210 HD
ENDBRANCH  24  41
TORSDOF 10
ENDMDL
MODEL 6
REMARK minimizedAffinity -8.05190277
REMARK CNNscore 0.429531842
REMARK CNNaffinity 6.20279694
REMARK  10 active torsions:
REMARK  status: ('A' for Active; 'I' for Inactive)
REMARK    1  A    between atoms: C2_2  and  C3_3 
REMARK    2  A    between atoms: C2_2  and  C4_6 
REMARK    3  A    between atoms: C3_3  and  O2_5 
REMARK    4  A    between atoms: C4_6  and  C5_8 
REMARK    5  A    between atoms: C5_8  and  O4_9 
REMARK    6  A    between atoms: C5_8  and  C6_10 
REMARK    7  A    between atoms: C6_10  and  C7_11 
REMARK    8  A    between atoms: C7_11  and  C9_13 
REMARK    9  A    between atoms: C11_15  and  O5_16 
REMARK   10  A    between atoms: C30_37  and  O8_38 
ROOT
HETATM    1  C9  UNL     1      -3.923   5.844  13.554  1.00  0.00     0.001 C 
HETATM    2  C10 UNL     1      -5.264   5.895  14.348  1.00  0.00     0.038 C 
HETATM    3  C11 UNL     1      -5.348   7.272  15.031  1.00  0.00     0.132 C 
HETATM    4  C12 UNL     1      -4.271   8.130  14.319  1.00  0.00     0.017 C 
HETATM    5  C13 UNL     1      -4.860   8.670  12.973  1.00  0.00     0.023 C 
HETATM    6  C14 UNL     1      -3.689   9.339  15.060  1.00  0.00    -0.029 C 
HETATM    7  C15 UNL     1      -2.432   9.775  14.788  1.00  0.00     0.002 C 
HETATM    8  C16 UNL     1      -1.714   9.109  13.632  1.00  0.00     0.157 C 
HETATM    9  O6  UNL     1      -0.884   9.741  12.976  1.00  0.00    -0.293 OA
HETATM   10  C17 UNL     1      -2.043   7.665  13.251  1.00  0.00     0.094 C 
HETATM   11  C18 UNL     1      -3.127   7.051  14.147  1.00  0.00    -0.019 C 
HETATM   12  C19 UNL     1      -2.465   6.615  15.494  1.00  0.00     0.017 C 
HETATM   13  C20 UNL     1      -1.713  10.909  15.553  1.00  0.00    -0.008 C 
HETATM   14  C21 UNL     1      -0.280  10.429  15.909  1.00  0.00     0.021 C 
HETATM   15  C22 UNL     1      -1.623  12.162  14.638  1.00  0.00     0.022 C 
HETATM   16  C23 UNL     1      -1.617  13.510  15.352  1.00  0.00     0.080 C 
HETATM   17  C24 UNL     1      -1.118  13.402  16.769  1.00  0.00     0.135 C 
HETATM   18  O7  UNL     1      -0.179  14.093  17.164  1.00  0.00    -0.297 OA
HETATM   19  C25 UNL     1      -1.898  12.473  17.703  1.00  0.00     0.018 C 
HETATM   20  C26 UNL     1      -0.963  11.976  18.833  1.00  0.00     0.023 C 
HETATM   21  C27 UNL     1      -2.968  13.350  18.387  1.00  0.00     0.023 C 
HETATM   22  C28 UNL     1      -2.477  11.242  16.901  1.00  0.00     0.016 C 
HETATM   23  C29 UNL     1      -3.986  11.339  16.607  1.00  0.00     0.043 C 
HETATM   24  C30 UNL     1      -4.540  10.005  16.109  1.00  0.00     0.149 C 
ENDROOT
BRANCH   1  25
HETATM   25  C7  UNL     1      -3.308   4.406  13.546  1.00  0.00    -0.011 C 
HETATM   26  C8  UNL     1      -1.873   4.403  13.021  1.00  0.00     0.010 C 
BRANCH  25  27
HETATM   27  C6  UNL     1      -4.205   3.454  12.697  1.00  0.00     0.044 C 
BRANCH  27  28
HETATM   28  C5  UNL     1      -4.072   3.517  11.161  1.00  0.00     0.188 C 
BRANCH  28  29
HETATM   29  C4  UNL     1      -2.750   2.929  10.614  1.00  0.00     0.169 C 
HETATM   30  O3  UNL     1      -2.209   3.392   9.599  1.00  0.00    -0.294 OA
BRANCH  29  31
HETATM   31  C2  UNL     1      -2.112   1.747  11.326  1.00  0.00     0.152 C 
HETATM   32  C1  UNL     1      -3.147   0.655  11.601  1.00  0.00     0.029 C 
BRANCH  31  33
HETATM   33  C3  UNL     1      -0.893   1.171  10.661  1.00  0.00     0.150 C 
HETATM   34  O1  UNL     1      -0.832   0.103  10.068  1.00  0.00    -0.649 OA
BRANCH  33  35
HETATM   35  O2  UNL     1       0.234   1.888  10.833  1.00  0.00    -0.776 OA
HETATM   36  H5  UNL     1       0.930   1.319  10.433  1.00  0.00     0.167 HD
ENDBRANCH  33  35
ENDBRANCH  31  33
ENDBRANCH  29  31
ENDBRANCH  28  29
BRANCH  28  37
HETATM   37  O4  UNL     1      -5.240   2.984  10.566  1.00  0.00    -0.388 OA
HETATM   38  H7  UNL     1      -5.700   3.716  10.114  1.00  0.00     0.210 HD
ENDBRANCH  28  37
ENDBRANCH  27  28
ENDBRANCH  25  27
ENDBRANCH   1  25
BRANCH   3  39
HETATM   39  O5  UNL     1      -6.668   7.775  14.918  1.00  0.00    -0.394 OA
HETATM   40  H18 UNL     1      -6.642   8.706  15.233  1.00  0.00     0.210 HD
ENDBRANCH   3  39
BRANCH  24  41
HETATM   41  O8  UNL     1      -5.846  10.236  15.594  1.00  0.00    -0.391 OA
HETATM   42  H44 UNL     1      -5.762  10.886  14.872  1.00  0.00     0.210 HD
ENDBRANCH  24  41
TORSDOF 10
ENDMDL
MODEL 7
REMARK minimizedAffinity -7.74953938
REMARK CNNscore 0.424069047
REMARK CNNaffinity 6.80593109
REMARK  10 active torsions:
REMARK  status: ('A' for Active; 'I' for Inactive)
REMARK    1  A    between atoms: C2_2  and  C3_3 
REMARK    2  A    between atoms: C2_2  and  C4_6 
REMARK    3  A    between atoms: C3_3  and  O2_5 
REMARK    4  A    between atoms: C4_6  and  C5_8 
REMARK    5  A    between atoms: C5_8  and  O4_9 
REMARK    6  A    between atoms: C5_8  and  C6_10 
REMARK    7  A    between atoms: C6_10  and  C7_11 
REMARK    8  A    between atoms: C7_11  and  C9_13 
REMARK    9  A    between atoms: C11_15  and  O5_16 
REMARK   10  A    between atoms: C30_37  and  O8_38 
ROOT
HETATM    1  C9  UNL     1      -5.204   5.873  14.345  1.00  0.00     0.001 C 
HETATM    2  C10 UNL     1      -5.063   6.787  15.600  1.00  0.00     0.038 C 
HETATM    3  C11 UNL     1      -6.460   7.341  15.932  1.00  0.00     0.132 C 
HETATM    4  C12 UNL     1      -7.438   6.449  15.126  1.00  0.00     0.017 C 
HETATM    5  C13 UNL     1      -7.687   5.123  15.919  1.00  0.00     0.023 C 
HETATM    6  C14 UNL     1      -8.819   7.012  14.768  1.00  0.00    -0.029 C 
HETATM    7  C15 UNL     1      -9.474   6.578  13.661  1.00  0.00     0.002 C 
HETATM    8  C16 UNL     1      -8.847   5.425  12.905  1.00  0.00     0.157 C 
HETATM    9  O6  UNL     1      -9.560   4.634  12.285  1.00  0.00    -0.293 OA
HETATM   10  C17 UNL     1      -7.332   5.216  12.937  1.00  0.00     0.094 C 
HETATM   11  C18 UNL     1      -6.611   6.269  13.790  1.00  0.00    -0.019 C 
HETATM   12  C19 UNL     1      -6.479   7.579  12.948  1.00  0.00     0.017 C 
HETATM   13  C20 UNL     1     -10.813   7.158  13.152  1.00  0.00    -0.008 C 
HETATM   14  C21 UNL     1     -10.688   7.415  11.626  1.00  0.00     0.021 C 
HETATM   15  C22 UNL     1     -11.945   6.124  13.408  1.00  0.00     0.022 C 
HETATM   16  C23 UNL     1     -13.337   6.703  13.643  1.00  0.00     0.080 C 
HETATM   17  C24 UNL     1     -13.497   8.069  13.027  1.00  0.00     0.135 C 
HETATM   18  O7  UNL     1     -14.410   8.302  12.234  1.00  0.00    -0.297 OA
HETATM   19  C25 UNL     1     -12.537   9.158  13.511  1.00  0.00     0.018 C 
HETATM   20  C26 UNL     1     -12.379  10.233  12.408  1.00  0.00     0.023 C 
HETATM   21  C27 UNL     1     -13.242   9.858  14.693  1.00  0.00     0.023 C 
HETATM   22  C28 UNL     1     -11.129   8.537  13.866  1.00  0.00     0.016 C 
HETATM   23  C29 UNL     1     -10.874   8.385  15.378  1.00  0.00     0.043 C 
HETATM   24  C30 UNL     1      -9.406   8.072  15.663  1.00  0.00     0.149 C 
ENDROOT
BRANCH   1  25
HETATM   25  C7  UNL     1      -3.936   5.941  13.432  1.00  0.00    -0.011 C 
HETATM   26  C8  UNL     1      -3.536   4.563  12.909  1.00  0.00     0.010 C 
BRANCH  25  27
HETATM   27  C6  UNL     1      -2.757   6.594  14.216  1.00  0.00     0.044 C 
BRANCH  27  28
HETATM   28  C5  UNL     1      -1.340   6.025  13.993  1.00  0.00     0.188 C 
BRANCH  28  29
HETATM   29  C4  UNL     1      -0.464   6.862  13.032  1.00  0.00     0.169 C 
HETATM   30  O3  UNL     1       0.056   6.357  12.027  1.00  0.00    -0.294 OA
BRANCH  29  31
HETATM   31  C2  UNL     1      -0.221   8.332  13.338  1.00  0.00     0.152 C 
HETATM   32  C1  UNL     1       1.249   8.695  13.125  1.00  0.00     0.029 C 
BRANCH  31  33
HETATM   33  C3  UNL     1      -1.120   9.300  12.621  1.00  0.00     0.150 C 
HETATM   34  O1  UNL     1      -1.577   9.161  11.495  1.00  0.00    -0.649 OA
BRANCH  33  35
HETATM   35  O2  UNL     1      -1.347  10.452  13.280  1.00  0.00    -0.776 OA
HETATM   36  H5  UNL     1      -1.851  10.991  12.631  1.00  0.00     0.167 HD
ENDBRANCH  33  35
ENDBRANCH  31  33
ENDBRANCH  29  31
ENDBRANCH  28  29
BRANCH  28  37
HETATM   37  O4  UNL     1      -0.740   5.754  15.246  1.00  0.00    -0.388 OA
HETATM   38  H7  UNL     1      -0.637   4.787  15.320  1.00  0.00     0.210 HD
ENDBRANCH  28  37
ENDBRANCH  27  28
ENDBRANCH  25  27
ENDBRANCH   1  25
BRANCH   3  39
HETATM   39  O5  UNL     1      -6.658   7.312  17.335  1.00  0.00    -0.394 OA
HETATM   40  H18 UNL     1      -7.604   7.534  17.489  1.00  0.00     0.210 HD
ENDBRANCH   3  39
BRANCH  24  41
HETATM   41  O8  UNL     1      -9.298   7.668  17.023  1.00  0.00    -0.391 OA
HETATM   42  H44 UNL     1      -9.865   6.883  17.138  1.00  0.00     0.210 HD
ENDBRANCH  24  41
TORSDOF 10
ENDMDL
MODEL 8
REMARK minimizedAffinity -9.34881115
REMARK CNNscore 0.414926261
REMARK CNNaffinity 6.41768026
REMARK  10 active torsions:
REMARK  status: ('A' for Active; 'I' for Inactive)
REMARK    1  A    between atoms: C2_2  and  C3_3 
REMARK    2  A    between atoms: C2_2  and  C4_6 
REMARK    3  A    between atoms: C3_3  and  O2_5 
REMARK    4  A    between atoms: C4_6  and  C5_8 
REMARK    5  A    between atoms: C5_8  and  O4_9 
REMARK    6  A    between atoms: C5_8  and  C6_10 
REMARK    7  A    between atoms: C6_10  and  C7_11 
REMARK    8  A    between atoms: C7_11  and  C9_13 
REMARK    9  A    between atoms: C11_15  and  O5_16 
REMARK   10  A    between atoms: C30_37  and  O8_38 
ROOT
HETATM    1  C9  UNL     1      -3.581   7.389  14.593  1.00  0.00     0.001 C 
HETATM    2  C10 UNL     1      -4.197   6.234  13.746  1.00  0.00     0.038 C 
HETATM    3  C11 UNL     1      -3.085   5.682  12.835  1.00  0.00     0.132 C 
HETATM    4  C12 UNL     1      -1.771   6.242  13.436  1.00  0.00     0.017 C 
HETATM    5  C13 UNL     1      -1.340   5.344  14.643  1.00  0.00     0.023 C 
HETATM    6  C14 UNL     1      -0.544   6.369  12.524  1.00  0.00    -0.029 C 
HETATM    7  C15 UNL     1       0.403   7.310  12.771  1.00  0.00     0.002 C 
HETATM    8  C16 UNL     1       0.259   8.104  14.053  1.00  0.00     0.157 C 
HETATM    9  O6  UNL     1       1.261   8.536  14.626  1.00  0.00    -0.293 OA
HETATM   10  C17 UNL     1      -1.125   8.340  14.661  1.00  0.00     0.094 C 
HETATM   11  C18 UNL     1      -2.247   7.696  13.837  1.00  0.00    -0.019 C 
HETATM   12  C19 UNL     1      -2.554   8.619  12.614  1.00  0.00     0.017 C 
HETATM   13  C20 UNL     1       1.615   7.594  11.854  1.00  0.00    -0.008 C 
HETATM   14  C21 UNL     1       1.723   9.129  11.647  1.00  0.00     0.021 C 
HETATM   15  C22 UNL     1       2.907   7.076  12.546  1.00  0.00     0.022 C 
HETATM   16  C23 UNL     1       4.026   6.621  11.613  1.00  0.00     0.080 C 
HETATM   17  C24 UNL     1       3.937   7.272  10.258  1.00  0.00     0.135 C 
HETATM   18  O7  UNL     1       4.892   7.894   9.791  1.00  0.00    -0.297 OA
HETATM   19  C25 UNL     1       2.650   7.035   9.464  1.00  0.00     0.018 C 
HETATM   20  C26 UNL     1       2.431   8.206   8.476  1.00  0.00     0.023 C 
HETATM   21  C27 UNL     1       2.905   5.784   8.595  1.00  0.00     0.023 C 
HETATM   22  C28 UNL     1       1.414   6.912  10.439  1.00  0.00     0.016 C 
HETATM   23  C29 UNL     1       0.921   5.467  10.647  1.00  0.00     0.043 C 
HETATM   24  C30 UNL     1      -0.440   5.442  11.342  1.00  0.00     0.149 C 
ENDROOT
BRANCH   1  25
HETATM   25  C7  UNL     1      -4.621   8.523  14.873  1.00  0.00    -0.011 C 
HETATM   26  C8  UNL     1      -4.075   9.572  15.839  1.00  0.00     0.010 C 
BRANCH  25  27
HETATM   27  C6  UNL     1      -5.941   7.902  15.425  1.00  0.00     0.044 C 
BRANCH  27  28
HETATM   28  C5  UNL     1      -7.242   8.152  14.634  1.00  0.00     0.188 C 
BRANCH  28  29
HETATM   29  C4  UNL     1      -8.186   6.930  14.561  1.00  0.00     0.169 C 
HETATM   30  O3  UNL     1      -9.388   7.025  14.844  1.00  0.00    -0.294 OA
BRANCH  29  31
HETATM   31  C2  UNL     1      -7.621   5.578  14.152  1.00  0.00     0.152 C 
HETATM   32  C1  UNL     1      -7.558   4.630  15.351  1.00  0.00     0.029 C 
BRANCH  31  33
HETATM   33  C3  UNL     1      -8.300   4.918  12.985  1.00  0.00     0.150 C 
HETATM   34  O1  UNL     1      -8.566   5.445  11.914  1.00  0.00    -0.649 OA
BRANCH  33  35
HETATM   35  O2  UNL     1      -8.715   3.657  13.214  1.00  0.00    -0.776 OA
HETATM   36  H5  UNL     1      -9.219   3.432  12.400  1.00  0.00     0.167 HD
ENDBRANCH  33  35
ENDBRANCH  31  33
ENDBRANCH  29  31
ENDBRANCH  28  29
BRANCH  28  37
HETATM   37  O4  UNL     1      -7.855   9.339  15.102  1.00  0.00    -0.388 OA
HETATM   38  H7  UNL     1      -7.813   9.996  14.383  1.00  0.00     0.210 HD
ENDBRANCH  28  37
ENDBRANCH  27  28
ENDBRANCH  25  27
ENDBRANCH   1  25
BRANCH   3  39
HETATM   39  O5  UNL     1      -3.161   4.266  12.804  1.00  0.00    -0.394 OA
HETATM   40  H18 UNL     1      -2.354   3.953  12.336  1.00  0.00     0.210 HD
ENDBRANCH   3  39
BRANCH  24  41
HETATM   41  O8  UNL     1      -0.698   4.105  11.754  1.00  0.00    -0.391 OA
HETATM   42  H44 UNL     1       0.021   3.844  12.358  1.00  0.00     0.210 HD
ENDBRANCH  24  41
TORSDOF 10
ENDMDL
MODEL 9
REMARK minimizedAffinity -6.94881916
REMARK CNNscore 0.410672456
REMARK CNNaffinity 5.46593475
REMARK  10 active torsions:
REMARK  status: ('A' for Active; 'I' for Inactive)
REMARK    1  A    between atoms: C2_2  and  C3_3 
REMARK    2  A    between atoms: C2_2  and  C4_6 
REMARK    3  A    between atoms: C3_3  and  O2_5 
REMARK    4  A    between atoms: C4_6  and  C5_8 
REMARK    5  A    between atoms: C5_8  and  O4_9 
REMARK    6  A    between atoms: C5_8  and  C6_10 
REMARK    7  A    between atoms: C6_10  and  C7_11 
REMARK    8  A    between atoms: C7_11  and  C9_13 
REMARK    9  A    between atoms: C11_15  and  O5_16 
REMARK   10  A    between atoms: C30_37  and  O8_38 
ROOT
HETATM    1  C9  UNL     1     -14.796  -4.797   9.788  1.00  0.00     0.001 C 
HETATM    2  C10 UNL     1     -14.380  -5.915  10.792  1.00  0.00     0.038 C 
HETATM    3  C11 UNL     1     -14.868  -5.490  12.189  1.00  0.00     0.132 C 
HETATM    4  C12 UNL     1     -15.885  -4.352  11.921  1.00  0.00     0.017 C 
HETATM    5  C13 UNL     1     -17.265  -4.982  11.541  1.00  0.00     0.023 C 
HETATM    6  C14 UNL     1     -16.158  -3.335  13.036  1.00  0.00    -0.029 C 
HETATM    7  C15 UNL     1     -16.552  -2.072  12.735  1.00  0.00     0.002 C 
HETATM    8  C16 UNL     1     -16.846  -1.777  11.279  1.00  0.00     0.157 C 
HETATM    9  O6  UNL     1     -17.685  -0.925  10.980  1.00  0.00    -0.293 OA
HETATM   10  C17 UNL     1     -16.132  -2.559  10.176  1.00  0.00     0.094 C 
HETATM   11  C18 UNL     1     -15.156  -3.604  10.733  1.00  0.00    -0.019 C 
HETATM   12  C19 UNL     1     -13.841  -2.874  11.158  1.00  0.00     0.017 C 
HETATM   13  C20 UNL     1     -16.745  -0.943  13.774  1.00  0.00    -0.008 C 
HETATM   14  C21 UNL     1     -16.038   0.335  13.247  1.00  0.00     0.021 C 
HETATM   15  C22 UNL     1     -18.264  -0.659  13.940  1.00  0.00     0.022 C 
HETATM   16  C23 UNL     1     -18.702  -0.152  15.311  1.00  0.00     0.080 C 
HETATM   17  C24 UNL     1     -17.581   0.528  16.051  1.00  0.00     0.135 C 
HETATM   18  O7  UNL     1     -17.707   1.676  16.476  1.00  0.00    -0.297 OA
HETATM   19  C25 UNL     1     -16.332  -0.313  16.330  1.00  0.00     0.018 C 
HETATM   20  C26 UNL     1     -15.106   0.620  16.481  1.00  0.00     0.023 C 
HETATM   21  C27 UNL     1     -16.550  -0.961  17.714  1.00  0.00     0.023 C 
HETATM   22  C28 UNL     1     -16.086  -1.343  15.158  1.00  0.00     0.016 C 
HETATM   23  C29 UNL     1     -16.487  -2.790  15.502  1.00  0.00     0.043 C 
HETATM   24  C30 UNL     1     -15.951  -3.774  14.462  1.00  0.00     0.149 C 
ENDROOT
BRANCH   1  25
HETATM   25  C7  UNL     1     -13.744  -4.623   8.644  1.00  0.00    -0.011 C 
HETATM   26  C8  UNL     1     -13.285  -3.173   8.508  1.00  0.00     0.010 C 
BRANCH  25  27
HETATM   27  C6  UNL     1     -14.339  -5.140   7.299  1.00  0.00     0.044 C 
BRANCH  27  28
HETATM   28  C5  UNL     1     -13.986  -4.367   6.011  1.00  0.00     0.188 C 
BRANCH  28  29
HETATM   29  C4  UNL     1     -12.966  -5.087   5.098  1.00  0.00     0.169 C 
HETATM   30  O3  UNL     1     -12.363  -6.101   5.477  1.00  0.00    -0.294 OA
BRANCH  29  31
HETATM   31  C2  UNL     1     -12.683  -4.526   3.713  1.00  0.00     0.152 C 
HETATM   32  C1  UNL     1     -11.908  -3.211   3.808  1.00  0.00     0.029 C 
BRANCH  31  33
HETATM   33  C3  UNL     1     -12.014  -5.472   2.755  1.00  0.00     0.150 C 
HETATM   34  O1  UNL     1     -11.066  -5.210   2.028  1.00  0.00    -0.649 OA
BRANCH  33  35
HETATM   35  O2  UNL     1     -12.597  -6.682   2.658  1.00  0.00    -0.776 OA
HETATM   36  H5  UNL     1     -12.104  -7.115   1.926  1.00  0.00     0.167 HD
ENDBRANCH  33  35
ENDBRANCH  31  33
ENDBRANCH  29  31
ENDBRANCH  28  29
BRANCH  28  37
HETATM   37  O4  UNL     1     -15.179  -3.972   5.358  1.00  0.00    -0.388 OA
HETATM   38  H7  UNL     1     -15.229  -2.999   5.401  1.00  0.00     0.210 HD
ENDBRANCH  28  37
ENDBRANCH  27  28
ENDBRANCH  25  27
ENDBRANCH   1  25
BRANCH   3  39
HETATM   39  O5  UNL     1     -15.408  -6.614  12.862  1.00  0.00    -0.394 OA
HETATM   40  H18 UNL     1     -15.835  -6.273  13.680  1.00  0.00     0.210 HD
ENDBRANCH   3  39
BRANCH  24  41
HETATM   41  O8  UNL     1     -16.586  -5.030  14.677  1.00  0.00    -0.391 OA
HETATM   42  H44 UNL     1     -17.546  -4.889  14.581  1.00  0.00     0.210 HD
ENDBRANCH  24  41
TORSDOF 10
ENDMDL
