MODEL 1
REMARK minimizedAffinity -7.759161
REMARK CNNscore 0.593847156
REMARK CNNaffinity 7.45045996
REMARK  13 active torsions:
REMARK  status: ('A' for Active; 'I' for Inactive)
REMARK    1  A    between atoms: O1_2  and  C2_3 
REMARK    2  A    between atoms: C2_3  and  C3_5 
REMARK    3  A    between atoms: C16_18  and  C17_19 
REMARK    4  A    between atoms: C17_19  and  C18_20 
REMARK    5  A    between atoms: C18_20  and  O4_22 
REMARK    6  A    between atoms: C24_32  and  C25_33 
REMARK    7  A    between atoms: C25_33  and  C26_34 
REMARK    8  A    between atoms: C26_34  and  C27_35 
REMARK    9  A    between atoms: C27_35  and  O9_36 
REMARK   10  A    between atoms: C29_39  and  C30_40 
REMARK   11  A    between atoms: C30_40  and  C32_42 
REMARK   12  A    between atoms: C43_53  and  O10_54 
REMARK   13  A    between atoms: C44_55  and  O11_56 
ROOT
HETATM    1  C3  UNL     1     -15.758   3.109  28.932  1.00  0.00     0.020 C 
HETATM    2  C4  UNL     1     -15.142   2.236  28.109  1.00  0.00     0.003 C 
HETATM    3  C5  UNL     1     -14.119   2.599  27.005  1.00  0.00     0.026 C 
HETATM    4  C6  UNL     1     -14.849   2.159  25.737  1.00  0.00    -0.012 C 
HETATM    5  C7  UNL     1     -14.332   2.034  24.509  1.00  0.00     0.002 C 
HETATM    6  C8  UNL     1     -12.990   2.571  24.154  1.00  0.00     0.144 C 
HETATM    7  C9  UNL     1     -11.947   1.581  24.642  1.00  0.00     0.036 C 
HETATM    8  C10 UNL     1     -11.673   1.758  26.158  1.00  0.00     0.009 C 
HETATM    9  C11 UNL     1     -12.856   1.653  27.205  1.00  0.00     0.007 C 
HETATM   10  C12 UNL     1     -12.237   1.705  28.639  1.00  0.00     0.033 C 
HETATM   11  C13 UNL     1     -12.310   2.881  29.584  1.00  0.00    -0.030 C 
HETATM   12  C14 UNL     1     -12.931   4.069  29.570  1.00  0.00    -0.023 C 
HETATM   13  C15 UNL     1     -13.862   4.704  28.548  1.00  0.00     0.047 C 
HETATM   14  C16 UNL     1     -15.370   4.577  28.917  1.00  0.00     0.044 C 
HETATM   15  C19 UNL     1     -13.615   4.119  27.134  1.00  0.00     0.149 C 
HETATM   16  O5  UNL     1     -13.787   5.140  26.139  1.00  0.00    -0.351 OA
HETATM   17  C20 UNL     1     -15.011   5.366  25.481  1.00  0.00     0.297 C 
HETATM   18  O6  UNL     1     -15.044   4.600  24.272  1.00  0.00    -0.347 OA
HETATM   19  C21 UNL     1     -14.106   5.063  23.286  1.00  0.00     0.191 C 
HETATM   20  C22 UNL     1     -13.842   3.917  22.291  1.00  0.00     0.204 C 
HETATM   21  O7  UNL     1     -12.930   2.867  22.758  1.00  0.00    -0.379 OA
HETATM   22  C23 UNL     1     -14.653   6.421  22.735  1.00  0.00     0.148 A 
HETATM   23  O8  UNL     1     -15.285   6.189  21.459  1.00  0.00    -0.332 OA
HETATM   24  C24 UNL     1     -14.809   6.838  20.340  1.00  0.00     0.075 A 
HETATM   25  C28 UNL     1     -13.806   7.721  20.396  1.00  0.00     0.072 A 
HETATM   26  N1  UNL     1     -13.171   8.494  19.463  1.00  0.00    -0.357 N 
HETATM   27  C29 UNL     1     -12.207   9.306  20.042  1.00  0.00     0.014 A 
HETATM   28  C38 UNL     1     -12.137   9.062  21.376  1.00  0.00     0.039 A 
HETATM   29  C39 UNL     1     -13.144   8.052  21.649  1.00  0.00     0.001 A 
HETATM   30  C40 UNL     1     -13.518   7.459  22.788  1.00  0.00    -0.027 A 
HETATM   31  C41 UNL     1     -12.947   7.741  24.163  1.00  0.00     0.041 C 
HETATM   32  C42 UNL     1     -14.005   7.822  25.276  1.00  0.00     0.050 C 
HETATM   33  C43 UNL     1     -15.238   6.888  25.136  1.00  0.00     0.136 C 
HETATM   34  C44 UNL     1     -15.775   6.947  23.692  1.00  0.00     0.199 C 
HETATM   35  H34 UNL     1     -13.568   8.666  18.547  1.00  0.00     0.166 HD
ENDROOT
BRANCH  27  36
HETATM   36  C30 UNL     1     -11.367  10.286  19.258  1.00  0.00     0.035 C 
HETATM   37  C31 UNL     1     -11.711  11.733  19.646  1.00  0.00     0.017 C 
BRANCH  36  38
HETATM   38  C32 UNL     1     -11.418  10.005  17.727  1.00  0.00    -0.005 C 
HETATM   39  C33 UNL     1     -11.311  11.257  16.820  1.00  0.00     0.005 C 
HETATM   40  C34 UNL     1     -10.114  11.220  15.877  1.00  0.00     0.000 C 
HETATM   41  C35 UNL     1     -10.077   9.952  15.029  1.00  0.00     0.000 C 
HETATM   42  C36 UNL     1     -10.427   8.683  15.814  1.00  0.00     0.000 C 
HETATM   43  C37 UNL     1     -10.413   8.910  17.323  1.00  0.00     0.005 C 
ENDBRANCH  36  38
ENDBRANCH  27  36
BRANCH  24  44
HETATM   44  C25 UNL     1     -15.495   6.424  19.062  1.00  0.00     0.069 C 
BRANCH  44  45
HETATM   45  C26 UNL     1     -15.709   7.578  18.077  1.00  0.00     0.033 C 
BRANCH  45  46
HETATM   46  C27 UNL     1     -15.184   7.289  16.675  1.00  0.00     0.164 C 
BRANCH  46  47
HETATM   47  O9  UNL     1     -13.838   7.727  16.547  1.00  0.00    -0.401 OA
HETATM   48  H33 UNL     1     -13.291   7.156  17.114  1.00  0.00     0.209 HD
ENDBRANCH  46  47
ENDBRANCH  45  46
ENDBRANCH  44  45
ENDBRANCH  24  44
BRANCH  34  49
HETATM   49  O11 UNL     1     -16.248   8.284  23.402  1.00  0.00    -0.389 OA
HETATM   50  H57 UNL     1     -15.585   8.733  22.837  1.00  0.00     0.210 HD
ENDBRANCH  34  49
BRANCH  33  51
HETATM   51  O10 UNL     1     -16.244   7.416  26.029  1.00  0.00    -0.382 OA
HETATM   52  H55 UNL     1     -16.662   8.154  25.539  1.00  0.00     0.210 HD
ENDBRANCH  33  51
BRANCH  14  53
HETATM   53  C17 UNL     1     -15.901   5.547  29.984  1.00  0.00     0.120 C 
BRANCH  53  54
HETATM   54  C18 UNL     1     -15.469   5.451  31.422  1.00  0.00     0.140 C 
HETATM   55  O3  UNL     1     -15.026   4.466  31.999  1.00  0.00    -0.650 OA
BRANCH  54  56
HETATM   56  O4  UNL     1     -15.405   6.662  32.013  1.00  0.00    -0.776 OA
HETATM   57  H21 UNL     1     -15.098   6.471  32.923  1.00  0.00     0.167 HD
ENDBRANCH  54  56
ENDBRANCH  53  54
ENDBRANCH  14  53
BRANCH   1  58
HETATM   58  C2  UNL     1     -16.872   2.627  29.779  1.00  0.00     0.289 C 
HETATM   59  O2  UNL     1     -16.736   1.967  30.792  1.00  0.00    -0.260 OA
BRANCH  58  60
HETATM   60  O1  UNL     1     -18.042   3.142  29.307  1.00  0.00    -0.323 OA
HETATM   61  C1  UNL     1     -18.714   2.309  28.363  1.00  0.00     0.213 C 
ENDBRANCH  58  60
ENDBRANCH   1  58
TORSDOF 13
ENDMDL
MODEL 2
REMARK minimizedAffinity -8.31747723
REMARK CNNscore 0.532221258
REMARK CNNaffinity 8.01980877
REMARK  13 active torsions:
REMARK  status: ('A' for Active; 'I' for Inactive)
REMARK    1  A    between atoms: O1_2  and  C2_3 
REMARK    2  A    between atoms: C2_3  and  C3_5 
REMARK    3  A    between atoms: C16_18  and  C17_19 
REMARK    4  A    between atoms: C17_19  and  C18_20 
REMARK    5  A    between atoms: C18_20  and  O4_22 
REMARK    6  A    between atoms: C24_32  and  C25_33 
REMARK    7  A    between atoms: C25_33  and  C26_34 
REMARK    8  A    between atoms: C26_34  and  C27_35 
REMARK    9  A    between atoms: C27_35  and  O9_36 
REMARK   10  A    between atoms: C29_39  and  C30_40 
REMARK   11  A    between atoms: C30_40  and  C32_42 
REMARK   12  A    between atoms: C43_53  and  O10_54 
REMARK   13  A    between atoms: C44_55  and  O11_56 
ROOT
HETATM    1  C3  UNL     1       3.104   5.553  10.161  1.00  0.00     0.020 C 
HETATM    2  C4  UNL     1       1.834   5.884   9.851  1.00  0.00     0.003 C 
HETATM    3  C5  UNL     1       1.111   7.189  10.269  1.00  0.00     0.026 C 
HETATM    4  C6  UNL     1      -0.014   6.660  11.158  1.00  0.00    -0.012 C 
HETATM    5  C7  UNL     1      -1.077   7.337  11.604  1.00  0.00     0.002 C 
HETATM    6  C8  UNL     1      -1.176   8.819  11.499  1.00  0.00     0.144 C 
HETATM    7  C9  UNL     1      -1.613   9.158  10.085  1.00  0.00     0.036 C 
HETATM    8  C10 UNL     1      -0.414   9.118   9.102  1.00  0.00     0.009 C 
HETATM    9  C11 UNL     1       0.458   7.805   8.955  1.00  0.00     0.007 C 
HETATM   10  C12 UNL     1       1.466   8.024   7.781  1.00  0.00     0.033 C 
HETATM   11  C13 UNL     1       2.949   8.268   7.932  1.00  0.00    -0.030 C 
HETATM   12  C14 UNL     1       3.808   8.270   8.961  1.00  0.00    -0.023 C 
HETATM   13  C15 UNL     1       3.601   7.994  10.443  1.00  0.00     0.047 C 
HETATM   14  C16 UNL     1       4.003   6.550  10.868  1.00  0.00     0.044 C 
HETATM   15  C19 UNL     1       2.135   8.276  10.860  1.00  0.00     0.149 C 
HETATM   16  O5  UNL     1       2.095   8.820  12.188  1.00  0.00    -0.351 OA
HETATM   17  C20 UNL     1       1.930   8.022  13.336  1.00  0.00     0.297 C 
HETATM   18  O6  UNL     1       0.536   7.934  13.652  1.00  0.00    -0.347 OA
HETATM   19  C21 UNL     1      -0.021   9.182  14.096  1.00  0.00     0.191 C 
HETATM   20  C22 UNL     1      -1.549   9.128  13.902  1.00  0.00     0.204 C 
HETATM   21  O7  UNL     1      -2.023   9.332  12.529  1.00  0.00    -0.379 OA
HETATM   22  C23 UNL     1       0.542   9.451  15.529  1.00  0.00     0.148 A 
HETATM   23  O8  UNL     1      -0.465   9.102  16.502  1.00  0.00    -0.332 OA
HETATM   24  C24 UNL     1      -0.933  10.066  17.368  1.00  0.00     0.075 A 
HETATM   25  C28 UNL     1      -0.453  11.315  17.377  1.00  0.00     0.072 A 
HETATM   26  N1  UNL     1      -0.725  12.428  18.123  1.00  0.00    -0.357 N 
HETATM   27  C29 UNL     1       0.102  13.488  17.779  1.00  0.00     0.014 A 
HETATM   28  C38 UNL     1       0.918  13.125  16.757  1.00  0.00     0.039 A 
HETATM   29  C39 UNL     1       0.598  11.739  16.465  1.00  0.00     0.001 A 
HETATM   30  C40 UNL     1       1.103  10.882  15.571  1.00  0.00    -0.027 A 
HETATM   31  C41 UNL     1       2.225  11.178  14.596  1.00  0.00     0.041 C 
HETATM   32  C42 UNL     1       3.252  10.042  14.459  1.00  0.00     0.050 C 
HETATM   33  C43 UNL     1       2.708   8.592  14.584  1.00  0.00     0.136 C 
HETATM   34  C44 UNL     1       1.754   8.495  15.792  1.00  0.00     0.199 C 
HETATM   35  H34 UNL     1      -1.234  12.380  18.998  1.00  0.00     0.166 HD
ENDROOT
BRANCH  27  36
HETATM   36  C30 UNL     1       0.048  14.837  18.457  1.00  0.00     0.035 C 
HETATM   37  C31 UNL     1       0.240  14.695  19.975  1.00  0.00     0.017 C 
BRANCH  36  38
HETATM   38  C32 UNL     1      -1.217  15.647  18.044  1.00  0.00    -0.005 C 
HETATM   39  C33 UNL     1      -1.685  15.446  16.581  1.00  0.00     0.005 C 
HETATM   40  C34 UNL     1      -3.102  14.895  16.470  1.00  0.00     0.000 C 
HETATM   41  C35 UNL     1      -4.118  15.739  17.234  1.00  0.00     0.000 C 
HETATM   42  C36 UNL     1      -3.619  16.196  18.610  1.00  0.00     0.000 C 
HETATM   43  C37 UNL     1      -2.366  15.448  19.052  1.00  0.00     0.005 C 
ENDBRANCH  36  38
ENDBRANCH  27  36
BRANCH  24  44
HETATM   44  C25 UNL     1      -2.054   9.590  18.258  1.00  0.00     0.069 C 
BRANCH  44  45
HETATM   45  C26 UNL     1      -3.387  10.301  18.003  1.00  0.00     0.033 C 
BRANCH  45  46
HETATM   46  C27 UNL     1      -3.909  10.129  16.580  1.00  0.00     0.164 C 
BRANCH  46  47
HETATM   47  O9  UNL     1      -3.884  11.370  15.887  1.00  0.00    -0.401 OA
HETATM   48  H33 UNL     1      -2.952  11.612  15.757  1.00  0.00     0.209 HD
ENDBRANCH  46  47
ENDBRANCH  45  46
ENDBRANCH  44  45
ENDBRANCH  24  44
BRANCH  34  49
HETATM   49  O11 UNL     1       2.486   8.757  17.013  1.00  0.00    -0.389 OA
HETATM   50  H57 UNL     1       2.270   9.663  17.317  1.00  0.00     0.210 HD
ENDBRANCH  34  49
BRANCH  33  51
HETATM   51  O10 UNL     1       3.858   7.753  14.830  1.00  0.00    -0.382 OA
HETATM   52  H55 UNL     1       4.040   7.839  15.789  1.00  0.00     0.210 HD
ENDBRANCH  33  51
BRANCH  14  53
HETATM   53  C17 UNL     1       5.506   6.277  11.040  1.00  0.00     0.120 C 
BRANCH  53  54
HETATM   54  C18 UNL     1       6.345   7.065  12.009  1.00  0.00     0.140 C 
HETATM   55  O3  UNL     1       5.993   7.532  13.085  1.00  0.00    -0.650 OA
BRANCH  54  56
HETATM   56  O4  UNL     1       7.653   7.039  11.684  1.00  0.00    -0.776 OA
HETATM   57  H21 UNL     1       8.089   7.560  12.389  1.00  0.00     0.167 HD
ENDBRANCH  54  56
ENDBRANCH  53  54
ENDBRANCH  14  53
BRANCH   1  58
HETATM   58  C2  UNL     1       3.571   4.177   9.878  1.00  0.00     0.289 C 
HETATM   59  O2  UNL     1       2.980   3.164  10.203  1.00  0.00    -0.260 OA
BRANCH  58  60
HETATM   60  O1  UNL     1       4.689   4.239   9.102  1.00  0.00    -0.323 OA
HETATM   61  C1  UNL     1       4.891   3.099   8.267  1.00  0.00     0.213 C 
ENDBRANCH  58  60
ENDBRANCH   1  58
TORSDOF 13
ENDMDL
MODEL 3
REMARK minimizedAffinity -8.51072025
REMARK CNNscore 0.521007717
REMARK CNNaffinity 8.03791523
REMARK  13 active torsions:
REMARK  status: ('A' for Active; 'I' for Inactive)
REMARK    1  A    between atoms: O1_2  and  C2_3 
REMARK    2  A    between atoms: C2_3  and  C3_5 
REMARK    3  A    between atoms: C16_18  and  C17_19 
REMARK    4  A    between atoms: C17_19  and  C18_20 
REMARK    5  A    between atoms: C18_20  and  O4_22 
REMARK    6  A    between atoms: C24_32  and  C25_33 
REMARK    7  A    between atoms: C25_33  and  C26_34 
REMARK    8  A    between atoms: C26_34  and  C27_35 
REMARK    9  A    between atoms: C27_35  and  O9_36 
REMARK   10  A    between atoms: C29_39  and  C30_40 
REMARK   11  A    between atoms: C30_40  and  C32_42 
REMARK   12  A    between atoms: C43_53  and  O10_54 
REMARK   13  A    between atoms: C44_55  and  O11_56 
ROOT
HETATM    1  C3  UNL     1       3.095   5.555  10.164  1.00  0.00     0.020 C 
HETATM    2  C4  UNL     1       1.825   5.887   9.858  1.00  0.00     0.003 C 
HETATM    3  C5  UNL     1       1.103   7.191  10.276  1.00  0.00     0.026 C 
HETATM    4  C6  UNL     1      -0.020   6.663  11.168  1.00  0.00    -0.012 C 
HETATM    5  C7  UNL     1      -1.082   7.341  11.617  1.00  0.00     0.002 C 
HETATM    6  C8  UNL     1      -1.180   8.823  11.512  1.00  0.00     0.144 C 
HETATM    7  C9  UNL     1      -1.621   9.162  10.098  1.00  0.00     0.036 C 
HETATM    8  C10 UNL     1      -0.424   9.120   9.113  1.00  0.00     0.009 C 
HETATM    9  C11 UNL     1       0.447   7.807   8.964  1.00  0.00     0.007 C 
HETATM   10  C12 UNL     1       1.452   8.026   7.787  1.00  0.00     0.033 C 
HETATM   11  C13 UNL     1       2.936   8.269   7.934  1.00  0.00    -0.030 C 
HETATM   12  C14 UNL     1       3.797   8.272   8.962  1.00  0.00    -0.023 C 
HETATM   13  C15 UNL     1       3.594   7.996  10.444  1.00  0.00     0.047 C 
HETATM   14  C16 UNL     1       3.997   6.552  10.869  1.00  0.00     0.044 C 
HETATM   15  C19 UNL     1       2.129   8.278  10.864  1.00  0.00     0.149 C 
HETATM   16  O5  UNL     1       2.093   8.824  12.193  1.00  0.00    -0.351 OA
HETATM   17  C20 UNL     1       1.930   8.026  13.341  1.00  0.00     0.297 C 
HETATM   18  O6  UNL     1       0.537   7.938  13.661  1.00  0.00    -0.347 OA
HETATM   19  C21 UNL     1      -0.019   9.186  14.106  1.00  0.00     0.191 C 
HETATM   20  C22 UNL     1      -1.547   9.133  13.915  1.00  0.00     0.204 C 
HETATM   21  O7  UNL     1      -2.024   9.337  12.543  1.00  0.00    -0.379 OA
HETATM   22  C23 UNL     1       0.547   9.455  15.538  1.00  0.00     0.148 A 
HETATM   23  O8  UNL     1      -0.457   9.107  16.513  1.00  0.00    -0.332 OA
HETATM   24  C24 UNL     1      -0.923  10.072  17.379  1.00  0.00     0.075 A 
HETATM   25  C28 UNL     1      -0.443  11.321  17.387  1.00  0.00     0.072 A 
HETATM   26  N1  UNL     1      -0.712  12.434  18.134  1.00  0.00    -0.357 N 
HETATM   27  C29 UNL     1       0.114  13.494  17.787  1.00  0.00     0.014 A 
HETATM   28  C38 UNL     1       0.928  13.130  16.762  1.00  0.00     0.039 A 
HETATM   29  C39 UNL     1       0.606  11.744  16.473  1.00  0.00     0.001 A 
HETATM   30  C40 UNL     1       1.110  10.887  15.577  1.00  0.00    -0.027 A 
HETATM   31  C41 UNL     1       2.229  11.182  14.599  1.00  0.00     0.041 C 
HETATM   32  C42 UNL     1       3.255  10.045  14.460  1.00  0.00     0.050 C 
HETATM   33  C43 UNL     1       2.711   8.596  14.588  1.00  0.00     0.136 C 
HETATM   34  C44 UNL     1       1.760   8.499  15.797  1.00  0.00     0.199 C 
HETATM   35  H34 UNL     1      -1.219  12.386  19.010  1.00  0.00     0.166 HD
ENDROOT
BRANCH  27  36
HETATM   36  C30 UNL     1       0.062  14.843  18.464  1.00  0.00     0.035 C 
HETATM   37  C31 UNL     1       0.126  15.977  17.429  1.00  0.00     0.017 C 
BRANCH  36  38
HETATM   38  C32 UNL     1       1.112  14.962  19.609  1.00  0.00    -0.005 C 
HETATM   39  C33 UNL     1       1.282  13.696  20.486  1.00  0.00     0.005 C 
HETATM   40  C34 UNL     1       2.698  13.130  20.464  1.00  0.00     0.000 C 
HETATM   41  C35 UNL     1       3.749  14.172  20.836  1.00  0.00     0.000 C 
HETATM   42  C36 UNL     1       3.501  15.544  20.198  1.00  0.00     0.000 C 
HETATM   43  C37 UNL     1       2.462  15.487  19.082  1.00  0.00     0.005 C 
ENDBRANCH  36  38
ENDBRANCH  27  36
BRANCH  24  44
HETATM   44  C25 UNL     1      -2.042   9.596  18.272  1.00  0.00     0.069 C 
BRANCH  44  45
HETATM   45  C26 UNL     1      -3.372  10.319  18.031  1.00  0.00     0.033 C 
BRANCH  45  46
HETATM   46  C27 UNL     1      -3.869  10.218  16.592  1.00  0.00     0.164 C 
BRANCH  46  47
HETATM   47  O9  UNL     1      -4.359   8.912  16.325  1.00  0.00    -0.401 OA
HETATM   48  H33 UNL     1      -5.168   8.792  16.850  1.00  0.00     0.209 HD
ENDBRANCH  46  47
ENDBRANCH  45  46
ENDBRANCH  44  45
ENDBRANCH  24  44
BRANCH  34  49
HETATM   49  O11 UNL     1       2.495   8.762  17.017  1.00  0.00    -0.389 OA
HETATM   50  H57 UNL     1       2.280   9.668  17.321  1.00  0.00     0.210 HD
ENDBRANCH  34  49
BRANCH  33  51
HETATM   51  O10 UNL     1       3.862   7.756  14.830  1.00  0.00    -0.382 OA
HETATM   52  H55 UNL     1       4.046   7.843  15.789  1.00  0.00     0.210 HD
ENDBRANCH  33  51
BRANCH  14  53
HETATM   53  C17 UNL     1       5.500   6.279  11.037  1.00  0.00     0.120 C 
BRANCH  53  54
HETATM   54  C18 UNL     1       6.344   7.075  11.994  1.00  0.00     0.140 C 
HETATM   55  O3  UNL     1       5.991   7.574  13.056  1.00  0.00    -0.650 OA
BRANCH  54  56
HETATM   56  O4  UNL     1       7.654   7.020  11.680  1.00  0.00    -0.776 OA
HETATM   57  H21 UNL     1       8.093   7.552  12.376  1.00  0.00     0.167 HD
ENDBRANCH  54  56
ENDBRANCH  53  54
ENDBRANCH  14  53
BRANCH   1  58
HETATM   58  C2  UNL     1       3.561   4.179   9.881  1.00  0.00     0.289 C 
HETATM   59  O2  UNL     1       2.967   3.167  10.200  1.00  0.00    -0.260 OA
BRANCH  58  60
HETATM   60  O1  UNL     1       4.683   4.241   9.110  1.00  0.00    -0.323 OA
HETATM   61  C1  UNL     1       4.891   3.100   8.279  1.00  0.00     0.213 C 
ENDBRANCH  58  60
ENDBRANCH   1  58
TORSDOF 13
ENDMDL
MODEL 4
REMARK minimizedAffinity -7.4550643
REMARK CNNscore 0.428012371
REMARK CNNaffinity 7.12431669
REMARK  13 active torsions:
REMARK  status: ('A' for Active; 'I' for Inactive)
REMARK    1  A    between atoms: O1_2  and  C2_3 
REMARK    2  A    between atoms: C2_3  and  C3_5 
REMARK    3  A    between atoms: C16_18  and  C17_19 
REMARK    4  A    between atoms: C17_19  and  C18_20 
REMARK    5  A    between atoms: C18_20  and  O4_22 
REMARK    6  A    between atoms: C24_32  and  C25_33 
REMARK    7  A    between atoms: C25_33  and  C26_34 
REMARK    8  A    between atoms: C26_34  and  C27_35 
REMARK    9  A    between atoms: C27_35  and  O9_36 
REMARK   10  A    between atoms: C29_39  and  C30_40 
REMARK   11  A    between atoms: C30_40  and  C32_42 
REMARK   12  A    between atoms: C43_53  and  O10_54 
REMARK   13  A    between atoms: C44_55  and  O11_56 
ROOT
HETATM    1  C3  UNL     1     -14.457  11.192  13.673  1.00  0.00     0.020 C 
HETATM    2  C4  UNL     1     -13.178  11.135  14.096  1.00  0.00     0.003 C 
HETATM    3  C5  UNL     1     -12.604  10.112  15.107  1.00  0.00     0.026 C 
HETATM    4  C6  UNL     1     -12.183  11.011  16.268  1.00  0.00    -0.012 C 
HETATM    5  C7  UNL     1     -11.421  10.676  17.315  1.00  0.00     0.002 C 
HETATM    6  C8  UNL     1     -11.081   9.261  17.629  1.00  0.00     0.144 C 
HETATM    7  C9  UNL     1      -9.935   8.845  16.723  1.00  0.00     0.036 C 
HETATM    8  C10 UNL     1     -10.448   8.462  15.310  1.00  0.00     0.009 C 
HETATM    9  C11 UNL     1     -11.290   9.495  14.455  1.00  0.00     0.007 C 
HETATM   10  C12 UNL     1     -11.506   8.882  13.034  1.00  0.00     0.033 C 
HETATM   11  C13 UNL     1     -12.806   8.313  12.513  1.00  0.00    -0.030 C 
HETATM   12  C14 UNL     1     -14.063   8.247  12.974  1.00  0.00    -0.023 C 
HETATM   13  C15 UNL     1     -14.689   8.766  14.259  1.00  0.00     0.047 C 
HETATM   14  C16 UNL     1     -15.446  10.116  14.081  1.00  0.00     0.044 C 
HETATM   15  C19 UNL     1     -13.626   8.903  15.379  1.00  0.00     0.149 C 
HETATM   16  O5  UNL     1     -14.203   8.572  16.652  1.00  0.00    -0.351 OA
HETATM   17  C20 UNL     1     -14.764   9.537  17.509  1.00  0.00     0.297 C 
HETATM   18  O6  UNL     1     -13.760   9.998  18.420  1.00  0.00    -0.347 OA
HETATM   19  C21 UNL     1     -13.347   8.994  19.361  1.00  0.00     0.191 C 
HETATM   20  C22 UNL     1     -11.962   9.384  19.912  1.00  0.00     0.204 C 
HETATM   21  O7  UNL     1     -10.825   9.112  19.026  1.00  0.00    -0.379 OA
HETATM   22  C23 UNL     1     -14.526   8.798  20.369  1.00  0.00     0.148 A 
HETATM   23  O8  UNL     1     -14.223   9.508  21.588  1.00  0.00    -0.332 OA
HETATM   24  C24 UNL     1     -14.142   8.811  22.775  1.00  0.00     0.075 A 
HETATM   25  C28 UNL     1     -14.382   7.498  22.853  1.00  0.00     0.072 A 
HETATM   26  N1  UNL     1     -14.385   6.595  23.880  1.00  0.00    -0.357 N 
HETATM   27  C29 UNL     1     -14.762   5.332  23.450  1.00  0.00     0.014 A 
HETATM   28  C38 UNL     1     -14.974   5.344  22.108  1.00  0.00     0.039 A 
HETATM   29  C39 UNL     1     -14.743   6.713  21.683  1.00  0.00     0.001 A 
HETATM   30  C40 UNL     1     -14.826   7.293  20.480  1.00  0.00    -0.027 A 
HETATM   31  C41 UNL     1     -15.232   6.606  19.191  1.00  0.00     0.041 C 
HETATM   32  C42 UNL     1     -16.185   7.434  18.313  1.00  0.00     0.050 C 
HETATM   33  C43 UNL     1     -15.988   8.975  18.331  1.00  0.00     0.136 C 
HETATM   34  C44 UNL     1     -15.817   9.462  19.784  1.00  0.00     0.199 C 
HETATM   35  H34 UNL     1     -14.413   6.884  24.851  1.00  0.00     0.166 HD
ENDROOT
BRANCH  27  36
HETATM   36  C30 UNL     1     -14.881   4.141  24.371  1.00  0.00     0.035 C 
HETATM   37  C31 UNL     1     -15.855   4.436  25.523  1.00  0.00     0.017 C 
BRANCH  36  38
HETATM   38  C32 UNL     1     -13.488   3.616  24.830  1.00  0.00    -0.005 C 
HETATM   39  C33 UNL     1     -13.436   3.050  26.272  1.00  0.00     0.005 C 
HETATM   40  C34 UNL     1     -13.007   1.588  26.332  1.00  0.00     0.000 C 
HETATM   41  C35 UNL     1     -11.679   1.339  25.622  1.00  0.00     0.000 C 
HETATM   42  C36 UNL     1     -11.554   2.082  24.287  1.00  0.00     0.000 C 
HETATM   43  C37 UNL     1     -12.890   2.637  23.802  1.00  0.00     0.005 C 
ENDBRANCH  36  38
ENDBRANCH  27  36
BRANCH  24  44
HETATM   44  C25 UNL     1     -13.718   9.660  23.947  1.00  0.00     0.069 C 
BRANCH  44  45
HETATM   45  C26 UNL     1     -12.244  10.078  23.905  1.00  0.00     0.033 C 
BRANCH  45  46
HETATM   46  C27 UNL     1     -11.294   9.017  24.451  1.00  0.00     0.164 C 
BRANCH  46  47
HETATM   47  O9  UNL     1     -10.657   9.481  25.634  1.00  0.00    -0.401 OA
HETATM   48  H33 UNL     1     -11.339   9.547  26.324  1.00  0.00     0.209 HD
ENDBRANCH  46  47
ENDBRANCH  45  46
ENDBRANCH  44  45
ENDBRANCH  24  44
BRANCH  34  49
HETATM   49  O11 UNL     1     -17.030   9.203  20.530  1.00  0.00    -0.389 OA
HETATM   50  H57 UNL     1     -16.880   8.426  21.107  1.00  0.00     0.210 HD
ENDBRANCH  34  49
BRANCH  33  51
HETATM   51  O10 UNL     1     -17.202   9.540  17.789  1.00  0.00    -0.382 OA
HETATM   52  H55 UNL     1     -17.839   9.545  18.534  1.00  0.00     0.210 HD
ENDBRANCH  33  51
BRANCH  14  53
HETATM   53  C17 UNL     1     -16.843  10.042  13.444  1.00  0.00     0.120 C 
BRANCH  53  54
HETATM   54  C18 UNL     1     -17.050   9.502  12.055  1.00  0.00     0.140 C 
HETATM   55  O3  UNL     1     -16.690  10.011  11.001  1.00  0.00    -0.650 OA
BRANCH  54  56
HETATM   56  O4  UNL     1     -17.506   8.233  12.068  1.00  0.00    -0.776 OA
HETATM   57  H21 UNL     1     -17.579   7.993  11.122  1.00  0.00     0.167 HD
ENDBRANCH  54  56
ENDBRANCH  53  54
ENDBRANCH  14  53
BRANCH   1  58
HETATM   58  C2  UNL     1     -14.894  12.364  12.881  1.00  0.00     0.289 C 
HETATM   59  O2  UNL     1     -15.834  13.082  13.168  1.00  0.00    -0.260 OA
BRANCH  58  60
HETATM   60  O1  UNL     1     -14.009  12.569  11.867  1.00  0.00    -0.323 OA
HETATM   61  C1  UNL     1     -13.670  13.938  11.647  1.00  0.00     0.213 C 
ENDBRANCH  58  60
ENDBRANCH   1  58
TORSDOF 13
ENDMDL
MODEL 5
REMARK minimizedAffinity -6.36563778
REMARK CNNscore 0.318143338
REMARK CNNaffinity 6.40302896
REMARK  13 active torsions:
REMARK  status: ('A' for Active; 'I' for Inactive)
REMARK    1  A    between atoms: O1_2  and  C2_3 
REMARK    2  A    between atoms: C2_3  and  C3_5 
REMARK    3  A    between atoms: C16_18  and  C17_19 
REMARK    4  A    between atoms: C17_19  and  C18_20 
REMARK    5  A    between atoms: C18_20  and  O4_22 
REMARK    6  A    between atoms: C24_32  and  C25_33 
REMARK    7  A    between atoms: C25_33  and  C26_34 
REMARK    8  A    between atoms: C26_34  and  C27_35 
REMARK    9  A    between atoms: C27_35  and  O9_36 
REMARK   10  A    between atoms: C29_39  and  C30_40 
REMARK   11  A    between atoms: C30_40  and  C32_42 
REMARK   12  A    between atoms: C43_53  and  O10_54 
REMARK   13  A    between atoms: C44_55  and  O11_56 
ROOT
HETATM    1  C3  UNL     1     -17.074   8.788  15.057  1.00  0.00     0.020 C 
HETATM    2  C4  UNL     1     -17.815   9.007  16.162  1.00  0.00     0.003 C 
HETATM    3  C5  UNL     1     -17.402   9.883  17.371  1.00  0.00     0.026 C 
HETATM    4  C6  UNL     1     -17.339   8.857  18.501  1.00  0.00    -0.012 C 
HETATM    5  C7  UNL     1     -17.249   9.105  19.813  1.00  0.00     0.002 C 
HETATM    6  C8  UNL     1     -16.930  10.457  20.346  1.00  0.00     0.144 C 
HETATM    7  C9  UNL     1     -18.207  11.279  20.327  1.00  0.00     0.036 C 
HETATM    8  C10 UNL     1     -18.487  11.847  18.911  1.00  0.00     0.009 C 
HETATM    9  C11 UNL     1     -18.609  10.876  17.667  1.00  0.00     0.007 C 
HETATM   10  C12 UNL     1     -19.058  11.725  16.434  1.00  0.00     0.033 C 
HETATM   11  C13 UNL     1     -18.175  12.121  15.273  1.00  0.00    -0.030 C 
HETATM   12  C14 UNL     1     -16.921  11.832  14.897  1.00  0.00    -0.023 C 
HETATM   13  C15 UNL     1     -15.865  10.934  15.523  1.00  0.00     0.047 C 
HETATM   14  C16 UNL     1     -15.767   9.531  14.854  1.00  0.00     0.044 C 
HETATM   15  C19 UNL     1     -16.106  10.775  17.046  1.00  0.00     0.149 C 
HETATM   16  O5  UNL     1     -14.850  10.702  17.740  1.00  0.00    -0.351 OA
HETATM   17  C20 UNL     1     -14.214   9.483  18.038  1.00  0.00     0.297 C 
HETATM   18  O6  UNL     1     -14.618   9.046  19.340  1.00  0.00    -0.347 OA
HETATM   19  C21 UNL     1     -14.123   9.886  20.396  1.00  0.00     0.191 C 
HETATM   20  C22 UNL     1     -15.004   9.672  21.642  1.00  0.00     0.204 C 
HETATM   21  O7  UNL     1     -16.305  10.350  21.625  1.00  0.00    -0.379 OA
HETATM   22  C23 UNL     1     -12.587   9.620  20.511  1.00  0.00     0.148 A 
HETATM   23  O8  UNL     1     -12.345   8.740  21.628  1.00  0.00    -0.332 OA
HETATM   24  C24 UNL     1     -11.545   9.166  22.665  1.00  0.00     0.075 A 
HETATM   25  C28 UNL     1     -10.934  10.356  22.658  1.00  0.00     0.072 A 
HETATM   26  N1  UNL     1     -10.097  10.997  23.529  1.00  0.00    -0.357 N 
HETATM   27  C29 UNL     1      -9.681  12.222  23.030  1.00  0.00     0.014 A 
HETATM   28  C38 UNL     1     -10.269  12.456  21.828  1.00  0.00     0.039 A 
HETATM   29  C39 UNL     1     -11.082  11.286  21.549  1.00  0.00     0.001 A 
HETATM   30  C40 UNL     1     -11.857  10.975  20.504  1.00  0.00    -0.027 A 
HETATM   31  C41 UNL     1     -12.063  11.828  19.268  1.00  0.00     0.041 C 
HETATM   32  C42 UNL     1     -12.052  11.035  17.951  1.00  0.00     0.050 C 
HETATM   33  C43 UNL     1     -12.640   9.598  17.997  1.00  0.00     0.136 C 
HETATM   34  C44 UNL     1     -12.102   8.853  19.235  1.00  0.00     0.199 C 
HETATM   35  H34 UNL     1      -9.617  10.506  24.274  1.00  0.00     0.166 HD
ENDROOT
BRANCH  27  36
HETATM   36  C30 UNL     1      -8.729  13.138  23.763  1.00  0.00     0.035 C 
HETATM   37  C31 UNL     1      -9.496  14.107  24.676  1.00  0.00     0.017 C 
BRANCH  36  38
HETATM   38  C32 UNL     1      -7.724  13.830  22.795  1.00  0.00    -0.005 C 
HETATM   39  C33 UNL     1      -7.382  15.303  23.137  1.00  0.00     0.005 C 
HETATM   40  C34 UNL     1      -5.899  15.533  23.404  1.00  0.00     0.000 C 
HETATM   41  C35 UNL     1      -5.017  15.043  22.259  1.00  0.00     0.000 C 
HETATM   42  C36 UNL     1      -5.454  13.687  21.690  1.00  0.00     0.000 C 
HETATM   43  C37 UNL     1      -6.458  12.975  22.591  1.00  0.00     0.005 C 
ENDBRANCH  36  38
ENDBRANCH  27  36
BRANCH  24  44
HETATM   44  C25 UNL     1     -11.463   8.186  23.810  1.00  0.00     0.069 C 
BRANCH  44  45
HETATM   45  C26 UNL     1     -12.793   7.987  24.545  1.00  0.00     0.033 C 
BRANCH  45  46
HETATM   46  C27 UNL     1     -13.330   9.261  25.191  1.00  0.00     0.164 C 
BRANCH  46  47
HETATM   47  O9  UNL     1     -12.293   9.944  25.883  1.00  0.00    -0.401 OA
HETATM   48  H33 UNL     1     -11.669  10.276  25.216  1.00  0.00     0.209 HD
ENDBRANCH  46  47
ENDBRANCH  45  46
ENDBRANCH  44  45
ENDBRANCH  24  44
BRANCH  34  49
HETATM   49  O11 UNL     1     -10.667   8.697  19.124  1.00  0.00    -0.389 OA
HETATM   50  H57 UNL     1     -10.236   9.345  19.718  1.00  0.00     0.210 HD
ENDBRANCH  34  49
BRANCH  33  51
HETATM   51  O10 UNL     1     -12.163   8.931  16.807  1.00  0.00    -0.382 OA
HETATM   52  H55 UNL     1     -11.253   8.639  17.024  1.00  0.00     0.210 HD
ENDBRANCH  33  51
BRANCH  14  53
HETATM   53  C17 UNL     1     -15.015   9.459  13.515  1.00  0.00     0.120 C 
BRANCH  53  54
HETATM   54  C18 UNL     1     -15.683   9.817  12.215  1.00  0.00     0.140 C 
HETATM   55  O3  UNL     1     -16.014  10.934  11.835  1.00  0.00    -0.650 OA
BRANCH  54  56
HETATM   56  O4  UNL     1     -15.703   8.781  11.354  1.00  0.00    -0.776 OA
HETATM   57  H21 UNL     1     -16.137   9.140  10.553  1.00  0.00     0.167 HD
ENDBRANCH  54  56
ENDBRANCH  53  54
ENDBRANCH  14  53
BRANCH   1  58
HETATM   58  C2  UNL     1     -17.515   7.751  14.097  1.00  0.00     0.289 C 
HETATM   59  O2  UNL     1     -18.248   7.953  13.147  1.00  0.00    -0.260 OA
BRANCH  58  60
HETATM   60  O1  UNL     1     -16.876   6.583  14.382  1.00  0.00    -0.323 OA
HETATM   61  C1  UNL     1     -16.525   5.807  13.237  1.00  0.00     0.213 C 
ENDBRANCH  58  60
ENDBRANCH   1  58
TORSDOF 13
ENDMDL
MODEL 6
REMARK minimizedAffinity -6.95412397
REMARK CNNscore 0.254470706
REMARK CNNaffinity 6.47732592
REMARK  13 active torsions:
REMARK  status: ('A' for Active; 'I' for Inactive)
REMARK    1  A    between atoms: O1_2  and  C2_3 
REMARK    2  A    between atoms: C2_3  and  C3_5 
REMARK    3  A    between atoms: C16_18  and  C17_19 
REMARK    4  A    between atoms: C17_19  and  C18_20 
REMARK    5  A    between atoms: C18_20  and  O4_22 
REMARK    6  A    between atoms: C24_32  and  C25_33 
REMARK    7  A    between atoms: C25_33  and  C26_34 
REMARK    8  A    between atoms: C26_34  and  C27_35 
REMARK    9  A    between atoms: C27_35  and  O9_36 
REMARK   10  A    between atoms: C29_39  and  C30_40 
REMARK   11  A    between atoms: C30_40  and  C32_42 
REMARK   12  A    between atoms: C43_53  and  O10_54 
REMARK   13  A    between atoms: C44_55  and  O11_56 
ROOT
HETATM    1  C3  UNL     1     -15.297  15.711  18.212  1.00  0.00     0.020 C 
HETATM    2  C4  UNL     1     -15.976  14.650  18.693  1.00  0.00     0.003 C 
HETATM    3  C5  UNL     1     -15.383  13.247  18.974  1.00  0.00     0.026 C 
HETATM    4  C6  UNL     1     -16.153  12.371  17.988  1.00  0.00    -0.012 C 
HETATM    5  C7  UNL     1     -16.200  11.035  17.960  1.00  0.00     0.002 C 
HETATM    6  C8  UNL     1     -15.270  10.191  18.758  1.00  0.00     0.144 C 
HETATM    7  C9  UNL     1     -15.798  10.132  20.181  1.00  0.00     0.036 C 
HETATM    8  C10 UNL     1     -15.408  11.404  20.977  1.00  0.00     0.009 C 
HETATM    9  C11 UNL     1     -15.820  12.839  20.448  1.00  0.00     0.007 C 
HETATM   10  C12 UNL     1     -15.437  13.885  21.544  1.00  0.00     0.033 C 
HETATM   11  C13 UNL     1     -14.279  14.852  21.466  1.00  0.00    -0.030 C 
HETATM   12  C14 UNL     1     -13.380  15.179  20.527  1.00  0.00    -0.023 C 
HETATM   13  C15 UNL     1     -13.191  14.683  19.101  1.00  0.00     0.047 C 
HETATM   14  C16 UNL     1     -13.793  15.636  18.026  1.00  0.00     0.044 C 
HETATM   15  C19 UNL     1     -13.777  13.258  18.928  1.00  0.00     0.149 C 
HETATM   16  O5  UNL     1     -12.965  12.497  18.019  1.00  0.00    -0.351 OA
HETATM   17  C20 UNL     1     -13.228  12.425  16.639  1.00  0.00     0.297 C 
HETATM   18  O6  UNL     1     -14.061  11.290  16.375  1.00  0.00    -0.347 OA
HETATM   19  C21 UNL     1     -13.393  10.037  16.599  1.00  0.00     0.191 C 
HETATM   20  C22 UNL     1     -14.462   8.947  16.807  1.00  0.00     0.204 C 
HETATM   21  O7  UNL     1     -15.093   8.920  18.131  1.00  0.00    -0.379 OA
HETATM   22  C23 UNL     1     -12.356   9.858  15.443  1.00  0.00     0.148 A 
HETATM   23  O8  UNL     1     -12.898   8.948  14.463  1.00  0.00    -0.332 OA
HETATM   24  C24 UNL     1     -12.225   7.780  14.178  1.00  0.00     0.075 A 
HETATM   25  C28 UNL     1     -11.052   7.473  14.742  1.00  0.00     0.072 A 
HETATM   26  N1  UNL     1     -10.193   6.416  14.625  1.00  0.00    -0.357 N 
HETATM   27  C29 UNL     1      -9.054   6.595  15.396  1.00  0.00     0.014 A 
HETATM   28  C38 UNL     1      -9.143   7.758  16.091  1.00  0.00     0.039 A 
HETATM   29  C39 UNL     1     -10.408   8.356  15.703  1.00  0.00     0.001 A 
HETATM   30  C40 UNL     1     -10.993   9.504  16.063  1.00  0.00    -0.027 A 
HETATM   31  C41 UNL     1     -10.415  10.532  17.014  1.00  0.00     0.041 C 
HETATM   32  C42 UNL     1     -10.603  11.988  16.554  1.00  0.00     0.050 C 
HETATM   33  C43 UNL     1     -11.911  12.310  15.779  1.00  0.00     0.136 C 
HETATM   34  C44 UNL     1     -12.163  11.228  14.710  1.00  0.00     0.199 C 
HETATM   35  H34 UNL     1     -10.246   5.761  13.853  1.00  0.00     0.166 HD
ENDROOT
BRANCH  27  36
HETATM   36  C30 UNL     1      -7.917   5.601  15.442  1.00  0.00     0.035 C 
HETATM   37  C31 UNL     1      -6.759   6.134  16.301  1.00  0.00     0.017 C 
BRANCH  36  38
HETATM   38  C32 UNL     1      -7.494   5.131  14.018  1.00  0.00    -0.005 C 
HETATM   39  C33 UNL     1      -6.181   5.753  13.478  1.00  0.00     0.005 C 
HETATM   40  C34 UNL     1      -5.108   4.719  13.160  1.00  0.00     0.000 C 
HETATM   41  C35 UNL     1      -5.606   3.635  12.208  1.00  0.00     0.000 C 
HETATM   42  C36 UNL     1      -7.021   3.142  12.532  1.00  0.00     0.000 C 
HETATM   43  C37 UNL     1      -7.493   3.594  13.910  1.00  0.00     0.005 C 
ENDBRANCH  36  38
ENDBRANCH  27  36
BRANCH  24  44
HETATM   44  C25 UNL     1     -12.957   6.879  13.215  1.00  0.00     0.069 C 
BRANCH  44  45
HETATM   45  C26 UNL     1     -14.470   6.825  13.451  1.00  0.00     0.033 C 
BRANCH  45  46
HETATM   46  C27 UNL     1     -15.293   7.197  12.221  1.00  0.00     0.164 C 
BRANCH  46  47
HETATM   47  O9  UNL     1     -15.081   8.558  11.873  1.00  0.00    -0.401 OA
HETATM   48  H33 UNL     1     -14.163   8.639  11.562  1.00  0.00     0.209 HD
ENDBRANCH  46  47
ENDBRANCH  45  46
ENDBRANCH  44  45
ENDBRANCH  24  44
BRANCH  34  49
HETATM   49  O11 UNL     1     -11.098  11.253  13.730  1.00  0.00    -0.389 OA
HETATM   50  H57 UNL     1     -10.500  10.496  13.901  1.00  0.00     0.210 HD
ENDBRANCH  34  49
BRANCH  33  51
HETATM   51  O10 UNL     1     -11.682  13.575  15.118  1.00  0.00    -0.382 OA
HETATM   52  H55 UNL     1     -11.176  13.354  14.308  1.00  0.00     0.210 HD
ENDBRANCH  33  51
BRANCH  14  53
HETATM   53  C17 UNL     1     -12.974  16.891  17.684  1.00  0.00     0.120 C 
BRANCH  53  54
HETATM   54  C18 UNL     1     -11.525  16.804  17.288  1.00  0.00     0.140 C 
HETATM   55  O3  UNL     1     -10.550  16.848  18.028  1.00  0.00    -0.650 OA
BRANCH  54  56
HETATM   56  O4  UNL     1     -11.374  16.443  15.998  1.00  0.00    -0.776 OA
HETATM   57  H21 UNL     1     -10.404  16.402  15.870  1.00  0.00     0.167 HD
ENDBRANCH  54  56
ENDBRANCH  53  54
ENDBRANCH  14  53
BRANCH   1  58
HETATM   58  C2  UNL     1     -16.056  16.910  17.789  1.00  0.00     0.289 C 
HETATM   59  O2  UNL     1     -16.608  17.036  16.713  1.00  0.00    -0.260 OA
BRANCH  58  60
HETATM   60  O1  UNL     1     -16.130  17.779  18.836  1.00  0.00    -0.323 OA
HETATM   61  C1  UNL     1     -16.767  19.019  18.529  1.00  0.00     0.213 C 
ENDBRANCH  58  60
ENDBRANCH   1  58
TORSDOF 13
ENDMDL
MODEL 7
REMARK minimizedAffinity -6.4662323
REMARK CNNscore 0.249932319
REMARK CNNaffinity 6.78975153
REMARK  13 active torsions:
REMARK  status: ('A' for Active; 'I' for Inactive)
REMARK    1  A    between atoms: O1_2  and  C2_3 
REMARK    2  A    between atoms: C2_3  and  C3_5 
REMARK    3  A    between atoms: C16_18  and  C17_19 
REMARK    4  A    between atoms: C17_19  and  C18_20 
REMARK    5  A    between atoms: C18_20  and  O4_22 
REMARK    6  A    between atoms: C24_32  and  C25_33 
REMARK    7  A    between atoms: C25_33  and  C26_34 
REMARK    8  A    between atoms: C26_34  and  C27_35 
REMARK    9  A    between atoms: C27_35  and  O9_36 
REMARK   10  A    between atoms: C29_39  and  C30_40 
REMARK   11  A    between atoms: C30_40  and  C32_42 
REMARK   12  A    between atoms: C43_53  and  O10_54 
REMARK   13  A    between atoms: C44_55  and  O11_56 
ROOT
HETATM    1  C3  UNL     1     -15.245  11.299  14.270  1.00  0.00     0.020 C 
HETATM    2  C4  UNL     1     -13.913  11.331  14.477  1.00  0.00     0.003 C 
HETATM    3  C5  UNL     1     -13.107  10.328  15.339  1.00  0.00     0.026 C 
HETATM    4  C6  UNL     1     -12.567  11.225  16.452  1.00  0.00    -0.012 C 
HETATM    5  C7  UNL     1     -11.620  10.922  17.346  1.00  0.00     0.002 C 
HETATM    6  C8  UNL     1     -11.131   9.530  17.544  1.00  0.00     0.144 C 
HETATM    7  C9  UNL     1     -10.123   9.231  16.447  1.00  0.00     0.036 C 
HETATM    8  C10 UNL     1     -10.833   8.848  15.123  1.00  0.00     0.009 C 
HETATM    9  C11 UNL     1     -11.877   9.835  14.458  1.00  0.00     0.007 C 
HETATM   10  C12 UNL     1     -12.280   9.246  13.068  1.00  0.00     0.033 C 
HETATM   11  C13 UNL     1     -13.602   8.592  12.742  1.00  0.00    -0.030 C 
HETATM   12  C14 UNL     1     -14.758   8.414  13.398  1.00  0.00    -0.023 C 
HETATM   13  C15 UNL     1     -15.200   8.846  14.788  1.00  0.00     0.047 C 
HETATM   14  C16 UNL     1     -16.072  10.137  14.790  1.00  0.00     0.044 C 
HETATM   15  C19 UNL     1     -13.979   9.036  15.724  1.00  0.00     0.149 C 
HETATM   16  O5  UNL     1     -14.312   8.625  17.060  1.00  0.00    -0.351 OA
HETATM   17  C20 UNL     1     -14.793   9.518  18.036  1.00  0.00     0.297 C 
HETATM   18  O6  UNL     1     -13.689  10.032  18.789  1.00  0.00    -0.347 OA
HETATM   19  C21 UNL     1     -13.054   9.037  19.609  1.00  0.00     0.191 C 
HETATM   20  C22 UNL     1     -11.629   9.519  19.943  1.00  0.00     0.204 C 
HETATM   21  O7  UNL     1     -10.638   9.362  18.874  1.00  0.00    -0.379 OA
HETATM   22  C23 UNL     1     -14.033   8.721  20.786  1.00  0.00     0.148 A 
HETATM   23  O8  UNL     1     -13.586   9.418  21.968  1.00  0.00    -0.332 OA
HETATM   24  C24 UNL     1     -13.259   8.698  23.096  1.00  0.00     0.075 A 
HETATM   25  C28 UNL     1     -13.386   7.368  23.160  1.00  0.00     0.072 A 
HETATM   26  N1  UNL     1     -13.154   6.440  24.137  1.00  0.00    -0.357 N 
HETATM   27  C29 UNL     1     -13.503   5.163  23.722  1.00  0.00     0.014 A 
HETATM   28  C38 UNL     1     -13.934   5.196  22.435  1.00  0.00     0.039 A 
HETATM   29  C39 UNL     1     -13.877   6.590  22.033  1.00  0.00     0.001 A 
HETATM   30  C40 UNL     1     -14.200   7.195  20.883  1.00  0.00    -0.027 A 
HETATM   31  C41 UNL     1     -14.762   6.514  19.651  1.00  0.00     0.041 C 
HETATM   32  C42 UNL     1     -15.905   7.289  18.974  1.00  0.00     0.050 C 
HETATM   33  C43 UNL     1     -15.820   8.839  19.022  1.00  0.00     0.136 C 
HETATM   34  C44 UNL     1     -15.448   9.298  20.446  1.00  0.00     0.199 C 
HETATM   35  H34 UNL     1     -13.041   6.699  25.110  1.00  0.00     0.166 HD
ENDROOT
BRANCH  27  36
HETATM   36  C30 UNL     1     -13.381   3.942  24.602  1.00  0.00     0.035 C 
HETATM   37  C31 UNL     1     -12.701   2.789  23.847  1.00  0.00     0.017 C 
BRANCH  36  38
HETATM   38  C32 UNL     1     -14.740   3.560  25.263  1.00  0.00    -0.005 C 
HETATM   39  C33 UNL     1     -15.185   2.090  25.061  1.00  0.00     0.005 C 
HETATM   40  C34 UNL     1     -15.360   1.326  26.369  1.00  0.00     0.000 C 
HETATM   41  C35 UNL     1     -16.307   2.033  27.335  1.00  0.00     0.000 C 
HETATM   42  C36 UNL     1     -16.092   3.550  27.399  1.00  0.00     0.000 C 
HETATM   43  C37 UNL     1     -14.782   3.980  26.745  1.00  0.00     0.005 C 
ENDBRANCH  36  38
ENDBRANCH  27  36
BRANCH  24  44
HETATM   44  C25 UNL     1     -12.710   9.545  24.218  1.00  0.00     0.069 C 
BRANCH  44  45
HETATM   45  C26 UNL     1     -11.188   9.714  24.174  1.00  0.00     0.033 C 
BRANCH  45  46
HETATM   46  C27 UNL     1     -10.741  11.124  23.800  1.00  0.00     0.164 C 
BRANCH  46  47
HETATM   47  O9  UNL     1     -10.061  11.735  24.887  1.00  0.00    -0.401 OA
HETATM   48  H33 UNL     1      -9.222  11.259  25.010  1.00  0.00     0.209 HD
ENDBRANCH  46  47
ENDBRANCH  45  46
ENDBRANCH  44  45
ENDBRANCH  24  44
BRANCH  34  49
HETATM   49  O11 UNL     1     -16.499   8.924  21.369  1.00  0.00    -0.389 OA
HETATM   50  H57 UNL     1     -16.200   8.145  21.882  1.00  0.00     0.210 HD
ENDBRANCH  34  49
BRANCH  33  51
HETATM   51  O10 UNL     1     -17.145   9.322  18.707  1.00  0.00    -0.382 OA
HETATM   52  H55 UNL     1     -17.649   9.256  19.546  1.00  0.00     0.210 HD
ENDBRANCH  33  51
BRANCH  14  53
HETATM   53  C17 UNL     1     -17.546   9.971  14.386  1.00  0.00     0.120 C 
BRANCH  53  54
HETATM   54  C18 UNL     1     -17.939   9.399  13.051  1.00  0.00     0.140 C 
HETATM   55  O3  UNL     1     -17.717   9.878  11.946  1.00  0.00    -0.650 OA
BRANCH  54  56
HETATM   56  O4  UNL     1     -18.399   8.137  13.157  1.00  0.00    -0.776 OA
HETATM   57  H21 UNL     1     -18.599   7.874  12.235  1.00  0.00     0.167 HD
ENDBRANCH  54  56
ENDBRANCH  53  54
ENDBRANCH  14  53
BRANCH   1  58
HETATM   58  C2  UNL     1     -15.892  12.454  13.608  1.00  0.00     0.289 C 
HETATM   59  O2  UNL     1     -16.515  13.324  14.186  1.00  0.00    -0.260 OA
BRANCH  58  60
HETATM   60  O1  UNL     1     -15.571  12.442  12.284  1.00  0.00    -0.323 OA
HETATM   61  C1  UNL     1     -15.296  13.729  11.732  1.00  0.00     0.213 C 
ENDBRANCH  58  60
ENDBRANCH   1  58
TORSDOF 13
ENDMDL
MODEL 8
REMARK minimizedAffinity -7.32788372
REMARK CNNscore 0.219374985
REMARK CNNaffinity 6.39083481
REMARK  13 active torsions:
REMARK  status: ('A' for Active; 'I' for Inactive)
REMARK    1  A    between atoms: O1_2  and  C2_3 
REMARK    2  A    between atoms: C2_3  and  C3_5 
REMARK    3  A    between atoms: C16_18  and  C17_19 
REMARK    4  A    between atoms: C17_19  and  C18_20 
REMARK    5  A    between atoms: C18_20  and  O4_22 
REMARK    6  A    between atoms: C24_32  and  C25_33 
REMARK    7  A    between atoms: C25_33  and  C26_34 
REMARK    8  A    between atoms: C26_34  and  C27_35 
REMARK    9  A    between atoms: C27_35  and  O9_36 
REMARK   10  A    between atoms: C29_39  and  C30_40 
REMARK   11  A    between atoms: C30_40  and  C32_42 
REMARK   12  A    between atoms: C43_53  and  O10_54 
REMARK   13  A    between atoms: C44_55  and  O11_56 
ROOT
HETATM    1  C3  UNL     1     -16.114   9.646  12.577  1.00  0.00     0.020 C 
HETATM    2  C4  UNL     1     -14.967   8.977  12.344  1.00  0.00     0.003 C 
HETATM    3  C5  UNL     1     -13.846   8.714  13.379  1.00  0.00     0.026 C 
HETATM    4  C6  UNL     1     -12.669   9.480  12.776  1.00  0.00    -0.012 C 
HETATM    5  C7  UNL     1     -11.385   9.408  13.143  1.00  0.00     0.002 C 
HETATM    6  C8  UNL     1     -10.955   8.737  14.400  1.00  0.00     0.144 C 
HETATM    7  C9  UNL     1     -10.916   7.241  14.141  1.00  0.00     0.036 C 
HETATM    8  C10 UNL     1     -12.333   6.619  14.235  1.00  0.00     0.009 C 
HETATM    9  C11 UNL     1     -13.508   7.160  13.322  1.00  0.00     0.007 C 
HETATM   10  C12 UNL     1     -14.746   6.228  13.525  1.00  0.00     0.033 C 
HETATM   11  C13 UNL     1     -15.994   6.583  14.299  1.00  0.00    -0.030 C 
HETATM   12  C14 UNL     1     -16.454   7.692  14.897  1.00  0.00    -0.023 C 
HETATM   13  C15 UNL     1     -15.866   9.090  15.008  1.00  0.00     0.047 C 
HETATM   14  C16 UNL     1     -16.463  10.099  13.982  1.00  0.00     0.044 C 
HETATM   15  C19 UNL     1     -14.322   9.055  14.874  1.00  0.00     0.149 C 
HETATM   16  O5  UNL     1     -13.729  10.043  15.732  1.00  0.00    -0.351 OA
HETATM   17  C20 UNL     1     -13.416  11.343  15.296  1.00  0.00     0.297 C 
HETATM   18  O6  UNL     1     -12.064  11.371  14.827  1.00  0.00    -0.347 OA
HETATM   19  C21 UNL     1     -11.099  11.188  15.877  1.00  0.00     0.191 C 
HETATM   20  C22 UNL     1      -9.777  10.713  15.245  1.00  0.00     0.204 C 
HETATM   21  O7  UNL     1      -9.726   9.298  14.865  1.00  0.00    -0.379 OA
HETATM   22  C23 UNL     1     -11.094  12.500  16.727  1.00  0.00     0.148 A 
HETATM   23  O8  UNL     1      -9.953  13.299  16.350  1.00  0.00    -0.332 OA
HETATM   24  C24 UNL     1      -9.009  13.622  17.300  1.00  0.00     0.075 A 
HETATM   25  C28 UNL     1      -9.131  13.263  18.584  1.00  0.00     0.072 A 
HETATM   26  N1  UNL     1      -8.367  13.463  19.700  1.00  0.00    -0.357 N 
HETATM   27  C29 UNL     1      -8.965  12.928  20.831  1.00  0.00     0.014 A 
HETATM   28  C38 UNL     1     -10.126  12.310  20.493  1.00  0.00     0.039 A 
HETATM   29  C39 UNL     1     -10.274  12.499  19.061  1.00  0.00     0.001 A 
HETATM   30  C40 UNL     1     -11.234  12.118  18.211  1.00  0.00    -0.027 A 
HETATM   31  C41 UNL     1     -12.494  11.361  18.580  1.00  0.00     0.041 C 
HETATM   32  C42 UNL     1     -13.763  11.878  17.881  1.00  0.00     0.050 C 
HETATM   33  C43 UNL     1     -13.590  12.420  16.436  1.00  0.00     0.136 C 
HETATM   34  C44 UNL     1     -12.361  13.348  16.370  1.00  0.00     0.199 C 
HETATM   35  H34 UNL     1      -7.637  14.165  19.734  1.00  0.00     0.166 HD
ENDROOT
BRANCH  27  36
HETATM   36  C30 UNL     1      -8.362  13.023  22.213  1.00  0.00     0.035 C 
HETATM   37  C31 UNL     1      -9.460  13.040  23.288  1.00  0.00     0.017 C 
BRANCH  36  38
HETATM   38  C32 UNL     1      -7.339  14.192  22.324  1.00  0.00    -0.005 C 
HETATM   39  C33 UNL     1      -7.728  15.322  23.311  1.00  0.00     0.005 C 
HETATM   40  C34 UNL     1      -6.717  15.520  24.433  1.00  0.00     0.000 C 
HETATM   41  C35 UNL     1      -5.301  15.745  23.910  1.00  0.00     0.000 C 
HETATM   42  C36 UNL     1      -4.927  14.821  22.746  1.00  0.00     0.000 C 
HETATM   43  C37 UNL     1      -5.912  13.668  22.579  1.00  0.00     0.005 C 
ENDBRANCH  36  38
ENDBRANCH  27  36
BRANCH  24  44
HETATM   44  C25 UNL     1      -7.822  14.370  16.746  1.00  0.00     0.069 C 
BRANCH  44  45
HETATM   45  C26 UNL     1      -6.545  13.527  16.666  1.00  0.00     0.033 C 
BRANCH  45  46
HETATM   46  C27 UNL     1      -5.399  14.223  15.939  1.00  0.00     0.164 C 
BRANCH  46  47
HETATM   47  O9  UNL     1      -5.634  14.239  14.538  1.00  0.00    -0.401 OA
HETATM   48  H33 UNL     1      -6.392  14.827  14.377  1.00  0.00     0.209 HD
ENDBRANCH  46  47
ENDBRANCH  45  46
ENDBRANCH  44  45
ENDBRANCH  24  44
BRANCH  34  49
HETATM   49  O11 UNL     1     -12.578  14.506  17.211  1.00  0.00    -0.389 OA
HETATM   50  H57 UNL     1     -12.057  14.396  18.033  1.00  0.00     0.210 HD
ENDBRANCH  34  49
BRANCH  33  51
HETATM   51  O10 UNL     1     -14.776  13.197  16.155  1.00  0.00    -0.382 OA
HETATM   52  H55 UNL     1     -14.618  14.069  16.574  1.00  0.00     0.210 HD
ENDBRANCH  33  51
BRANCH  14  53
HETATM   53  C17 UNL     1     -17.852  10.670  14.309  1.00  0.00     0.120 C 
BRANCH  53  54
HETATM   54  C18 UNL     1     -18.954   9.803  14.853  1.00  0.00     0.140 C 
HETATM   55  O3  UNL     1     -19.538   8.895  14.273  1.00  0.00    -0.650 OA
BRANCH  54  56
HETATM   56  O4  UNL     1     -19.120   9.970  16.181  1.00  0.00    -0.776 OA
HETATM   57  H21 UNL     1     -19.839   9.347  16.415  1.00  0.00     0.167 HD
ENDBRANCH  54  56
ENDBRANCH  53  54
ENDBRANCH  14  53
BRANCH   1  58
HETATM   58  C2  UNL     1     -16.977  10.004  11.428  1.00  0.00     0.289 C 
HETATM   59  O2  UNL     1     -17.200  11.141  11.057  1.00  0.00    -0.260 OA
BRANCH  58  60
HETATM   60  O1  UNL     1     -17.371   8.862  10.797  1.00  0.00    -0.323 OA
HETATM   61  C1  UNL     1     -18.730   8.497  11.034  1.00  0.00     0.213 C 
ENDBRANCH  58  60
ENDBRANCH   1  58
TORSDOF 13
ENDMDL
MODEL 9
REMARK minimizedAffinity -7.49371481
REMARK CNNscore 0.197285384
REMARK CNNaffinity 6.64555168
REMARK  13 active torsions:
REMARK  status: ('A' for Active; 'I' for Inactive)
REMARK    1  A    between atoms: O1_2  and  C2_3 
REMARK    2  A    between atoms: C2_3  and  C3_5 
REMARK    3  A    between atoms: C16_18  and  C17_19 
REMARK    4  A    between atoms: C17_19  and  C18_20 
REMARK    5  A    between atoms: C18_20  and  O4_22 
REMARK    6  A    between atoms: C24_32  and  C25_33 
REMARK    7  A    between atoms: C25_33  and  C26_34 
REMARK    8  A    between atoms: C26_34  and  C27_35 
REMARK    9  A    between atoms: C27_35  and  O9_36 
REMARK   10  A    between atoms: C29_39  and  C30_40 
REMARK   11  A    between atoms: C30_40  and  C32_42 
REMARK   12  A    between atoms: C43_53  and  O10_54 
REMARK   13  A    between atoms: C44_55  and  O11_56 
ROOT
HETATM    1  C3  UNL     1     -16.281   9.542  12.364  1.00  0.00     0.020 C 
HETATM    2  C4  UNL     1     -15.192   8.761  12.216  1.00  0.00     0.003 C 
HETATM    3  C5  UNL     1     -14.073   8.560  13.267  1.00  0.00     0.026 C 
HETATM    4  C6  UNL     1     -12.855   9.143  12.552  1.00  0.00    -0.012 C 
HETATM    5  C7  UNL     1     -11.572   9.024  12.913  1.00  0.00     0.002 C 
HETATM    6  C8  UNL     1     -11.168   8.504  14.248  1.00  0.00     0.144 C 
HETATM    7  C9  UNL     1     -11.246   6.988  14.201  1.00  0.00     0.036 C 
HETATM    8  C10 UNL     1     -12.704   6.496  14.394  1.00  0.00     0.009 C 
HETATM    9  C11 UNL     1     -13.853   6.993  13.426  1.00  0.00     0.007 C 
HETATM   10  C12 UNL     1     -15.152   6.195  13.770  1.00  0.00     0.033 C 
HETATM   11  C13 UNL     1     -16.355   6.749  14.498  1.00  0.00    -0.030 C 
HETATM   12  C14 UNL     1     -16.719   7.962  14.939  1.00  0.00    -0.023 C 
HETATM   13  C15 UNL     1     -16.026   9.313  14.847  1.00  0.00     0.047 C 
HETATM   14  C16 UNL     1     -16.567  10.212  13.695  1.00  0.00     0.044 C 
HETATM   15  C19 UNL     1     -14.493   9.141  14.704  1.00  0.00     0.149 C 
HETATM   16  O5  UNL     1     -13.810  10.191  15.410  1.00  0.00    -0.351 OA
HETATM   17  C20 UNL     1     -13.410  11.390  14.792  1.00  0.00     0.297 C 
HETATM   18  O6  UNL     1     -12.069  11.249  14.311  1.00  0.00    -0.347 OA
HETATM   19  C21 UNL     1     -11.100  11.141  15.366  1.00  0.00     0.191 C 
HETATM   20  C22 UNL     1      -9.829  10.483  14.795  1.00  0.00     0.204 C 
HETATM   21  O7  UNL     1      -9.892   9.028  14.617  1.00  0.00    -0.379 OA
HETATM   22  C23 UNL     1     -10.980  12.554  16.024  1.00  0.00     0.148 A 
HETATM   23  O8  UNL     1      -9.791  13.203  15.528  1.00  0.00    -0.332 OA
HETATM   24  C24 UNL     1      -8.806  13.582  16.414  1.00  0.00     0.075 A 
HETATM   25  C28 UNL     1      -8.928  13.416  17.736  1.00  0.00     0.072 A 
HETATM   26  N1  UNL     1      -8.129  13.710  18.806  1.00  0.00    -0.357 N 
HETATM   27  C29 UNL     1      -8.742  13.385  20.007  1.00  0.00     0.014 A 
HETATM   28  C38 UNL     1      -9.953  12.817  19.769  1.00  0.00     0.039 A 
HETATM   29  C39 UNL     1     -10.115  12.816  18.327  1.00  0.00     0.001 A 
HETATM   30  C40 UNL     1     -11.119  12.394  17.548  1.00  0.00    -0.027 A 
HETATM   31  C41 UNL     1     -12.423  11.795  18.032  1.00  0.00     0.041 C 
HETATM   32  C42 UNL     1     -13.664  12.305  17.279  1.00  0.00     0.050 C 
HETATM   33  C43 UNL     1     -13.481  12.626  15.770  1.00  0.00     0.136 C 
HETATM   34  C44 UNL     1     -12.187  13.439  15.563  1.00  0.00     0.199 C 
HETATM   35  H34 UNL     1      -7.349  14.352  18.734  1.00  0.00     0.166 HD
ENDROOT
BRANCH  27  36
HETATM   36  C30 UNL     1      -8.107  13.626  21.356  1.00  0.00     0.035 C 
HETATM   37  C31 UNL     1      -6.578  13.716  21.232  1.00  0.00     0.017 C 
BRANCH  36  38
HETATM   38  C32 UNL     1      -8.603  12.606  22.425  1.00  0.00    -0.005 C 
HETATM   39  C33 UNL     1      -8.613  13.129  23.884  1.00  0.00     0.005 C 
HETATM   40  C34 UNL     1      -9.996  13.107  24.524  1.00  0.00     0.000 C 
HETATM   41  C35 UNL     1     -10.650  11.730  24.455  1.00  0.00     0.000 C 
HETATM   42  C36 UNL     1     -10.461  11.032  23.103  1.00  0.00     0.000 C 
HETATM   43  C37 UNL     1      -9.954  11.983  22.023  1.00  0.00     0.005 C 
ENDBRANCH  36  38
ENDBRANCH  27  36
BRANCH  24  44
HETATM   44  C25 UNL     1      -7.579  14.153  15.749  1.00  0.00     0.069 C 
BRANCH  44  45
HETATM   45  C26 UNL     1      -6.340  14.167  16.651  1.00  0.00     0.033 C 
BRANCH  45  46
HETATM   46  C27 UNL     1      -5.380  13.011  16.386  1.00  0.00     0.164 C 
BRANCH  46  47
HETATM   47  O9  UNL     1      -4.710  13.193  15.147  1.00  0.00    -0.401 OA
HETATM   48  H33 UNL     1      -4.118  13.958  15.246  1.00  0.00     0.209 HD
ENDBRANCH  46  47
ENDBRANCH  45  46
ENDBRANCH  44  45
ENDBRANCH  24  44
BRANCH  34  49
HETATM   49  O11 UNL     1     -12.301  14.716  16.235  1.00  0.00    -0.389 OA
HETATM   50  H57 UNL     1     -11.773  14.682  17.060  1.00  0.00     0.210 HD
ENDBRANCH  34  49
BRANCH  33  51
HETATM   51  O10 UNL     1     -14.611  13.444  15.395  1.00  0.00    -0.382 OA
HETATM   52  H55 UNL     1     -14.380  14.351  15.686  1.00  0.00     0.210 HD
ENDBRANCH  33  51
BRANCH  14  53
HETATM   53  C17 UNL     1     -17.903  10.928  13.951  1.00  0.00     0.120 C 
BRANCH  53  54
HETATM   54  C18 UNL     1     -19.217  10.199  13.869  1.00  0.00     0.140 C 
HETATM   55  O3  UNL     1     -19.595   9.270  14.572  1.00  0.00    -0.650 OA
BRANCH  54  56
HETATM   56  O4  UNL     1     -20.089  10.819  13.048  1.00  0.00    -0.776 OA
HETATM   57  H21 UNL     1     -20.898  10.269  13.095  1.00  0.00     0.167 HD
ENDBRANCH  54  56
ENDBRANCH  53  54
ENDBRANCH  14  53
BRANCH   1  58
HETATM   58  C2  UNL     1     -17.138   9.801  11.185  1.00  0.00     0.289 C 
HETATM   59  O2  UNL     1     -17.339  10.900  10.703  1.00  0.00    -0.260 OA
BRANCH  58  60
HETATM   60  O1  UNL     1     -17.555   8.611  10.670  1.00  0.00    -0.323 OA
HETATM   61  C1  UNL     1     -18.747   8.096  11.263  1.00  0.00     0.213 C 
ENDBRANCH  58  60
ENDBRANCH   1  58
TORSDOF 13
ENDMDL
