MODEL 1
REMARK minimizedAffinity -8.2935276
REMARK CNNscore 0.95340544
REMARK CNNaffinity 7.16039515
REMARK  12 active torsions:
REMARK  status: ('A' for Active; 'I' for Inactive)
REMARK    1  A    between atoms: O1_2  and  C2_3 
REMARK    2  A    between atoms: C2_3  and  C3_4 
REMARK    3  A    between atoms: C3_4  and  C4_5 
REMARK    4  A    between atoms: C4_5  and  O2_6 
REMARK    5  A    between atoms: O2_6  and  C5_7 
REMARK    6  A    between atoms: C20_23  and  C21_24 
REMARK    7  A    between atoms: C21_24  and  O4_26 
REMARK    8  A    between atoms: C21_24  and  C23_27 
REMARK    9  A    between atoms: C23_27  and  O5_28 
REMARK   10  A    between atoms: C23_27  and  C24_29 
REMARK   11  A    between atoms: C33_40  and  O7_41 
REMARK   12  A    between atoms: C38_46  and  O8_47 
ROOT
HETATM    1  C5  UNL     1       9.226  16.524  23.801  1.00  0.00     0.122 C 
HETATM    2  C6  UNL     1       8.012  16.171  24.656  1.00  0.00     0.033 C 
HETATM    3  C7  UNL     1       6.668  16.242  23.920  1.00  0.00     0.013 C 
HETATM    4  C8  UNL     1       6.683  15.769  22.425  1.00  0.00    -0.026 C 
HETATM    5  C9  UNL     1       6.609  17.039  21.540  1.00  0.00     0.016 C 
HETATM    6  C10 UNL     1       7.988  14.994  22.128  1.00  0.00     0.071 C 
HETATM    7  C11 UNL     1       9.243  15.834  22.425  1.00  0.00     0.045 C 
HETATM    8  C12 UNL     1       8.033  13.672  22.891  1.00  0.00     0.154 C 
HETATM    9  O3  UNL     1       9.074  13.162  23.299  1.00  0.00    -0.293 OA
HETATM   10  C13 UNL     1       6.773  12.921  23.070  1.00  0.00     0.057 C 
HETATM   11  C14 UNL     1       5.598  13.431  22.672  1.00  0.00    -0.037 C 
HETATM   12  C15 UNL     1       5.427  14.859  22.142  1.00  0.00     0.026 C 
HETATM   13  C16 UNL     1       4.947  14.788  20.667  1.00  0.00     0.011 C 
HETATM   14  C17 UNL     1       3.730  13.850  20.455  1.00  0.00     0.014 C 
HETATM   15  C18 UNL     1       3.956  12.444  21.059  1.00  0.00    -0.002 C 
HETATM   16  C19 UNL     1       5.080  11.743  20.250  1.00  0.00     0.019 C 
HETATM   17  C20 UNL     1       2.679  11.542  21.187  1.00  0.00     0.034 C 
HETATM   18  C36 UNL     1       3.039  10.576  22.355  1.00  0.00     0.012 C 
HETATM   19  C37 UNL     1       4.251  11.179  23.097  1.00  0.00     0.044 C 
HETATM   20  C38 UNL     1       4.330  12.614  22.574  1.00  0.00     0.089 C 
ENDROOT
BRANCH  17  21
HETATM   21  C21 UNL     1       1.998  10.863  19.944  1.00  0.00     0.087 C 
HETATM   22  C22 UNL     1       0.473  10.673  20.077  1.00  0.00     0.049 C 
BRANCH  21  23
HETATM   23  O4  UNL     1       2.574   9.565  19.760  1.00  0.00    -0.387 OA
HETATM   24  H34 UNL     1       2.206   8.962  20.429  1.00  0.00     0.210 HD
ENDBRANCH  21  23
BRANCH  21  25
HETATM   25  C23 UNL     1       2.314  11.711  18.651  1.00  0.00     0.181 C 
BRANCH  25  26
HETATM   26  O5  UNL     1       1.421  12.840  18.587  1.00  0.00    -0.390 OA
HETATM   27  H36 UNL     1       1.412  13.096  17.638  1.00  0.00     0.210 HD
ENDBRANCH  25  26
BRANCH  25  28
HETATM   28  C24 UNL     1       2.196  10.951  17.313  1.00  0.00     0.158 C 
HETATM   29  O6  UNL     1       2.383   9.516  17.564  1.00  0.00    -0.373 OA
HETATM   30  C25 UNL     1       2.017   8.911  16.314  1.00  0.00     0.185 C 
HETATM   31  C26 UNL     1       0.686   9.570  16.052  1.00  0.00     0.028 C 
HETATM   32  C33 UNL     1       1.829   7.385  16.325  1.00  0.00     0.384 C 
HETATM   33  C27 UNL     1       0.207   9.243  14.640  1.00  0.00     0.049 C 
HETATM   34  C34 UNL     1       0.918  11.037  16.437  1.00  0.00     0.020 C 
HETATM   35  C28 UNL     1       0.580   7.776  14.228  1.00  0.00     0.161 C 
HETATM   36  C29 UNL     1      -0.533   7.167  13.351  1.00  0.00     0.041 C 
HETATM   37  C32 UNL     1       1.752   7.736  13.226  1.00  0.00     0.041 C 
HETATM   38  N1  UNL     1       0.809   6.896  15.391  1.00  0.00     0.124 N 
HETATM   39  C30 UNL     1      -0.348   7.825  11.986  1.00  0.00     0.003 C 
HETATM   40  C31 UNL     1       1.146   8.111  11.873  1.00  0.00     0.003 C 
HETATM   41  H50 UNL     1      -0.070   6.822  15.906  1.00  0.00     0.320 HD
HETATM   42  C35 UNL     1      -0.349  11.590  17.083  1.00  0.00     0.013 C 
BRANCH  32  43
HETATM   43  O7  UNL     1       3.039   6.743  15.981  1.00  0.00    -0.366 OA
HETATM   44  H52 UNL     1       2.733   5.963  15.488  1.00  0.00     0.212 HD
ENDBRANCH  32  43
ENDBRANCH  25  28
ENDBRANCH  21  25
ENDBRANCH  17  21
BRANCH  20  45
HETATM   45  O8  UNL     1       3.338  13.381  23.279  1.00  0.00    -0.384 OA
HETATM   46  H61 UNL     1       2.630  12.795  23.593  1.00  0.00     0.211 HD
ENDBRANCH  20  45
BRANCH   1  47
HETATM   47  O2  UNL     1       9.226  17.950  23.646  1.00  0.00    -0.386 OA
BRANCH  47  48
HETATM   48  C4  UNL     1      10.458  18.572  24.010  1.00  0.00     0.170 C 
BRANCH  48  49
HETATM   49  C3  UNL     1      10.335  19.232  25.379  1.00  0.00     0.052 C 
BRANCH  49  50
HETATM   50  C2  UNL     1      11.298  20.403  25.571  1.00  0.00     0.169 C 
BRANCH  50  51
HETATM   51  O1  UNL     1      11.858  20.850  24.337  1.00  0.00    -0.396 OA
HETATM   52  C1  UNL     1      13.208  21.280  24.455  1.00  0.00     0.201 C 
ENDBRANCH  50  51
ENDBRANCH  49  50
ENDBRANCH  48  49
ENDBRANCH  47  48
ENDBRANCH   1  47
TORSDOF 12
ENDMDL
MODEL 2
REMARK minimizedAffinity -9.04368114
REMARK CNNscore 0.80008328
REMARK CNNaffinity 7.43696022
REMARK  12 active torsions:
REMARK  status: ('A' for Active; 'I' for Inactive)
REMARK    1  A    between atoms: O1_2  and  C2_3 
REMARK    2  A    between atoms: C2_3  and  C3_4 
REMARK    3  A    between atoms: C3_4  and  C4_5 
REMARK    4  A    between atoms: C4_5  and  O2_6 
REMARK    5  A    between atoms: O2_6  and  C5_7 
REMARK    6  A    between atoms: C20_23  and  C21_24 
REMARK    7  A    between atoms: C21_24  and  O4_26 
REMARK    8  A    between atoms: C21_24  and  C23_27 
REMARK    9  A    between atoms: C23_27  and  O5_28 
REMARK   10  A    between atoms: C23_27  and  C24_29 
REMARK   11  A    between atoms: C33_40  and  O7_41 
REMARK   12  A    between atoms: C38_46  and  O8_47 
ROOT
HETATM    1  C5  UNL     1       4.477  11.484  22.971  1.00  0.00     0.122 C 
HETATM    2  C6  UNL     1       3.096  12.098  23.190  1.00  0.00     0.033 C 
HETATM    3  C7  UNL     1       2.619  13.020  22.062  1.00  0.00     0.013 C 
HETATM    4  C8  UNL     1       3.011  12.580  20.609  1.00  0.00    -0.026 C 
HETATM    5  C9  UNL     1       4.157  13.510  20.139  1.00  0.00     0.016 C 
HETATM    6  C10 UNL     1       3.491  11.109  20.614  1.00  0.00     0.071 C 
HETATM    7  C11 UNL     1       4.680  10.890  21.566  1.00  0.00     0.045 C 
HETATM    8  C12 UNL     1       2.349  10.154  20.949  1.00  0.00     0.154 C 
HETATM    9  O3  UNL     1       2.508   9.097  21.556  1.00  0.00    -0.293 OA
HETATM   10  C13 UNL     1       0.997  10.469  20.443  1.00  0.00     0.057 C 
HETATM   11  C14 UNL     1       0.748  11.618  19.795  1.00  0.00    -0.037 C 
HETATM   12  C15 UNL     1       1.770  12.750  19.649  1.00  0.00     0.026 C 
HETATM   13  C16 UNL     1       2.090  12.940  18.141  1.00  0.00     0.011 C 
HETATM   14  C17 UNL     1       0.826  13.067  17.251  1.00  0.00     0.014 C 
HETATM   15  C18 UNL     1      -0.182  11.918  17.490  1.00  0.00    -0.002 C 
HETATM   16  C19 UNL     1       0.461  10.596  16.993  1.00  0.00     0.019 C 
HETATM   17  C20 UNL     1      -1.616  12.131  16.891  1.00  0.00     0.034 C 
HETATM   18  C36 UNL     1      -2.519  11.246  17.799  1.00  0.00     0.012 C 
HETATM   19  C37 UNL     1      -1.708  10.906  19.068  1.00  0.00     0.044 C 
HETATM   20  C38 UNL     1      -0.524  11.874  19.021  1.00  0.00     0.089 C 
ENDROOT
BRANCH  17  21
HETATM   21  C21 UNL     1      -1.910  12.025  15.350  1.00  0.00     0.087 C 
HETATM   22  C22 UNL     1      -0.794  12.592  14.448  1.00  0.00     0.049 C 
BRANCH  21  23
HETATM   23  O4  UNL     1      -3.105  12.759  15.061  1.00  0.00    -0.387 OA
HETATM   24  H34 UNL     1      -2.897  13.710  15.067  1.00  0.00     0.210 HD
ENDBRANCH  21  23
BRANCH  21  25
HETATM   25  C23 UNL     1      -2.178  10.516  14.975  1.00  0.00     0.181 C 
BRANCH  25  26
HETATM   26  O5  UNL     1      -2.389   9.752  16.178  1.00  0.00    -0.390 OA
HETATM   27  H36 UNL     1      -2.186   8.825  15.923  1.00  0.00     0.210 HD
ENDBRANCH  25  26
BRANCH  25  28
HETATM   28  C24 UNL     1      -1.054   9.821  14.178  1.00  0.00     0.158 C 
HETATM   29  O6  UNL     1      -0.441   8.788  15.023  1.00  0.00    -0.373 OA
HETATM   30  C25 UNL     1       0.403   8.070  14.108  1.00  0.00     0.185 C 
HETATM   31  C26 UNL     1      -0.561   7.796  12.980  1.00  0.00     0.028 C 
HETATM   32  C33 UNL     1       0.975   6.736  14.615  1.00  0.00     0.384 C 
HETATM   33  C27 UNL     1       0.188   7.230  11.777  1.00  0.00     0.049 C 
HETATM   34  C34 UNL     1      -1.332   9.113  12.825  1.00  0.00     0.020 C 
HETATM   35  C28 UNL     1       1.352   6.275  12.215  1.00  0.00     0.161 C 
HETATM   36  C29 UNL     1       1.495   5.110  11.215  1.00  0.00     0.041 C 
HETATM   37  C32 UNL     1       2.736   6.934  12.046  1.00  0.00     0.041 C 
HETATM   38  N1  UNL     1       1.158   5.722  13.571  1.00  0.00     0.124 N 
HETATM   39  C30 UNL     1       2.176   5.731   9.999  1.00  0.00     0.003 C 
HETATM   40  C31 UNL     1       3.047   6.855  10.551  1.00  0.00     0.003 C 
HETATM   41  H50 UNL     1       0.317   5.141  13.555  1.00  0.00     0.320 HD
HETATM   42  C35 UNL     1      -2.784   8.803  12.472  1.00  0.00     0.013 C 
BRANCH  32  43
HETATM   43  O7  UNL     1       2.241   6.945  15.207  1.00  0.00    -0.366 OA
HETATM   44  H52 UNL     1       2.720   6.131  14.975  1.00  0.00     0.212 HD
ENDBRANCH  32  43
ENDBRANCH  25  28
ENDBRANCH  21  25
ENDBRANCH  17  21
BRANCH  20  45
HETATM   45  O8  UNL     1      -0.996  13.148  19.493  1.00  0.00    -0.384 OA
HETATM   46  H61 UNL     1      -1.954  13.218  19.353  1.00  0.00     0.211 HD
ENDBRANCH  20  45
BRANCH   1  47
HETATM   47  O2  UNL     1       5.437  12.520  23.220  1.00  0.00    -0.386 OA
BRANCH  47  48
HETATM   48  C4  UNL     1       6.728  12.257  22.670  1.00  0.00     0.170 C 
BRANCH  48  49
HETATM   49  C3  UNL     1       7.741  13.276  23.181  1.00  0.00     0.052 C 
BRANCH  49  50
HETATM   50  C2  UNL     1       9.187  12.899  22.863  1.00  0.00     0.169 C 
BRANCH  50  51
HETATM   51  O1  UNL     1       9.273  11.781  21.980  1.00  0.00    -0.396 OA
HETATM   52  C1  UNL     1       9.967  12.071  20.773  1.00  0.00     0.201 C 
ENDBRANCH  50  51
ENDBRANCH  49  50
ENDBRANCH  48  49
ENDBRANCH  47  48
ENDBRANCH   1  47
TORSDOF 12
ENDMDL
MODEL 3
REMARK minimizedAffinity -8.14550114
REMARK CNNscore 0.730799913
REMARK CNNaffinity 6.96575403
REMARK  12 active torsions:
REMARK  status: ('A' for Active; 'I' for Inactive)
REMARK    1  A    between atoms: O1_2  and  C2_3 
REMARK    2  A    between atoms: C2_3  and  C3_4 
REMARK    3  A    between atoms: C3_4  and  C4_5 
REMARK    4  A    between atoms: C4_5  and  O2_6 
REMARK    5  A    between atoms: O2_6  and  C5_7 
REMARK    6  A    between atoms: C20_23  and  C21_24 
REMARK    7  A    between atoms: C21_24  and  O4_26 
REMARK    8  A    between atoms: C21_24  and  C23_27 
REMARK    9  A    between atoms: C23_27  and  O5_28 
REMARK   10  A    between atoms: C23_27  and  C24_29 
REMARK   11  A    between atoms: C33_40  and  O7_41 
REMARK   12  A    between atoms: C38_46  and  O8_47 
ROOT
HETATM    1  C5  UNL     1      -5.937  16.259  19.051  1.00  0.00     0.122 C 
HETATM    2  C6  UNL     1      -4.460  16.250  18.664  1.00  0.00     0.033 C 
HETATM    3  C7  UNL     1      -3.690  15.001  19.106  1.00  0.00     0.013 C 
HETATM    4  C8  UNL     1      -4.482  13.650  19.034  1.00  0.00    -0.026 C 
HETATM    5  C9  UNL     1      -4.858  13.258  20.485  1.00  0.00     0.016 C 
HETATM    6  C10 UNL     1      -5.763  13.832  18.186  1.00  0.00     0.071 C 
HETATM    7  C11 UNL     1      -6.672  14.943  18.740  1.00  0.00     0.045 C 
HETATM    8  C12 UNL     1      -5.425  14.092  16.721  1.00  0.00     0.154 C 
HETATM    9  O3  UNL     1      -6.112  14.797  15.984  1.00  0.00    -0.293 OA
HETATM   10  C13 UNL     1      -4.264  13.394  16.132  1.00  0.00     0.057 C 
HETATM   11  C14 UNL     1      -3.457  12.631  16.884  1.00  0.00    -0.037 C 
HETATM   12  C15 UNL     1      -3.565  12.528  18.410  1.00  0.00     0.026 C 
HETATM   13  C16 UNL     1      -3.918  11.063  18.785  1.00  0.00     0.011 C 
HETATM   14  C17 UNL     1      -2.999  10.011  18.111  1.00  0.00     0.014 C 
HETATM   15  C18 UNL     1      -2.899  10.209  16.581  1.00  0.00    -0.002 C 
HETATM   16  C19 UNL     1      -4.288   9.904  15.960  1.00  0.00     0.019 C 
HETATM   17  C20 UNL     1      -1.751   9.416  15.862  1.00  0.00     0.034 C 
HETATM   18  C36 UNL     1      -1.469  10.269  14.590  1.00  0.00     0.012 C 
HETATM   19  C37 UNL     1      -2.115  11.654  14.808  1.00  0.00     0.044 C 
HETATM   20  C38 UNL     1      -2.434  11.683  16.305  1.00  0.00     0.089 C 
ENDROOT
BRANCH  17  21
HETATM   21  C21 UNL     1      -1.821   7.864  15.624  1.00  0.00     0.087 C 
HETATM   22  C22 UNL     1      -2.666   7.443  14.403  1.00  0.00     0.049 C 
BRANCH  21  23
HETATM   23  O4  UNL     1      -2.405   7.250  16.777  1.00  0.00    -0.387 OA
HETATM   24  H34 UNL     1      -3.366   7.406  16.762  1.00  0.00     0.210 HD
ENDBRANCH  21  23
BRANCH  21  25
HETATM   25  C23 UNL     1      -0.356   7.295  15.475  1.00  0.00     0.181 C 
BRANCH  25  26
HETATM   26  O5  UNL     1       0.526   7.998  16.372  1.00  0.00    -0.390 OA
HETATM   27  H36 UNL     1       1.422   7.873  15.987  1.00  0.00     0.210 HD
ENDBRANCH  25  26
BRANCH  25  28
HETATM   28  C24 UNL     1       0.252   7.390  14.059  1.00  0.00     0.158 C 
HETATM   29  O6  UNL     1       1.696   7.629  14.178  1.00  0.00    -0.373 OA
HETATM   30  C25 UNL     1       2.171   7.459  12.832  1.00  0.00     0.185 C 
HETATM   31  C26 UNL     1       1.546   6.134  12.471  1.00  0.00     0.028 C 
HETATM   32  C33 UNL     1       3.695   7.360  12.656  1.00  0.00     0.384 C 
HETATM   33  C27 UNL     1       1.733   5.856  10.982  1.00  0.00     0.049 C 
HETATM   34  C34 UNL     1       0.124   6.229  13.038  1.00  0.00     0.020 C 
HETATM   35  C28 UNL     1       3.125   6.363  10.467  1.00  0.00     0.161 C 
HETATM   36  C29 UNL     1       3.680   5.407   9.392  1.00  0.00     0.041 C 
HETATM   37  C32 UNL     1       2.998   7.651   9.629  1.00  0.00     0.041 C 
HETATM   38  N1  UNL     1       4.120   6.496  11.550  1.00  0.00     0.124 N 
HETATM   39  C30 UNL     1       2.863   5.722   8.142  1.00  0.00     0.003 C 
HETATM   40  C31 UNL     1       2.499   7.199   8.256  1.00  0.00     0.003 C 
HETATM   41  H50 UNL     1       4.292   5.565  11.934  1.00  0.00     0.320 HD
HETATM   42  C35 UNL     1      -0.295   4.860  13.568  1.00  0.00     0.013 C 
BRANCH  32  43
HETATM   43  O7  UNL     1       4.239   8.641  12.407  1.00  0.00    -0.366 OA
HETATM   44  H52 UNL     1       4.971   8.444  11.797  1.00  0.00     0.212 HD
ENDBRANCH  32  43
ENDBRANCH  25  28
ENDBRANCH  21  25
ENDBRANCH  17  21
BRANCH  20  45
HETATM   45  O8  UNL     1      -1.210  11.987  16.995  1.00  0.00    -0.384 OA
HETATM   46  H61 UNL     1      -0.449  11.721  16.453  1.00  0.00     0.211 HD
ENDBRANCH  20  45
BRANCH   1  47
HETATM   47  O2  UNL     1      -5.997  16.546  20.456  1.00  0.00    -0.386 OA
BRANCH  47  48
HETATM   48  C4  UNL     1      -7.246  16.211  21.061  1.00  0.00     0.170 C 
BRANCH  48  49
HETATM   49  C3  UNL     1      -7.485  17.073  22.297  1.00  0.00     0.052 C 
BRANCH  49  50
HETATM   50  C2  UNL     1      -7.138  16.361  23.603  1.00  0.00     0.169 C 
BRANCH  50  51
HETATM   51  O1  UNL     1      -5.744  16.070  23.707  1.00  0.00    -0.396 OA
HETATM   52  C1  UNL     1      -5.197  16.390  24.980  1.00  0.00     0.201 C 
ENDBRANCH  50  51
ENDBRANCH  49  50
ENDBRANCH  48  49
ENDBRANCH  47  48
ENDBRANCH   1  47
TORSDOF 12
ENDMDL
MODEL 4
REMARK minimizedAffinity -7.76811314
REMARK CNNscore 0.687035143
REMARK CNNaffinity 6.92502594
REMARK  12 active torsions:
REMARK  status: ('A' for Active; 'I' for Inactive)
REMARK    1  A    between atoms: O1_2  and  C2_3 
REMARK    2  A    between atoms: C2_3  and  C3_4 
REMARK    3  A    between atoms: C3_4  and  C4_5 
REMARK    4  A    between atoms: C4_5  and  O2_6 
REMARK    5  A    between atoms: O2_6  and  C5_7 
REMARK    6  A    between atoms: C20_23  and  C21_24 
REMARK    7  A    between atoms: C21_24  and  O4_26 
REMARK    8  A    between atoms: C21_24  and  C23_27 
REMARK    9  A    between atoms: C23_27  and  O5_28 
REMARK   10  A    between atoms: C23_27  and  C24_29 
REMARK   11  A    between atoms: C33_40  and  O7_41 
REMARK   12  A    between atoms: C38_46  and  O8_47 
ROOT
HETATM    1  C5  UNL     1       6.133  13.981  22.048  1.00  0.00     0.122 C 
HETATM    2  C6  UNL     1       6.619  13.529  20.673  1.00  0.00     0.033 C 
HETATM    3  C7  UNL     1       6.005  12.214  20.178  1.00  0.00     0.013 C 
HETATM    4  C8  UNL     1       4.498  11.985  20.542  1.00  0.00    -0.026 C 
HETATM    5  C9  UNL     1       4.454  10.936  21.682  1.00  0.00     0.016 C 
HETATM    6  C10 UNL     1       3.861  13.311  21.019  1.00  0.00     0.071 C 
HETATM    7  C11 UNL     1       4.605  13.912  22.224  1.00  0.00     0.045 C 
HETATM    8  C12 UNL     1       3.773  14.324  19.881  1.00  0.00     0.154 C 
HETATM    9  O3  UNL     1       3.863  15.539  20.049  1.00  0.00    -0.293 OA
HETATM   10  C13 UNL     1       3.474  13.829  18.521  1.00  0.00     0.057 C 
HETATM   11  C14 UNL     1       3.388  12.516  18.263  1.00  0.00    -0.037 C 
HETATM   12  C15 UNL     1       3.726  11.425  19.285  1.00  0.00     0.026 C 
HETATM   13  C16 UNL     1       2.441  10.603  19.578  1.00  0.00     0.011 C 
HETATM   14  C17 UNL     1       1.714  10.113  18.298  1.00  0.00     0.014 C 
HETATM   15  C18 UNL     1       1.453  11.258  17.292  1.00  0.00    -0.002 C 
HETATM   16  C19 UNL     1       0.424  12.234  17.923  1.00  0.00     0.019 C 
HETATM   17  C20 UNL     1       1.029  10.816  15.848  1.00  0.00     0.034 C 
HETATM   18  C36 UNL     1       1.483  12.011  14.959  1.00  0.00     0.012 C 
HETATM   19  C37 UNL     1       2.469  12.859  15.793  1.00  0.00     0.044 C 
HETATM   20  C38 UNL     1       2.822  11.958  16.978  1.00  0.00     0.089 C 
ENDROOT
BRANCH  17  21
HETATM   21  C21 UNL     1      -0.402  10.250  15.526  1.00  0.00     0.087 C 
HETATM   22  C22 UNL     1      -1.259  11.162  14.622  1.00  0.00     0.049 C 
BRANCH  21  23
HETATM   23  O4  UNL     1      -1.114  10.081  16.756  1.00  0.00    -0.387 OA
HETATM   24  H34 UNL     1      -1.410  10.954  17.069  1.00  0.00     0.210 HD
ENDBRANCH  21  23
BRANCH  21  25
HETATM   25  C23 UNL     1      -0.260   8.827  14.859  1.00  0.00     0.181 C 
BRANCH  25  26
HETATM   26  O5  UNL     1       0.504   7.965  15.725  1.00  0.00    -0.390 OA
HETATM   27  H36 UNL     1       0.857   7.266  15.131  1.00  0.00     0.210 HD
ENDBRANCH  25  26
BRANCH  25  28
HETATM   28  C24 UNL     1       0.417   8.808  13.473  1.00  0.00     0.158 C 
HETATM   29  O6  UNL     1       1.714   8.128  13.587  1.00  0.00    -0.373 OA
HETATM   30  C25 UNL     1       2.124   7.964  12.220  1.00  0.00     0.185 C 
HETATM   31  C26 UNL     1       0.883   7.352  11.618  1.00  0.00     0.028 C 
HETATM   32  C33 UNL     1       3.317   7.027  11.975  1.00  0.00     0.384 C 
HETATM   33  C27 UNL     1       1.010   7.299  10.098  1.00  0.00     0.049 C 
HETATM   34  C34 UNL     1      -0.266   8.155  12.241  1.00  0.00     0.020 C 
HETATM   35  C28 UNL     1       2.478   6.978   9.650  1.00  0.00     0.161 C 
HETATM   36  C29 UNL     1       2.472   6.098   8.384  1.00  0.00     0.041 C 
HETATM   37  C32 UNL     1       3.200   8.224   9.096  1.00  0.00     0.041 C 
HETATM   38  N1  UNL     1       3.262   6.301  10.702  1.00  0.00     0.124 N 
HETATM   39  C30 UNL     1       2.109   7.056   7.253  1.00  0.00     0.003 C 
HETATM   40  C31 UNL     1       2.660   8.413   7.678  1.00  0.00     0.003 C 
HETATM   41  H50 UNL     1       2.826   5.394  10.882  1.00  0.00     0.320 HD
HETATM   42  C35 UNL     1      -1.447   7.222  12.496  1.00  0.00     0.013 C 
BRANCH  32  43
HETATM   43  O7  UNL     1       4.522   7.765  11.973  1.00  0.00    -0.366 OA
HETATM   44  H52 UNL     1       5.057   7.294  11.311  1.00  0.00     0.212 HD
ENDBRANCH  32  43
ENDBRANCH  25  28
ENDBRANCH  21  25
ENDBRANCH  17  21
BRANCH  20  45
HETATM   45  O8  UNL     1       3.804  11.014  16.518  1.00  0.00    -0.384 OA
HETATM   46  H61 UNL     1       3.725  10.896  15.557  1.00  0.00     0.211 HD
ENDBRANCH  20  45
BRANCH   1  47
HETATM   47  O2  UNL     1       6.787  13.147  23.016  1.00  0.00    -0.386 OA
BRANCH  47  48
HETATM   48  C4  UNL     1       8.106  13.579  23.353  1.00  0.00     0.170 C 
BRANCH  48  49
HETATM   49  C3  UNL     1       9.059  13.329  22.189  1.00  0.00     0.052 C 
BRANCH  49  50
HETATM   50  C2  UNL     1       9.440  14.605  21.439  1.00  0.00     0.169 C 
BRANCH  50  51
HETATM   51  O1  UNL     1      10.641  14.451  20.685  1.00  0.00    -0.396 OA
HETATM   52  C1  UNL     1      10.461  13.709  19.485  1.00  0.00     0.201 C 
ENDBRANCH  50  51
ENDBRANCH  49  50
ENDBRANCH  48  49
ENDBRANCH  47  48
ENDBRANCH   1  47
TORSDOF 12
ENDMDL
MODEL 5
REMARK minimizedAffinity -9.00312614
REMARK CNNscore 0.563154221
REMARK CNNaffinity 7.25844908
REMARK  12 active torsions:
REMARK  status: ('A' for Active; 'I' for Inactive)
REMARK    1  A    between atoms: O1_2  and  C2_3 
REMARK    2  A    between atoms: C2_3  and  C3_4 
REMARK    3  A    between atoms: C3_4  and  C4_5 
REMARK    4  A    between atoms: C4_5  and  O2_6 
REMARK    5  A    between atoms: O2_6  and  C5_7 
REMARK    6  A    between atoms: C20_23  and  C21_24 
REMARK    7  A    between atoms: C21_24  and  O4_26 
REMARK    8  A    between atoms: C21_24  and  C23_27 
REMARK    9  A    between atoms: C23_27  and  O5_28 
REMARK   10  A    between atoms: C23_27  and  C24_29 
REMARK   11  A    between atoms: C33_40  and  O7_41 
REMARK   12  A    between atoms: C38_46  and  O8_47 
ROOT
HETATM    1  C5  UNL     1       2.035   8.033  12.393  1.00  0.00     0.122 C 
HETATM    2  C6  UNL     1       0.944   9.023  11.992  1.00  0.00     0.033 C 
HETATM    3  C7  UNL     1      -0.369   8.378  11.532  1.00  0.00     0.013 C 
HETATM    4  C8  UNL     1      -0.794   7.077  12.297  1.00  0.00    -0.026 C 
HETATM    5  C9  UNL     1      -0.516   5.877  11.357  1.00  0.00     0.016 C 
HETATM    6  C10 UNL     1       0.032   6.933  13.597  1.00  0.00     0.071 C 
HETATM    7  C11 UNL     1       1.545   6.908  13.323  1.00  0.00     0.045 C 
HETATM    8  C12 UNL     1      -0.316   8.032  14.598  1.00  0.00     0.154 C 
HETATM    9  O3  UNL     1       0.496   8.505  15.391  1.00  0.00    -0.293 OA
HETATM   10  C13 UNL     1      -1.718   8.489  14.682  1.00  0.00     0.057 C 
HETATM   11  C14 UNL     1      -2.650   8.034  13.831  1.00  0.00    -0.037 C 
HETATM   12  C15 UNL     1      -2.336   7.136  12.629  1.00  0.00     0.026 C 
HETATM   13  C16 UNL     1      -3.048   5.770  12.829  1.00  0.00     0.011 C 
HETATM   14  C17 UNL     1      -4.552   5.902  13.186  1.00  0.00     0.014 C 
HETATM   15  C18 UNL     1      -4.795   6.862  14.373  1.00  0.00    -0.002 C 
HETATM   16  C19 UNL     1      -4.191   6.218  15.650  1.00  0.00     0.019 C 
HETATM   17  C20 UNL     1      -6.281   7.314  14.595  1.00  0.00     0.034 C 
HETATM   18  C36 UNL     1      -6.135   8.682  15.324  1.00  0.00     0.012 C 
HETATM   19  C37 UNL     1      -4.676   9.153  15.137  1.00  0.00     0.044 C 
HETATM   20  C38 UNL     1      -4.132   8.244  14.033  1.00  0.00     0.089 C 
ENDROOT
BRANCH  17  21
HETATM   21  C21 UNL     1      -7.374   6.354  15.190  1.00  0.00     0.087 C 
HETATM   22  C22 UNL     1      -7.550   6.458  16.719  1.00  0.00     0.049 C 
BRANCH  21  23
HETATM   23  O4  UNL     1      -7.005   5.003  14.895  1.00  0.00    -0.387 OA
HETATM   24  H34 UNL     1      -6.287   4.736  15.496  1.00  0.00     0.210 HD
ENDBRANCH  21  23
BRANCH  21  25
HETATM   25  C23 UNL     1      -8.755   6.635  14.479  1.00  0.00     0.181 C 
BRANCH  25  26
HETATM   26  O5  UNL     1      -8.670   6.246  13.093  1.00  0.00    -0.390 OA
HETATM   27  H36 UNL     1      -9.380   6.760  12.648  1.00  0.00     0.210 HD
ENDBRANCH  25  26
BRANCH  25  28
HETATM   28  C24 UNL     1      -9.236   8.101  14.519  1.00  0.00     0.158 C 
HETATM   29  O6  UNL     1     -10.475   8.216  13.738  1.00  0.00    -0.373 OA
HETATM   30  C25 UNL     1     -10.940   9.539  14.048  1.00  0.00     0.185 C 
HETATM   31  C26 UNL     1     -10.873   9.524  15.555  1.00  0.00     0.028 C 
HETATM   32  C33 UNL     1     -12.375   9.876  13.611  1.00  0.00     0.384 C 
HETATM   33  C27 UNL     1     -11.111  10.928  16.104  1.00  0.00     0.049 C 
HETATM   34  C34 UNL     1      -9.544   8.821  15.859  1.00  0.00     0.020 C 
HETATM   35  C28 UNL     1     -12.178  11.708  15.260  1.00  0.00     0.161 C 
HETATM   36  C29 UNL     1     -13.032  12.608  16.176  1.00  0.00     0.041 C 
HETATM   37  C32 UNL     1     -11.534  12.785  14.364  1.00  0.00     0.041 C 
HETATM   38  N1  UNL     1     -13.072  10.811  14.501  1.00  0.00     0.124 N 
HETATM   39  C30 UNL     1     -12.122  13.787  16.509  1.00  0.00     0.003 C 
HETATM   40  C31 UNL     1     -11.212  13.954  15.296  1.00  0.00     0.003 C 
HETATM   41  H50 UNL     1     -13.605  10.257  15.174  1.00  0.00     0.320 HD
HETATM   42  C35 UNL     1      -9.710   7.958  17.107  1.00  0.00     0.013 C 
BRANCH  32  43
HETATM   43  O7  UNL     1     -12.367  10.463  12.326  1.00  0.00    -0.366 OA
HETATM   44  H52 UNL     1     -13.099  11.101  12.381  1.00  0.00     0.212 HD
ENDBRANCH  32  43
ENDBRANCH  25  28
ENDBRANCH  21  25
ENDBRANCH  17  21
BRANCH  20  45
HETATM   45  O8  UNL     1      -4.609   8.763  12.780  1.00  0.00    -0.384 OA
HETATM   46  H61 UNL     1      -5.425   9.270  12.921  1.00  0.00     0.211 HD
ENDBRANCH  20  45
BRANCH   1  47
HETATM   47  O2  UNL     1       2.566   7.484  11.179  1.00  0.00    -0.386 OA
BRANCH  47  48
HETATM   48  C4  UNL     1       3.106   6.171  11.325  1.00  0.00     0.170 C 
BRANCH  48  49
HETATM   49  C3  UNL     1       2.950   5.385  10.028  1.00  0.00     0.052 C 
BRANCH  49  50
HETATM   50  C2  UNL     1       3.079   6.255   8.778  1.00  0.00     0.169 C 
BRANCH  50  51
HETATM   51  O1  UNL     1       1.817   6.507   8.162  1.00  0.00    -0.396 OA
HETATM   52  C1  UNL     1       1.926   7.165   6.906  1.00  0.00     0.201 C 
ENDBRANCH  50  51
ENDBRANCH  49  50
ENDBRANCH  48  49
ENDBRANCH  47  48
ENDBRANCH   1  47
TORSDOF 12
ENDMDL
MODEL 6
REMARK minimizedAffinity -8.77060032
REMARK CNNscore 0.470349789
REMARK CNNaffinity 7.37931252
REMARK  12 active torsions:
REMARK  status: ('A' for Active; 'I' for Inactive)
REMARK    1  A    between atoms: O1_2  and  C2_3 
REMARK    2  A    between atoms: C2_3  and  C3_4 
REMARK    3  A    between atoms: C3_4  and  C4_5 
REMARK    4  A    between atoms: C4_5  and  O2_6 
REMARK    5  A    between atoms: O2_6  and  C5_7 
REMARK    6  A    between atoms: C20_23  and  C21_24 
REMARK    7  A    between atoms: C21_24  and  O4_26 
REMARK    8  A    between atoms: C21_24  and  C23_27 
REMARK    9  A    between atoms: C23_27  and  O5_28 
REMARK   10  A    between atoms: C23_27  and  C24_29 
REMARK   11  A    between atoms: C33_40  and  O7_41 
REMARK   12  A    between atoms: C38_46  and  O8_47 
ROOT
HETATM    1  C5  UNL     1     -13.724   9.243  14.626  1.00  0.00     0.122 C 
HETATM    2  C6  UNL     1     -13.321   8.070  15.516  1.00  0.00     0.033 C 
HETATM    3  C7  UNL     1     -12.470   7.001  14.820  1.00  0.00     0.013 C 
HETATM    4  C8  UNL     1     -11.426   7.532  13.779  1.00  0.00    -0.026 C 
HETATM    5  C9  UNL     1     -11.983   7.220  12.367  1.00  0.00     0.016 C 
HETATM    6  C10 UNL     1     -11.239   9.058  13.948  1.00  0.00     0.071 C 
HETATM    7  C11 UNL     1     -12.564   9.826  13.798  1.00  0.00     0.045 C 
HETATM    8  C12 UNL     1     -10.572   9.390  15.280  1.00  0.00     0.154 C 
HETATM    9  O3  UNL     1     -10.802  10.419  15.914  1.00  0.00    -0.293 OA
HETATM   10  C13 UNL     1      -9.531   8.476  15.793  1.00  0.00     0.057 C 
HETATM   11  C14 UNL     1      -9.248   7.324  15.166  1.00  0.00    -0.037 C 
HETATM   12  C15 UNL     1     -10.050   6.785  13.976  1.00  0.00     0.026 C 
HETATM   13  C16 UNL     1      -9.118   6.722  12.735  1.00  0.00     0.011 C 
HETATM   14  C17 UNL     1      -7.770   6.004  13.008  1.00  0.00     0.014 C 
HETATM   15  C18 UNL     1      -7.043   6.566  14.252  1.00  0.00    -0.002 C 
HETATM   16  C19 UNL     1      -6.604   8.022  13.940  1.00  0.00     0.019 C 
HETATM   17  C20 UNL     1      -5.853   5.702  14.798  1.00  0.00     0.034 C 
HETATM   18  C36 UNL     1      -5.784   6.098  16.302  1.00  0.00     0.012 C 
HETATM   19  C37 UNL     1      -7.109   6.807  16.656  1.00  0.00     0.044 C 
HETATM   20  C38 UNL     1      -8.026   6.490  15.473  1.00  0.00     0.089 C 
ENDROOT
BRANCH  17  21
HETATM   21  C21 UNL     1      -4.466   5.618  14.064  1.00  0.00     0.087 C 
HETATM   22  C22 UNL     1      -4.338   6.545  12.837  1.00  0.00     0.049 C 
BRANCH  21  23
HETATM   23  O4  UNL     1      -4.270   4.277  13.607  1.00  0.00    -0.387 OA
HETATM   24  H34 UNL     1      -4.820   4.132  12.817  1.00  0.00     0.210 HD
ENDBRANCH  21  23
BRANCH  21  25
HETATM   25  C23 UNL     1      -3.314   5.942  15.093  1.00  0.00     0.181 C 
BRANCH  25  26
HETATM   26  O5  UNL     1      -3.612   7.176  15.776  1.00  0.00    -0.390 OA
HETATM   27  H36 UNL     1      -2.741   7.496  16.101  1.00  0.00     0.210 HD
ENDBRANCH  25  26
BRANCH  25  28
HETATM   28  C24 UNL     1      -1.901   6.078  14.487  1.00  0.00     0.158 C 
HETATM   29  O6  UNL     1      -1.848   5.317  13.232  1.00  0.00    -0.373 OA
HETATM   30  C25 UNL     1      -0.591   5.713  12.658  1.00  0.00     0.185 C 
HETATM   31  C26 UNL     1      -0.692   7.215  12.749  1.00  0.00     0.028 C 
HETATM   32  C33 UNL     1      -0.356   5.311  11.193  1.00  0.00     0.384 C 
HETATM   33  C27 UNL     1       0.649   7.853  12.398  1.00  0.00     0.049 C 
HETATM   34  C34 UNL     1      -1.293   7.462  14.138  1.00  0.00     0.020 C 
HETATM   35  C28 UNL     1       1.382   7.068  11.254  1.00  0.00     0.161 C 
HETATM   36  C29 UNL     1       2.147   8.046  10.339  1.00  0.00     0.041 C 
HETATM   37  C32 UNL     1       2.564   6.235  11.790  1.00  0.00     0.041 C 
HETATM   38  N1  UNL     1       0.459   6.263  10.430  1.00  0.00     0.124 N 
HETATM   39  C30 UNL     1       3.379   8.443  11.148  1.00  0.00     0.003 C 
HETATM   40  C31 UNL     1       3.698   7.234  12.022  1.00  0.00     0.003 C 
HETATM   41  H50 UNL     1      -0.180   6.906   9.957  1.00  0.00     0.320 HD
HETATM   42  C35 UNL     1      -2.242   8.656  14.066  1.00  0.00     0.013 C 
BRANCH  32  43
HETATM   43  O7  UNL     1       0.307   4.065  11.131  1.00  0.00    -0.366 OA
HETATM   44  H52 UNL     1       0.874   4.166  10.347  1.00  0.00     0.212 HD
ENDBRANCH  32  43
ENDBRANCH  25  28
ENDBRANCH  21  25
ENDBRANCH  17  21
BRANCH  20  45
HETATM   45  O8  UNL     1      -8.525   5.156  15.666  1.00  0.00    -0.384 OA
HETATM   46  H61 UNL     1      -7.909   4.650  16.221  1.00  0.00     0.211 HD
ENDBRANCH  20  45
BRANCH   1  47
HETATM   47  O2  UNL     1     -14.768   8.772  13.762  1.00  0.00    -0.386 OA
BRANCH  47  48
HETATM   48  C4  UNL     1     -14.850   9.470  12.520  1.00  0.00     0.170 C 
BRANCH  48  49
HETATM   49  C3  UNL     1     -16.259  10.014  12.309  1.00  0.00     0.052 C 
BRANCH  49  50
HETATM   50  C2  UNL     1     -16.984   9.367  11.130  1.00  0.00     0.169 C 
BRANCH  50  51
HETATM   51  O1  UNL     1     -17.683  10.323  10.334  1.00  0.00    -0.396 OA
HETATM   52  C1  UNL     1     -18.009  11.513  11.042  1.00  0.00     0.201 C 
ENDBRANCH  50  51
ENDBRANCH  49  50
ENDBRANCH  48  49
ENDBRANCH  47  48
ENDBRANCH   1  47
TORSDOF 12
ENDMDL
MODEL 7
REMARK minimizedAffinity -9.72913551
REMARK CNNscore 0.426813424
REMARK CNNaffinity 6.81282187
REMARK  12 active torsions:
REMARK  status: ('A' for Active; 'I' for Inactive)
REMARK    1  A    between atoms: O1_2  and  C2_3 
REMARK    2  A    between atoms: C2_3  and  C3_4 
REMARK    3  A    between atoms: C3_4  and  C4_5 
REMARK    4  A    between atoms: C4_5  and  O2_6 
REMARK    5  A    between atoms: O2_6  and  C5_7 
REMARK    6  A    between atoms: C20_23  and  C21_24 
REMARK    7  A    between atoms: C21_24  and  O4_26 
REMARK    8  A    between atoms: C21_24  and  C23_27 
REMARK    9  A    between atoms: C23_27  and  O5_28 
REMARK   10  A    between atoms: C23_27  and  C24_29 
REMARK   11  A    between atoms: C33_40  and  O7_41 
REMARK   12  A    between atoms: C38_46  and  O8_47 
ROOT
HETATM    1  C5  UNL     1       7.601   8.096  12.120  1.00  0.00     0.122 C 
HETATM    2  C6  UNL     1       6.985   6.952  12.922  1.00  0.00     0.033 C 
HETATM    3  C7  UNL     1       5.947   7.386  13.964  1.00  0.00     0.013 C 
HETATM    4  C8  UNL     1       5.021   8.580  13.548  1.00  0.00    -0.026 C 
HETATM    5  C9  UNL     1       5.509   9.833  14.319  1.00  0.00     0.016 C 
HETATM    6  C10 UNL     1       5.125   8.824  12.024  1.00  0.00     0.071 C 
HETATM    7  C11 UNL     1       6.571   9.103  11.577  1.00  0.00     0.045 C 
HETATM    8  C12 UNL     1       4.533   7.659  11.235  1.00  0.00     0.154 C 
HETATM    9  O3  UNL     1       4.953   7.305  10.135  1.00  0.00    -0.293 OA
HETATM   10  C13 UNL     1       3.339   6.978  11.776  1.00  0.00     0.057 C 
HETATM   11  C14 UNL     1       2.844   7.297  12.981  1.00  0.00    -0.037 C 
HETATM   12  C15 UNL     1       3.530   8.263  13.953  1.00  0.00     0.026 C 
HETATM   13  C16 UNL     1       2.601   9.489  14.173  1.00  0.00     0.011 C 
HETATM   14  C17 UNL     1       1.143   9.105  14.535  1.00  0.00     0.014 C 
HETATM   15  C18 UNL     1       0.535   8.089  13.541  1.00  0.00    -0.002 C 
HETATM   16  C19 UNL     1       0.378   8.791  12.165  1.00  0.00     0.019 C 
HETATM   17  C20 UNL     1      -0.796   7.396  13.998  1.00  0.00     0.034 C 
HETATM   18  C36 UNL     1      -0.789   6.052  13.212  1.00  0.00     0.012 C 
HETATM   19  C37 UNL     1       0.646   5.830  12.687  1.00  0.00     0.044 C 
HETATM   20  C38 UNL     1       1.487   6.843  13.467  1.00  0.00     0.089 C 
ENDROOT
BRANCH  17  21
HETATM   21  C21 UNL     1      -2.174   8.151  14.020  1.00  0.00     0.087 C 
HETATM   22  C22 UNL     1      -2.863   8.259  12.643  1.00  0.00     0.049 C 
BRANCH  21  23
HETATM   23  O4  UNL     1      -1.959   9.483  14.494  1.00  0.00    -0.387 OA
HETATM   24  H34 UNL     1      -1.559  10.009  13.779  1.00  0.00     0.210 HD
ENDBRANCH  21  23
BRANCH  21  25
HETATM   25  C23 UNL     1      -3.143   7.434  15.040  1.00  0.00     0.181 C 
BRANCH  25  26
HETATM   26  O5  UNL     1      -2.636   6.119  15.341  1.00  0.00    -0.390 OA
HETATM   27  H36 UNL     1      -3.419   5.617  15.657  1.00  0.00     0.210 HD
ENDBRANCH  25  26
BRANCH  25  28
HETATM   28  C24 UNL     1      -4.602   7.270  14.566  1.00  0.00     0.158 C 
HETATM   29  O6  UNL     1      -5.214   6.149  15.293  1.00  0.00    -0.373 OA
HETATM   30  C25 UNL     1      -6.605   6.252  14.949  1.00  0.00     0.185 C 
HETATM   31  C26 UNL     1      -6.867   7.709  15.239  1.00  0.00     0.028 C 
HETATM   32  C33 UNL     1      -7.575   5.392  15.776  1.00  0.00     0.384 C 
HETATM   33  C27 UNL     1      -8.249   8.105  14.725  1.00  0.00     0.049 C 
HETATM   34  C34 UNL     1      -5.631   8.426  14.681  1.00  0.00     0.020 C 
HETATM   35  C28 UNL     1      -9.291   6.949  14.915  1.00  0.00     0.161 C 
HETATM   36  C29 UNL     1     -10.679   7.530  15.256  1.00  0.00     0.041 C 
HETATM   37  C32 UNL     1      -9.625   6.246  13.584  1.00  0.00     0.041 C 
HETATM   38  N1  UNL     1      -8.899   5.993  15.969  1.00  0.00     0.124 N 
HETATM   39  C30 UNL     1     -11.203   8.074  13.930  1.00  0.00     0.003 C 
HETATM   40  C31 UNL     1     -10.588   7.183  12.855  1.00  0.00     0.003 C 
HETATM   41  H50 UNL     1      -8.882   6.497  16.858  1.00  0.00     0.320 HD
HETATM   42  C35 UNL     1      -5.281   9.600  15.592  1.00  0.00     0.013 C 
BRANCH  32  43
HETATM   43  O7  UNL     1      -7.780   4.146  15.141  1.00  0.00    -0.366 OA
HETATM   44  H52 UNL     1      -8.710   3.953  15.352  1.00  0.00     0.212 HD
ENDBRANCH  32  43
ENDBRANCH  25  28
ENDBRANCH  21  25
ENDBRANCH  17  21
BRANCH  20  45
HETATM   45  O8  UNL     1       1.726   6.285  14.771  1.00  0.00    -0.384 OA
HETATM   46  H61 UNL     1       1.026   5.648  14.991  1.00  0.00     0.211 HD
ENDBRANCH  20  45
BRANCH   1  47
HETATM   47  O2  UNL     1       8.537   8.754  12.986  1.00  0.00    -0.386 OA
BRANCH  47  48
HETATM   48  C4  UNL     1       9.378   7.859  13.714  1.00  0.00     0.170 C 
BRANCH  48  49
HETATM   49  C3  UNL     1      10.667   8.561  14.128  1.00  0.00     0.052 C 
BRANCH  49  50
HETATM   50  C2  UNL     1      10.848   9.927  13.466  1.00  0.00     0.169 C 
BRANCH  50  51
HETATM   51  O1  UNL     1      12.198  10.161  13.068  1.00  0.00    -0.396 OA
HETATM   52  C1  UNL     1      13.075  10.391  14.164  1.00  0.00     0.201 C 
ENDBRANCH  50  51
ENDBRANCH  49  50
ENDBRANCH  48  49
ENDBRANCH  47  48
ENDBRANCH   1  47
TORSDOF 12
ENDMDL
MODEL 8
REMARK minimizedAffinity -7.99768019
REMARK CNNscore 0.422155827
REMARK CNNaffinity 6.60954237
REMARK  12 active torsions:
REMARK  status: ('A' for Active; 'I' for Inactive)
REMARK    1  A    between atoms: O1_2  and  C2_3 
REMARK    2  A    between atoms: C2_3  and  C3_4 
REMARK    3  A    between atoms: C3_4  and  C4_5 
REMARK    4  A    between atoms: C4_5  and  O2_6 
REMARK    5  A    between atoms: O2_6  and  C5_7 
REMARK    6  A    between atoms: C20_23  and  C21_24 
REMARK    7  A    between atoms: C21_24  and  O4_26 
REMARK    8  A    between atoms: C21_24  and  C23_27 
REMARK    9  A    between atoms: C23_27  and  O5_28 
REMARK   10  A    between atoms: C23_27  and  C24_29 
REMARK   11  A    between atoms: C33_40  and  O7_41 
REMARK   12  A    between atoms: C38_46  and  O8_47 
ROOT
HETATM    1  C5  UNL     1      -9.196  -9.610  -3.312  1.00  0.00     0.122 C 
HETATM    2  C6  UNL     1      -9.244 -10.973  -2.624  1.00  0.00     0.033 C 
HETATM    3  C7  UNL     1      -7.905 -11.446  -2.047  1.00  0.00     0.013 C 
HETATM    4  C8  UNL     1      -7.001 -10.331  -1.418  1.00  0.00    -0.026 C 
HETATM    5  C9  UNL     1      -5.846 -10.057  -2.415  1.00  0.00     0.016 C 
HETATM    6  C10 UNL     1      -7.826  -9.041  -1.198  1.00  0.00     0.071 C 
HETATM    7  C11 UNL     1      -8.460  -8.528  -2.502  1.00  0.00     0.045 C 
HETATM    8  C12 UNL     1      -8.893  -9.243  -0.125  1.00  0.00     0.154 C 
HETATM    9  O3  UNL     1      -9.981  -8.671  -0.137  1.00  0.00    -0.293 OA
HETATM   10  C13 UNL     1      -8.570 -10.099   1.035  1.00  0.00     0.057 C 
HETATM   11  C14 UNL     1      -7.411 -10.773   1.101  1.00  0.00    -0.037 C 
HETATM   12  C15 UNL     1      -6.402 -10.840  -0.050  1.00  0.00     0.026 C 
HETATM   13  C16 UNL     1      -5.077 -10.173   0.411  1.00  0.00     0.011 C 
HETATM   14  C17 UNL     1      -4.563 -10.696   1.778  1.00  0.00     0.014 C 
HETATM   15  C18 UNL     1      -5.650 -10.645   2.876  1.00  0.00    -0.002 C 
HETATM   16  C19 UNL     1      -5.972  -9.156   3.173  1.00  0.00     0.019 C 
HETATM   17  C20 UNL     1      -5.336 -11.447   4.188  1.00  0.00     0.034 C 
HETATM   18  C36 UNL     1      -6.749 -11.773   4.756  1.00  0.00     0.012 C 
HETATM   19  C37 UNL     1      -7.770 -11.539   3.621  1.00  0.00     0.044 C 
HETATM   20  C38 UNL     1      -6.906 -11.434   2.362  1.00  0.00     0.089 C 
ENDROOT
BRANCH  17  21
HETATM   21  C21 UNL     1      -4.288 -10.951   5.248  1.00  0.00     0.087 C 
HETATM   22  C22 UNL     1      -2.988 -10.383   4.642  1.00  0.00     0.049 C 
BRANCH  21  23
HETATM   23  O4  UNL     1      -3.921 -12.055   6.081  1.00  0.00    -0.387 OA
HETATM   24  H34 UNL     1      -3.312 -12.632   5.587  1.00  0.00     0.210 HD
ENDBRANCH  21  23
BRANCH  21  25
HETATM   25  C23 UNL     1      -4.960  -9.862   6.172  1.00  0.00     0.181 C 
BRANCH  25  26
HETATM   26  O5  UNL     1      -4.050  -8.758   6.354  1.00  0.00    -0.390 OA
HETATM   27  H36 UNL     1      -4.351  -8.323   7.183  1.00  0.00     0.210 HD
ENDBRANCH  25  26
BRANCH  25  28
HETATM   28  C24 UNL     1      -5.382 -10.349   7.574  1.00  0.00     0.158 C 
HETATM   29  O6  UNL     1      -4.627  -9.597   8.586  1.00  0.00    -0.373 OA
HETATM   30  C25 UNL     1      -5.271  -9.962   9.817  1.00  0.00     0.185 C 
HETATM   31  C26 UNL     1      -6.718  -9.720   9.470  1.00  0.00     0.028 C 
HETATM   32  C33 UNL     1      -4.903  -9.122  11.052  1.00  0.00     0.384 C 
HETATM   33  C27 UNL     1      -7.620 -10.265  10.575  1.00  0.00     0.049 C 
HETATM   34  C34 UNL     1      -6.857 -10.284   8.050  1.00  0.00     0.020 C 
HETATM   35  C28 UNL     1      -6.989 -10.054  11.995  1.00  0.00     0.161 C 
HETATM   36  C29 UNL     1      -8.091  -9.749  13.030  1.00  0.00     0.041 C 
HETATM   37  C32 UNL     1      -6.435 -11.367  12.584  1.00  0.00     0.041 C 
HETATM   38  N1  UNL     1      -5.992  -8.965  12.021  1.00  0.00     0.124 N 
HETATM   39  C30 UNL     1      -8.755 -11.098  13.291  1.00  0.00     0.003 C 
HETATM   40  C31 UNL     1      -7.656 -12.137  13.087  1.00  0.00     0.003 C 
HETATM   41  H50 UNL     1      -6.476  -8.092  11.802  1.00  0.00     0.320 HD
HETATM   42  C35 UNL     1      -7.821  -9.406   7.256  1.00  0.00     0.013 C 
BRANCH  32  43
HETATM   43  O7  UNL     1      -3.825  -9.720  11.742  1.00  0.00    -0.366 OA
HETATM   44  H52 UNL     1      -4.029  -9.517  12.671  1.00  0.00     0.212 HD
ENDBRANCH  32  43
ENDBRANCH  25  28
ENDBRANCH  21  25
ENDBRANCH  17  21
BRANCH  20  45
HETATM   45  O8  UNL     1      -6.562 -12.773   1.968  1.00  0.00    -0.384 OA
HETATM   46  H61 UNL     1      -6.596 -13.364   2.738  1.00  0.00     0.211 HD
ENDBRANCH  20  45
BRANCH   1  47
HETATM   47  O2  UNL     1      -8.558  -9.808  -4.582  1.00  0.00    -0.386 OA
BRANCH  47  48
HETATM   48  C4  UNL     1      -9.387  -9.490  -5.700  1.00  0.00     0.170 C 
BRANCH  48  49
HETATM   49  C3  UNL     1     -10.311  -8.325  -5.362  1.00  0.00     0.052 C 
BRANCH  49  50
HETATM   50  C2  UNL     1     -10.026  -7.072  -6.189  1.00  0.00     0.169 C 
BRANCH  50  51
HETATM   51  O1  UNL     1     -10.300  -5.873  -5.466  1.00  0.00    -0.396 OA
HETATM   52  C1  UNL     1      -9.395  -5.643  -4.393  1.00  0.00     0.201 C 
ENDBRANCH  50  51
ENDBRANCH  49  50
ENDBRANCH  48  49
ENDBRANCH  47  48
ENDBRANCH   1  47
TORSDOF 12
ENDMDL
MODEL 9
REMARK minimizedAffinity -8.07385826
REMARK CNNscore 0.411292881
REMARK CNNaffinity 6.7326827
REMARK  12 active torsions:
REMARK  status: ('A' for Active; 'I' for Inactive)
REMARK    1  A    between atoms: O1_2  and  C2_3 
REMARK    2  A    between atoms: C2_3  and  C3_4 
REMARK    3  A    between atoms: C3_4  and  C4_5 
REMARK    4  A    between atoms: C4_5  and  O2_6 
REMARK    5  A    between atoms: O2_6  and  C5_7 
REMARK    6  A    between atoms: C20_23  and  C21_24 
REMARK    7  A    between atoms: C21_24  and  O4_26 
REMARK    8  A    between atoms: C21_24  and  C23_27 
REMARK    9  A    between atoms: C23_27  and  O5_28 
REMARK   10  A    between atoms: C23_27  and  C24_29 
REMARK   11  A    between atoms: C33_40  and  O7_41 
REMARK   12  A    between atoms: C38_46  and  O8_47 
ROOT
HETATM    1  C5  UNL     1       8.119   8.699  13.202  1.00  0.00     0.122 C 
HETATM    2  C6  UNL     1       7.436   7.358  13.458  1.00  0.00     0.033 C 
HETATM    3  C7  UNL     1       6.315   7.399  14.504  1.00  0.00     0.013 C 
HETATM    4  C8  UNL     1       5.429   8.693  14.503  1.00  0.00    -0.026 C 
HETATM    5  C9  UNL     1       5.852   9.542  15.728  1.00  0.00     0.016 C 
HETATM    6  C10 UNL     1       5.661   9.492  13.199  1.00  0.00     0.071 C 
HETATM    7  C11 UNL     1       7.139   9.871  13.006  1.00  0.00     0.045 C 
HETATM    8  C12 UNL     1       5.136   8.733  11.983  1.00  0.00     0.154 C 
HETATM    9  O3  UNL     1       5.646   8.809  10.867  1.00  0.00    -0.293 OA
HETATM   10  C13 UNL     1       3.899   7.938  12.131  1.00  0.00     0.057 C 
HETATM   11  C14 UNL     1       3.305   7.792  13.325  1.00  0.00    -0.037 C 
HETATM   12  C15 UNL     1       3.908   8.295  14.641  1.00  0.00     0.026 C 
HETATM   13  C16 UNL     1       2.967   9.377  15.238  1.00  0.00     0.011 C 
HETATM   14  C17 UNL     1       1.483   8.933  15.314  1.00  0.00     0.014 C 
HETATM   15  C18 UNL     1       0.959   8.391  13.964  1.00  0.00    -0.002 C 
HETATM   16  C19 UNL     1       0.919   9.566  12.951  1.00  0.00     0.019 C 
HETATM   17  C20 UNL     1      -0.407   7.621  14.019  1.00  0.00     0.034 C 
HETATM   18  C36 UNL     1      -0.336   6.676  12.783  1.00  0.00     0.012 C 
HETATM   19  C37 UNL     1       1.138   6.621  12.326  1.00  0.00     0.044 C 
HETATM   20  C38 UNL     1       1.912   7.234  13.495  1.00  0.00     0.089 C 
ENDROOT
BRANCH  17  21
HETATM   21  C21 UNL     1      -1.782   8.356  14.220  1.00  0.00     0.087 C 
HETATM   22  C22 UNL     1      -2.409   8.900  12.919  1.00  0.00     0.049 C 
BRANCH  21  23
HETATM   23  O4  UNL     1      -1.580   9.472  15.093  1.00  0.00    -0.387 OA
HETATM   24  H34 UNL     1      -1.146  10.186  14.594  1.00  0.00     0.210 HD
ENDBRANCH  21  23
BRANCH  21  25
HETATM   25  C23 UNL     1      -2.797   7.376  14.927  1.00  0.00     0.181 C 
BRANCH  25  26
HETATM   26  O5  UNL     1      -2.165   6.097  15.134  1.00  0.00    -0.390 OA
HETATM   27  H36 UNL     1      -2.911   5.463  15.222  1.00  0.00     0.210 HD
ENDBRANCH  25  26
BRANCH  25  28
HETATM   28  C24 UNL     1      -4.115   7.123  14.166  1.00  0.00     0.158 C 
HETATM   29  O6  UNL     1      -4.594   5.770  14.481  1.00  0.00    -0.373 OA
HETATM   30  C25 UNL     1      -5.916   5.748  13.920  1.00  0.00     0.185 C 
HETATM   31  C26 UNL     1      -6.494   7.019  14.490  1.00  0.00     0.028 C 
HETATM   32  C33 UNL     1      -6.807   4.563  14.326  1.00  0.00     0.384 C 
HETATM   33  C27 UNL     1      -7.839   7.323  13.836  1.00  0.00     0.049 C 
HETATM   34  C34 UNL     1      -5.354   8.037  14.356  1.00  0.00     0.020 C 
HETATM   35  C28 UNL     1      -8.654   6.013  13.552  1.00  0.00     0.161 C 
HETATM   36  C29 UNL     1     -10.162   6.265  13.757  1.00  0.00     0.041 C 
HETATM   37  C32 UNL     1      -8.653   5.644  12.055  1.00  0.00     0.041 C 
HETATM   38  N1  UNL     1      -8.236   4.883  14.406  1.00  0.00     0.124 N 
HETATM   39  C30 UNL     1     -10.589   7.054  12.522  1.00  0.00     0.003 C 
HETATM   40  C31 UNL     1      -9.668   6.584  11.401  1.00  0.00     0.003 C 
HETATM   41  H50 UNL     1      -8.443   5.130  15.375  1.00  0.00     0.320 HD
HETATM   42  C35 UNL     1      -5.371   8.968  15.566  1.00  0.00     0.013 C 
BRANCH  32  43
HETATM   43  O7  UNL     1      -6.675   3.513  13.389  1.00  0.00    -0.366 OA
HETATM   44  H52 UNL     1      -7.570   3.132  13.372  1.00  0.00     0.212 HD
ENDBRANCH  32  43
ENDBRANCH  25  28
ENDBRANCH  21  25
ENDBRANCH  17  21
BRANCH  20  45
HETATM   45  O8  UNL     1       2.039   6.216  14.502  1.00  0.00    -0.384 OA
HETATM   46  H61 UNL     1       1.323   5.567  14.409  1.00  0.00     0.211 HD
ENDBRANCH  20  45
BRANCH   1  47
HETATM   47  O2  UNL     1       8.980   8.949  14.322  1.00  0.00    -0.386 OA
BRANCH  47  48
HETATM   48  C4  UNL     1       9.071  10.326  14.686  1.00  0.00     0.170 C 
BRANCH  48  49
HETATM   49  C3  UNL     1       9.473  10.463  16.151  1.00  0.00     0.052 C 
BRANCH  49  50
HETATM   50  C2  UNL     1       9.319  11.886  16.686  1.00  0.00     0.169 C 
BRANCH  50  51
HETATM   51  O1  UNL     1       7.977  12.175  17.075  1.00  0.00    -0.396 OA
HETATM   52  C1  UNL     1       7.644  11.671  18.363  1.00  0.00     0.201 C 
ENDBRANCH  50  51
ENDBRANCH  49  50
ENDBRANCH  48  49
ENDBRANCH  47  48
ENDBRANCH   1  47
TORSDOF 12
ENDMDL
