MODEL 1
REMARK minimizedAffinity -7.99347496
REMARK CNNscore 0.522721946
REMARK CNNaffinity 6.64226866
REMARK  7 active torsions:
REMARK  status: ('A' for Active; 'I' for Inactive)
REMARK    1  A    between atoms: C2_2  and  C30_34 
REMARK    2  A    between atoms: C3_3  and  C4_4 
REMARK    3  A    between atoms: C4_4  and  C5_5 
REMARK    4  A    between atoms: C5_5  and  C6_6 
REMARK    5  A    between atoms: C6_6  and  C8_8 
REMARK    6  A    between atoms: C15_16  and  O2_17 
REMARK    7  A    between atoms: C30_34  and  O6_36 
ROOT
HETATM    1  C8  UNL     1       7.198  10.363  15.335  1.00  0.00     0.006 C 
HETATM    2  C9  UNL     1       8.288  10.136  14.260  1.00  0.00     0.085 C 
HETATM    3  C10 UNL     1       7.485   9.911  12.980  1.00  0.00     0.141 C 
HETATM    4  O1  UNL     1       8.008   9.543  11.940  1.00  0.00    -0.297 OA
HETATM    5  C11 UNL     1       5.989  10.180  13.212  1.00  0.00     0.055 C 
HETATM    6  C12 UNL     1       5.790  11.706  13.017  1.00  0.00     0.030 C 
HETATM    7  C13 UNL     1       4.905   9.482  12.432  1.00  0.00     0.010 C 
HETATM    8  C14 UNL     1       3.707   9.138  12.971  1.00  0.00    -0.032 C 
HETATM    9  C15 UNL     1       3.423   9.501  14.445  1.00  0.00     0.149 C 
HETATM   10  C16 UNL     1       4.601  10.044  15.297  1.00  0.00     0.047 C 
HETATM   11  C17 UNL     1       5.956   9.658  14.703  1.00  0.00    -0.018 C 
HETATM   12  C18 UNL     1       6.108   8.105  14.821  1.00  0.00     0.017 C 
HETATM   13  C19 UNL     1       2.606   8.333  12.177  1.00  0.00    -0.012 C 
HETATM   14  C20 UNL     1       1.247   9.050  12.348  1.00  0.00     0.021 C 
HETATM   15  C21 UNL     1       2.545   6.915  12.808  1.00  0.00     0.021 C 
HETATM   16  C22 UNL     1       1.604   5.955  12.104  1.00  0.00     0.080 C 
HETATM   17  C23 UNL     1       1.990   5.801  10.657  1.00  0.00     0.135 C 
HETATM   18  O3  UNL     1       2.103   4.676  10.164  1.00  0.00    -0.297 OA
HETATM   19  C24 UNL     1       2.113   7.079   9.820  1.00  0.00     0.018 C 
HETATM   20  C25 UNL     1       2.793   6.719   8.475  1.00  0.00     0.023 C 
HETATM   21  C26 UNL     1       0.685   7.534   9.449  1.00  0.00     0.023 C 
HETATM   22  C27 UNL     1       2.922   8.188  10.619  1.00  0.00     0.020 C 
HETATM   23  C28 UNL     1       4.442   8.025  10.422  1.00  0.00     0.090 C 
HETATM   24  C29 UNL     1       5.117   9.233  10.992  1.00  0.00     0.157 C 
HETATM   25  O4  UNL     1       5.746  10.018  10.292  1.00  0.00    -0.293 OA
ENDROOT
BRANCH   1  26
HETATM   26  C6  UNL     1       7.557   9.981  16.800  1.00  0.00    -0.013 C 
HETATM   27  C7  UNL     1       8.964   9.414  17.022  1.00  0.00     0.010 C 
BRANCH  26  28
HETATM   28  C5  UNL     1       7.294  11.157  17.779  1.00  0.00     0.008 C 
BRANCH  28  29
HETATM   29  C4  UNL     1       8.506  11.623  18.589  1.00  0.00     0.028 C 
BRANCH  29  30
HETATM   30  C3  UNL     1       8.158  11.781  20.045  1.00  0.00    -0.013 C 
HETATM   31  C2  UNL     1       9.003  12.148  21.032  1.00  0.00     0.008 C 
HETATM   32  C1  UNL     1      10.474  12.380  20.839  1.00  0.00     0.055 C 
BRANCH  31  33
HETATM   33  C30 UNL     1       8.521  12.327  22.427  1.00  0.00     0.171 C 
HETATM   34  O5  UNL     1       7.414  12.026  22.836  1.00  0.00    -0.646 OA
BRANCH  33  35
HETATM   35  O6  UNL     1       9.431  12.869  23.254  1.00  0.00    -0.773 OA
HETATM   36  H42 UNL     1       8.962  12.909  24.113  1.00  0.00     0.167 HD
ENDBRANCH  33  35
ENDBRANCH  31  33
ENDBRANCH  29  30
ENDBRANCH  28  29
ENDBRANCH  26  28
ENDBRANCH   1  26
BRANCH   9  37
HETATM   37  O2  UNL     1       2.413  10.505  14.474  1.00  0.00    -0.391 OA
HETATM   38  H20 UNL     1       2.145  10.630  15.400  1.00  0.00     0.210 HD
ENDBRANCH   9  37
TORSDOF 7
ENDMDL
MODEL 2
REMARK minimizedAffinity -6.83960056
REMARK CNNscore 0.500133991
REMARK CNNaffinity 6.46953726
REMARK  7 active torsions:
REMARK  status: ('A' for Active; 'I' for Inactive)
REMARK    1  A    between atoms: C2_2  and  C30_34 
REMARK    2  A    between atoms: C3_3  and  C4_4 
REMARK    3  A    between atoms: C4_4  and  C5_5 
REMARK    4  A    between atoms: C5_5  and  C6_6 
REMARK    5  A    between atoms: C6_6  and  C8_8 
REMARK    6  A    between atoms: C15_16  and  O2_17 
REMARK    7  A    between atoms: C30_34  and  O6_36 
ROOT
HETATM    1  C8  UNL     1     -16.228   5.702  21.552  1.00  0.00     0.006 C 
HETATM    2  C9  UNL     1     -16.717   6.917  22.375  1.00  0.00     0.085 C 
HETATM    3  C10 UNL     1     -15.919   6.813  23.673  1.00  0.00     0.141 C 
HETATM    4  O1  UNL     1     -16.153   7.521  24.640  1.00  0.00    -0.297 OA
HETATM    5  C11 UNL     1     -14.853   5.709  23.580  1.00  0.00     0.055 C 
HETATM    6  C12 UNL     1     -13.611   6.364  22.921  1.00  0.00     0.030 C 
HETATM    7  C13 UNL     1     -14.370   4.937  24.780  1.00  0.00     0.010 C 
HETATM    8  C14 UNL     1     -14.021   3.626  24.729  1.00  0.00    -0.032 C 
HETATM    9  C15 UNL     1     -14.092   2.890  23.373  1.00  0.00     0.149 C 
HETATM   10  C16 UNL     1     -14.767   3.625  22.184  1.00  0.00     0.047 C 
HETATM   11  C17 UNL     1     -15.698   4.739  22.662  1.00  0.00    -0.018 C 
HETATM   12  C18 UNL     1     -16.903   4.072  23.406  1.00  0.00     0.017 C 
HETATM   13  C19 UNL     1     -13.596   2.799  26.004  1.00  0.00    -0.012 C 
HETATM   14  C20 UNL     1     -12.290   2.036  25.688  1.00  0.00     0.021 C 
HETATM   15  C21 UNL     1     -14.746   1.794  26.290  1.00  0.00     0.021 C 
HETATM   16  C22 UNL     1     -14.561   0.971  27.553  1.00  0.00     0.080 C 
HETATM   17  C23 UNL     1     -14.421   1.869  28.753  1.00  0.00     0.135 C 
HETATM   18  O3  UNL     1     -15.098   1.660  29.763  1.00  0.00    -0.297 OA
HETATM   19  C24 UNL     1     -13.338   2.951  28.702  1.00  0.00     0.018 C 
HETATM   20  C25 UNL     1     -13.562   3.925  29.887  1.00  0.00     0.023 C 
HETATM   21  C26 UNL     1     -11.981   2.268  28.984  1.00  0.00     0.023 C 
HETATM   22  C27 UNL     1     -13.368   3.700  27.302  1.00  0.00     0.020 C 
HETATM   23  C28 UNL     1     -14.389   4.854  27.305  1.00  0.00     0.090 C 
HETATM   24  C29 UNL     1     -14.186   5.657  26.057  1.00  0.00     0.157 C 
HETATM   25  O4  UNL     1     -13.813   6.823  26.087  1.00  0.00    -0.293 OA
ENDROOT
BRANCH   1  26
HETATM   26  C6  UNL     1     -17.221   5.104  20.513  1.00  0.00    -0.013 C 
HETATM   27  C7  UNL     1     -18.710   5.301  20.815  1.00  0.00     0.010 C 
BRANCH  26  28
HETATM   28  C5  UNL     1     -16.899   5.585  19.072  1.00  0.00     0.008 C 
BRANCH  28  29
HETATM   29  C4  UNL     1     -17.745   4.955  17.963  1.00  0.00     0.028 C 
BRANCH  29  30
HETATM   30  C3  UNL     1     -16.892   4.550  16.791  1.00  0.00    -0.013 C 
HETATM   31  C2  UNL     1     -16.931   3.364  16.148  1.00  0.00     0.008 C 
HETATM   32  C1  UNL     1     -17.795   2.208  16.564  1.00  0.00     0.055 C 
BRANCH  31  33
HETATM   33  C30 UNL     1     -16.073   3.107  14.961  1.00  0.00     0.171 C 
HETATM   34  O5  UNL     1     -16.112   2.109  14.264  1.00  0.00    -0.646 OA
BRANCH  33  35
HETATM   35  O6  UNL     1     -15.207   4.097  14.688  1.00  0.00    -0.773 OA
HETATM   36  H42 UNL     1     -14.737   3.776  13.891  1.00  0.00     0.167 HD
ENDBRANCH  33  35
ENDBRANCH  31  33
ENDBRANCH  29  30
ENDBRANCH  28  29
ENDBRANCH  26  28
ENDBRANCH   1  26
BRANCH   9  37
HETATM   37  O2  UNL     1     -12.764   2.588  22.955  1.00  0.00    -0.391 OA
HETATM   38  H20 UNL     1     -12.823   2.011  22.176  1.00  0.00     0.210 HD
ENDBRANCH   9  37
TORSDOF 7
ENDMDL
MODEL 3
REMARK minimizedAffinity -7.43525171
REMARK CNNscore 0.48230359
REMARK CNNaffinity 6.82308531
REMARK  7 active torsions:
REMARK  status: ('A' for Active; 'I' for Inactive)
REMARK    1  A    between atoms: C2_2  and  C30_34 
REMARK    2  A    between atoms: C3_3  and  C4_4 
REMARK    3  A    between atoms: C4_4  and  C5_5 
REMARK    4  A    between atoms: C5_5  and  C6_6 
REMARK    5  A    between atoms: C6_6  and  C8_8 
REMARK    6  A    between atoms: C15_16  and  O2_17 
REMARK    7  A    between atoms: C30_34  and  O6_36 
ROOT
HETATM    1  C8  UNL     1      -9.631   8.224  15.239  1.00  0.00     0.006 C 
HETATM    2  C9  UNL     1      -9.262   9.691  14.916  1.00  0.00     0.085 C 
HETATM    3  C10 UNL     1     -10.619  10.381  14.792  1.00  0.00     0.141 C 
HETATM    4  O1  UNL     1     -10.732  11.527  14.386  1.00  0.00    -0.297 OA
HETATM    5  C11 UNL     1     -11.759   9.437  15.209  1.00  0.00     0.055 C 
HETATM    6  C12 UNL     1     -11.883   9.566  16.750  1.00  0.00     0.030 C 
HETATM    7  C13 UNL     1     -13.149   9.534  14.637  1.00  0.00     0.010 C 
HETATM    8  C14 UNL     1     -13.936   8.451  14.410  1.00  0.00    -0.032 C 
HETATM    9  C15 UNL     1     -13.399   7.051  14.780  1.00  0.00     0.149 C 
HETATM   10  C16 UNL     1     -11.906   6.932  15.188  1.00  0.00     0.047 C 
HETATM   11  C17 UNL     1     -11.082   8.113  14.674  1.00  0.00    -0.018 C 
HETATM   12  C18 UNL     1     -11.039   8.025  13.112  1.00  0.00     0.017 C 
HETATM   13  C19 UNL     1     -15.358   8.547  13.733  1.00  0.00    -0.012 C 
HETATM   14  C20 UNL     1     -16.368   7.743  14.582  1.00  0.00     0.021 C 
HETATM   15  C21 UNL     1     -15.226   7.915  12.319  1.00  0.00     0.021 C 
HETATM   16  C22 UNL     1     -16.480   8.009  11.470  1.00  0.00     0.080 C 
HETATM   17  C23 UNL     1     -16.896   9.445  11.297  1.00  0.00     0.135 C 
HETATM   18  O3  UNL     1     -17.155   9.882  10.173  1.00  0.00    -0.297 OA
HETATM   19  C24 UNL     1     -17.092  10.280  12.566  1.00  0.00     0.018 C 
HETATM   20  C25 UNL     1     -17.225  11.769  12.158  1.00  0.00     0.023 C 
HETATM   21  C26 UNL     1     -18.461   9.898  13.171  1.00  0.00     0.023 C 
HETATM   22  C27 UNL     1     -15.889  10.045  13.576  1.00  0.00     0.020 C 
HETATM   23  C28 UNL     1     -14.702  10.975  13.261  1.00  0.00     0.090 C 
HETATM   24  C29 UNL     1     -13.720  10.873  14.386  1.00  0.00     0.157 C 
HETATM   25  O4  UNL     1     -13.460  11.826  15.112  1.00  0.00    -0.293 OA
ENDROOT
BRANCH   1  26
HETATM   26  C6  UNL     1      -8.617   7.126  14.802  1.00  0.00    -0.013 C 
HETATM   27  C7  UNL     1      -8.359   6.007  15.817  1.00  0.00     0.010 C 
BRANCH  26  28
HETATM   28  C5  UNL     1      -8.989   6.521  13.422  1.00  0.00     0.008 C 
BRANCH  28  29
HETATM   29  C4  UNL     1      -8.721   5.022  13.265  1.00  0.00     0.028 C 
BRANCH  29  30
HETATM   30  C3  UNL     1      -7.383   4.773  12.622  1.00  0.00    -0.013 C 
HETATM   31  C2  UNL     1      -6.835   3.567  12.362  1.00  0.00     0.008 C 
HETATM   32  C1  UNL     1      -7.452   2.257  12.760  1.00  0.00     0.055 C 
BRANCH  31  33
HETATM   33  C30 UNL     1      -5.527   3.454  11.665  1.00  0.00     0.171 C 
HETATM   34  O5  UNL     1      -4.516   4.069  11.954  1.00  0.00    -0.646 OA
BRANCH  33  35
HETATM   35  O6  UNL     1      -5.527   2.584  10.640  1.00  0.00    -0.773 OA
HETATM   36  H42 UNL     1      -4.608   2.627  10.305  1.00  0.00     0.167 HD
ENDBRANCH  33  35
ENDBRANCH  31  33
ENDBRANCH  29  30
ENDBRANCH  28  29
ENDBRANCH  26  28
ENDBRANCH   1  26
BRANCH   9  37
HETATM   37  O2  UNL     1     -14.155   6.556  15.882  1.00  0.00    -0.391 OA
HETATM   38  H20 UNL     1     -13.904   5.628  16.021  1.00  0.00     0.210 HD
ENDBRANCH   9  37
TORSDOF 7
ENDMDL
MODEL 4
REMARK minimizedAffinity -8.40865612
REMARK CNNscore 0.480918497
REMARK CNNaffinity 6.77316618
REMARK  7 active torsions:
REMARK  status: ('A' for Active; 'I' for Inactive)
REMARK    1  A    between atoms: C2_2  and  C30_34 
REMARK    2  A    between atoms: C3_3  and  C4_4 
REMARK    3  A    between atoms: C4_4  and  C5_5 
REMARK    4  A    between atoms: C5_5  and  C6_6 
REMARK    5  A    between atoms: C6_6  and  C8_8 
REMARK    6  A    between atoms: C15_16  and  O2_17 
REMARK    7  A    between atoms: C30_34  and  O6_36 
ROOT
HETATM    1  C8  UNL     1      -5.143   6.322  14.758  1.00  0.00     0.006 C 
HETATM    2  C9  UNL     1      -5.614   5.488  13.542  1.00  0.00     0.085 C 
HETATM    3  C10 UNL     1      -4.307   5.061  12.876  1.00  0.00     0.141 C 
HETATM    4  O1  UNL     1      -4.282   4.512  11.786  1.00  0.00    -0.297 OA
HETATM    5  C11 UNL     1      -3.095   5.443  13.741  1.00  0.00     0.055 C 
HETATM    6  C12 UNL     1      -2.906   4.284  14.754  1.00  0.00     0.030 C 
HETATM    7  C13 UNL     1      -1.742   5.754  13.157  1.00  0.00     0.010 C 
HETATM    8  C14 UNL     1      -0.903   6.686  13.679  1.00  0.00    -0.032 C 
HETATM    9  C15 UNL     1      -1.338   7.447  14.951  1.00  0.00     0.149 C 
HETATM   10  C16 UNL     1      -2.800   7.267  15.439  1.00  0.00     0.047 C 
HETATM   11  C17 UNL     1      -3.716   6.777  14.317  1.00  0.00    -0.018 C 
HETATM   12  C18 UNL     1      -3.827   7.921  13.254  1.00  0.00     0.017 C 
HETATM   13  C19 UNL     1       0.478   7.069  13.017  1.00  0.00    -0.012 C 
HETATM   14  C20 UNL     1       1.572   7.052  14.108  1.00  0.00     0.021 C 
HETATM   15  C21 UNL     1       0.316   8.504  12.443  1.00  0.00     0.021 C 
HETATM   16  C22 UNL     1       1.521   9.010  11.672  1.00  0.00     0.080 C 
HETATM   17  C23 UNL     1       1.842   8.087  10.527  1.00  0.00     0.135 C 
HETATM   18  O3  UNL     1       2.022   8.545   9.396  1.00  0.00    -0.297 OA
HETATM   19  C24 UNL     1       2.048   6.604  10.853  1.00  0.00     0.018 C 
HETATM   20  C25 UNL     1       2.072   5.809   9.523  1.00  0.00     0.023 C 
HETATM   21  C26 UNL     1       3.465   6.448  11.449  1.00  0.00     0.023 C 
HETATM   22  C27 UNL     1       0.910   6.089  11.834  1.00  0.00     0.020 C 
HETATM   23  C28 UNL     1      -0.344   5.647  11.055  1.00  0.00     0.090 C 
HETATM   24  C29 UNL     1      -1.264   4.953  12.011  1.00  0.00     0.157 C 
HETATM   25  O4  UNL     1      -1.545   3.766  11.898  1.00  0.00    -0.293 OA
ENDROOT
BRANCH   1  26
HETATM   26  C6  UNL     1      -6.109   7.428  15.275  1.00  0.00    -0.013 C 
HETATM   27  C7  UNL     1      -5.598   8.869  15.173  1.00  0.00     0.010 C 
BRANCH  26  28
HETATM   28  C5  UNL     1      -7.513   7.311  14.623  1.00  0.00     0.008 C 
BRANCH  28  29
HETATM   29  C4  UNL     1      -8.697   7.586  15.553  1.00  0.00     0.028 C 
BRANCH  29  30
HETATM   30  C3  UNL     1      -9.604   8.642  14.982  1.00  0.00    -0.013 C 
HETATM   31  C2  UNL     1     -10.657   8.432  14.164  1.00  0.00     0.008 C 
HETATM   32  C1  UNL     1     -11.045   7.088  13.618  1.00  0.00     0.055 C 
BRANCH  31  33
HETATM   33  C30 UNL     1     -11.515   9.560  13.714  1.00  0.00     0.171 C 
HETATM   34  O5  UNL     1     -12.096  10.341  14.445  1.00  0.00    -0.646 OA
BRANCH  33  35
HETATM   35  O6  UNL     1     -11.614   9.673  12.378  1.00  0.00    -0.773 OA
HETATM   36  H42 UNL     1     -12.195  10.451  12.258  1.00  0.00     0.167 HD
ENDBRANCH  33  35
ENDBRANCH  31  33
ENDBRANCH  29  30
ENDBRANCH  28  29
ENDBRANCH  26  28
ENDBRANCH   1  26
BRANCH   9  37
HETATM   37  O2  UNL     1      -0.503   7.036  16.029  1.00  0.00    -0.391 OA
HETATM   38  H20 UNL     1      -0.691   7.613  16.787  1.00  0.00     0.210 HD
ENDBRANCH   9  37
TORSDOF 7
ENDMDL
MODEL 5
REMARK minimizedAffinity -7.2664175
REMARK CNNscore 0.449790299
REMARK CNNaffinity 6.19964266
REMARK  7 active torsions:
REMARK  status: ('A' for Active; 'I' for Inactive)
REMARK    1  A    between atoms: C2_2  and  C30_34 
REMARK    2  A    between atoms: C3_3  and  C4_4 
REMARK    3  A    between atoms: C4_4  and  C5_5 
REMARK    4  A    between atoms: C5_5  and  C6_6 
REMARK    5  A    between atoms: C6_6  and  C8_8 
REMARK    6  A    between atoms: C15_16  and  O2_17 
REMARK    7  A    between atoms: C30_34  and  O6_36 
ROOT
HETATM    1  C8  UNL     1       8.592  13.485  21.565  1.00  0.00     0.006 C 
HETATM    2  C9  UNL     1       9.806  12.581  21.888  1.00  0.00     0.085 C 
HETATM    3  C10 UNL     1      10.254  12.081  20.517  1.00  0.00     0.141 C 
HETATM    4  O1  UNL     1      11.101  11.211  20.386  1.00  0.00    -0.297 OA
HETATM    5  C11 UNL     1       9.483  12.790  19.391  1.00  0.00     0.055 C 
HETATM    6  C12 UNL     1      10.249  14.110  19.111  1.00  0.00     0.030 C 
HETATM    7  C13 UNL     1       9.203  12.142  18.060  1.00  0.00     0.010 C 
HETATM    8  C14 UNL     1       8.062  12.357  17.355  1.00  0.00    -0.032 C 
HETATM    9  C15 UNL     1       7.009  13.333  17.924  1.00  0.00     0.149 C 
HETATM   10  C16 UNL     1       7.209  13.849  19.374  1.00  0.00     0.047 C 
HETATM   11  C17 UNL     1       8.123  12.929  20.183  1.00  0.00    -0.018 C 
HETATM   12  C18 UNL     1       7.378  11.567  20.383  1.00  0.00     0.017 C 
HETATM   13  C19 UNL     1       7.734  11.612  16.003  1.00  0.00    -0.012 C 
HETATM   14  C20 UNL     1       7.286  12.658  14.957  1.00  0.00     0.021 C 
HETATM   15  C21 UNL     1       6.571  10.626  16.305  1.00  0.00     0.021 C 
HETATM   16  C22 UNL     1       6.181   9.740  15.136  1.00  0.00     0.080 C 
HETATM   17  C23 UNL     1       7.362   8.933  14.667  1.00  0.00     0.135 C 
HETATM   18  O3  UNL     1       7.251   7.717  14.497  1.00  0.00    -0.297 OA
HETATM   19  C24 UNL     1       8.640   9.698  14.305  1.00  0.00     0.018 C 
HETATM   20  C25 UNL     1       9.792   8.675  14.138  1.00  0.00     0.023 C 
HETATM   21  C26 UNL     1       8.435  10.316  12.905  1.00  0.00     0.023 C 
HETATM   22  C27 UNL     1       8.966  10.786  15.415  1.00  0.00     0.020 C 
HETATM   23  C28 UNL     1       9.773  10.178  16.578  1.00  0.00     0.090 C 
HETATM   24  C29 UNL     1      10.250  11.298  17.449  1.00  0.00     0.157 C 
HETATM   25  O4  UNL     1      11.440  11.552  17.588  1.00  0.00    -0.293 OA
ENDROOT
BRANCH   1  26
HETATM   26  C6  UNL     1       7.507  13.636  22.671  1.00  0.00    -0.013 C 
HETATM   27  C7  UNL     1       6.580  14.849  22.542  1.00  0.00     0.010 C 
BRANCH  26  28
HETATM   28  C5  UNL     1       6.670  12.339  22.832  1.00  0.00     0.008 C 
BRANCH  28  29
HETATM   29  C4  UNL     1       5.165  12.544  23.012  1.00  0.00     0.028 C 
BRANCH  29  30
HETATM   30  C3  UNL     1       4.381  11.697  22.046  1.00  0.00    -0.013 C 
HETATM   31  C2  UNL     1       3.675  10.587  22.349  1.00  0.00     0.008 C 
HETATM   32  C1  UNL     1       3.629   9.963  23.714  1.00  0.00     0.055 C 
BRANCH  31  33
HETATM   33  C30 UNL     1       2.891   9.870  21.309  1.00  0.00     0.171 C 
HETATM   34  O5  UNL     1       1.894   9.200  21.512  1.00  0.00    -0.646 OA
BRANCH  33  35
HETATM   35  O6  UNL     1       3.374  10.015  20.063  1.00  0.00    -0.773 OA
HETATM   36  H42 UNL     1       2.749   9.497  19.515  1.00  0.00     0.167 HD
ENDBRANCH  33  35
ENDBRANCH  31  33
ENDBRANCH  29  30
ENDBRANCH  28  29
ENDBRANCH  26  28
ENDBRANCH   1  26
BRANCH   9  37
HETATM   37  O2  UNL     1       6.970  14.488  17.090  1.00  0.00    -0.391 OA
HETATM   38  H20 UNL     1       6.217  15.032  17.373  1.00  0.00     0.210 HD
ENDBRANCH   9  37
TORSDOF 7
ENDMDL
MODEL 6
REMARK minimizedAffinity -7.03024149
REMARK CNNscore 0.38152951
REMARK CNNaffinity 6.23222685
REMARK  7 active torsions:
REMARK  status: ('A' for Active; 'I' for Inactive)
REMARK    1  A    between atoms: C2_2  and  C30_34 
REMARK    2  A    between atoms: C3_3  and  C4_4 
REMARK    3  A    between atoms: C4_4  and  C5_5 
REMARK    4  A    between atoms: C5_5  and  C6_6 
REMARK    5  A    between atoms: C6_6  and  C8_8 
REMARK    6  A    between atoms: C15_16  and  O2_17 
REMARK    7  A    between atoms: C30_34  and  O6_36 
ROOT
HETATM    1  C8  UNL     1      -9.485 -10.599  12.780  1.00  0.00     0.006 C 
HETATM    2  C9  UNL     1      -8.426 -11.486  13.477  1.00  0.00     0.085 C 
HETATM    3  C10 UNL     1      -7.162 -11.247  12.652  1.00  0.00     0.141 C 
HETATM    4  O1  UNL     1      -6.147 -11.906  12.812  1.00  0.00    -0.297 OA
HETATM    5  C11 UNL     1      -7.377 -10.125  11.623  1.00  0.00     0.055 C 
HETATM    6  C12 UNL     1      -7.088  -8.796  12.369  1.00  0.00     0.030 C 
HETATM    7  C13 UNL     1      -6.643 -10.072  10.309  1.00  0.00     0.010 C 
HETATM    8  C14 UNL     1      -7.202  -9.603   9.164  1.00  0.00    -0.032 C 
HETATM    9  C15 UNL     1      -8.651  -9.070   9.208  1.00  0.00     0.149 C 
HETATM   10  C16 UNL     1      -9.468  -9.300  10.508  1.00  0.00     0.047 C 
HETATM   11  C17 UNL     1      -8.898 -10.449  11.340  1.00  0.00    -0.018 C 
HETATM   12  C18 UNL     1      -9.112 -11.776  10.538  1.00  0.00     0.017 C 
HETATM   13  C19 UNL     1      -6.459  -9.626   7.771  1.00  0.00    -0.012 C 
HETATM   14  C20 UNL     1      -6.586  -8.231   7.118  1.00  0.00     0.021 C 
HETATM   15  C21 UNL     1      -7.177 -10.692   6.898  1.00  0.00     0.021 C 
HETATM   16  C22 UNL     1      -6.534 -10.931   5.544  1.00  0.00     0.080 C 
HETATM   17  C23 UNL     1      -5.100 -11.357   5.708  1.00  0.00     0.135 C 
HETATM   18  O3  UNL     1      -4.677 -12.348   5.108  1.00  0.00    -0.297 OA
HETATM   19  C24 UNL     1      -4.185 -10.450   6.539  1.00  0.00     0.018 C 
HETATM   20  C25 UNL     1      -2.864 -11.211   6.818  1.00  0.00     0.023 C 
HETATM   21  C26 UNL     1      -3.787  -9.249   5.654  1.00  0.00     0.023 C 
HETATM   22  C27 UNL     1      -4.914 -10.009   7.880  1.00  0.00     0.020 C 
HETATM   23  C28 UNL     1      -4.727 -11.059   8.992  1.00  0.00     0.090 C 
HETATM   24  C29 UNL     1      -5.220 -10.469  10.276  1.00  0.00     0.157 C 
HETATM   25  O4  UNL     1      -4.473 -10.253  11.223  1.00  0.00    -0.293 OA
ENDROOT
BRANCH   1  26
HETATM   26  C6  UNL     1     -10.970 -11.047  12.894  1.00  0.00    -0.013 C 
HETATM   27  C7  UNL     1     -11.214 -12.407  13.557  1.00  0.00     0.010 C 
BRANCH  26  28
HETATM   28  C5  UNL     1     -11.846  -9.958  13.570  1.00  0.00     0.008 C 
BRANCH  28  29
HETATM   29  C4  UNL     1     -11.396  -8.514  13.340  1.00  0.00     0.028 C 
BRANCH  29  30
HETATM   30  C3  UNL     1     -11.443  -7.718  14.617  1.00  0.00    -0.013 C 
HETATM   31  C2  UNL     1     -12.534  -7.131  15.152  1.00  0.00     0.008 C 
HETATM   32  C1  UNL     1     -13.886  -7.109  14.498  1.00  0.00     0.055 C 
BRANCH  31  33
HETATM   33  C30 UNL     1     -12.460  -6.420  16.456  1.00  0.00     0.171 C 
HETATM   34  O5  UNL     1     -11.514  -5.764  16.850  1.00  0.00    -0.646 OA
BRANCH  33  35
HETATM   35  O6  UNL     1     -13.562  -6.554  17.214  1.00  0.00    -0.773 OA
HETATM   36  H42 UNL     1     -13.352  -6.030  18.014  1.00  0.00     0.167 HD
ENDBRANCH  33  35
ENDBRANCH  31  33
ENDBRANCH  29  30
ENDBRANCH  28  29
ENDBRANCH  26  28
ENDBRANCH   1  26
BRANCH   9  37
HETATM   37  O2  UNL     1      -8.619  -7.661   9.001  1.00  0.00    -0.391 OA
HETATM   38  H20 UNL     1      -9.535  -7.356   8.895  1.00  0.00     0.210 HD
ENDBRANCH   9  37
TORSDOF 7
ENDMDL
MODEL 7
REMARK minimizedAffinity -6.87828779
REMARK CNNscore 0.366733909
REMARK CNNaffinity 5.64254904
REMARK  7 active torsions:
REMARK  status: ('A' for Active; 'I' for Inactive)
REMARK    1  A    between atoms: C2_2  and  C30_34 
REMARK    2  A    between atoms: C3_3  and  C4_4 
REMARK    3  A    between atoms: C4_4  and  C5_5 
REMARK    4  A    between atoms: C5_5  and  C6_6 
REMARK    5  A    between atoms: C6_6  and  C8_8 
REMARK    6  A    between atoms: C15_16  and  O2_17 
REMARK    7  A    between atoms: C30_34  and  O6_36 
ROOT
HETATM    1  C8  UNL     1      11.399  12.003  15.930  1.00  0.00     0.006 C 
HETATM    2  C9  UNL     1      11.513  12.933  14.698  1.00  0.00     0.085 C 
HETATM    3  C10 UNL     1      10.185  12.729  13.973  1.00  0.00     0.141 C 
HETATM    4  O1  UNL     1       9.973  13.188  12.861  1.00  0.00    -0.297 OA
HETATM    5  C11 UNL     1       9.223  11.871  14.811  1.00  0.00     0.055 C 
HETATM    6  C12 UNL     1       8.498  12.851  15.771  1.00  0.00     0.030 C 
HETATM    7  C13 UNL     1       8.172  10.985  14.195  1.00  0.00     0.010 C 
HETATM    8  C14 UNL     1       7.802   9.791  14.726  1.00  0.00    -0.032 C 
HETATM    9  C15 UNL     1       8.466   9.325  16.041  1.00  0.00     0.149 C 
HETATM   10  C16 UNL     1       9.677  10.140  16.569  1.00  0.00     0.047 C 
HETATM   11  C17 UNL     1      10.338  10.958  15.460  1.00  0.00    -0.018 C 
HETATM   12  C18 UNL     1      10.988   9.958  14.447  1.00  0.00     0.017 C 
HETATM   13  C19 UNL     1       6.762   8.827  14.034  1.00  0.00    -0.012 C 
HETATM   14  C20 UNL     1       5.720   8.384  15.087  1.00  0.00     0.021 C 
HETATM   15  C21 UNL     1       7.563   7.597  13.523  1.00  0.00     0.021 C 
HETATM   16  C22 UNL     1       6.739   6.597  12.733  1.00  0.00     0.080 C 
HETATM   17  C23 UNL     1       6.100   7.261  11.542  1.00  0.00     0.135 C 
HETATM   18  O3  UNL     1       6.193   6.747  10.425  1.00  0.00    -0.297 OA
HETATM   19  C24 UNL     1       5.251   8.509  11.802  1.00  0.00     0.018 C 
HETATM   20  C25 UNL     1       4.943   9.185  10.442  1.00  0.00     0.023 C 
HETATM   21  C26 UNL     1       3.883   8.039  12.344  1.00  0.00     0.023 C 
HETATM   22  C27 UNL     1       6.001   9.492  12.799  1.00  0.00     0.020 C 
HETATM   23  C28 UNL     1       6.969  10.424  12.046  1.00  0.00     0.090 C 
HETATM   24  C29 UNL     1       7.446  11.471  13.004  1.00  0.00     0.157 C 
HETATM   25  O4  UNL     1       7.184  12.658  12.853  1.00  0.00    -0.293 OA
ENDROOT
BRANCH   1  26
HETATM   26  C6  UNL     1      12.726  11.445  16.522  1.00  0.00    -0.013 C 
HETATM   27  C7  UNL     1      13.986  11.671  15.679  1.00  0.00     0.010 C 
BRANCH  26  28
HETATM   28  C5  UNL     1      12.958  11.943  17.974  1.00  0.00     0.008 C 
BRANCH  28  29
HETATM   29  C4  UNL     1      13.957  13.093  18.125  1.00  0.00     0.028 C 
BRANCH  29  30
HETATM   30  C3  UNL     1      14.396  13.248  19.556  1.00  0.00    -0.013 C 
HETATM   31  C2  UNL     1      15.615  12.952  20.053  1.00  0.00     0.008 C 
HETATM   32  C1  UNL     1      16.723  12.329  19.253  1.00  0.00     0.055 C 
BRANCH  31  33
HETATM   33  C30 UNL     1      15.944  13.208  21.480  1.00  0.00     0.171 C 
HETATM   34  O5  UNL     1      16.114  12.352  22.330  1.00  0.00    -0.646 OA
BRANCH  33  35
HETATM   35  O6  UNL     1      16.049  14.511  21.792  1.00  0.00    -0.773 OA
HETATM   36  H42 UNL     1      16.271  14.500  22.746  1.00  0.00     0.167 HD
ENDBRANCH  33  35
ENDBRANCH  31  33
ENDBRANCH  29  30
ENDBRANCH  28  29
ENDBRANCH  26  28
ENDBRANCH   1  26
BRANCH   9  37
HETATM   37  O2  UNL     1       7.486   9.350  17.074  1.00  0.00    -0.391 OA
HETATM   38  H20 UNL     1       7.872   8.930  17.859  1.00  0.00     0.210 HD
ENDBRANCH   9  37
TORSDOF 7
ENDMDL
MODEL 8
REMARK minimizedAffinity -6.57262468
REMARK CNNscore 0.35513851
REMARK CNNaffinity 5.76859283
REMARK  7 active torsions:
REMARK  status: ('A' for Active; 'I' for Inactive)
REMARK    1  A    between atoms: C2_2  and  C30_34 
REMARK    2  A    between atoms: C3_3  and  C4_4 
REMARK    3  A    between atoms: C4_4  and  C5_5 
REMARK    4  A    between atoms: C5_5  and  C6_6 
REMARK    5  A    between atoms: C6_6  and  C8_8 
REMARK    6  A    between atoms: C15_16  and  O2_17 
REMARK    7  A    between atoms: C30_34  and  O6_36 
ROOT
HETATM    1  C8  UNL     1     -13.905   8.854  14.204  1.00  0.00     0.006 C 
HETATM    2  C9  UNL     1     -14.158   9.027  12.688  1.00  0.00     0.085 C 
HETATM    3  C10 UNL     1     -15.320   8.076  12.409  1.00  0.00     0.141 C 
HETATM    4  O1  UNL     1     -15.699   7.825  11.276  1.00  0.00    -0.297 OA
HETATM    5  C11 UNL     1     -15.884   7.494  13.716  1.00  0.00     0.055 C 
HETATM    6  C12 UNL     1     -16.914   8.528  14.239  1.00  0.00     0.030 C 
HETATM    7  C13 UNL     1     -16.532   6.136  13.791  1.00  0.00     0.010 C 
HETATM    8  C14 UNL     1     -16.423   5.319  14.871  1.00  0.00    -0.032 C 
HETATM    9  C15 UNL     1     -15.621   5.811  16.096  1.00  0.00     0.149 C 
HETATM   10  C16 UNL     1     -14.799   7.118  15.947  1.00  0.00     0.047 C 
HETATM   11  C17 UNL     1     -14.502   7.438  14.481  1.00  0.00    -0.018 C 
HETATM   12  C18 UNL     1     -13.534   6.336  13.936  1.00  0.00     0.017 C 
HETATM   13  C19 UNL     1     -17.033   3.865  14.915  1.00  0.00    -0.012 C 
HETATM   14  C20 UNL     1     -17.824   3.697  16.232  1.00  0.00     0.021 C 
HETATM   15  C21 UNL     1     -15.835   2.875  14.880  1.00  0.00     0.021 C 
HETATM   16  C22 UNL     1     -16.232   1.412  14.813  1.00  0.00     0.080 C 
HETATM   17  C23 UNL     1     -17.083   1.150  13.599  1.00  0.00     0.135 C 
HETATM   18  O3  UNL     1     -16.815   0.210  12.848  1.00  0.00    -0.297 OA
HETATM   19  C24 UNL     1     -18.336   2.013  13.417  1.00  0.00     0.018 C 
HETATM   20  C25 UNL     1     -18.886   1.782  11.987  1.00  0.00     0.023 C 
HETATM   21  C26 UNL     1     -19.424   1.466  14.367  1.00  0.00     0.023 C 
HETATM   22  C27 UNL     1     -17.999   3.542  13.686  1.00  0.00     0.020 C 
HETATM   23  C28 UNL     1     -17.457   4.228  12.418  1.00  0.00     0.090 C 
HETATM   24  C29 UNL     1     -17.398   5.702  12.676  1.00  0.00     0.157 C 
HETATM   25  O4  UNL     1     -18.087   6.500  12.051  1.00  0.00    -0.293 OA
ENDROOT
BRANCH   1  26
HETATM   26  C6  UNL     1     -12.461   9.124  14.717  1.00  0.00    -0.013 C 
HETATM   27  C7  UNL     1     -11.543   9.898  13.765  1.00  0.00     0.010 C 
BRANCH  26  28
HETATM   28  C5  UNL     1     -12.467   9.795  16.117  1.00  0.00     0.008 C 
BRANCH  28  29
HETATM   29  C4  UNL     1     -11.107   9.880  16.813  1.00  0.00     0.028 C 
BRANCH  29  30
HETATM   30  C3  UNL     1     -11.258   9.829  18.310  1.00  0.00    -0.013 C 
HETATM   31  C2  UNL     1     -11.006  10.837  19.172  1.00  0.00     0.008 C 
HETATM   32  C1  UNL     1     -10.444  12.171  18.768  1.00  0.00     0.055 C 
BRANCH  31  33
HETATM   33  C30 UNL     1     -11.252  10.679  20.629  1.00  0.00     0.171 C 
HETATM   34  O5  UNL     1     -11.721  11.531  21.363  1.00  0.00    -0.646 OA
BRANCH  33  35
HETATM   35  O6  UNL     1     -10.908   9.474  21.114  1.00  0.00    -0.773 OA
HETATM   36  H42 UNL     1     -11.138   9.537  22.064  1.00  0.00     0.167 HD
ENDBRANCH  33  35
ENDBRANCH  31  33
ENDBRANCH  29  30
ENDBRANCH  28  29
ENDBRANCH  26  28
ENDBRANCH   1  26
BRANCH   9  37
HETATM   37  O2  UNL     1     -16.531   6.031  17.170  1.00  0.00    -0.391 OA
HETATM   38  H20 UNL     1     -16.008   6.207  17.970  1.00  0.00     0.210 HD
ENDBRANCH   9  37
TORSDOF 7
ENDMDL
MODEL 9
REMARK minimizedAffinity -8.24988174
REMARK CNNscore 0.35502705
REMARK CNNaffinity 6.63002634
REMARK  7 active torsions:
REMARK  status: ('A' for Active; 'I' for Inactive)
REMARK    1  A    between atoms: C2_2  and  C30_34 
REMARK    2  A    between atoms: C3_3  and  C4_4 
REMARK    3  A    between atoms: C4_4  and  C5_5 
REMARK    4  A    between atoms: C5_5  and  C6_6 
REMARK    5  A    between atoms: C6_6  and  C8_8 
REMARK    6  A    between atoms: C15_16  and  O2_17 
REMARK    7  A    between atoms: C30_34  and  O6_36 
ROOT
HETATM    1  C8  UNL     1      -3.295   6.917  14.801  1.00  0.00     0.006 C 
HETATM    2  C9  UNL     1      -3.838   5.855  13.816  1.00  0.00     0.085 C 
HETATM    3  C10 UNL     1      -2.577   5.306  13.153  1.00  0.00     0.141 C 
HETATM    4  O1  UNL     1      -2.621   4.548  12.196  1.00  0.00    -0.297 OA
HETATM    5  C11 UNL     1      -1.311   5.858  13.830  1.00  0.00     0.055 C 
HETATM    6  C12 UNL     1      -1.028   4.926  15.037  1.00  0.00     0.030 C 
HETATM    7  C13 UNL     1      -0.010   6.048  13.094  1.00  0.00     0.010 C 
HETATM    8  C14 UNL     1       0.848   7.068  13.355  1.00  0.00    -0.032 C 
HETATM    9  C15 UNL     1       0.494   8.069  14.477  1.00  0.00     0.149 C 
HETATM   10  C16 UNL     1      -0.925   7.986  15.100  1.00  0.00     0.047 C 
HETATM   11  C17 UNL     1      -1.912   7.278  14.172  1.00  0.00    -0.018 C 
HETATM   12  C18 UNL     1      -2.121   8.184  12.912  1.00  0.00     0.017 C 
HETATM   13  C19 UNL     1       2.169   7.314  12.527  1.00  0.00    -0.012 C 
HETATM   14  C20 UNL     1       3.341   7.520  13.513  1.00  0.00     0.021 C 
HETATM   15  C21 UNL     1       1.940   8.604  11.691  1.00  0.00     0.021 C 
HETATM   16  C22 UNL     1       3.076   8.947  10.745  1.00  0.00     0.080 C 
HETATM   17  C23 UNL     1       3.329   7.814   9.787  1.00  0.00     0.135 C 
HETATM   18  O3  UNL     1       3.417   8.035   8.577  1.00  0.00    -0.297 OA
HETATM   19  C24 UNL     1       3.585   6.427  10.388  1.00  0.00     0.018 C 
HETATM   20  C25 UNL     1       3.526   5.381   9.246  1.00  0.00     0.023 C 
HETATM   21  C26 UNL     1       5.044   6.399  10.894  1.00  0.00     0.023 C 
HETATM   22  C27 UNL     1       2.531   6.118  11.535  1.00  0.00     0.020 C 
HETATM   23  C28 UNL     1       1.231   5.524  10.958  1.00  0.00     0.090 C 
HETATM   24  C29 UNL     1       0.397   5.034  12.100  1.00  0.00     0.157 C 
HETATM   25  O4  UNL     1       0.129   3.848  12.249  1.00  0.00    -0.293 OA
ENDROOT
BRANCH   1  26
HETATM   26  C6  UNL     1      -4.240   8.102  15.157  1.00  0.00    -0.013 C 
HETATM   27  C7  UNL     1      -4.239   9.281  14.179  1.00  0.00     0.010 C 
BRANCH  26  28
HETATM   28  C5  UNL     1      -5.693   7.618  15.409  1.00  0.00     0.008 C 
BRANCH  28  29
HETATM   29  C4  UNL     1      -6.562   7.463  14.159  1.00  0.00     0.028 C 
BRANCH  29  30
HETATM   30  C3  UNL     1      -6.688   6.017  13.759  1.00  0.00    -0.013 C 
HETATM   31  C2  UNL     1      -7.838   5.357  13.503  1.00  0.00     0.008 C 
HETATM   32  C1  UNL     1      -9.206   5.956  13.660  1.00  0.00     0.055 C 
BRANCH  31  33
HETATM   33  C30 UNL     1      -7.825   3.939  13.057  1.00  0.00     0.171 C 
HETATM   34  O5  UNL     1      -8.794   3.311  12.670  1.00  0.00    -0.646 OA
BRANCH  33  35
HETATM   35  O6  UNL     1      -6.613   3.361  13.110  1.00  0.00    -0.773 OA
HETATM   36  H42 UNL     1      -6.779   2.453  12.783  1.00  0.00     0.167 HD
ENDBRANCH  33  35
ENDBRANCH  31  33
ENDBRANCH  29  30
ENDBRANCH  28  29
ENDBRANCH  26  28
ENDBRANCH   1  26
BRANCH   9  37
HETATM   37  O2  UNL     1       1.413   7.885  15.550  1.00  0.00    -0.391 OA
HETATM   38  H20 UNL     1       1.270   8.603  16.189  1.00  0.00     0.210 HD
ENDBRANCH   9  37
TORSDOF 7
ENDMDL
