MODEL 1
REMARK minimizedAffinity -6.49413395
REMARK CNNscore 0.473700315
REMARK CNNaffinity 6.48395777
REMARK  9 active torsions:
REMARK  status: ('A' for Active; 'I' for Inactive)
REMARK    1  A    between atoms: C12_14  and  C13_15 
REMARK    2  A    between atoms: C13_15  and  C15_17 
REMARK    3  A    between atoms: C15_17  and  C16_18 
REMARK    4  A    between atoms: C16_18  and  C17_19 
REMARK    5  A    between atoms: C18_20  and  C20_22 
REMARK    6  A    between atoms: C26_29  and  C27_30 
REMARK    7  A    between atoms: C27_30  and  C28_31 
REMARK    8  A    between atoms: C28_31  and  C29_32 
REMARK    9  A    between atoms: C29_32  and  O5_34 
ROOT
HETATM    1  C1  UNL     1       4.729  57.630  -3.875  1.00  0.00     0.025 C 
HETATM    2  C2  UNL     1       4.232  57.421  -5.100  1.00  0.00     0.015 C 
HETATM    3  C3  UNL     1       2.771  57.297  -5.300  1.00  0.00     0.289 C 
HETATM    4  O1  UNL     1       1.935  57.087  -4.440  1.00  0.00    -0.260 OA
HETATM    5  O2  UNL     1       2.521  57.459  -6.624  1.00  0.00    -0.311 OA
HETATM    6  C4  UNL     1       3.729  57.810  -7.314  1.00  0.00     0.142 C 
HETATM    7  C5  UNL     1       3.710  57.186  -8.699  1.00  0.00     0.039 C 
HETATM    8  C6  UNL     1       3.664  55.653  -8.610  1.00  0.00     0.006 C 
HETATM    9  C7  UNL     1       4.950  55.131  -7.934  1.00  0.00    -0.027 A 
HETATM   10  C8  UNL     1       5.829  54.214  -8.793  1.00  0.00     0.011 C 
HETATM   11  C9  UNL     1       5.099  53.161  -9.650  1.00  0.00     0.011 C 
HETATM   12  C10 UNL     1       3.598  53.416  -9.847  1.00  0.00    -0.032 C 
HETATM   13  C11 UNL     1       2.833  52.775  -8.650  1.00  0.00     0.016 C 
HETATM   14  C12 UNL     1       2.969  52.893 -11.181  1.00  0.00    -0.002 C 
HETATM   15  C21 UNL     1       1.724  53.813 -11.349  1.00  0.00     0.006 C 
HETATM   16  C22 UNL     1       1.911  55.030 -10.426  1.00  0.00     0.011 C 
HETATM   17  C23 UNL     1       3.385  54.967  -9.980  1.00  0.00    -0.032 C 
HETATM   18  C24 UNL     1       4.210  55.640 -11.125  1.00  0.00     0.016 C 
HETATM   19  C25 UNL     1       4.907  54.763  -6.464  1.00  0.00     0.022 A 
HETATM   20  C26 UNL     1       5.595  56.056  -6.842  1.00  0.00    -0.021 A 
HETATM   21  C30 UNL     1       4.906  57.385  -6.436  1.00  0.00     0.063 C 
ENDROOT
BRANCH  14  22
HETATM   22  C13 UNL     1       2.613  51.382 -11.343  1.00  0.00    -0.014 C 
HETATM   23  C14 UNL     1       3.866  50.516 -11.521  1.00  0.00     0.010 C 
BRANCH  22  24
HETATM   24  C15 UNL     1       1.652  51.185 -12.549  1.00  0.00     0.008 C 
BRANCH  24  25
HETATM   25  C16 UNL     1       2.317  50.579 -13.791  1.00  0.00     0.028 C 
BRANCH  25  26
HETATM   26  C17 UNL     1       1.549  50.942 -15.035  1.00  0.00    -0.017 C 
HETATM   27  C18 UNL     1       1.935  51.782 -16.013  1.00  0.00    -0.028 C 
HETATM   28  C19 UNL     1       3.206  52.567 -16.096  1.00  0.00     0.051 C 
BRANCH  27  29
HETATM   29  C20 UNL     1       0.994  51.960 -17.158  1.00  0.00     0.265 C 
HETATM   30  O3  UNL     1       1.211  52.736 -18.081  1.00  0.00    -0.302 OA
ENDBRANCH  27  29
ENDBRANCH  25  26
ENDBRANCH  24  25
ENDBRANCH  22  24
ENDBRANCH  14  22
BRANCH  20  31
HETATM   31  C27 UNL     1       7.131  56.132  -6.850  1.00  0.00     0.021 C 
BRANCH  31  32
HETATM   32  C28 UNL     1       7.849  55.381  -5.735  1.00  0.00     0.111 C 
BRANCH  32  33
HETATM   33  C29 UNL     1       8.519  56.301  -4.753  1.00  0.00     0.139 C 
HETATM   34  O4  UNL     1       9.079  55.989  -3.716  1.00  0.00    -0.650 OA
BRANCH  33  35
HETATM   35  O5  UNL     1       8.510  57.584  -5.169  1.00  0.00    -0.776 OA
HETATM   36  H41 UNL     1       8.983  58.070  -4.460  1.00  0.00     0.167 HD
ENDBRANCH  33  35
ENDBRANCH  32  33
ENDBRANCH  31  32
ENDBRANCH  20  31
TORSDOF 9
ENDMDL
MODEL 2
REMARK minimizedAffinity -7.17254925
REMARK CNNscore 0.441449285
REMARK CNNaffinity 6.70149994
REMARK  9 active torsions:
REMARK  status: ('A' for Active; 'I' for Inactive)
REMARK    1  A    between atoms: C12_14  and  C13_15 
REMARK    2  A    between atoms: C13_15  and  C15_17 
REMARK    3  A    between atoms: C15_17  and  C16_18 
REMARK    4  A    between atoms: C16_18  and  C17_19 
REMARK    5  A    between atoms: C18_20  and  C20_22 
REMARK    6  A    between atoms: C26_29  and  C27_30 
REMARK    7  A    between atoms: C27_30  and  C28_31 
REMARK    8  A    between atoms: C28_31  and  C29_32 
REMARK    9  A    between atoms: C29_32  and  O5_34 
ROOT
HETATM    1  C1  UNL     1     -10.342  45.286 -20.584  1.00  0.00     0.025 C 
HETATM    2  C2  UNL     1      -9.470  46.019 -21.286  1.00  0.00     0.015 C 
HETATM    3  C3  UNL     1      -8.780  45.436 -22.457  1.00  0.00     0.289 C 
HETATM    4  O1  UNL     1      -8.689  44.253 -22.733  1.00  0.00    -0.260 OA
HETATM    5  O2  UNL     1      -8.260  46.459 -23.181  1.00  0.00    -0.311 OA
HETATM    6  C4  UNL     1      -8.670  47.716 -22.622  1.00  0.00     0.142 C 
HETATM    7  C5  UNL     1      -7.546  48.725 -22.789  1.00  0.00     0.039 C 
HETATM    8  C6  UNL     1      -6.288  48.275 -22.029  1.00  0.00     0.006 C 
HETATM    9  C7  UNL     1      -6.583  48.224 -20.515  1.00  0.00    -0.027 A 
HETATM   10  C8  UNL     1      -5.749  49.169 -19.641  1.00  0.00     0.011 C 
HETATM   11  C9  UNL     1      -4.250  49.285 -19.985  1.00  0.00     0.011 C 
HETATM   12  C10 UNL     1      -3.865  48.766 -21.378  1.00  0.00    -0.032 C 
HETATM   13  C11 UNL     1      -3.583  47.237 -21.267  1.00  0.00     0.016 C 
HETATM   14  C12 UNL     1      -2.638  49.454 -22.065  1.00  0.00    -0.002 C 
HETATM   15  C21 UNL     1      -2.908  49.190 -23.575  1.00  0.00     0.006 C 
HETATM   16  C22 UNL     1      -4.386  48.788 -23.725  1.00  0.00     0.011 C 
HETATM   17  C23 UNL     1      -5.030  49.128 -22.368  1.00  0.00    -0.032 C 
HETATM   18  C24 UNL     1      -5.382  50.651 -22.427  1.00  0.00     0.016 C 
HETATM   19  C25 UNL     1      -6.895  46.886 -19.874  1.00  0.00     0.022 A 
HETATM   20  C26 UNL     1      -8.046  47.840 -20.097  1.00  0.00    -0.021 A 
HETATM   21  C30 UNL     1      -9.096  47.464 -21.176  1.00  0.00     0.063 C 
ENDROOT
BRANCH  14  22
HETATM   22  C13 UNL     1      -1.185  49.066 -21.648  1.00  0.00    -0.014 C 
HETATM   23  C14 UNL     1      -1.130  47.684 -20.987  1.00  0.00     0.010 C 
BRANCH  22  24
HETATM   24  C15 UNL     1      -0.599  50.140 -20.688  1.00  0.00     0.008 C 
BRANCH  24  25
HETATM   25  C16 UNL     1      -1.250  51.523 -20.819  1.00  0.00     0.028 C 
BRANCH  25  26
HETATM   26  C17 UNL     1      -0.200  52.590 -20.989  1.00  0.00    -0.017 C 
HETATM   27  C18 UNL     1       0.445  52.924 -22.122  1.00  0.00    -0.028 C 
HETATM   28  C19 UNL     1       0.289  52.309 -23.478  1.00  0.00     0.051 C 
BRANCH  27  29
HETATM   29  C20 UNL     1       1.434  54.037 -22.031  1.00  0.00     0.265 C 
HETATM   30  O3  UNL     1       1.820  54.497 -20.963  1.00  0.00    -0.302 OA
ENDBRANCH  27  29
ENDBRANCH  25  26
ENDBRANCH  24  25
ENDBRANCH  22  24
ENDBRANCH  14  22
BRANCH  20  31
HETATM   31  C27 UNL     1      -8.633  48.623 -18.910  1.00  0.00     0.021 C 
BRANCH  31  32
HETATM   32  C28 UNL     1      -8.365  48.049 -17.525  1.00  0.00     0.111 C 
BRANCH  32  33
HETATM   33  C29 UNL     1      -9.615  47.559 -16.847  1.00  0.00     0.139 C 
HETATM   34  O4  UNL     1     -10.114  46.451 -16.935  1.00  0.00    -0.650 OA
BRANCH  33  35
HETATM   35  O5  UNL     1     -10.143  48.487 -16.023  1.00  0.00    -0.776 OA
HETATM   36  H41 UNL     1     -10.931  48.046 -15.637  1.00  0.00     0.167 HD
ENDBRANCH  33  35
ENDBRANCH  32  33
ENDBRANCH  31  32
ENDBRANCH  20  31
TORSDOF 9
ENDMDL
MODEL 3
REMARK minimizedAffinity -6.86494875
REMARK CNNscore 0.335455567
REMARK CNNaffinity 6.24120378
REMARK  9 active torsions:
REMARK  status: ('A' for Active; 'I' for Inactive)
REMARK    1  A    between atoms: C12_14  and  C13_15 
REMARK    2  A    between atoms: C13_15  and  C15_17 
REMARK    3  A    between atoms: C15_17  and  C16_18 
REMARK    4  A    between atoms: C16_18  and  C17_19 
REMARK    5  A    between atoms: C18_20  and  C20_22 
REMARK    6  A    between atoms: C26_29  and  C27_30 
REMARK    7  A    between atoms: C27_30  and  C28_31 
REMARK    8  A    between atoms: C28_31  and  C29_32 
REMARK    9  A    between atoms: C29_32  and  O5_34 
ROOT
HETATM    1  C1  UNL     1      -5.449  48.487 -30.177  1.00  0.00     0.025 C 
HETATM    2  C2  UNL     1      -5.940  47.355 -30.697  1.00  0.00     0.015 C 
HETATM    3  C3  UNL     1      -5.126  46.553 -31.636  1.00  0.00     0.289 C 
HETATM    4  O1  UNL     1      -4.132  46.921 -32.235  1.00  0.00    -0.260 OA
HETATM    5  O2  UNL     1      -5.686  45.320 -31.716  1.00  0.00    -0.311 OA
HETATM    6  C4  UNL     1      -6.769  45.208 -30.781  1.00  0.00     0.142 C 
HETATM    7  C5  UNL     1      -7.856  44.332 -31.380  1.00  0.00     0.039 C 
HETATM    8  C6  UNL     1      -8.422  44.960 -32.663  1.00  0.00     0.006 C 
HETATM    9  C7  UNL     1      -9.105  46.303 -32.329  1.00  0.00    -0.027 A 
HETATM   10  C8  UNL     1     -10.606  46.382 -32.633  1.00  0.00     0.011 C 
HETATM   11  C9  UNL     1     -11.076  45.751 -33.959  1.00  0.00     0.011 C 
HETATM   12  C10 UNL     1     -10.072  44.788 -34.609  1.00  0.00    -0.032 C 
HETATM   13  C11 UNL     1      -9.106  45.622 -35.504  1.00  0.00     0.016 C 
HETATM   14  C12 UNL     1     -10.673  43.626 -35.468  1.00  0.00    -0.002 C 
HETATM   15  C21 UNL     1      -9.542  42.556 -35.423  1.00  0.00     0.006 C 
HETATM   16  C22 UNL     1      -8.596  42.921 -34.266  1.00  0.00     0.011 C 
HETATM   17  C23 UNL     1      -9.350  43.996 -33.460  1.00  0.00    -0.032 C 
HETATM   18  C24 UNL     1     -10.312  43.220 -32.502  1.00  0.00     0.016 C 
HETATM   19  C25 UNL     1      -8.346  47.592 -32.576  1.00  0.00     0.022 A 
HETATM   20  C26 UNL     1      -8.490  47.129 -31.144  1.00  0.00    -0.021 A 
HETATM   21  C30 UNL     1      -7.216  46.624 -30.418  1.00  0.00     0.063 C 
ENDROOT
BRANCH  14  22
HETATM   22  C13 UNL     1     -11.171  43.899 -36.922  1.00  0.00    -0.014 C 
HETATM   23  C14 UNL     1     -10.053  43.709 -37.953  1.00  0.00     0.010 C 
BRANCH  22  24
HETATM   24  C15 UNL     1     -11.755  45.336 -37.026  1.00  0.00     0.008 C 
BRANCH  24  25
HETATM   25  C16 UNL     1     -12.324  45.687 -38.406  1.00  0.00     0.028 C 
BRANCH  25  26
HETATM   26  C17 UNL     1     -12.197  47.163 -38.674  1.00  0.00    -0.017 C 
HETATM   27  C18 UNL     1     -13.008  48.143 -38.232  1.00  0.00    -0.028 C 
HETATM   28  C19 UNL     1     -14.234  48.003 -37.386  1.00  0.00     0.051 C 
BRANCH  27  29
HETATM   29  C20 UNL     1     -12.653  49.539 -38.623  1.00  0.00     0.265 C 
HETATM   30  O3  UNL     1     -13.467  50.323 -39.096  1.00  0.00    -0.302 OA
ENDBRANCH  27  29
ENDBRANCH  25  26
ENDBRANCH  24  25
ENDBRANCH  22  24
ENDBRANCH  14  22
BRANCH  20  31
HETATM   31  C27 UNL     1      -9.500  47.820 -30.213  1.00  0.00     0.021 C 
BRANCH  31  32
HETATM   32  C28 UNL     1      -9.625  47.246 -28.808  1.00  0.00     0.111 C 
BRANCH  32  33
HETATM   33  C29 UNL     1      -9.348  48.264 -27.737  1.00  0.00     0.139 C 
HETATM   34  O4  UNL     1      -9.637  48.186 -26.555  1.00  0.00    -0.650 OA
BRANCH  33  35
HETATM   35  O5  UNL     1      -8.647  49.316 -28.205  1.00  0.00    -0.776 OA
HETATM   36  H41 UNL     1      -8.520  49.890 -27.418  1.00  0.00     0.167 HD
ENDBRANCH  33  35
ENDBRANCH  32  33
ENDBRANCH  31  32
ENDBRANCH  20  31
TORSDOF 9
ENDMDL
MODEL 4
REMARK minimizedAffinity -6.48054409
REMARK CNNscore 0.281334519
REMARK CNNaffinity 6.46796846
REMARK  9 active torsions:
REMARK  status: ('A' for Active; 'I' for Inactive)
REMARK    1  A    between atoms: C12_14  and  C13_15 
REMARK    2  A    between atoms: C13_15  and  C15_17 
REMARK    3  A    between atoms: C15_17  and  C16_18 
REMARK    4  A    between atoms: C16_18  and  C17_19 
REMARK    5  A    between atoms: C18_20  and  C20_22 
REMARK    6  A    between atoms: C26_29  and  C27_30 
REMARK    7  A    between atoms: C27_30  and  C28_31 
REMARK    8  A    between atoms: C28_31  and  C29_32 
REMARK    9  A    between atoms: C29_32  and  O5_34 
ROOT
HETATM    1  C1  UNL     1      -0.259  49.390 -10.918  1.00  0.00     0.025 C 
HETATM    2  C2  UNL     1       0.736  50.286 -10.929  1.00  0.00     0.015 C 
HETATM    3  C3  UNL     1       2.094  49.897 -10.491  1.00  0.00     0.289 C 
HETATM    4  O1  UNL     1       2.395  48.908  -9.848  1.00  0.00    -0.260 OA
HETATM    5  O2  UNL     1       2.957  50.844 -10.936  1.00  0.00    -0.311 OA
HETATM    6  C4  UNL     1       2.266  51.793 -11.761  1.00  0.00     0.142 C 
HETATM    7  C5  UNL     1       2.875  53.169 -11.554  1.00  0.00     0.039 C 
HETATM    8  C6  UNL     1       2.713  53.627 -10.096  1.00  0.00     0.006 C 
HETATM    9  C7  UNL     1       1.214  53.778  -9.760  1.00  0.00    -0.027 A 
HETATM   10  C8  UNL     1       0.758  55.189  -9.369  1.00  0.00     0.011 C 
HETATM   11  C9  UNL     1       1.693  55.985  -8.437  1.00  0.00     0.011 C 
HETATM   12  C10 UNL     1       3.126  55.440  -8.340  1.00  0.00    -0.032 C 
HETATM   13  C11 UNL     1       3.159  54.353  -7.223  1.00  0.00     0.016 C 
HETATM   14  C12 UNL     1       4.254  56.486  -8.055  1.00  0.00    -0.002 C 
HETATM   15  C21 UNL     1       5.518  55.783  -8.634  1.00  0.00     0.006 C 
HETATM   16  C22 UNL     1       5.042  54.650  -9.559  1.00  0.00     0.011 C 
HETATM   17  C23 UNL     1       3.537  54.906  -9.760  1.00  0.00    -0.032 C 
HETATM   18  C24 UNL     1       3.428  55.963 -10.907  1.00  0.00     0.016 C 
HETATM   19  C25 UNL     1       0.516  52.662  -9.009  1.00  0.00     0.022 A 
HETATM   20  C26 UNL     1       0.229  52.797 -10.487  1.00  0.00    -0.021 A 
HETATM   21  C30 UNL     1       0.777  51.695 -11.432  1.00  0.00     0.063 C 
ENDROOT
BRANCH  14  22
HETATM   22  C13 UNL     1       4.485  57.018  -6.606  1.00  0.00    -0.014 C 
HETATM   23  C14 UNL     1       3.467  58.100  -6.227  1.00  0.00     0.010 C 
BRANCH  22  24
HETATM   24  C15 UNL     1       5.930  57.571  -6.463  1.00  0.00     0.008 C 
BRANCH  24  25
HETATM   25  C16 UNL     1       6.490  57.511  -5.036  1.00  0.00     0.028 C 
BRANCH  25  26
HETATM   26  C17 UNL     1       7.718  58.374  -4.910  1.00  0.00    -0.017 C 
HETATM   27  C18 UNL     1       9.002  57.981  -5.002  1.00  0.00    -0.028 C 
HETATM   28  C19 UNL     1       9.520  56.596  -5.235  1.00  0.00     0.051 C 
BRANCH  27  29
HETATM   29  C20 UNL     1      10.043  59.041  -4.859  1.00  0.00     0.265 C 
HETATM   30  O3  UNL     1      10.162  59.722  -3.848  1.00  0.00    -0.302 OA
ENDBRANCH  27  29
ENDBRANCH  25  26
ENDBRANCH  24  25
ENDBRANCH  22  24
ENDBRANCH  14  22
BRANCH  20  31
HETATM   31  C27 UNL     1      -1.102  53.408 -10.955  1.00  0.00     0.021 C 
BRANCH  31  32
HETATM   32  C28 UNL     1      -2.339  53.029 -10.151  1.00  0.00     0.111 C 
BRANCH  32  33
HETATM   33  C29 UNL     1      -3.591  53.009 -10.983  1.00  0.00     0.139 C 
HETATM   34  O4  UNL     1      -4.470  52.164 -10.970  1.00  0.00    -0.650 OA
BRANCH  33  35
HETATM   35  O5  UNL     1      -3.707  54.110 -11.753  1.00  0.00    -0.776 OA
HETATM   36  H41 UNL     1      -4.558  53.984 -12.226  1.00  0.00     0.167 HD
ENDBRANCH  33  35
ENDBRANCH  32  33
ENDBRANCH  31  32
ENDBRANCH  20  31
TORSDOF 9
ENDMDL
MODEL 5
REMARK minimizedAffinity -6.68133831
REMARK CNNscore 0.276833385
REMARK CNNaffinity 5.72658968
REMARK  9 active torsions:
REMARK  status: ('A' for Active; 'I' for Inactive)
REMARK    1  A    between atoms: C12_14  and  C13_15 
REMARK    2  A    between atoms: C13_15  and  C15_17 
REMARK    3  A    between atoms: C15_17  and  C16_18 
REMARK    4  A    between atoms: C16_18  and  C17_19 
REMARK    5  A    between atoms: C18_20  and  C20_22 
REMARK    6  A    between atoms: C26_29  and  C27_30 
REMARK    7  A    between atoms: C27_30  and  C28_31 
REMARK    8  A    between atoms: C28_31  and  C29_32 
REMARK    9  A    between atoms: C29_32  and  O5_34 
ROOT
HETATM    1  C1  UNL     1      -5.281  46.667 -31.238  1.00  0.00     0.025 C 
HETATM    2  C2  UNL     1      -6.416  47.108 -30.683  1.00  0.00     0.015 C 
HETATM    3  C3  UNL     1      -6.396  47.736 -29.344  1.00  0.00     0.289 C 
HETATM    4  O1  UNL     1      -5.498  47.672 -28.524  1.00  0.00    -0.260 OA
HETATM    5  O2  UNL     1      -7.566  48.403 -29.184  1.00  0.00    -0.311 OA
HETATM    6  C4  UNL     1      -8.328  48.362 -30.400  1.00  0.00     0.142 C 
HETATM    7  C5  UNL     1      -9.806  48.290 -30.059  1.00  0.00     0.039 C 
HETATM    8  C6  UNL     1     -10.127  47.009 -29.275  1.00  0.00     0.006 C 
HETATM    9  C7  UNL     1      -9.841  45.773 -30.154  1.00  0.00    -0.027 A 
HETATM   10  C8  UNL     1     -11.049  44.880 -30.464  1.00  0.00     0.011 C 
HETATM   11  C9  UNL     1     -12.024  44.610 -29.301  1.00  0.00     0.011 C 
HETATM   12  C10 UNL     1     -11.892  45.571 -28.110  1.00  0.00    -0.032 C 
HETATM   13  C11 UNL     1     -10.802  45.008 -27.148  1.00  0.00     0.016 C 
HETATM   14  C12 UNL     1     -13.194  45.845 -27.286  1.00  0.00    -0.002 C 
HETATM   15  C21 UNL     1     -12.898  47.233 -26.643  1.00  0.00     0.006 C 
HETATM   16  C22 UNL     1     -11.726  47.866 -27.412  1.00  0.00     0.011 C 
HETATM   17  C23 UNL     1     -11.565  47.000 -28.676  1.00  0.00    -0.032 C 
HETATM   18  C24 UNL     1     -12.607  47.544 -29.707  1.00  0.00     0.016 C 
HETATM   19  C25 UNL     1      -8.538  45.022 -29.961  1.00  0.00     0.022 A 
HETATM   20  C26 UNL     1      -8.663  45.901 -31.184  1.00  0.00    -0.021 A 
HETATM   21  C30 UNL     1      -7.805  47.193 -31.234  1.00  0.00     0.063 C 
ENDROOT
BRANCH  14  22
HETATM   22  C13 UNL     1     -13.695  44.803 -26.237  1.00  0.00    -0.014 C 
HETATM   23  C14 UNL     1     -14.480  43.663 -26.897  1.00  0.00     0.010 C 
BRANCH  22  24
HETATM   24  C15 UNL     1     -14.573  45.504 -25.163  1.00  0.00     0.008 C 
BRANCH  24  25
HETATM   25  C16 UNL     1     -15.882  44.771 -24.843  1.00  0.00     0.028 C 
BRANCH  25  26
HETATM   26  C17 UNL     1     -17.060  45.697 -24.996  1.00  0.00    -0.017 C 
HETATM   27  C18 UNL     1     -17.789  46.257 -24.013  1.00  0.00    -0.028 C 
HETATM   28  C19 UNL     1     -17.616  46.085 -22.536  1.00  0.00     0.051 C 
BRANCH  27  29
HETATM   29  C20 UNL     1     -18.902  47.159 -24.429  1.00  0.00     0.265 C 
HETATM   30  O3  UNL     1     -19.828  46.786 -25.139  1.00  0.00    -0.302 OA
ENDBRANCH  27  29
ENDBRANCH  25  26
ENDBRANCH  24  25
ENDBRANCH  22  24
ENDBRANCH  14  22
BRANCH  20  31
HETATM   31  C27 UNL     1      -8.905  45.265 -32.563  1.00  0.00     0.021 C 
BRANCH  31  32
HETATM   32  C28 UNL     1     -10.323  44.785 -32.844  1.00  0.00     0.111 C 
BRANCH  32  33
HETATM   33  C29 UNL     1     -10.927  45.435 -34.058  1.00  0.00     0.139 C 
HETATM   34  O4  UNL     1     -10.334  45.969 -34.979  1.00  0.00    -0.650 OA
BRANCH  33  35
HETATM   35  O5  UNL     1     -12.270  45.316 -34.083  1.00  0.00    -0.776 OA
HETATM   36  H41 UNL     1     -12.536  45.759 -34.919  1.00  0.00     0.167 HD
ENDBRANCH  33  35
ENDBRANCH  32  33
ENDBRANCH  31  32
ENDBRANCH  20  31
TORSDOF 9
ENDMDL
MODEL 6
REMARK minimizedAffinity -8.27446651
REMARK CNNscore 0.258014828
REMARK CNNaffinity 6.4800725
REMARK  9 active torsions:
REMARK  status: ('A' for Active; 'I' for Inactive)
REMARK    1  A    between atoms: C12_14  and  C13_15 
REMARK    2  A    between atoms: C13_15  and  C15_17 
REMARK    3  A    between atoms: C15_17  and  C16_18 
REMARK    4  A    between atoms: C16_18  and  C17_19 
REMARK    5  A    between atoms: C18_20  and  C20_22 
REMARK    6  A    between atoms: C26_29  and  C27_30 
REMARK    7  A    between atoms: C27_30  and  C28_31 
REMARK    8  A    between atoms: C28_31  and  C29_32 
REMARK    9  A    between atoms: C29_32  and  O5_34 
ROOT
HETATM    1  C1  UNL     1      -7.339  49.215 -23.876  1.00  0.00     0.025 C 
HETATM    2  C2  UNL     1      -6.381  48.851 -23.015  1.00  0.00     0.015 C 
HETATM    3  C3  UNL     1      -6.719  48.556 -21.606  1.00  0.00     0.289 C 
HETATM    4  O1  UNL     1      -7.745  48.862 -21.025  1.00  0.00    -0.260 OA
HETATM    5  O2  UNL     1      -5.676  47.878 -21.065  1.00  0.00    -0.311 OA
HETATM    6  C4  UNL     1      -4.698  47.590 -22.076  1.00  0.00     0.142 C 
HETATM    7  C5  UNL     1      -3.311  47.654 -21.458  1.00  0.00     0.039 C 
HETATM    8  C6  UNL     1      -3.013  49.062 -20.922  1.00  0.00     0.006 C 
HETATM    9  C7  UNL     1      -2.998  50.073 -22.089  1.00  0.00    -0.027 A 
HETATM   10  C8  UNL     1      -1.668  50.797 -22.326  1.00  0.00     0.011 C 
HETATM   11  C9  UNL     1      -0.907  51.274 -21.073  1.00  0.00     0.011 C 
HETATM   12  C10 UNL     1      -1.361  50.628 -19.756  1.00  0.00    -0.032 C 
HETATM   13  C11 UNL     1      -2.549  51.461 -19.188  1.00  0.00     0.016 C 
HETATM   14  C12 UNL     1      -0.274  50.478 -18.640  1.00  0.00    -0.002 C 
HETATM   15  C21 UNL     1      -0.829  49.299 -17.787  1.00  0.00     0.006 C 
HETATM   16  C22 UNL     1      -1.894  48.572 -18.627  1.00  0.00     0.011 C 
HETATM   17  C23 UNL     1      -1.722  49.127 -20.054  1.00  0.00    -0.032 C 
HETATM   18  C24 UNL     1      -0.565  48.298 -20.703  1.00  0.00     0.016 C 
HETATM   19  C25 UNL     1      -4.229  50.922 -22.338  1.00  0.00     0.022 A 
HETATM   20  C26 UNL     1      -3.967  49.776 -23.288  1.00  0.00    -0.021 A 
HETATM   21  C30 UNL     1      -4.929  48.560 -23.234  1.00  0.00     0.063 C 
ENDROOT
BRANCH  14  22
HETATM   22  C13 UNL     1       0.125  51.705 -17.762  1.00  0.00    -0.014 C 
HETATM   23  C14 UNL     1       0.930  52.739 -18.559  1.00  0.00     0.010 C 
BRANCH  22  24
HETATM   24  C15 UNL     1       0.937  51.235 -16.523  1.00  0.00     0.008 C 
BRANCH  24  25
HETATM   25  C16 UNL     1       1.928  52.277 -15.987  1.00  0.00     0.028 C 
BRANCH  25  26
HETATM   26  C17 UNL     1       2.928  51.632 -15.064  1.00  0.00    -0.017 C 
HETATM   27  C18 UNL     1       2.743  50.541 -14.298  1.00  0.00    -0.028 C 
HETATM   28  C19 UNL     1       1.500  49.717 -14.164  1.00  0.00     0.051 C 
BRANCH  27  29
HETATM   29  C20 UNL     1       3.906  50.087 -13.480  1.00  0.00     0.265 C 
HETATM   30  O3  UNL     1       4.874  49.512 -13.963  1.00  0.00    -0.302 OA
ENDBRANCH  27  29
ENDBRANCH  25  26
ENDBRANCH  24  25
ENDBRANCH  22  24
ENDBRANCH  14  22
BRANCH  20  31
HETATM   31  C27 UNL     1      -3.403  50.058 -24.690  1.00  0.00     0.021 C 
BRANCH  31  32
HETATM   32  C28 UNL     1      -3.903  51.322 -25.376  1.00  0.00     0.111 C 
BRANCH  32  33
HETATM   33  C29 UNL     1      -3.129  51.654 -26.622  1.00  0.00     0.139 C 
HETATM   34  O4  UNL     1      -3.175  51.074 -27.693  1.00  0.00    -0.650 OA
BRANCH  33  35
HETATM   35  O5  UNL     1      -2.373  52.761 -26.471  1.00  0.00    -0.776 OA
HETATM   36  H41 UNL     1      -1.938  52.876 -27.344  1.00  0.00     0.167 HD
ENDBRANCH  33  35
ENDBRANCH  32  33
ENDBRANCH  31  32
ENDBRANCH  20  31
TORSDOF 9
ENDMDL
MODEL 7
REMARK minimizedAffinity -8.21666145
REMARK CNNscore 0.209393471
REMARK CNNaffinity 5.71445704
REMARK  9 active torsions:
REMARK  status: ('A' for Active; 'I' for Inactive)
REMARK    1  A    between atoms: C12_14  and  C13_15 
REMARK    2  A    between atoms: C13_15  and  C15_17 
REMARK    3  A    between atoms: C15_17  and  C16_18 
REMARK    4  A    between atoms: C16_18  and  C17_19 
REMARK    5  A    between atoms: C18_20  and  C20_22 
REMARK    6  A    between atoms: C26_29  and  C27_30 
REMARK    7  A    between atoms: C27_30  and  C28_31 
REMARK    8  A    between atoms: C28_31  and  C29_32 
REMARK    9  A    between atoms: C29_32  and  O5_34 
ROOT
HETATM    1  C1  UNL     1      -9.417  47.882 -20.059  1.00  0.00     0.025 C 
HETATM    2  C2  UNL     1      -8.124  47.766 -20.389  1.00  0.00     0.015 C 
HETATM    3  C3  UNL     1      -7.125  47.388 -19.366  1.00  0.00     0.289 C 
HETATM    4  O1  UNL     1      -7.273  47.424 -18.157  1.00  0.00    -0.260 OA
HETATM    5  O2  UNL     1      -6.002  46.991 -20.014  1.00  0.00    -0.311 OA
HETATM    6  C4  UNL     1      -6.233  46.963 -21.430  1.00  0.00     0.142 C 
HETATM    7  C5  UNL     1      -4.959  47.370 -22.150  1.00  0.00     0.039 C 
HETATM    8  C6  UNL     1      -4.554  48.805 -21.781  1.00  0.00     0.006 C 
HETATM    9  C7  UNL     1      -5.639  49.793 -22.261  1.00  0.00    -0.027 A 
HETATM   10  C8  UNL     1      -5.186  50.829 -23.297  1.00  0.00     0.011 C 
HETATM   11  C9  UNL     1      -3.805  51.476 -23.069  1.00  0.00     0.011 C 
HETATM   12  C10 UNL     1      -2.897  50.729 -22.081  1.00  0.00    -0.032 C 
HETATM   13  C11 UNL     1      -3.221  51.235 -20.643  1.00  0.00     0.016 C 
HETATM   14  C12 UNL     1      -1.355  50.852 -22.320  1.00  0.00    -0.002 C 
HETATM   15  C21 UNL     1      -0.806  49.567 -21.632  1.00  0.00     0.006 C 
HETATM   16  C22 UNL     1      -1.986  48.601 -21.432  1.00  0.00     0.011 C 
HETATM   17  C23 UNL     1      -3.129  49.188 -22.281  1.00  0.00    -0.032 C 
HETATM   18  C24 UNL     1      -2.889  48.679 -23.740  1.00  0.00     0.016 C 
HETATM   19  C25 UNL     1      -6.655  50.307 -21.261  1.00  0.00     0.022 A 
HETATM   20  C26 UNL     1      -7.118  49.268 -22.256  1.00  0.00    -0.021 A 
HETATM   21  C30 UNL     1      -7.443  47.849 -21.720  1.00  0.00     0.063 C 
ENDROOT
BRANCH  14  22
HETATM   22  C13 UNL     1      -0.590  52.136 -21.870  1.00  0.00    -0.014 C 
HETATM   23  C14 UNL     1       0.205  52.760 -23.024  1.00  0.00     0.010 C 
BRANCH  22  24
HETATM   24  C15 UNL     1       0.360  51.805 -20.685  1.00  0.00     0.008 C 
BRANCH  24  25
HETATM   25  C16 UNL     1      -0.033  52.468 -19.358  1.00  0.00     0.028 C 
BRANCH  25  26
HETATM   26  C17 UNL     1      -0.089  51.448 -18.251  1.00  0.00    -0.017 C 
HETATM   27  C18 UNL     1       0.687  51.397 -17.152  1.00  0.00    -0.028 C 
HETATM   28  C19 UNL     1       1.797  52.327 -16.772  1.00  0.00     0.051 C 
BRANCH  27  29
HETATM   29  C20 UNL     1       0.418  50.289 -16.189  1.00  0.00     0.265 C 
HETATM   30  O3  UNL     1      -0.369  50.396 -15.257  1.00  0.00    -0.302 OA
ENDBRANCH  27  29
ENDBRANCH  25  26
ENDBRANCH  24  25
ENDBRANCH  22  24
ENDBRANCH  14  22
BRANCH  20  31
HETATM   31  C27 UNL     1      -7.983  49.689 -23.456  1.00  0.00     0.021 C 
BRANCH  31  32
HETATM   32  C28 UNL     1      -8.087  48.685 -24.597  1.00  0.00     0.111 C 
BRANCH  32  33
HETATM   33  C29 UNL     1      -9.360  48.829 -25.384  1.00  0.00     0.139 C 
HETATM   34  O4  UNL     1     -10.277  48.029 -25.454  1.00  0.00    -0.650 OA
BRANCH  33  35
HETATM   35  O5  UNL     1      -9.445  50.027 -25.999  1.00  0.00    -0.776 OA
HETATM   36  H41 UNL     1     -10.313  50.001 -26.457  1.00  0.00     0.167 HD
ENDBRANCH  33  35
ENDBRANCH  32  33
ENDBRANCH  31  32
ENDBRANCH  20  31
TORSDOF 9
ENDMDL
MODEL 8
REMARK minimizedAffinity -6.78651857
REMARK CNNscore 0.208218217
REMARK CNNaffinity 5.46222878
REMARK  9 active torsions:
REMARK  status: ('A' for Active; 'I' for Inactive)
REMARK    1  A    between atoms: C12_14  and  C13_15 
REMARK    2  A    between atoms: C13_15  and  C15_17 
REMARK    3  A    between atoms: C15_17  and  C16_18 
REMARK    4  A    between atoms: C16_18  and  C17_19 
REMARK    5  A    between atoms: C18_20  and  C20_22 
REMARK    6  A    between atoms: C26_29  and  C27_30 
REMARK    7  A    between atoms: C27_30  and  C28_31 
REMARK    8  A    between atoms: C28_31  and  C29_32 
REMARK    9  A    between atoms: C29_32  and  O5_34 
ROOT
HETATM    1  C1  UNL     1      -8.733  46.894 -35.695  1.00  0.00     0.025 C 
HETATM    2  C2  UNL     1      -9.268  46.227 -34.665  1.00  0.00     0.015 C 
HETATM    3  C3  UNL     1     -10.683  45.798 -34.710  1.00  0.00     0.289 C 
HETATM    4  O1  UNL     1     -11.543  46.208 -35.469  1.00  0.00    -0.260 OA
HETATM    5  O2  UNL     1     -10.860  44.857 -33.750  1.00  0.00    -0.311 OA
HETATM    6  C4  UNL     1      -9.602  44.537 -33.136  1.00  0.00     0.142 C 
HETATM    7  C5  UNL     1      -9.829  44.237 -31.664  1.00  0.00     0.039 C 
HETATM    8  C6  UNL     1     -10.394  45.465 -30.934  1.00  0.00     0.006 C 
HETATM    9  C7  UNL     1      -9.364  46.615 -30.973  1.00  0.00    -0.027 A 
HETATM   10  C8  UNL     1      -8.847  47.093 -29.611  1.00  0.00     0.011 C 
HETATM   11  C9  UNL     1      -9.890  47.222 -28.482  1.00  0.00     0.011 C 
HETATM   12  C10 UNL     1     -11.214  46.489 -28.739  1.00  0.00    -0.032 C 
HETATM   13  C11 UNL     1     -12.155  47.445 -29.534  1.00  0.00     0.016 C 
HETATM   14  C12 UNL     1     -11.980  45.967 -27.478  1.00  0.00    -0.002 C 
HETATM   15  C21 UNL     1     -12.837  44.806 -28.062  1.00  0.00     0.006 C 
HETATM   16  C22 UNL     1     -12.249  44.433 -29.434  1.00  0.00     0.011 C 
HETATM   17  C23 UNL     1     -10.887  45.149 -29.491  1.00  0.00    -0.032 C 
HETATM   18  C24 UNL     1      -9.878  44.215 -28.744  1.00  0.00     0.016 C 
HETATM   19  C25 UNL     1      -9.533  47.715 -32.002  1.00  0.00     0.022 A 
HETATM   20  C26 UNL     1      -8.446  46.693 -32.244  1.00  0.00    -0.021 A 
HETATM   21  C30 UNL     1      -8.643  45.693 -33.414  1.00  0.00     0.063 C 
ENDROOT
BRANCH  14  22
HETATM   22  C13 UNL     1     -12.829  46.950 -26.611  1.00  0.00    -0.014 C 
HETATM   23  C14 UNL     1     -12.311  47.031 -25.170  1.00  0.00     0.010 C 
BRANCH  22  24
HETATM   24  C15 UNL     1     -14.321  46.517 -26.619  1.00  0.00     0.008 C 
BRANCH  24  25
HETATM   25  C16 UNL     1     -14.844  46.035 -25.260  1.00  0.00     0.028 C 
BRANCH  25  26
HETATM   26  C17 UNL     1     -16.319  46.311 -25.130  1.00  0.00    -0.017 C 
HETATM   27  C18 UNL     1     -17.029  46.426 -23.992  1.00  0.00    -0.028 C 
HETATM   28  C19 UNL     1     -16.531  46.292 -22.587  1.00  0.00     0.051 C 
BRANCH  27  29
HETATM   29  C20 UNL     1     -18.485  46.722 -24.132  1.00  0.00     0.265 C 
HETATM   30  O3  UNL     1     -18.921  47.547 -24.926  1.00  0.00    -0.302 OA
ENDBRANCH  27  29
ENDBRANCH  25  26
ENDBRANCH  24  25
ENDBRANCH  22  24
ENDBRANCH  14  22
BRANCH  20  31
HETATM   31  C27 UNL     1      -6.976  47.064 -31.987  1.00  0.00     0.021 C 
BRANCH  31  32
HETATM   32  C28 UNL     1      -6.165  47.488 -33.205  1.00  0.00     0.111 C 
BRANCH  32  33
HETATM   33  C29 UNL     1      -4.728  47.781 -32.874  1.00  0.00     0.139 C 
HETATM   34  O4  UNL     1      -3.743  47.425 -33.496  1.00  0.00    -0.650 OA
BRANCH  33  35
HETATM   35  O5  UNL     1      -4.608  48.580 -31.794  1.00  0.00    -0.776 OA
HETATM   36  H41 UNL     1      -3.639  48.706 -31.695  1.00  0.00     0.167 HD
ENDBRANCH  33  35
ENDBRANCH  32  33
ENDBRANCH  31  32
ENDBRANCH  20  31
TORSDOF 9
ENDMDL
MODEL 9
REMARK minimizedAffinity -6.5953455
REMARK CNNscore 0.199110329
REMARK CNNaffinity 6.09264708
REMARK  9 active torsions:
REMARK  status: ('A' for Active; 'I' for Inactive)
REMARK    1  A    between atoms: C12_14  and  C13_15 
REMARK    2  A    between atoms: C13_15  and  C15_17 
REMARK    3  A    between atoms: C15_17  and  C16_18 
REMARK    4  A    between atoms: C16_18  and  C17_19 
REMARK    5  A    between atoms: C18_20  and  C20_22 
REMARK    6  A    between atoms: C26_29  and  C27_30 
REMARK    7  A    between atoms: C27_30  and  C28_31 
REMARK    8  A    between atoms: C28_31  and  C29_32 
REMARK    9  A    between atoms: C29_32  and  O5_34 
ROOT
HETATM    1  C1  UNL     1      -7.031  43.387 -20.912  1.00  0.00     0.025 C 
HETATM    2  C2  UNL     1      -6.786  44.703 -20.884  1.00  0.00     0.015 C 
HETATM    3  C3  UNL     1      -7.116  45.546 -22.053  1.00  0.00     0.289 C 
HETATM    4  O1  UNL     1      -7.347  45.162 -23.186  1.00  0.00    -0.260 OA
HETATM    5  O2  UNL     1      -7.117  46.839 -21.642  1.00  0.00    -0.311 OA
HETATM    6  C4  UNL     1      -6.924  46.904 -20.221  1.00  0.00     0.142 C 
HETATM    7  C5  UNL     1      -6.109  48.141 -19.885  1.00  0.00     0.039 C 
HETATM    8  C6  UNL     1      -4.717  48.074 -20.532  1.00  0.00     0.006 C 
HETATM    9  C7  UNL     1      -3.928  46.882 -19.949  1.00  0.00    -0.027 A 
HETATM   10  C8  UNL     1      -2.637  47.239 -19.202  1.00  0.00     0.011 C 
HETATM   11  C9  UNL     1      -1.750  48.329 -19.836  1.00  0.00     0.011 C 
HETATM   12  C10 UNL     1      -2.446  49.191 -20.900  1.00  0.00    -0.032 C 
HETATM   13  C11 UNL     1      -2.312  48.471 -22.275  1.00  0.00     0.016 C 
HETATM   14  C12 UNL     1      -1.934  50.662 -21.052  1.00  0.00    -0.002 C 
HETATM   15  C21 UNL     1      -3.168  51.385 -21.667  1.00  0.00     0.006 C 
HETATM   16  C22 UNL     1      -4.397  50.486 -21.448  1.00  0.00     0.011 C 
HETATM   17  C23 UNL     1      -3.933  49.416 -20.441  1.00  0.00    -0.032 C 
HETATM   18  C24 UNL     1      -4.085  50.062 -19.025  1.00  0.00     0.016 C 
HETATM   19  C25 UNL     1      -3.859  45.591 -20.741  1.00  0.00     0.022 A 
HETATM   20  C26 UNL     1      -4.765  45.622 -19.532  1.00  0.00    -0.021 A 
HETATM   21  C30 UNL     1      -6.297  45.583 -19.777  1.00  0.00     0.063 C 
ENDROOT
BRANCH  14  22
HETATM   22  C13 UNL     1      -0.621  50.959 -21.841  1.00  0.00    -0.014 C 
HETATM   23  C14 UNL     1       0.557  51.243 -20.902  1.00  0.00     0.010 C 
BRANCH  22  24
HETATM   24  C15 UNL     1      -0.836  52.158 -22.806  1.00  0.00     0.008 C 
BRANCH  24  25
HETATM   25  C16 UNL     1      -0.110  52.024 -24.151  1.00  0.00     0.028 C 
BRANCH  25  26
HETATM   26  C17 UNL     1      -1.008  52.448 -25.284  1.00  0.00    -0.017 C 
HETATM   27  C18 UNL     1      -0.904  52.096 -26.579  1.00  0.00    -0.028 C 
HETATM   28  C19 UNL     1       0.131  51.217 -27.208  1.00  0.00     0.051 C 
BRANCH  27  29
HETATM   29  C20 UNL     1      -1.937  52.639 -27.509  1.00  0.00     0.265 C 
HETATM   30  O3  UNL     1      -1.943  53.804 -27.888  1.00  0.00    -0.302 OA
ENDBRANCH  27  29
ENDBRANCH  25  26
ENDBRANCH  24  25
ENDBRANCH  22  24
ENDBRANCH  14  22
BRANCH  20  31
HETATM   31  C27 UNL     1      -4.329  44.928 -18.231  1.00  0.00     0.021 C 
BRANCH  31  32
HETATM   32  C28 UNL     1      -3.557  43.624 -18.388  1.00  0.00     0.111 C 
BRANCH  32  33
HETATM   33  C29 UNL     1      -2.962  43.141 -17.094  1.00  0.00     0.139 C 
HETATM   34  O4  UNL     1      -3.522  42.502 -16.220  1.00  0.00    -0.650 OA
BRANCH  33  35
HETATM   35  O5  UNL     1      -1.649  43.434 -16.998  1.00  0.00    -0.776 OA
HETATM   36  H41 UNL     1      -1.382  43.057 -16.131  1.00  0.00     0.167 HD
ENDBRANCH  33  35
ENDBRANCH  32  33
ENDBRANCH  31  32
ENDBRANCH  20  31
TORSDOF 9
ENDMDL
