MODEL 1
REMARK minimizedAffinity -9.4128933
REMARK  5 active torsions:
REMARK  status: ('A' for Active; 'I' for Inactive)
REMARK    1  A    between atoms: C2_2  and  C4_4 
REMARK    2  A    between atoms: C7_7  and  C8_8 
REMARK    3  A    between atoms: C8_8  and  O2_10 
REMARK    4  A    between atoms: C11_13  and  C12_14 
REMARK    5  A    between atoms: C12_14  and  O4_16 
ROOT
HETATM    1  C4  UNL     1       0.477  52.874 -23.953  1.00  0.00     0.019 C 
HETATM    2  C5  UNL     1       0.090  54.110 -24.767  1.00  0.00     0.011 C 
HETATM    3  C6  UNL     1      -0.078  53.543 -26.170  1.00  0.00     0.021 C 
HETATM    4  C7  UNL     1      -0.844  52.215 -25.972  1.00  0.00     0.050 C 
HETATM    5  C9  UNL     1      -2.356  52.476 -26.084  1.00  0.00     0.022 C 
HETATM    6  C10 UNL     1      -3.227  51.371 -25.490  1.00  0.00     0.023 C 
HETATM    7  C11 UNL     1      -2.911  51.017 -24.014  1.00  0.00     0.057 C 
HETATM    8  C13 UNL     1      -1.373  50.782 -23.821  1.00  0.00     0.011 C 
HETATM    9  C14 UNL     1      -1.035  50.456 -22.361  1.00  0.00     0.007 C 
HETATM   10  C15 UNL     1      -1.826  49.264 -21.804  1.00  0.00     0.006 C 
HETATM   11  C16 UNL     1      -3.354  49.384 -22.025  1.00  0.00     0.003 C 
HETATM   12  C17 UNL     1      -4.234  48.280 -21.287  1.00  0.00    -0.035 C 
HETATM   13  C18 UNL     1      -3.858  46.848 -21.733  1.00  0.00     0.016 C 
HETATM   14  C19 UNL     1      -3.979  48.385 -19.752  1.00  0.00     0.017 C 
HETATM   15  C20 UNL     1      -4.934  47.569 -18.893  1.00  0.00     0.080 C 
HETATM   16  C21 UNL     1      -6.376  47.876 -19.210  1.00  0.00     0.135 C 
HETATM   17  O5  UNL     1      -7.181  48.030 -18.289  1.00  0.00    -0.297 OA
HETATM   18  C22 UNL     1      -6.805  47.863 -20.687  1.00  0.00     0.017 C 
HETATM   19  C23 UNL     1      -7.022  46.404 -21.114  1.00  0.00     0.023 C 
HETATM   20  C24 UNL     1      -8.180  48.574 -20.777  1.00  0.00     0.023 C 
HETATM   21  C25 UNL     1      -5.745  48.652 -21.533  1.00  0.00     0.009 C 
HETATM   22  C26 UNL     1      -6.067  48.710 -23.039  1.00  0.00     0.007 C 
HETATM   23  C27 UNL     1      -5.229  49.765 -23.767  1.00  0.00     0.011 C 
HETATM   24  C28 UNL     1      -3.691  49.648 -23.549  1.00  0.00    -0.022 C 
HETATM   25  C29 UNL     1      -3.250  48.430 -24.428  1.00  0.00     0.017 C 
HETATM   26  C30 UNL     1      -0.355  51.698 -24.572  1.00  0.00     0.018 C 
ENDROOT
BRANCH   4  27
HETATM   27  C8  UNL     1      -0.470  51.214 -27.065  1.00  0.00     0.149 C 
HETATM   28  O1  UNL     1       0.201  50.204 -26.925  1.00  0.00    -0.649 OA
BRANCH  27  29
HETATM   29  O2  UNL     1      -1.024  51.486 -28.262  1.00  0.00    -0.776 OA
HETATM   30  H11 UNL     1      -0.727  50.747 -28.834  1.00  0.00     0.167 HD
ENDBRANCH  27  29
ENDBRANCH   4  27
BRANCH   1  31
HETATM   31  C2  UNL     1       0.705  53.070 -22.466  1.00  0.00    -0.088 C 
HETATM   32  C1  UNL     1       0.556  52.033 -21.619  1.00  0.00     0.014 C 
HETATM   33  C3  UNL     1       1.212  54.382 -21.937  1.00  0.00     0.043 C 
ENDBRANCH   1  31
BRANCH   7  34
HETATM   34  C12 UNL     1      -3.394  52.220 -23.163  1.00  0.00     0.149 C 
HETATM   35  O3  UNL     1      -4.098  52.214 -22.167  1.00  0.00    -0.649 OA
BRANCH  34  36
HETATM   36  O4  UNL     1      -3.012  53.415 -23.636  1.00  0.00    -0.776 OA
HETATM   37  H16 UNL     1      -3.428  54.046 -23.010  1.00  0.00     0.167 HD
ENDBRANCH  34  36
ENDBRANCH   7  34
TORSDOF 5
ENDMDL
MODEL 2
REMARK minimizedAffinity -9.34359741
REMARK  5 active torsions:
REMARK  status: ('A' for Active; 'I' for Inactive)
REMARK    1  A    between atoms: C2_2  and  C4_4 
REMARK    2  A    between atoms: C7_7  and  C8_8 
REMARK    3  A    between atoms: C8_8  and  O2_10 
REMARK    4  A    between atoms: C11_13  and  C12_14 
REMARK    5  A    between atoms: C12_14  and  O4_16 
ROOT
HETATM    1  C4  UNL     1      -3.003  48.079 -17.403  1.00  0.00     0.019 C 
HETATM    2  C5  UNL     1      -3.079  46.552 -17.347  1.00  0.00     0.011 C 
HETATM    3  C6  UNL     1      -4.502  46.275 -17.814  1.00  0.00     0.021 C 
HETATM    4  C7  UNL     1      -4.718  47.228 -19.013  1.00  0.00     0.050 C 
HETATM    5  C9  UNL     1      -4.333  46.506 -20.315  1.00  0.00     0.022 C 
HETATM    6  C10 UNL     1      -4.085  47.440 -21.497  1.00  0.00     0.023 C 
HETATM    7  C11 UNL     1      -3.034  48.550 -21.238  1.00  0.00     0.057 C 
HETATM    8  C13 UNL     1      -3.343  49.298 -19.897  1.00  0.00     0.011 C 
HETATM    9  C14 UNL     1      -2.299  50.385 -19.608  1.00  0.00     0.007 C 
HETATM   10  C15 UNL     1      -2.140  51.396 -20.752  1.00  0.00     0.006 C 
HETATM   11  C16 UNL     1      -1.907  50.730 -22.130  1.00  0.00     0.003 C 
HETATM   12  C17 UNL     1      -1.530  51.731 -23.311  1.00  0.00    -0.035 C 
HETATM   13  C18 UNL     1      -2.629  52.795 -23.540  1.00  0.00     0.016 C 
HETATM   14  C19 UNL     1      -0.215  52.477 -22.929  1.00  0.00     0.017 C 
HETATM   15  C20 UNL     1       0.410  53.280 -24.061  1.00  0.00     0.080 C 
HETATM   16  C21 UNL     1       0.620  52.441 -25.296  1.00  0.00     0.135 C 
HETATM   17  O5  UNL     1       1.682  52.527 -25.917  1.00  0.00    -0.297 OA
HETATM   18  C22 UNL     1      -0.563  51.596 -25.799  1.00  0.00     0.017 C 
HETATM   19  C23 UNL     1      -1.512  52.513 -26.584  1.00  0.00     0.023 C 
HETATM   20  C24 UNL     1       0.002  50.558 -26.803  1.00  0.00     0.023 C 
HETATM   21  C25 UNL     1      -1.214  50.853 -24.580  1.00  0.00     0.009 C 
HETATM   22  C26 UNL     1      -2.418  49.968 -24.960  1.00  0.00     0.007 C 
HETATM   23  C27 UNL     1      -2.796  48.999 -23.836  1.00  0.00     0.011 C 
HETATM   24  C28 UNL     1      -3.032  49.663 -22.446  1.00  0.00    -0.022 C 
HETATM   25  C29 UNL     1      -4.430  50.358 -22.564  1.00  0.00     0.017 C 
HETATM   26  C30 UNL     1      -3.846  48.486 -18.661  1.00  0.00     0.018 C 
ENDROOT
BRANCH   4  27
HETATM   27  C8  UNL     1      -6.191  47.620 -19.124  1.00  0.00     0.149 C 
HETATM   28  O1  UNL     1      -6.633  48.654 -19.600  1.00  0.00    -0.649 OA
BRANCH  27  29
HETATM   29  O2  UNL     1      -7.040  46.662 -18.707  1.00  0.00    -0.776 OA
HETATM   30  H11 UNL     1      -7.928  47.042 -18.876  1.00  0.00     0.167 HD
ENDBRANCH  27  29
ENDBRANCH   4  27
BRANCH   1  31
HETATM   31  C2  UNL     1      -1.683  48.719 -17.016  1.00  0.00    -0.088 C 
HETATM   32  C1  UNL     1      -1.245  48.647 -15.744  1.00  0.00     0.014 C 
HETATM   33  C3  UNL     1      -0.795  49.333 -18.063  1.00  0.00     0.043 C 
ENDBRANCH   1  31
BRANCH   7  34
HETATM   34  C12 UNL     1      -1.657  47.840 -21.168  1.00  0.00     0.149 C 
HETATM   35  O3  UNL     1      -0.622  48.235 -20.656  1.00  0.00    -0.649 OA
BRANCH  34  36
HETATM   36  O4  UNL     1      -1.615  46.659 -21.801  1.00  0.00    -0.776 OA
HETATM   37  H16 UNL     1      -0.682  46.378 -21.689  1.00  0.00     0.167 HD
ENDBRANCH  34  36
ENDBRANCH   7  34
TORSDOF 5
ENDMDL
MODEL 3
REMARK minimizedAffinity -9.3320961
REMARK  5 active torsions:
REMARK  status: ('A' for Active; 'I' for Inactive)
REMARK    1  A    between atoms: C2_2  and  C4_4 
REMARK    2  A    between atoms: C7_7  and  C8_8 
REMARK    3  A    between atoms: C8_8  and  O2_10 
REMARK    4  A    between atoms: C11_13  and  C12_14 
REMARK    5  A    between atoms: C12_14  and  O4_16 
ROOT
HETATM    1  C4  UNL     1      -0.399  51.660 -23.571  1.00  0.00     0.019 C 
HETATM    2  C5  UNL     1      -0.630  53.078 -24.098  1.00  0.00     0.011 C 
HETATM    3  C6  UNL     1      -1.116  52.827 -25.519  1.00  0.00     0.021 C 
HETATM    4  C7  UNL     1      -2.110  51.648 -25.396  1.00  0.00     0.050 C 
HETATM    5  C9  UNL     1      -3.532  52.198 -25.191  1.00  0.00     0.022 C 
HETATM    6  C10 UNL     1      -4.521  51.180 -24.629  1.00  0.00     0.023 C 
HETATM    7  C11 UNL     1      -4.076  50.502 -23.308  1.00  0.00     0.057 C 
HETATM    8  C13 UNL     1      -2.612  49.957 -23.435  1.00  0.00     0.011 C 
HETATM    9  C14 UNL     1      -2.143  49.304 -22.129  1.00  0.00     0.007 C 
HETATM   10  C15 UNL     1      -3.079  48.194 -21.631  1.00  0.00     0.006 C 
HETATM   11  C16 UNL     1      -4.561  48.632 -21.551  1.00  0.00     0.003 C 
HETATM   12  C17 UNL     1      -5.539  47.589 -20.848  1.00  0.00    -0.035 C 
HETATM   13  C18 UNL     1      -5.544  46.222 -21.573  1.00  0.00     0.016 C 
HETATM   14  C19 UNL     1      -5.047  47.353 -19.387  1.00  0.00     0.017 C 
HETATM   15  C20 UNL     1      -6.018  46.579 -18.508  1.00  0.00     0.080 C 
HETATM   16  C21 UNL     1      -7.392  47.199 -18.507  1.00  0.00     0.135 C 
HETATM   17  O5  UNL     1      -8.004  47.321 -17.443  1.00  0.00    -0.297 OA
HETATM   18  C22 UNL     1      -8.025  47.545 -19.866  1.00  0.00     0.017 C 
HETATM   19  C23 UNL     1      -8.606  46.258 -20.469  1.00  0.00     0.023 C 
HETATM   20  C24 UNL     1      -9.216  48.500 -19.595  1.00  0.00     0.023 C 
HETATM   21  C25 UNL     1      -6.956  48.271 -20.756  1.00  0.00     0.009 C 
HETATM   22  C26 UNL     1      -7.474  48.671 -22.152  1.00  0.00     0.007 C 
HETATM   23  C27 UNL     1      -6.547  49.672 -22.845  1.00  0.00     0.011 C 
HETATM   24  C28 UNL     1      -5.053  49.237 -22.929  1.00  0.00    -0.022 C 
HETATM   25  C29 UNL     1      -5.013  48.147 -24.052  1.00  0.00     0.017 C 
HETATM   26  C30 UNL     1      -1.543  50.796 -24.204  1.00  0.00     0.018 C 
ENDROOT
BRANCH   4  27
HETATM   27  C8  UNL     1      -2.120  50.821 -26.681  1.00  0.00     0.149 C 
HETATM   28  O1  UNL     1      -2.252  49.610 -26.763  1.00  0.00    -0.649 OA
BRANCH  27  29
HETATM   29  O2  UNL     1      -2.045  51.561 -27.803  1.00  0.00    -0.776 OA
HETATM   30  H11 UNL     1      -2.102  50.902 -28.527  1.00  0.00     0.167 HD
ENDBRANCH  27  29
ENDBRANCH   4  27
BRANCH   1  31
HETATM   31  C2  UNL     1       0.078  51.526 -22.137  1.00  0.00    -0.088 C 
HETATM   32  C1  UNL     1       1.178  52.189 -21.728  1.00  0.00     0.014 C 
HETATM   33  C3  UNL     1      -0.730  50.755 -21.131  1.00  0.00     0.043 C 
ENDBRANCH   1  31
BRANCH   7  34
HETATM   34  C12 UNL     1      -4.165  51.590 -22.207  1.00  0.00     0.149 C 
HETATM   35  O3  UNL     1      -3.666  51.590 -21.094  1.00  0.00    -0.649 OA
BRANCH  34  36
HETATM   36  O4  UNL     1      -4.935  52.638 -22.532  1.00  0.00    -0.776 OA
HETATM   37  H16 UNL     1      -4.907  53.195 -21.725  1.00  0.00     0.167 HD
ENDBRANCH  34  36
ENDBRANCH   7  34
TORSDOF 5
ENDMDL
MODEL 4
REMARK minimizedAffinity -9.26305866
REMARK  5 active torsions:
REMARK  status: ('A' for Active; 'I' for Inactive)
REMARK    1  A    between atoms: C2_2  and  C4_4 
REMARK    2  A    between atoms: C7_7  and  C8_8 
REMARK    3  A    between atoms: C8_8  and  O2_10 
REMARK    4  A    between atoms: C11_13  and  C12_14 
REMARK    5  A    between atoms: C12_14  and  O4_16 
ROOT
HETATM    1  C4  UNL     1      -6.142  48.002 -24.776  1.00  0.00     0.019 C 
HETATM    2  C5  UNL     1      -7.575  48.536 -24.758  1.00  0.00     0.011 C 
HETATM    3  C6  UNL     1      -8.160  47.872 -23.519  1.00  0.00     0.021 C 
HETATM    4  C7  UNL     1      -7.052  47.988 -22.446  1.00  0.00     0.050 C 
HETATM    5  C9  UNL     1      -7.257  49.281 -21.638  1.00  0.00     0.022 C 
HETATM    6  C10 UNL     1      -6.023  49.734 -20.861  1.00  0.00     0.023 C 
HETATM    7  C11 UNL     1      -4.742  49.904 -21.718  1.00  0.00     0.057 C 
HETATM    8  C13 UNL     1      -4.499  48.635 -22.604  1.00  0.00     0.011 C 
HETATM    9  C14 UNL     1      -3.250  48.792 -23.479  1.00  0.00     0.007 C 
HETATM   10  C15 UNL     1      -1.984  49.129 -22.680  1.00  0.00     0.006 C 
HETATM   11  C16 UNL     1      -2.166  50.330 -21.720  1.00  0.00     0.003 C 
HETATM   12  C17 UNL     1      -0.831  50.849 -21.023  1.00  0.00    -0.035 C 
HETATM   13  C18 UNL     1      -0.148  49.742 -20.184  1.00  0.00     0.016 C 
HETATM   14  C19 UNL     1       0.170  51.292 -22.134  1.00  0.00     0.017 C 
HETATM   15  C20 UNL     1       1.391  52.045 -21.624  1.00  0.00     0.080 C 
HETATM   16  C21 UNL     1       1.006  53.221 -20.762  1.00  0.00     0.135 C 
HETATM   17  O5  UNL     1       1.579  54.302 -20.916  1.00  0.00    -0.297 OA
HETATM   18  C22 UNL     1      -0.012  52.982 -19.635  1.00  0.00     0.017 C 
HETATM   19  C23 UNL     1       0.725  52.351 -18.444  1.00  0.00     0.023 C 
HETATM   20  C24 UNL     1      -0.525  54.369 -19.169  1.00  0.00     0.023 C 
HETATM   21  C25 UNL     1      -1.208  52.137 -20.198  1.00  0.00     0.009 C 
HETATM   22  C26 UNL     1      -2.301  51.830 -19.155  1.00  0.00     0.007 C 
HETATM   23  C27 UNL     1      -3.593  51.329 -19.806  1.00  0.00     0.011 C 
HETATM   24  C28 UNL     1      -3.416  50.120 -20.773  1.00  0.00    -0.022 C 
HETATM   25  C29 UNL     1      -3.194  48.884 -19.837  1.00  0.00     0.017 C 
HETATM   26  C30 UNL     1      -5.716  47.917 -23.270  1.00  0.00     0.018 C 
ENDROOT
BRANCH   4  27
HETATM   27  C8  UNL     1      -7.132  46.818 -21.466  1.00  0.00     0.149 C 
HETATM   28  O1  UNL     1      -6.272  46.479 -20.669  1.00  0.00    -0.649 OA
BRANCH  27  29
HETATM   29  O2  UNL     1      -8.318  46.181 -21.478  1.00  0.00    -0.776 OA
HETATM   30  H11 UNL     1      -8.227  45.496 -20.783  1.00  0.00     0.167 HD
ENDBRANCH  27  29
ENDBRANCH   4  27
BRANCH   1  31
HETATM   31  C2  UNL     1      -5.238  48.488 -25.893  1.00  0.00    -0.088 C 
HETATM   32  C1  UNL     1      -4.334  49.459 -25.655  1.00  0.00     0.014 C 
HETATM   33  C3  UNL     1      -5.255  47.816 -27.238  1.00  0.00     0.043 C 
ENDBRANCH   1  31
BRANCH   7  34
HETATM   34  C12 UNL     1      -4.972  51.157 -22.604  1.00  0.00     0.149 C 
HETATM   35  O3  UNL     1      -4.167  52.008 -22.943  1.00  0.00    -0.649 OA
BRANCH  34  36
HETATM   36  O4  UNL     1      -6.243  51.326 -22.996  1.00  0.00    -0.776 OA
HETATM   37  H16 UNL     1      -6.211  52.165 -23.503  1.00  0.00     0.167 HD
ENDBRANCH  34  36
ENDBRANCH   7  34
TORSDOF 5
ENDMDL
MODEL 5
REMARK minimizedAffinity -8.8221817
REMARK  5 active torsions:
REMARK  status: ('A' for Active; 'I' for Inactive)
REMARK    1  A    between atoms: C2_2  and  C4_4 
REMARK    2  A    between atoms: C7_7  and  C8_8 
REMARK    3  A    between atoms: C8_8  and  O2_10 
REMARK    4  A    between atoms: C11_13  and  C12_14 
REMARK    5  A    between atoms: C12_14  and  O4_16 
ROOT
HETATM    1  C4  UNL     1      -7.699  47.453 -23.772  1.00  0.00     0.019 C 
HETATM    2  C5  UNL     1      -8.574  47.928 -22.610  1.00  0.00     0.011 C 
HETATM    3  C6  UNL     1      -7.883  47.310 -21.402  1.00  0.00     0.021 C 
HETATM    4  C7  UNL     1      -6.373  47.531 -21.653  1.00  0.00     0.050 C 
HETATM    5  C9  UNL     1      -5.936  48.856 -21.006  1.00  0.00     0.022 C 
HETATM    6  C10 UNL     1      -4.612  49.403 -21.534  1.00  0.00     0.023 C 
HETATM    7  C11 UNL     1      -4.548  49.578 -23.073  1.00  0.00     0.057 C 
HETATM    8  C13 UNL     1      -5.026  48.272 -23.796  1.00  0.00     0.011 C 
HETATM    9  C14 UNL     1      -4.996  48.433 -25.321  1.00  0.00     0.007 C 
HETATM   10  C15 UNL     1      -3.625  48.865 -25.861  1.00  0.00     0.006 C 
HETATM   11  C16 UNL     1      -3.048  50.109 -25.143  1.00  0.00     0.003 C 
HETATM   12  C17 UNL     1      -1.731  50.720 -25.799  1.00  0.00    -0.035 C 
HETATM   13  C18 UNL     1      -0.578  49.691 -25.848  1.00  0.00     0.016 C 
HETATM   14  C19 UNL     1      -2.057  51.143 -27.265  1.00  0.00     0.017 C 
HETATM   15  C20 UNL     1      -0.975  51.973 -27.941  1.00  0.00     0.080 C 
HETATM   16  C21 UNL     1      -0.594  53.177 -27.118  1.00  0.00     0.135 C 
HETATM   17  O5  UNL     1      -0.451  54.270 -27.670  1.00  0.00    -0.297 OA
HETATM   18  C22 UNL     1      -0.279  52.958 -25.629  1.00  0.00     0.017 C 
HETATM   19  C23 UNL     1       1.156  52.425 -25.512  1.00  0.00     0.023 C 
HETATM   20  C24 UNL     1      -0.307  54.347 -24.939  1.00  0.00     0.023 C 
HETATM   21  C25 UNL     1      -1.384  52.035 -25.004  1.00  0.00     0.009 C 
HETATM   22  C26 UNL     1      -1.177  51.742 -23.505  1.00  0.00     0.007 C 
HETATM   23  C27 UNL     1      -2.431  51.152 -22.855  1.00  0.00     0.011 C 
HETATM   24  C28 UNL     1      -3.018  49.900 -23.574  1.00  0.00    -0.022 C 
HETATM   25  C29 UNL     1      -2.051  48.728 -23.196  1.00  0.00     0.017 C 
HETATM   26  C30 UNL     1      -6.234  47.469 -23.216  1.00  0.00     0.018 C 
ENDROOT
BRANCH   4  27
HETATM   27  C8  UNL     1      -5.554  46.414 -21.005  1.00  0.00     0.149 C 
HETATM   28  O1  UNL     1      -4.890  46.499 -19.984  1.00  0.00    -0.649 OA
BRANCH  27  29
HETATM   29  O2  UNL     1      -5.676  45.224 -21.624  1.00  0.00    -0.776 OA
HETATM   30  H11 UNL     1      -5.135  44.615 -21.078  1.00  0.00     0.167 HD
ENDBRANCH  27  29
ENDBRANCH   4  27
BRANCH   1  31
HETATM   31  C2  UNL     1      -8.090  47.915 -25.163  1.00  0.00    -0.088 C 
HETATM   32  C1  UNL     1      -7.828  47.135 -26.231  1.00  0.00     0.014 C 
HETATM   33  C3  UNL     1      -8.877  49.181 -25.356  1.00  0.00     0.043 C 
ENDBRANCH   1  31
BRANCH   7  34
HETATM   34  C12 UNL     1      -5.481  50.769 -23.416  1.00  0.00     0.149 C 
HETATM   35  O3  UNL     1      -5.241  51.753 -24.096  1.00  0.00    -0.649 OA
BRANCH  34  36
HETATM   36  O4  UNL     1      -6.689  50.704 -22.837  1.00  0.00    -0.776 OA
HETATM   37  H16 UNL     1      -7.120  51.536 -23.127  1.00  0.00     0.167 HD
ENDBRANCH  34  36
ENDBRANCH   7  34
TORSDOF 5
ENDMDL
MODEL 6
REMARK minimizedAffinity -8.81737518
REMARK  5 active torsions:
REMARK  status: ('A' for Active; 'I' for Inactive)
REMARK    1  A    between atoms: C2_2  and  C4_4 
REMARK    2  A    between atoms: C7_7  and  C8_8 
REMARK    3  A    between atoms: C8_8  and  O2_10 
REMARK    4  A    between atoms: C11_13  and  C12_14 
REMARK    5  A    between atoms: C12_14  and  O4_16 
ROOT
HETATM    1  C4  UNL     1      -1.334  51.834 -22.206  1.00  0.00     0.019 C 
HETATM    2  C5  UNL     1       0.101  51.443 -21.845  1.00  0.00     0.011 C 
HETATM    3  C6  UNL     1       0.081  51.483 -20.322  1.00  0.00     0.021 C 
HETATM    4  C7  UNL     1      -1.253  50.809 -19.925  1.00  0.00     0.050 C 
HETATM    5  C9  UNL     1      -1.020  49.304 -19.711  1.00  0.00     0.022 C 
HETATM    6  C10 UNL     1      -2.295  48.463 -19.745  1.00  0.00     0.023 C 
HETATM    7  C11 UNL     1      -3.153  48.636 -21.024  1.00  0.00     0.057 C 
HETATM    8  C13 UNL     1      -3.390  50.155 -21.327  1.00  0.00     0.011 C 
HETATM    9  C14 UNL     1      -4.216  50.350 -22.605  1.00  0.00     0.007 C 
HETATM   10  C15 UNL     1      -5.555  49.600 -22.584  1.00  0.00     0.006 C 
HETATM   11  C16 UNL     1      -5.414  48.102 -22.217  1.00  0.00     0.003 C 
HETATM   12  C17 UNL     1      -6.740  47.236 -22.383  1.00  0.00    -0.035 C 
HETATM   13  C18 UNL     1      -7.897  47.775 -21.509  1.00  0.00     0.016 C 
HETATM   14  C19 UNL     1      -7.195  47.305 -23.873  1.00  0.00     0.017 C 
HETATM   15  C20 UNL     1      -8.301  46.326 -24.244  1.00  0.00     0.080 C 
HETATM   16  C21 UNL     1      -7.948  44.910 -23.866  1.00  0.00     0.135 C 
HETATM   17  O5  UNL     1      -8.169  43.995 -24.663  1.00  0.00    -0.297 OA
HETATM   18  C22 UNL     1      -7.434  44.655 -22.439  1.00  0.00     0.017 C 
HETATM   19  C23 UNL     1      -8.642  44.606 -21.493  1.00  0.00     0.023 C 
HETATM   20  C24 UNL     1      -6.787  43.246 -22.424  1.00  0.00     0.023 C 
HETATM   21  C25 UNL     1      -6.355  45.737 -22.084  1.00  0.00     0.009 C 
HETATM   22  C26 UNL     1      -5.762  45.586 -20.670  1.00  0.00     0.007 C 
HETATM   23  C27 UNL     1      -4.486  46.413 -20.489  1.00  0.00     0.011 C 
HETATM   24  C28 UNL     1      -4.622  47.921 -20.858  1.00  0.00    -0.022 C 
HETATM   25  C29 UNL     1      -5.419  48.556 -19.670  1.00  0.00     0.017 C 
HETATM   26  C30 UNL     1      -2.229  51.175 -21.100  1.00  0.00     0.018 C 
ENDROOT
BRANCH   4  27
HETATM   27  C8  UNL     1      -1.772  51.385 -18.608  1.00  0.00     0.149 C 
HETATM   28  O1  UNL     1      -2.898  51.802 -18.392  1.00  0.00    -0.649 OA
BRANCH  27  29
HETATM   29  O2  UNL     1      -0.875  51.334 -17.604  1.00  0.00    -0.776 OA
HETATM   30  H11 UNL     1      -1.361  51.696 -16.833  1.00  0.00     0.167 HD
ENDBRANCH  27  29
ENDBRANCH   4  27
BRANCH   1  31
HETATM   31  C2  UNL     1      -1.688  51.873 -23.680  1.00  0.00    -0.088 C 
HETATM   32  C1  UNL     1      -1.098  51.019 -24.539  1.00  0.00     0.014 C 
HETATM   33  C3  UNL     1      -2.781  52.777 -24.180  1.00  0.00     0.043 C 
ENDBRANCH   1  31
BRANCH   7  34
HETATM   34  C12 UNL     1      -2.361  47.963 -22.176  1.00  0.00     0.149 C 
HETATM   35  O3  UNL     1      -2.372  48.231 -23.366  1.00  0.00    -0.649 OA
BRANCH  34  36
HETATM   36  O4  UNL     1      -1.609  46.922 -21.789  1.00  0.00    -0.776 OA
HETATM   37  H16 UNL     1      -1.219  46.604 -22.631  1.00  0.00     0.167 HD
ENDBRANCH  34  36
ENDBRANCH   7  34
TORSDOF 5
ENDMDL
MODEL 7
REMARK minimizedAffinity -8.48446178
REMARK  5 active torsions:
REMARK  status: ('A' for Active; 'I' for Inactive)
REMARK    1  A    between atoms: C2_2  and  C4_4 
REMARK    2  A    between atoms: C7_7  and  C8_8 
REMARK    3  A    between atoms: C8_8  and  O2_10 
REMARK    4  A    between atoms: C11_13  and  C12_14 
REMARK    5  A    between atoms: C12_14  and  O4_16 
ROOT
HETATM    1  C4  UNL     1      -1.017  50.594 -22.172  1.00  0.00     0.019 C 
HETATM    2  C5  UNL     1      -1.046  52.121 -22.262  1.00  0.00     0.011 C 
HETATM    3  C6  UNL     1      -1.418  52.359 -23.720  1.00  0.00     0.021 C 
HETATM    4  C7  UNL     1      -2.537  51.334 -24.016  1.00  0.00     0.050 C 
HETATM    5  C9  UNL     1      -3.906  51.978 -23.742  1.00  0.00     0.022 C 
HETATM    6  C10 UNL     1      -5.046  50.977 -23.573  1.00  0.00     0.023 C 
HETATM    7  C11 UNL     1      -4.803  49.892 -22.493  1.00  0.00     0.057 C 
HETATM    8  C13 UNL     1      -3.399  49.224 -22.688  1.00  0.00     0.011 C 
HETATM    9  C14 UNL     1      -3.128  48.164 -21.613  1.00  0.00     0.007 C 
HETATM   10  C15 UNL     1      -4.218  47.087 -21.530  1.00  0.00     0.006 C 
HETATM   11  C16 UNL     1      -5.648  47.670 -21.411  1.00  0.00     0.003 C 
HETATM   12  C17 UNL     1      -6.792  46.603 -21.115  1.00  0.00    -0.035 C 
HETATM   13  C18 UNL     1      -6.871  45.518 -22.215  1.00  0.00     0.016 C 
HETATM   14  C19 UNL     1      -6.470  45.891 -19.765  1.00  0.00     0.017 C 
HETATM   15  C20 UNL     1      -7.597  45.025 -19.219  1.00  0.00     0.080 C 
HETATM   16  C21 UNL     1      -8.892  45.790 -19.115  1.00  0.00     0.135 C 
HETATM   17  O5  UNL     1      -9.587  45.675 -18.103  1.00  0.00    -0.297 OA
HETATM   18  C22 UNL     1      -9.352  46.594 -20.343  1.00  0.00     0.017 C 
HETATM   19  C23 UNL     1     -10.004  45.624 -21.339  1.00  0.00     0.023 C 
HETATM   20  C24 UNL     1     -10.457  47.574 -19.870  1.00  0.00     0.023 C 
HETATM   21  C25 UNL     1      -8.133  47.405 -20.908  1.00  0.00     0.009 C 
HETATM   22  C26 UNL     1      -8.470  48.256 -22.147  1.00  0.00     0.007 C 
HETATM   23  C27 UNL     1      -7.380  49.288 -22.450  1.00  0.00     0.011 C 
HETATM   24  C28 UNL     1      -5.939  48.708 -22.571  1.00  0.00    -0.022 C 
HETATM   25  C29 UNL     1      -5.906  47.996 -23.965  1.00  0.00     0.017 C 
HETATM   26  C30 UNL     1      -2.179  50.106 -23.104  1.00  0.00     0.018 C 
ENDROOT
BRANCH   4  27
HETATM   27  C8  UNL     1      -2.510  50.924 -25.489  1.00  0.00     0.149 C 
HETATM   28  O1  UNL     1      -3.404  51.086 -26.303  1.00  0.00    -0.649 OA
BRANCH  27  29
HETATM   29  O2  UNL     1      -1.331  50.408 -25.886  1.00  0.00    -0.776 OA
HETATM   30  H11 UNL     1      -1.458  50.235 -26.843  1.00  0.00     0.167 HD
ENDBRANCH  27  29
ENDBRANCH   4  27
BRANCH   1  31
HETATM   31  C2  UNL     1      -0.696  49.988 -20.819  1.00  0.00    -0.088 C 
HETATM   32  C1  UNL     1      -0.867  50.715 -19.697  1.00  0.00     0.014 C 
HETATM   33  C3  UNL     1      -0.301  48.542 -20.703  1.00  0.00     0.043 C 
ENDBRANCH   1  31
BRANCH   7  34
HETATM   34  C12 UNL     1      -4.882  50.615 -21.123  1.00  0.00     0.149 C 
HETATM   35  O3  UNL     1      -3.987  50.832 -20.323  1.00  0.00    -0.649 OA
BRANCH  34  36
HETATM   36  O4  UNL     1      -6.119  51.001 -20.777  1.00  0.00    -0.776 OA
HETATM   37  H16 UNL     1      -5.989  51.396 -19.889  1.00  0.00     0.167 HD
ENDBRANCH  34  36
ENDBRANCH   7  34
TORSDOF 5
ENDMDL
MODEL 8
REMARK minimizedAffinity -8.09726143
REMARK  5 active torsions:
REMARK  status: ('A' for Active; 'I' for Inactive)
REMARK    1  A    between atoms: C2_2  and  C4_4 
REMARK    2  A    between atoms: C7_7  and  C8_8 
REMARK    3  A    between atoms: C8_8  and  O2_10 
REMARK    4  A    between atoms: C11_13  and  C12_14 
REMARK    5  A    between atoms: C12_14  and  O4_16 
ROOT
HETATM    1  C4  UNL     1      -2.162  51.903 -23.233  1.00  0.00     0.019 C 
HETATM    2  C5  UNL     1      -0.719  51.695 -23.694  1.00  0.00     0.011 C 
HETATM    3  C6  UNL     1       0.085  52.151 -22.484  1.00  0.00     0.021 C 
HETATM    4  C7  UNL     1      -0.657  51.550 -21.267  1.00  0.00     0.050 C 
HETATM    5  C9  UNL     1      -0.055  50.175 -20.931  1.00  0.00     0.022 C 
HETATM    6  C10 UNL     1      -0.949  49.298 -20.058  1.00  0.00     0.023 C 
HETATM    7  C11 UNL     1      -2.379  49.071 -20.613  1.00  0.00     0.057 C 
HETATM    8  C13 UNL     1      -3.035  50.435 -21.018  1.00  0.00     0.011 C 
HETATM    9  C14 UNL     1      -4.441  50.232 -21.595  1.00  0.00     0.007 C 
HETATM   10  C15 UNL     1      -5.376  49.453 -20.659  1.00  0.00     0.006 C 
HETATM   11  C16 UNL     1      -4.768  48.124 -20.151  1.00  0.00     0.003 C 
HETATM   12  C17 UNL     1      -5.771  47.183 -19.347  1.00  0.00    -0.035 C 
HETATM   13  C18 UNL     1      -6.346  47.886 -18.095  1.00  0.00     0.016 C 
HETATM   14  C19 UNL     1      -6.966  46.818 -20.280  1.00  0.00     0.017 C 
HETATM   15  C20 UNL     1      -7.878  45.724 -19.744  1.00  0.00     0.080 C 
HETATM   16  C21 UNL     1      -7.107  44.484 -19.366  1.00  0.00     0.135 C 
HETATM   17  O5  UNL     1      -7.541  43.376 -19.688  1.00  0.00    -0.297 OA
HETATM   18  C22 UNL     1      -5.862  44.656 -18.479  1.00  0.00     0.017 C 
HETATM   19  C23 UNL     1      -6.325  44.813 -17.023  1.00  0.00     0.023 C 
HETATM   20  C24 UNL     1      -5.049  43.338 -18.560  1.00  0.00     0.023 C 
HETATM   21  C25 UNL     1      -5.001  45.844 -19.033  1.00  0.00     0.009 C 
HETATM   22  C26 UNL     1      -3.718  46.116 -18.223  1.00  0.00     0.007 C 
HETATM   23  C27 UNL     1      -2.741  47.021 -18.979  1.00  0.00     0.011 C 
HETATM   24  C28 UNL     1      -3.348  48.360 -19.493  1.00  0.00    -0.022 C 
HETATM   25  C29 UNL     1      -3.477  49.260 -18.218  1.00  0.00     0.017 C 
HETATM   26  C30 UNL     1      -2.163  51.532 -21.710  1.00  0.00     0.018 C 
ENDROOT
BRANCH   4  27
HETATM   27  C8  UNL     1      -0.477  52.441 -20.038  1.00  0.00     0.149 C 
HETATM   28  O1  UNL     1      -1.083  52.352 -18.982  1.00  0.00    -0.649 OA
BRANCH  27  29
HETATM   29  O2  UNL     1       0.511  53.348 -20.165  1.00  0.00    -0.776 OA
HETATM   30  H11 UNL     1       0.527  53.805 -19.298  1.00  0.00     0.167 HD
ENDBRANCH  27  29
ENDBRANCH   4  27
BRANCH   1  31
HETATM   31  C2  UNL     1      -3.260  51.519 -24.206  1.00  0.00    -0.088 C 
HETATM   32  C1  UNL     1      -3.045  50.550 -25.118  1.00  0.00     0.014 C 
HETATM   33  C3  UNL     1      -4.632  52.124 -24.089  1.00  0.00     0.043 C 
ENDBRANCH   1  31
BRANCH   7  34
HETATM   34  C12 UNL     1      -2.226  48.146 -21.848  1.00  0.00     0.149 C 
HETATM   35  O3  UNL     1      -2.781  48.224 -22.932  1.00  0.00    -0.649 OA
BRANCH  34  36
HETATM   36  O4  UNL     1      -1.405  47.104 -21.655  1.00  0.00    -0.776 OA
HETATM   37  H16 UNL     1      -1.456  46.618 -22.505  1.00  0.00     0.167 HD
ENDBRANCH  34  36
ENDBRANCH   7  34
TORSDOF 5
ENDMDL
MODEL 9
REMARK minimizedAffinity -7.99254084
REMARK  5 active torsions:
REMARK  status: ('A' for Active; 'I' for Inactive)
REMARK    1  A    between atoms: C2_2  and  C4_4 
REMARK    2  A    between atoms: C7_7  and  C8_8 
REMARK    3  A    between atoms: C8_8  and  O2_10 
REMARK    4  A    between atoms: C11_13  and  C12_14 
REMARK    5  A    between atoms: C12_14  and  O4_16 
ROOT
HETATM    1  C4  UNL     1      -5.208  47.777 -29.414  1.00  0.00     0.019 C 
HETATM    2  C5  UNL     1      -5.179  49.022 -30.303  1.00  0.00     0.011 C 
HETATM    3  C6  UNL     1      -5.232  48.429 -31.704  1.00  0.00     0.021 C 
HETATM    4  C7  UNL     1      -6.290  47.304 -31.619  1.00  0.00     0.050 C 
HETATM    5  C9  UNL     1      -7.670  47.871 -31.994  1.00  0.00     0.022 C 
HETATM    6  C10 UNL     1      -8.845  47.007 -31.541  1.00  0.00     0.023 C 
HETATM    7  C11 UNL     1      -8.861  46.675 -30.027  1.00  0.00     0.057 C 
HETATM    8  C13 UNL     1      -7.464  46.132 -29.567  1.00  0.00     0.011 C 
HETATM    9  C14 UNL     1      -7.450  45.821 -28.066  1.00  0.00     0.007 C 
HETATM   10  C15 UNL     1      -8.561  44.853 -27.634  1.00  0.00     0.006 C 
HETATM   11  C16 UNL     1      -9.969  45.281 -28.117  1.00  0.00     0.003 C 
HETATM   12  C17 UNL     1     -11.176  44.429 -27.523  1.00  0.00    -0.035 C 
HETATM   13  C18 UNL     1     -11.051  42.927 -27.873  1.00  0.00     0.016 C 
HETATM   14  C19 UNL     1     -11.161  44.560 -25.969  1.00  0.00     0.017 C 
HETATM   15  C20 UNL     1     -12.399  44.010 -25.274  1.00  0.00     0.080 C 
HETATM   16  C21 UNL     1     -13.668  44.596 -25.840  1.00  0.00     0.135 C 
HETATM   17  O5  UNL     1     -14.561  44.965 -25.075  1.00  0.00    -0.297 OA
HETATM   18  C22 UNL     1     -13.840  44.595 -27.368  1.00  0.00     0.017 C 
HETATM   19  C23 UNL     1     -14.294  43.194 -27.802  1.00  0.00     0.023 C 
HETATM   20  C24 UNL     1     -14.994  45.573 -27.707  1.00  0.00     0.023 C 
HETATM   21  C25 UNL     1     -12.510  45.096 -28.032  1.00  0.00     0.009 C 
HETATM   22  C26 UNL     1     -12.559  45.140 -29.572  1.00  0.00     0.007 C 
HETATM   23  C27 UNL     1     -11.404  45.954 -30.162  1.00  0.00     0.011 C 
HETATM   24  C28 UNL     1      -9.985  45.528 -29.680  1.00  0.00    -0.022 C 
HETATM   25  C29 UNL     1      -9.680  44.199 -30.449  1.00  0.00     0.017 C 
HETATM   26  C30 UNL     1      -6.162  46.772 -30.146  1.00  0.00     0.018 C 
ENDROOT
BRANCH   4  27
HETATM   27  C8  UNL     1      -5.967  46.189 -32.614  1.00  0.00     0.149 C 
HETATM   28  O1  UNL     1      -6.202  45.000 -32.473  1.00  0.00    -0.649 OA
BRANCH  27  29
HETATM   29  O2  UNL     1      -5.439  46.632 -33.771  1.00  0.00    -0.776 OA
HETATM   30  H11 UNL     1      -5.326  45.819 -34.307  1.00  0.00     0.167 HD
ENDBRANCH  27  29
ENDBRANCH   4  27
BRANCH   1  31
HETATM   31  C2  UNL     1      -5.193  48.000 -27.913  1.00  0.00    -0.088 C 
HETATM   32  C1  UNL     1      -6.324  47.852 -27.197  1.00  0.00     0.014 C 
HETATM   33  C3  UNL     1      -3.900  48.269 -27.194  1.00  0.00     0.043 C 
ENDBRANCH   1  31
BRANCH   7  34
HETATM   34  C12 UNL     1      -9.206  47.997 -29.293  1.00  0.00     0.149 C 
HETATM   35  O3  UNL     1      -8.984  48.304 -28.133  1.00  0.00    -0.649 OA
BRANCH  34  36
HETATM   36  O4  UNL     1      -9.877  48.882 -30.043  1.00  0.00    -0.776 OA
HETATM   37  H16 UNL     1     -10.040  49.624 -29.422  1.00  0.00     0.167 HD
ENDBRANCH  34  36
ENDBRANCH   7  34
TORSDOF 5
ENDMDL
