MODEL 1
REMARK minimizedAffinity -7.72135401
REMARK  7 active torsions:
REMARK  status: ('A' for Active; 'I' for Inactive)
REMARK    1  A    between atoms: O1_2  and  C2_3 
REMARK    2  A    between atoms: C2_3  and  C3_5 
REMARK    3  A    between atoms: C17_20  and  C18_21 
REMARK    4  A    between atoms: C18_21  and  O5_23 
REMARK    5  A    between atoms: O5_23  and  C19_24 
REMARK    6  A    between atoms: C19_24  and  C20_25 
REMARK    7  A    between atoms: C20_25  and  N1_26 
ROOT
HETATM    1  C3  UNL     1      -1.623   6.408  13.787  1.00  0.00     0.049 C 
HETATM    2  C4  UNL     1      -0.841   5.073  13.780  1.00  0.00     0.026 C 
HETATM    3  C5  UNL     1      -1.200   7.174  15.067  1.00  0.00     0.020 C 
HETATM    4  C6  UNL     1      -1.996   8.453  15.287  1.00  0.00     0.002 C 
HETATM    5  C7  UNL     1      -3.490   8.167  15.379  1.00  0.00     0.010 C 
HETATM    6  C8  UNL     1      -4.069   7.410  14.151  1.00  0.00    -0.034 C 
HETATM    7  C9  UNL     1      -4.119   8.389  12.955  1.00  0.00     0.016 C 
HETATM    8  C10 UNL     1      -3.174   6.144  13.863  1.00  0.00     0.019 C 
HETATM    9  C11 UNL     1      -3.741   5.309  12.704  1.00  0.00     0.085 C 
HETATM   10  C12 UNL     1      -5.159   4.877  12.995  1.00  0.00     0.132 C 
HETATM   11  O3  UNL     1      -5.516   3.723  12.754  1.00  0.00    -0.298 OA
HETATM   12  C13 UNL     1      -6.133   5.961  13.438  1.00  0.00     0.068 C 
HETATM   13  C14 UNL     1      -7.498   5.375  13.882  1.00  0.00     0.022 C 
HETATM   14  C15 UNL     1      -7.428   4.402  15.072  1.00  0.00     0.015 C 
HETATM   15  C16 UNL     1      -8.458   6.515  14.217  1.00  0.00    -0.070 C 
HETATM   16  C17 UNL     1      -9.656   6.584  13.602  1.00  0.00     0.085 C 
HETATM   17  C23 UNL     1      -7.920   7.508  15.221  1.00  0.00     0.035 C 
HETATM   18  C24 UNL     1      -6.533   8.024  14.823  1.00  0.00     0.010 C 
HETATM   19  C25 UNL     1      -5.523   6.894  14.513  1.00  0.00     0.006 C 
ENDROOT
BRANCH  16  20
HETATM   20  C18 UNL     1     -10.738   7.574  13.791  1.00  0.00     0.283 C 
HETATM   21  O4  UNL     1     -10.887   8.183  14.839  1.00  0.00    -0.260 OA
BRANCH  20  22
HETATM   22  O5  UNL     1     -11.439   7.762  12.650  1.00  0.00    -0.316 OA
BRANCH  22  23
HETATM   23  C19 UNL     1     -12.360   8.868  12.667  1.00  0.00     0.209 C 
BRANCH  23  24
HETATM   24  C20 UNL     1     -13.711   8.437  13.257  1.00  0.00     0.298 C 
BRANCH  24  25
HETATM   25  N1  UNL     1     -14.136   7.085  12.841  1.00  0.00     0.082 N 
HETATM   26  C21 UNL     1     -14.293   6.196  13.996  1.00  0.00     0.309 C 
HETATM   27  C22 UNL     1     -15.404   7.164  12.110  1.00  0.00     0.309 C 
ENDBRANCH  24  25
ENDBRANCH  23  24
ENDBRANCH  22  23
ENDBRANCH  20  22
ENDBRANCH  16  20
BRANCH   1  28
HETATM   28  C2  UNL     1      -1.180   7.124  12.497  1.00  0.00     0.267 C 
HETATM   29  O2  UNL     1      -1.231   8.336  12.328  1.00  0.00    -0.264 OA
BRANCH  28  30
HETATM   30  O1  UNL     1      -0.782   6.246  11.537  1.00  0.00    -0.326 OA
HETATM   31  C1  UNL     1       0.185   6.767  10.623  1.00  0.00     0.213 C 
ENDBRANCH  28  30
ENDBRANCH   1  28
TORSDOF 7
ENDMDL
MODEL 2
REMARK minimizedAffinity -7.67582512
REMARK  7 active torsions:
REMARK  status: ('A' for Active; 'I' for Inactive)
REMARK    1  A    between atoms: O1_2  and  C2_3 
REMARK    2  A    between atoms: C2_3  and  C3_5 
REMARK    3  A    between atoms: C17_20  and  C18_21 
REMARK    4  A    between atoms: C18_21  and  O5_23 
REMARK    5  A    between atoms: O5_23  and  C19_24 
REMARK    6  A    between atoms: C19_24  and  C20_25 
REMARK    7  A    between atoms: C20_25  and  N1_26 
ROOT
HETATM    1  C3  UNL     1       3.080   7.694   9.700  1.00  0.00     0.049 C 
HETATM    2  C4  UNL     1       4.512   8.232   9.931  1.00  0.00     0.026 C 
HETATM    3  C5  UNL     1       2.511   8.434   8.463  1.00  0.00     0.020 C 
HETATM    4  C6  UNL     1       1.048   8.111   8.195  1.00  0.00     0.002 C 
HETATM    5  C7  UNL     1       0.175   8.458   9.395  1.00  0.00     0.010 C 
HETATM    6  C8  UNL     1       0.616   7.773  10.720  1.00  0.00    -0.034 C 
HETATM    7  C9  UNL     1       0.260   6.270  10.633  1.00  0.00     0.016 C 
HETATM    8  C10 UNL     1       2.158   8.022  10.935  1.00  0.00     0.019 C 
HETATM    9  C11 UNL     1       2.639   7.434  12.271  1.00  0.00     0.085 C 
HETATM   10  C12 UNL     1       1.861   8.016  13.427  1.00  0.00     0.132 C 
HETATM   11  O3  UNL     1       2.447   8.367  14.452  1.00  0.00    -0.298 OA
HETATM   12  C13 UNL     1       0.343   7.996  13.316  1.00  0.00     0.068 C 
HETATM   13  C14 UNL     1      -0.338   8.780  14.468  1.00  0.00     0.022 C 
HETATM   14  C15 UNL     1       0.028  10.273  14.539  1.00  0.00     0.015 C 
HETATM   15  C16 UNL     1      -1.855   8.637  14.356  1.00  0.00    -0.070 C 
HETATM   16  C17 UNL     1      -2.563   8.170  15.404  1.00  0.00     0.085 C 
HETATM   17  C23 UNL     1      -2.419   9.018  13.007  1.00  0.00     0.035 C 
HETATM   18  C24 UNL     1      -1.689   8.305  11.863  1.00  0.00     0.010 C 
HETATM   19  C25 UNL     1      -0.150   8.461  11.925  1.00  0.00     0.006 C 
ENDROOT
BRANCH  16  20
HETATM   20  C18 UNL     1      -4.024   7.977  15.522  1.00  0.00     0.283 C 
HETATM   21  O4  UNL     1      -4.796   8.916  15.642  1.00  0.00    -0.260 OA
BRANCH  20  22
HETATM   22  O5  UNL     1      -4.363   6.675  15.385  1.00  0.00    -0.316 OA
BRANCH  22  23
HETATM   23  C19 UNL     1      -5.753   6.425  15.108  1.00  0.00     0.209 C 
BRANCH  23  24
HETATM   24  C20 UNL     1      -6.001   6.368  13.593  1.00  0.00     0.298 C 
BRANCH  24  25
HETATM   25  N1  UNL     1      -6.432   5.042  13.112  1.00  0.00     0.082 N 
HETATM   26  C21 UNL     1      -5.287   4.152  12.898  1.00  0.00     0.309 C 
HETATM   27  C22 UNL     1      -7.348   4.433  14.082  1.00  0.00     0.309 C 
ENDBRANCH  24  25
ENDBRANCH  23  24
ENDBRANCH  22  23
ENDBRANCH  20  22
ENDBRANCH  16  20
BRANCH   1  28
HETATM   28  C2  UNL     1       3.268   6.186   9.452  1.00  0.00     0.267 C 
HETATM   29  O2  UNL     1       2.453   5.474   8.878  1.00  0.00    -0.264 OA
BRANCH  28  30
HETATM   30  O1  UNL     1       4.421   5.717  10.002  1.00  0.00    -0.326 OA
HETATM   31  C1  UNL     1       5.116   6.664  10.816  1.00  0.00     0.213 C 
ENDBRANCH  28  30
ENDBRANCH   1  28
TORSDOF 7
ENDMDL
MODEL 3
REMARK minimizedAffinity -7.63870335
REMARK  7 active torsions:
REMARK  status: ('A' for Active; 'I' for Inactive)
REMARK    1  A    between atoms: O1_2  and  C2_3 
REMARK    2  A    between atoms: C2_3  and  C3_5 
REMARK    3  A    between atoms: C17_20  and  C18_21 
REMARK    4  A    between atoms: C18_21  and  O5_23 
REMARK    5  A    between atoms: O5_23  and  C19_24 
REMARK    6  A    between atoms: C19_24  and  C20_25 
REMARK    7  A    between atoms: C20_25  and  N1_26 
ROOT
HETATM    1  C3  UNL     1      -1.717   6.684  14.060  1.00  0.00     0.049 C 
HETATM    2  C4  UNL     1      -0.838   5.412  14.106  1.00  0.00     0.026 C 
HETATM    3  C5  UNL     1      -1.445   7.471  15.367  1.00  0.00     0.020 C 
HETATM    4  C6  UNL     1      -2.349   8.685  15.531  1.00  0.00     0.002 C 
HETATM    5  C7  UNL     1      -3.820   8.287  15.516  1.00  0.00     0.010 C 
HETATM    6  C8  UNL     1      -4.251   7.495  14.249  1.00  0.00    -0.034 C 
HETATM    7  C9  UNL     1      -4.290   8.476  13.053  1.00  0.00     0.016 C 
HETATM    8  C10 UNL     1      -3.245   6.303  14.025  1.00  0.00     0.019 C 
HETATM    9  C11 UNL     1      -3.663   5.434  12.827  1.00  0.00     0.085 C 
HETATM   10  C12 UNL     1      -5.062   4.896  13.016  1.00  0.00     0.132 C 
HETATM   11  O3  UNL     1      -5.312   3.719  12.749  1.00  0.00    -0.298 OA
HETATM   12  C13 UNL     1      -6.143   5.900  13.389  1.00  0.00     0.068 C 
HETATM   13  C14 UNL     1      -7.489   5.209  13.734  1.00  0.00     0.022 C 
HETATM   14  C15 UNL     1      -7.430   4.237  14.925  1.00  0.00     0.015 C 
HETATM   15  C16 UNL     1      -8.553   6.272  14.000  1.00  0.00    -0.070 C 
HETATM   16  C17 UNL     1      -9.707   6.254  13.302  1.00  0.00     0.085 C 
HETATM   17  C23 UNL     1      -8.165   7.296  15.041  1.00  0.00     0.035 C 
HETATM   18  C24 UNL     1      -6.796   7.918  14.744  1.00  0.00     0.010 C 
HETATM   19  C25 UNL     1      -5.684   6.869  14.505  1.00  0.00     0.006 C 
ENDROOT
BRANCH  16  20
HETATM   20  C18 UNL     1     -10.871   7.159  13.414  1.00  0.00     0.283 C 
HETATM   21  O4  UNL     1     -11.068   8.066  12.620  1.00  0.00    -0.260 OA
BRANCH  20  22
HETATM   22  O5  UNL     1     -11.692   6.784  14.420  1.00  0.00    -0.316 OA
BRANCH  22  23
HETATM   23  C19 UNL     1     -12.972   7.442  14.449  1.00  0.00     0.209 C 
BRANCH  23  24
HETATM   24  C20 UNL     1     -14.026   6.607  13.705  1.00  0.00     0.298 C 
BRANCH  24  25
HETATM   25  N1  UNL     1     -14.633   7.305  12.555  1.00  0.00     0.082 N 
HETATM   26  C21 UNL     1     -15.972   6.788  12.262  1.00  0.00     0.309 C 
HETATM   27  C22 UNL     1     -14.714   8.743  12.832  1.00  0.00     0.309 C 
ENDBRANCH  24  25
ENDBRANCH  23  24
ENDBRANCH  22  23
ENDBRANCH  20  22
ENDBRANCH  16  20
BRANCH   1  28
HETATM   28  C2  UNL     1      -1.238   7.439  12.805  1.00  0.00     0.267 C 
HETATM   29  O2  UNL     1      -1.231   8.659  12.695  1.00  0.00    -0.264 OA
BRANCH  28  30
HETATM   30  O1  UNL     1      -0.882   6.591  11.803  1.00  0.00    -0.326 OA
HETATM   31  C1  UNL     1       0.040   7.142  10.861  1.00  0.00     0.213 C 
ENDBRANCH  28  30
ENDBRANCH   1  28
TORSDOF 7
ENDMDL
MODEL 4
REMARK minimizedAffinity -7.57096958
REMARK  7 active torsions:
REMARK  status: ('A' for Active; 'I' for Inactive)
REMARK    1  A    between atoms: O1_2  and  C2_3 
REMARK    2  A    between atoms: C2_3  and  C3_5 
REMARK    3  A    between atoms: C17_20  and  C18_21 
REMARK    4  A    between atoms: C18_21  and  O5_23 
REMARK    5  A    between atoms: O5_23  and  C19_24 
REMARK    6  A    between atoms: C19_24  and  C20_25 
REMARK    7  A    between atoms: C20_25  and  N1_26 
ROOT
HETATM    1  C3  UNL     1      -1.307   5.374  13.267  1.00  0.00     0.049 C 
HETATM    2  C4  UNL     1      -0.570   4.069  12.885  1.00  0.00     0.026 C 
HETATM    3  C5  UNL     1      -0.873   5.735  14.710  1.00  0.00     0.020 C 
HETATM    4  C6  UNL     1      -1.628   6.928  15.279  1.00  0.00     0.002 C 
HETATM    5  C7  UNL     1      -3.132   6.679  15.287  1.00  0.00     0.010 C 
HETATM    6  C8  UNL     1      -3.722   6.317  13.895  1.00  0.00    -0.034 C 
HETATM    7  C9  UNL     1      -3.728   7.594  13.021  1.00  0.00     0.016 C 
HETATM    8  C10 UNL     1      -2.867   5.152  13.264  1.00  0.00     0.019 C 
HETATM    9  C11 UNL     1      -3.449   4.695  11.917  1.00  0.00     0.085 C 
HETATM   10  C12 UNL     1      -4.884   4.249  12.075  1.00  0.00     0.132 C 
HETATM   11  O3  UNL     1      -5.276   3.222  11.520  1.00  0.00    -0.298 OA
HETATM   12  C13 UNL     1      -5.825   5.198  12.803  1.00  0.00     0.068 C 
HETATM   13  C14 UNL     1      -7.214   4.558  13.064  1.00  0.00     0.022 C 
HETATM   14  C15 UNL     1      -7.188   3.289  13.933  1.00  0.00     0.015 C 
HETATM   15  C16 UNL     1      -8.139   5.591  13.704  1.00  0.00    -0.070 C 
HETATM   16  C17 UNL     1      -9.328   5.871  13.133  1.00  0.00     0.085 C 
HETATM   17  C23 UNL     1      -7.580   6.244  14.947  1.00  0.00     0.035 C 
HETATM   18  C24 UNL     1      -6.172   6.803  14.711  1.00  0.00     0.010 C 
HETATM   19  C25 UNL     1      -5.196   5.770  14.096  1.00  0.00     0.006 C 
ENDROOT
BRANCH  16  20
HETATM   20  C18 UNL     1     -10.378   6.805  13.591  1.00  0.00     0.283 C 
HETATM   21  O4  UNL     1     -10.556   7.056  14.773  1.00  0.00    -0.260 OA
BRANCH  20  22
HETATM   22  O5  UNL     1     -11.014   7.383  12.546  1.00  0.00    -0.316 OA
BRANCH  22  23
HETATM   23  C19 UNL     1     -12.283   7.988  12.855  1.00  0.00     0.209 C 
BRANCH  23  24
HETATM   24  C20 UNL     1     -12.227   9.507  12.628  1.00  0.00     0.298 C 
BRANCH  24  25
HETATM   25  N1  UNL     1     -13.324  10.245  13.283  1.00  0.00     0.082 N 
HETATM   26  C21 UNL     1     -14.538  10.238  12.461  1.00  0.00     0.309 C 
HETATM   27  C22 UNL     1     -13.616   9.649  14.590  1.00  0.00     0.309 C 
ENDBRANCH  24  25
ENDBRANCH  23  24
ENDBRANCH  22  23
ENDBRANCH  20  22
ENDBRANCH  16  20
BRANCH   1  28
HETATM   28  C2  UNL     1      -0.827   6.407  12.230  1.00  0.00     0.267 C 
HETATM   29  O2  UNL     1      -0.842   7.619  12.405  1.00  0.00    -0.264 OA
BRANCH  28  30
HETATM   30  O1  UNL     1      -0.443   5.819  11.064  1.00  0.00    -0.326 OA
HETATM   31  C1  UNL     1       0.543   6.549  10.331  1.00  0.00     0.213 C 
ENDBRANCH  28  30
ENDBRANCH   1  28
TORSDOF 7
ENDMDL
MODEL 5
REMARK minimizedAffinity -7.53180361
REMARK  7 active torsions:
REMARK  status: ('A' for Active; 'I' for Inactive)
REMARK    1  A    between atoms: O1_2  and  C2_3 
REMARK    2  A    between atoms: C2_3  and  C3_5 
REMARK    3  A    between atoms: C17_20  and  C18_21 
REMARK    4  A    between atoms: C18_21  and  O5_23 
REMARK    5  A    between atoms: O5_23  and  C19_24 
REMARK    6  A    between atoms: C19_24  and  C20_25 
REMARK    7  A    between atoms: C20_25  and  N1_26 
ROOT
HETATM    1  C3  UNL     1      -2.615   6.700  13.148  1.00  0.00     0.049 C 
HETATM    2  C4  UNL     1      -3.640   5.699  12.564  1.00  0.00     0.026 C 
HETATM    3  C5  UNL     1      -3.116   8.122  12.788  1.00  0.00     0.020 C 
HETATM    4  C6  UNL     1      -2.132   9.217  13.177  1.00  0.00     0.002 C 
HETATM    5  C7  UNL     1      -0.779   9.009  12.507  1.00  0.00     0.010 C 
HETATM    6  C8  UNL     1      -0.137   7.621  12.789  1.00  0.00    -0.034 C 
HETATM    7  C9  UNL     1       0.353   7.600  14.256  1.00  0.00     0.016 C 
HETATM    8  C10 UNL     1      -1.200   6.496  12.487  1.00  0.00     0.019 C 
HETATM    9  C11 UNL     1      -0.600   5.093  12.673  1.00  0.00     0.085 C 
HETATM   10  C12 UNL     1       0.611   4.904  11.790  1.00  0.00     0.132 C 
HETATM   11  O3  UNL     1       0.760   3.854  11.163  1.00  0.00    -0.298 OA
HETATM   12  C13 UNL     1       1.680   5.987  11.844  1.00  0.00     0.068 C 
HETATM   13  C14 UNL     1       2.777   5.779  10.768  1.00  0.00     0.022 C 
HETATM   14  C15 UNL     1       2.271   5.801   9.315  1.00  0.00     0.015 C 
HETATM   15  C16 UNL     1       3.867   6.835  10.940  1.00  0.00    -0.070 C 
HETATM   16  C17 UNL     1       5.151   6.454  11.094  1.00  0.00     0.085 C 
HETATM   17  C23 UNL     1       3.359   8.258  10.955  1.00  0.00     0.035 C 
HETATM   18  C24 UNL     1       2.217   8.443  11.961  1.00  0.00     0.010 C 
HETATM   19  C25 UNL     1       1.076   7.411  11.791  1.00  0.00     0.006 C 
ENDROOT
BRANCH  16  20
HETATM   20  C18 UNL     1       6.355   7.298  11.248  1.00  0.00     0.283 C 
HETATM   21  O4  UNL     1       7.214   7.371  10.382  1.00  0.00    -0.260 OA
BRANCH  20  22
HETATM   22  O5  UNL     1       6.312   8.014  12.394  1.00  0.00    -0.316 OA
BRANCH  22  23
HETATM   23  C19 UNL     1       6.905   7.378  13.542  1.00  0.00     0.209 C 
BRANCH  23  24
HETATM   24  C20 UNL     1       7.891   8.329  14.238  1.00  0.00     0.298 C 
BRANCH  24  25
HETATM   25  N1  UNL     1       9.093   7.655  14.765  1.00  0.00     0.082 N 
HETATM   26  C21 UNL     1      10.305   8.108  14.074  1.00  0.00     0.309 C 
HETATM   27  C22 UNL     1       9.223   7.918  16.201  1.00  0.00     0.309 C 
ENDBRANCH  24  25
ENDBRANCH  23  24
ENDBRANCH  22  23
ENDBRANCH  20  22
ENDBRANCH  16  20
BRANCH   1  28
HETATM   28  C2  UNL     1      -2.634   6.433  14.665  1.00  0.00     0.267 C 
HETATM   29  O2  UNL     1      -2.228   5.403  15.189  1.00  0.00    -0.264 OA
BRANCH  28  30
HETATM   30  O1  UNL     1      -3.217   7.451  15.356  1.00  0.00    -0.326 OA
HETATM   31  C1  UNL     1      -2.460   7.914  16.476  1.00  0.00     0.213 C 
ENDBRANCH  28  30
ENDBRANCH   1  28
TORSDOF 7
ENDMDL
MODEL 6
REMARK minimizedAffinity -7.4389472
REMARK  7 active torsions:
REMARK  status: ('A' for Active; 'I' for Inactive)
REMARK    1  A    between atoms: O1_2  and  C2_3 
REMARK    2  A    between atoms: C2_3  and  C3_5 
REMARK    3  A    between atoms: C17_20  and  C18_21 
REMARK    4  A    between atoms: C18_21  and  O5_23 
REMARK    5  A    between atoms: O5_23  and  C19_24 
REMARK    6  A    between atoms: C19_24  and  C20_25 
REMARK    7  A    between atoms: C20_25  and  N1_26 
ROOT
HETATM    1  C3  UNL     1       0.870   6.623  12.583  1.00  0.00     0.049 C 
HETATM    2  C4  UNL     1       2.080   5.855  12.001  1.00  0.00     0.026 C 
HETATM    3  C5  UNL     1       1.134   6.804  14.100  1.00  0.00     0.020 C 
HETATM    4  C6  UNL     1      -0.042   7.424  14.840  1.00  0.00     0.002 C 
HETATM    5  C7  UNL     1      -1.304   6.585  14.678  1.00  0.00     0.010 C 
HETATM    6  C8  UNL     1      -1.709   6.328  13.198  1.00  0.00    -0.034 C 
HETATM    7  C9  UNL     1      -2.261   7.647  12.609  1.00  0.00     0.016 C 
HETATM    8  C10 UNL     1      -0.454   5.787  12.412  1.00  0.00     0.019 C 
HETATM    9  C11 UNL     1      -0.812   5.440  10.958  1.00  0.00     0.085 C 
HETATM   10  C12 UNL     1      -1.926   4.422  10.906  1.00  0.00     0.132 C 
HETATM   11  O3  UNL     1      -1.860   3.474  10.122  1.00  0.00    -0.298 OA
HETATM   12  C13 UNL     1      -3.167   4.714  11.737  1.00  0.00     0.068 C 
HETATM   13  C14 UNL     1      -4.157   3.520  11.750  1.00  0.00     0.022 C 
HETATM   14  C15 UNL     1      -3.591   2.217  12.339  1.00  0.00     0.015 C 
HETATM   15  C16 UNL     1      -5.420   3.914  12.514  1.00  0.00    -0.070 C 
HETATM   16  C17 UNL     1      -6.625   3.798  11.920  1.00  0.00     0.085 C 
HETATM   17  C23 UNL     1      -5.167   4.447  13.904  1.00  0.00     0.035 C 
HETATM   18  C24 UNL     1      -4.125   5.572  13.901  1.00  0.00     0.010 C 
HETATM   19  C25 UNL     1      -2.816   5.195  13.166  1.00  0.00     0.006 C 
ENDROOT
BRANCH  16  20
HETATM   20  C18 UNL     1      -7.963   4.093  12.475  1.00  0.00     0.283 C 
HETATM   21  O4  UNL     1      -8.571   3.291  13.168  1.00  0.00    -0.260 OA
BRANCH  20  22
HETATM   22  O5  UNL     1      -8.347   5.359  12.193  1.00  0.00    -0.316 OA
BRANCH  22  23
HETATM   23  C19 UNL     1      -9.111   6.015  13.222  1.00  0.00     0.209 C 
BRANCH  23  24
HETATM   24  C20 UNL     1      -8.180   6.709  14.228  1.00  0.00     0.298 C 
BRANCH  24  25
HETATM   25  N1  UNL     1      -8.464   6.363  15.634  1.00  0.00     0.082 N 
HETATM   26  C21 UNL     1      -7.274   5.827  16.303  1.00  0.00     0.309 C 
HETATM   27  C22 UNL     1      -8.936   7.550  16.354  1.00  0.00     0.309 C 
ENDBRANCH  24  25
ENDBRANCH  23  24
ENDBRANCH  22  23
ENDBRANCH  20  22
ENDBRANCH  16  20
BRANCH   1  28
HETATM   28  C2  UNL     1       0.859   7.962  11.822  1.00  0.00     0.267 C 
HETATM   29  O2  UNL     1       0.349   8.992  12.244  1.00  0.00    -0.264 OA
BRANCH  28  30
HETATM   30  O1  UNL     1       1.427   7.855  10.590  1.00  0.00    -0.326 OA
HETATM   31  C1  UNL     1       0.619   8.350   9.520  1.00  0.00     0.213 C 
ENDBRANCH  28  30
ENDBRANCH   1  28
TORSDOF 7
ENDMDL
MODEL 7
REMARK minimizedAffinity -7.37887478
REMARK  7 active torsions:
REMARK  status: ('A' for Active; 'I' for Inactive)
REMARK    1  A    between atoms: O1_2  and  C2_3 
REMARK    2  A    between atoms: C2_3  and  C3_5 
REMARK    3  A    between atoms: C17_20  and  C18_21 
REMARK    4  A    between atoms: C18_21  and  O5_23 
REMARK    5  A    between atoms: O5_23  and  C19_24 
REMARK    6  A    between atoms: C19_24  and  C20_25 
REMARK    7  A    between atoms: C20_25  and  N1_26 
ROOT
HETATM    1  C3  UNL     1       4.046   7.916  10.192  1.00  0.00     0.049 C 
HETATM    2  C4  UNL     1       5.172   8.929  10.508  1.00  0.00     0.026 C 
HETATM    3  C5  UNL     1       3.461   8.304   8.811  1.00  0.00     0.020 C 
HETATM    4  C6  UNL     1       2.242   7.478   8.426  1.00  0.00     0.002 C 
HETATM    5  C7  UNL     1       1.133   7.610   9.463  1.00  0.00     0.010 C 
HETATM    6  C8  UNL     1       1.568   7.238  10.909  1.00  0.00    -0.034 C 
HETATM    7  C9  UNL     1       1.740   5.703  10.986  1.00  0.00     0.016 C 
HETATM    8  C10 UNL     1       2.893   8.017  11.260  1.00  0.00     0.019 C 
HETATM    9  C11 UNL     1       3.333   7.749  12.709  1.00  0.00     0.085 C 
HETATM   10  C12 UNL     1       2.242   8.131  13.682  1.00  0.00     0.132 C 
HETATM   11  O3  UNL     1       2.520   8.750  14.709  1.00  0.00    -0.298 OA
HETATM   12  C13 UNL     1       0.849   7.583  13.405  1.00  0.00     0.068 C 
HETATM   13  C14 UNL     1      -0.216   8.186  14.358  1.00  0.00     0.022 C 
HETATM   14  C15 UNL     1      -0.373   9.714  14.269  1.00  0.00     0.015 C 
HETATM   15  C16 UNL     1      -1.567   7.523  14.096  1.00  0.00    -0.070 C 
HETATM   16  C17 UNL     1      -2.234   6.937  15.111  1.00  0.00     0.085 C 
HETATM   17  C23 UNL     1      -2.015   7.568  12.654  1.00  0.00     0.035 C 
HETATM   18  C24 UNL     1      -0.929   7.049  11.705  1.00  0.00     0.010 C 
HETATM   19  C25 UNL     1       0.447   7.726  11.917  1.00  0.00     0.006 C 
ENDROOT
BRANCH  16  20
HETATM   20  C18 UNL     1      -3.552   6.268  15.090  1.00  0.00     0.283 C 
HETATM   21  O4  UNL     1      -4.543   6.766  15.601  1.00  0.00    -0.260 OA
BRANCH  20  22
HETATM   22  O5  UNL     1      -3.513   5.124  14.369  1.00  0.00    -0.316 OA
BRANCH  22  23
HETATM   23  C19 UNL     1      -4.341   5.108  13.192  1.00  0.00     0.209 C 
BRANCH  23  24
HETATM   24  C20 UNL     1      -5.828   5.165  13.577  1.00  0.00     0.298 C 
BRANCH  24  25
HETATM   25  N1  UNL     1      -6.711   4.449  12.637  1.00  0.00     0.082 N 
HETATM   26  C21 UNL     1      -7.039   3.107  13.129  1.00  0.00     0.309 C 
HETATM   27  C22 UNL     1      -7.948   5.211  12.436  1.00  0.00     0.309 C 
ENDBRANCH  24  25
ENDBRANCH  23  24
ENDBRANCH  22  23
ENDBRANCH  20  22
ENDBRANCH  16  20
BRANCH   1  28
HETATM   28  C2  UNL     1       4.752   6.547  10.171  1.00  0.00     0.267 C 
HETATM   29  O2  UNL     1       4.233   5.509   9.781  1.00  0.00    -0.264 OA
BRANCH  28  30
HETATM   30  O1  UNL     1       6.005   6.610  10.699  1.00  0.00    -0.326 OA
HETATM   31  C1  UNL     1       6.612   5.338  10.936  1.00  0.00     0.213 C 
ENDBRANCH  28  30
ENDBRANCH   1  28
TORSDOF 7
ENDMDL
MODEL 8
REMARK minimizedAffinity -7.20266533
REMARK  7 active torsions:
REMARK  status: ('A' for Active; 'I' for Inactive)
REMARK    1  A    between atoms: O1_2  and  C2_3 
REMARK    2  A    between atoms: C2_3  and  C3_5 
REMARK    3  A    between atoms: C17_20  and  C18_21 
REMARK    4  A    between atoms: C18_21  and  O5_23 
REMARK    5  A    between atoms: O5_23  and  C19_24 
REMARK    6  A    between atoms: C19_24  and  C20_25 
REMARK    7  A    between atoms: C20_25  and  N1_26 
ROOT
HETATM    1  C3  UNL     1       3.327   5.925   9.755  1.00  0.00     0.049 C 
HETATM    2  C4  UNL     1       4.253   4.734  10.098  1.00  0.00     0.026 C 
HETATM    3  C5  UNL     1       4.129   7.221  10.040  1.00  0.00     0.020 C 
HETATM    4  C6  UNL     1       3.296   8.485   9.882  1.00  0.00     0.002 C 
HETATM    5  C7  UNL     1       2.083   8.468  10.804  1.00  0.00     0.010 C 
HETATM    6  C8  UNL     1       1.165   7.225  10.624  1.00  0.00    -0.034 C 
HETATM    7  C9  UNL     1       0.405   7.372   9.285  1.00  0.00     0.016 C 
HETATM    8  C10 UNL     1       2.053   5.923  10.681  1.00  0.00     0.019 C 
HETATM    9  C11 UNL     1       1.191   4.654  10.586  1.00  0.00     0.085 C 
HETATM   10  C12 UNL     1       0.160   4.619  11.690  1.00  0.00     0.132 C 
HETATM   11  O3  UNL     1      -0.048   3.575  12.309  1.00  0.00    -0.298 OA
HETATM   12  C13 UNL     1      -0.693   5.867  11.876  1.00  0.00     0.068 C 
HETATM   13  C14 UNL     1      -1.580   5.784  13.146  1.00  0.00     0.022 C 
HETATM   14  C15 UNL     1      -0.807   5.637  14.467  1.00  0.00     0.015 C 
HETATM   15  C16 UNL     1      -2.480   7.016  13.220  1.00  0.00    -0.070 C 
HETATM   16  C17 UNL     1      -3.816   6.865  13.318  1.00  0.00     0.085 C 
HETATM   17  C23 UNL     1      -1.743   8.332  13.136  1.00  0.00     0.035 C 
HETATM   18  C24 UNL     1      -0.802   8.381  11.926  1.00  0.00     0.010 C 
HETATM   19  C25 UNL     1       0.151   7.164  11.840  1.00  0.00     0.006 C 
ENDROOT
BRANCH  16  20
HETATM   20  C18 UNL     1      -4.860   7.905  13.428  1.00  0.00     0.283 C 
HETATM   21  O4  UNL     1      -4.588   9.088  13.569  1.00  0.00    -0.260 OA
BRANCH  20  22
HETATM   22  O5  UNL     1      -6.097   7.384  13.258  1.00  0.00    -0.316 OA
BRANCH  22  23
HETATM   23  C19 UNL     1      -6.783   7.019  14.470  1.00  0.00     0.209 C 
BRANCH  23  24
HETATM   24  C20 UNL     1      -6.914   5.492  14.578  1.00  0.00     0.298 C 
BRANCH  24  25
HETATM   25  N1  UNL     1      -7.371   4.846  13.332  1.00  0.00     0.082 N 
HETATM   26  C21 UNL     1      -7.392   3.386  13.464  1.00  0.00     0.309 C 
HETATM   27  C22 UNL     1      -8.714   5.325  12.987  1.00  0.00     0.309 C 
ENDBRANCH  24  25
ENDBRANCH  23  24
ENDBRANCH  22  23
ENDBRANCH  20  22
ENDBRANCH  16  20
BRANCH   1  28
HETATM   28  C2  UNL     1       3.005   5.747   8.259  1.00  0.00     0.267 C 
HETATM   29  O2  UNL     1       2.459   6.596   7.565  1.00  0.00    -0.264 OA
BRANCH  28  30
HETATM   30  O1  UNL     1       3.338   4.506   7.809  1.00  0.00    -0.326 OA
HETATM   31  C1  UNL     1       3.359   4.380   6.386  1.00  0.00     0.213 C 
ENDBRANCH  28  30
ENDBRANCH   1  28
TORSDOF 7
ENDMDL
MODEL 9
REMARK minimizedAffinity -7.19172239
REMARK  7 active torsions:
REMARK  status: ('A' for Active; 'I' for Inactive)
REMARK    1  A    between atoms: O1_2  and  C2_3 
REMARK    2  A    between atoms: C2_3  and  C3_5 
REMARK    3  A    between atoms: C17_20  and  C18_21 
REMARK    4  A    between atoms: C18_21  and  O5_23 
REMARK    5  A    between atoms: O5_23  and  C19_24 
REMARK    6  A    between atoms: C19_24  and  C20_25 
REMARK    7  A    between atoms: C20_25  and  N1_26 
ROOT
HETATM    1  C3  UNL     1      -7.382   6.425  15.607  1.00  0.00     0.049 C 
HETATM    2  C4  UNL     1      -7.564   6.940  17.054  1.00  0.00     0.026 C 
HETATM    3  C5  UNL     1      -7.790   4.929  15.603  1.00  0.00     0.020 C 
HETATM    4  C6  UNL     1      -7.528   4.243  14.270  1.00  0.00     0.002 C 
HETATM    5  C7  UNL     1      -6.057   4.332  13.880  1.00  0.00     0.010 C 
HETATM    6  C8  UNL     1      -5.501   5.783  13.826  1.00  0.00    -0.034 C 
HETATM    7  C9  UNL     1      -6.089   6.483  12.578  1.00  0.00     0.016 C 
HETATM    8  C10 UNL     1      -5.872   6.522  15.169  1.00  0.00     0.019 C 
HETATM    9  C11 UNL     1      -5.281   7.941  15.209  1.00  0.00     0.085 C 
HETATM   10  C12 UNL     1      -3.780   7.904  15.042  1.00  0.00     0.132 C 
HETATM   11  O3  UNL     1      -3.062   8.604  15.756  1.00  0.00    -0.298 OA
HETATM   12  C13 UNL     1      -3.236   7.100  13.869  1.00  0.00     0.068 C 
HETATM   13  C14 UNL     1      -1.690   6.984  13.907  1.00  0.00     0.022 C 
HETATM   14  C15 UNL     1      -1.124   6.286  15.156  1.00  0.00     0.015 C 
HETATM   15  C16 UNL     1      -1.203   6.255  12.656  1.00  0.00    -0.070 C 
HETATM   16  C17 UNL     1      -0.284   6.835  11.858  1.00  0.00     0.085 C 
HETATM   17  C23 UNL     1      -1.860   4.915  12.419  1.00  0.00     0.035 C 
HETATM   18  C24 UNL     1      -3.389   5.016  12.465  1.00  0.00     0.010 C 
HETATM   19  C25 UNL     1      -3.920   5.718  13.739  1.00  0.00     0.006 C 
ENDROOT
BRANCH  16  20
HETATM   20  C18 UNL     1       0.340   6.306  10.627  1.00  0.00     0.283 C 
HETATM   21  O4  UNL     1       0.718   5.147  10.535  1.00  0.00    -0.260 OA
BRANCH  20  22
HETATM   22  O5  UNL     1       0.339   7.227   9.637  1.00  0.00    -0.316 OA
BRANCH  22  23
HETATM   23  C19 UNL     1       1.429   8.167   9.669  1.00  0.00     0.209 C 
BRANCH  23  24
HETATM   24  C20 UNL     1       2.694   7.548   9.055  1.00  0.00     0.298 C 
BRANCH  24  25
HETATM   25  N1  UNL     1       3.836   7.486   9.987  1.00  0.00     0.082 N 
HETATM   26  C21 UNL     1       3.580   8.271  11.199  1.00  0.00     0.309 C 
HETATM   27  C22 UNL     1       4.103   6.092  10.357  1.00  0.00     0.309 C 
ENDBRANCH  24  25
ENDBRANCH  23  24
ENDBRANCH  22  23
ENDBRANCH  20  22
ENDBRANCH  16  20
BRANCH   1  28
HETATM   28  C2  UNL     1      -8.329   7.298  14.762  1.00  0.00     0.267 C 
HETATM   29  O2  UNL     1      -8.399   8.518  14.845  1.00  0.00    -0.264 OA
BRANCH  28  30
HETATM   30  O1  UNL     1      -9.130   6.550  13.955  1.00  0.00    -0.326 OA
HETATM   31  C1  UNL     1     -10.442   7.084  13.766  1.00  0.00     0.213 C 
ENDBRANCH  28  30
ENDBRANCH   1  28
TORSDOF 7
ENDMDL
