MODEL 1
REMARK minimizedAffinity -8.13822937
REMARK  12 active torsions:
REMARK  status: ('A' for Active; 'I' for Inactive)
REMARK    1  A    between atoms: C3_3  and  O1_4 
REMARK    2  A    between atoms: O1_4  and  C4_5 
REMARK    3  A    between atoms: C5_7  and  C6_8 
REMARK    4  A    between atoms: C6_8  and  O3_9 
REMARK    5  A    between atoms: C7_10  and  O4_11 
REMARK    6  A    between atoms: C8_12  and  O5_13 
REMARK    7  A    between atoms: C9_14  and  O6_15 
REMARK    8  A    between atoms: C10_16  and  O7_17 
REMARK    9  A    between atoms: C15_22  and  O8_23 
REMARK   10  A    between atoms: C15_22  and  C16_24 
REMARK   11  A    between atoms: C17_25  and  C18_26 
REMARK   12  A    between atoms: C18_26  and  O9_28 
ROOT
HETATM    1  C1  UNL     1      -5.394   5.465  13.028  1.00  0.00     0.016 C 
HETATM    2  C2  UNL     1      -4.130   6.315  13.282  1.00  0.00     0.052 C 
HETATM    3  C3  UNL     1      -3.068   5.504  14.064  1.00  0.00     0.160 C 
HETATM    4  C10 UNL     1      -1.836   6.348  14.466  1.00  0.00     0.148 C 
HETATM    5  C11 UNL     1      -2.183   7.737  15.001  1.00  0.00     0.046 C 
HETATM    6  C12 UNL     1      -3.118   8.552  14.085  1.00  0.00    -0.010 C 
HETATM    7  C13 UNL     1      -3.361   9.927  14.762  1.00  0.00     0.018 C 
HETATM    8  C14 UNL     1      -2.398   8.864  12.748  1.00  0.00     0.018 C 
HETATM    9  C15 UNL     1      -4.450   7.734  13.856  1.00  0.00     0.088 C 
ENDROOT
BRANCH   3  10
HETATM   10  O1  UNL     1      -2.728   4.396  13.203  1.00  0.00    -0.350 OA
BRANCH  10  11
HETATM   11  C4  UNL     1      -2.365   4.718  11.870  1.00  0.00     0.292 C 
HETATM   12  O2  UNL     1      -3.313   4.221  10.924  1.00  0.00    -0.348 OA
HETATM   13  C5  UNL     1      -3.464   2.789  10.879  1.00  0.00     0.179 C 
HETATM   14  C7  UNL     1      -2.261   2.005  11.422  1.00  0.00     0.180 C 
HETATM   15  C8  UNL     1      -0.993   2.738  10.998  1.00  0.00     0.183 C 
HETATM   16  C9  UNL     1      -0.949   4.153  11.583  1.00  0.00     0.204 C 
BRANCH  13  17
HETATM   17  C6  UNL     1      -4.801   2.337  11.488  1.00  0.00     0.198 C 
BRANCH  17  18
HETATM   18  O3  UNL     1      -5.226   1.069  11.003  1.00  0.00    -0.398 OA
HETATM   19  H10 UNL     1      -6.113   0.910  11.369  1.00  0.00     0.209 HD
ENDBRANCH  17  18
ENDBRANCH  13  17
BRANCH  14  20
HETATM   20  O4  UNL     1      -2.243   0.677  10.878  1.00  0.00    -0.390 OA
HETATM   21  H12 UNL     1      -1.342   0.345  11.072  1.00  0.00     0.210 HD
ENDBRANCH  14  20
BRANCH  15  22
HETATM   22  O5  UNL     1       0.160   1.978  11.403  1.00  0.00    -0.390 OA
HETATM   23  H14 UNL     1       0.936   2.545  11.227  1.00  0.00     0.210 HD
ENDBRANCH  15  22
BRANCH  16  24
HETATM   24  O6  UNL     1      -0.228   4.984  10.647  1.00  0.00    -0.388 OA
HETATM   25  H16 UNL     1      -0.836   5.166   9.905  1.00  0.00     0.210 HD
ENDBRANCH  16  24
ENDBRANCH  10  11
ENDBRANCH   3  10
BRANCH   4  26
HETATM   26  O7  UNL     1      -1.091   5.686  15.503  1.00  0.00    -0.393 OA
HETATM   27  H18 UNL     1      -1.622   5.688  16.316  1.00  0.00     0.210 HD
ENDBRANCH   4  26
BRANCH   9  28
HETATM   28  O8  UNL     1      -5.217   8.386  12.824  1.00  0.00    -0.385 OA
HETATM   29  H27 UNL     1      -5.346   9.314  13.073  1.00  0.00     0.211 HD
ENDBRANCH   9  28
BRANCH   9  30
HETATM   30  C16 UNL     1      -5.359   7.786  15.079  1.00  0.00     0.010 C 
HETATM   31  C17 UNL     1      -6.702   7.730  15.179  1.00  0.00     0.003 C 
BRANCH  31  32
HETATM   32  C18 UNL     1      -7.492   7.781  16.463  1.00  0.00     0.136 C 
HETATM   33  C19 UNL     1      -8.987   7.781  16.181  1.00  0.00     0.043 C 
BRANCH  32  34
HETATM   34  O9  UNL     1      -7.188   6.666  17.291  1.00  0.00    -0.392 OA
HETATM   35  H34 UNL     1      -6.237   6.721  17.492  1.00  0.00     0.210 HD
ENDBRANCH  32  34
ENDBRANCH  31  32
ENDBRANCH   9  30
TORSDOF 12
ENDMDL
MODEL 2
REMARK minimizedAffinity -8.05194092
REMARK  12 active torsions:
REMARK  status: ('A' for Active; 'I' for Inactive)
REMARK    1  A    between atoms: C3_3  and  O1_4 
REMARK    2  A    between atoms: O1_4  and  C4_5 
REMARK    3  A    between atoms: C5_7  and  C6_8 
REMARK    4  A    between atoms: C6_8  and  O3_9 
REMARK    5  A    between atoms: C7_10  and  O4_11 
REMARK    6  A    between atoms: C8_12  and  O5_13 
REMARK    7  A    between atoms: C9_14  and  O6_15 
REMARK    8  A    between atoms: C10_16  and  O7_17 
REMARK    9  A    between atoms: C15_22  and  O8_23 
REMARK   10  A    between atoms: C15_22  and  C16_24 
REMARK   11  A    between atoms: C17_25  and  C18_26 
REMARK   12  A    between atoms: C18_26  and  O9_28 
ROOT
HETATM    1  C1  UNL     1      -1.369   8.887  11.280  1.00  0.00     0.016 C 
HETATM    2  C2  UNL     1      -0.372   8.762  12.452  1.00  0.00     0.052 C 
HETATM    3  C3  UNL     1       0.183   7.320  12.554  1.00  0.00     0.160 C 
HETATM    4  C10 UNL     1       1.081   7.102  13.794  1.00  0.00     0.148 C 
HETATM    5  C11 UNL     1       0.531   7.728  15.076  1.00  0.00     0.046 C 
HETATM    6  C12 UNL     1       0.153   9.217  14.941  1.00  0.00    -0.010 C 
HETATM    7  C13 UNL     1      -0.373   9.697  16.319  1.00  0.00     0.018 C 
HETATM    8  C14 UNL     1       1.425  10.057  14.662  1.00  0.00     0.018 C 
HETATM    9  C15 UNL     1      -0.916   9.370  13.787  1.00  0.00     0.088 C 
ENDROOT
BRANCH   3  10
HETATM   10  O1  UNL     1       0.883   7.095  11.312  1.00  0.00    -0.350 OA
BRANCH  10  11
HETATM   11  C4  UNL     1       2.216   7.578  11.240  1.00  0.00     0.292 C 
HETATM   12  O2  UNL     1       2.444   8.334  10.050  1.00  0.00    -0.348 OA
HETATM   13  C5  UNL     1       2.296   7.614   8.810  1.00  0.00     0.179 C 
HETATM   14  C7  UNL     1       2.450   6.091   8.936  1.00  0.00     0.180 C 
HETATM   15  C8  UNL     1       3.553   5.814   9.951  1.00  0.00     0.183 C 
HETATM   16  C9  UNL     1       3.192   6.377  11.330  1.00  0.00     0.204 C 
BRANCH  13  17
HETATM   17  C6  UNL     1       1.021   8.029   8.059  1.00  0.00     0.198 C 
BRANCH  17  18
HETATM   18  O3  UNL     1       0.317   9.081   8.710  1.00  0.00    -0.398 OA
HETATM   19  H10 UNL     1      -0.513   9.212   8.218  1.00  0.00     0.209 HD
ENDBRANCH  17  18
ENDBRANCH  13  17
BRANCH  14  20
HETATM   20  O4  UNL     1       2.816   5.520   7.672  1.00  0.00    -0.390 OA
HETATM   21  H12 UNL     1       3.127   4.618   7.892  1.00  0.00     0.210 HD
ENDBRANCH  14  20
BRANCH  15  22
HETATM   22  O5  UNL     1       3.796   4.397  10.022  1.00  0.00    -0.390 OA
HETATM   23  H14 UNL     1       4.410   4.263  10.770  1.00  0.00     0.210 HD
ENDBRANCH  15  22
BRANCH  16  24
HETATM   24  O6  UNL     1       4.428   6.748  11.980  1.00  0.00    -0.388 OA
HETATM   25  H16 UNL     1       4.723   7.583  11.570  1.00  0.00     0.210 HD
ENDBRANCH  16  24
ENDBRANCH  10  11
ENDBRANCH   3  10
BRANCH   4  26
HETATM   26  O7  UNL     1       1.236   5.697  14.061  1.00  0.00    -0.393 OA
HETATM   27  H18 UNL     1       0.382   5.341  14.354  1.00  0.00     0.210 HD
ENDBRANCH   4  26
BRANCH   9  28
HETATM   28  O8  UNL     1      -1.093  10.773  13.509  1.00  0.00    -0.385 OA
HETATM   29  H27 UNL     1      -1.318  11.227  14.335  1.00  0.00     0.211 HD
ENDBRANCH   9  28
BRANCH   9  30
HETATM   30  C16 UNL     1      -2.298   8.905  14.235  1.00  0.00     0.010 C 
HETATM   31  C17 UNL     1      -3.450   9.588  14.377  1.00  0.00     0.003 C 
BRANCH  31  32
HETATM   32  C18 UNL     1      -4.769   9.007  14.822  1.00  0.00     0.136 C 
HETATM   33  C19 UNL     1      -5.360   8.111  13.744  1.00  0.00     0.043 C 
BRANCH  32  34
HETATM   34  O9  UNL     1      -4.612   8.240  16.009  1.00  0.00    -0.392 OA
HETATM   35  H34 UNL     1      -4.278   8.850  16.691  1.00  0.00     0.210 HD
ENDBRANCH  32  34
ENDBRANCH  31  32
ENDBRANCH   9  30
TORSDOF 12
ENDMDL
MODEL 3
REMARK minimizedAffinity -7.99761724
REMARK  12 active torsions:
REMARK  status: ('A' for Active; 'I' for Inactive)
REMARK    1  A    between atoms: C3_3  and  O1_4 
REMARK    2  A    between atoms: O1_4  and  C4_5 
REMARK    3  A    between atoms: C5_7  and  C6_8 
REMARK    4  A    between atoms: C6_8  and  O3_9 
REMARK    5  A    between atoms: C7_10  and  O4_11 
REMARK    6  A    between atoms: C8_12  and  O5_13 
REMARK    7  A    between atoms: C9_14  and  O6_15 
REMARK    8  A    between atoms: C10_16  and  O7_17 
REMARK    9  A    between atoms: C15_22  and  O8_23 
REMARK   10  A    between atoms: C15_22  and  C16_24 
REMARK   11  A    between atoms: C17_25  and  C18_26 
REMARK   12  A    between atoms: C18_26  and  O9_28 
ROOT
HETATM    1  C1  UNL     1      -0.344   5.174  11.149  1.00  0.00     0.016 C 
HETATM    2  C2  UNL     1       0.269   6.326  11.975  1.00  0.00     0.052 C 
HETATM    3  C3  UNL     1      -0.747   7.482  12.148  1.00  0.00     0.160 C 
HETATM    4  C10 UNL     1      -0.142   8.720  12.850  1.00  0.00     0.148 C 
HETATM    5  C11 UNL     1       1.257   9.091  12.357  1.00  0.00     0.046 C 
HETATM    6  C12 UNL     1       2.261   7.922  12.368  1.00  0.00    -0.010 C 
HETATM    7  C13 UNL     1       3.621   8.465  11.854  1.00  0.00     0.018 C 
HETATM    8  C14 UNL     1       2.517   7.466  13.827  1.00  0.00     0.018 C 
HETATM    9  C15 UNL     1       1.690   6.748  11.478  1.00  0.00     0.088 C 
ENDROOT
BRANCH   3  10
HETATM   10  O1  UNL     1      -1.851   6.909  12.881  1.00  0.00    -0.350 OA
BRANCH  10  11
HETATM   11  C4  UNL     1      -1.521   6.162  14.043  1.00  0.00     0.292 C 
HETATM   12  O2  UNL     1      -2.487   5.147  14.315  1.00  0.00    -0.348 OA
HETATM   13  C5  UNL     1      -3.821   5.610  14.600  1.00  0.00     0.179 C 
HETATM   14  C7  UNL     1      -3.900   7.063  15.092  1.00  0.00     0.180 C 
HETATM   15  C8  UNL     1      -2.703   7.315  16.001  1.00  0.00     0.183 C 
HETATM   16  C9  UNL     1      -1.383   7.134  15.244  1.00  0.00     0.204 C 
BRANCH  13  17
HETATM   17  C6  UNL     1      -4.787   5.315  13.441  1.00  0.00     0.198 C 
BRANCH  17  18
HETATM   18  O3  UNL     1      -6.151   5.327  13.845  1.00  0.00    -0.398 OA
HETATM   19  H10 UNL     1      -6.675   5.044  13.075  1.00  0.00     0.209 HD
ENDBRANCH  17  18
ENDBRANCH  13  17
BRANCH  14  20
HETATM   20  O4  UNL     1      -5.110   7.274  15.834  1.00  0.00    -0.390 OA
HETATM   21  H12 UNL     1      -4.964   8.121  16.304  1.00  0.00     0.210 HD
ENDBRANCH  14  20
BRANCH  15  22
HETATM   22  O5  UNL     1      -2.795   8.637  16.563  1.00  0.00    -0.390 OA
HETATM   23  H14 UNL     1      -1.951   8.796  17.027  1.00  0.00     0.210 HD
ENDBRANCH  15  22
BRANCH  16  24
HETATM   24  O6  UNL     1      -0.402   6.664  16.194  1.00  0.00    -0.388 OA
HETATM   25  H16 UNL     1      -0.593   5.720  16.354  1.00  0.00     0.210 HD
ENDBRANCH  16  24
ENDBRANCH  10  11
ENDBRANCH   3  10
BRANCH   4  26
HETATM   26  O7  UNL     1      -0.971   9.875  12.632  1.00  0.00    -0.393 OA
HETATM   27  H18 UNL     1      -0.922  10.119  11.694  1.00  0.00     0.210 HD
ENDBRANCH   4  26
BRANCH   9  28
HETATM   28  O8  UNL     1       2.513   5.581  11.675  1.00  0.00    -0.385 OA
HETATM   29  H27 UNL     1       3.435   5.817  11.495  1.00  0.00     0.211 HD
ENDBRANCH   9  28
BRANCH   9  30
HETATM   30  C16 UNL     1       1.831   7.051   9.990  1.00  0.00     0.010 C 
HETATM   31  C17 UNL     1       2.827   7.645   9.305  1.00  0.00     0.003 C 
BRANCH  31  32
HETATM   32  C18 UNL     1       2.854   7.879   7.815  1.00  0.00     0.136 C 
HETATM   33  C19 UNL     1       1.484   7.631   7.201  1.00  0.00     0.043 C 
BRANCH  32  34
HETATM   34  O9  UNL     1       3.248   9.212   7.516  1.00  0.00    -0.392 OA
HETATM   35  H34 UNL     1       4.144   9.324   7.880  1.00  0.00     0.210 HD
ENDBRANCH  32  34
ENDBRANCH  31  32
ENDBRANCH   9  30
TORSDOF 12
ENDMDL
MODEL 4
REMARK minimizedAffinity -7.86032057
REMARK  12 active torsions:
REMARK  status: ('A' for Active; 'I' for Inactive)
REMARK    1  A    between atoms: C3_3  and  O1_4 
REMARK    2  A    between atoms: O1_4  and  C4_5 
REMARK    3  A    between atoms: C5_7  and  C6_8 
REMARK    4  A    between atoms: C6_8  and  O3_9 
REMARK    5  A    between atoms: C7_10  and  O4_11 
REMARK    6  A    between atoms: C8_12  and  O5_13 
REMARK    7  A    between atoms: C9_14  and  O6_15 
REMARK    8  A    between atoms: C10_16  and  O7_17 
REMARK    9  A    between atoms: C15_22  and  O8_23 
REMARK   10  A    between atoms: C15_22  and  C16_24 
REMARK   11  A    between atoms: C17_25  and  C18_26 
REMARK   12  A    between atoms: C18_26  and  O9_28 
ROOT
HETATM    1  C1  UNL     1      -0.914   8.880  11.115  1.00  0.00     0.016 C 
HETATM    2  C2  UNL     1      -0.175   8.731  12.463  1.00  0.00     0.052 C 
HETATM    3  C3  UNL     1       0.356   7.288  12.645  1.00  0.00     0.160 C 
HETATM    4  C10 UNL     1       0.985   7.044  14.036  1.00  0.00     0.148 C 
HETATM    5  C11 UNL     1       0.184   7.642  15.193  1.00  0.00     0.046 C 
HETATM    6  C12 UNL     1      -0.168   9.132  15.015  1.00  0.00    -0.010 C 
HETATM    7  C13 UNL     1      -0.964   9.582  16.268  1.00  0.00     0.018 C 
HETATM    8  C14 UNL     1       1.130   9.980  15.017  1.00  0.00     0.018 C 
HETATM    9  C15 UNL     1      -0.982   9.308  13.672  1.00  0.00     0.088 C 
ENDROOT
BRANCH   3  10
HETATM   10  O1  UNL     1       1.295   7.091  11.566  1.00  0.00    -0.350 OA
BRANCH  10  11
HETATM   11  C4  UNL     1       2.145   8.185  11.258  1.00  0.00     0.292 C 
HETATM   12  O2  UNL     1       2.593   8.147   9.903  1.00  0.00    -0.348 OA
HETATM   13  C5  UNL     1       3.393   7.006   9.537  1.00  0.00     0.179 C 
HETATM   14  C7  UNL     1       4.083   6.308  10.719  1.00  0.00     0.180 C 
HETATM   15  C8  UNL     1       4.538   7.384  11.698  1.00  0.00     0.183 C 
HETATM   16  C9  UNL     1       3.346   8.180  12.240  1.00  0.00     0.204 C 
BRANCH  13  17
HETATM   17  C6  UNL     1       2.620   6.033   8.634  1.00  0.00     0.198 C 
BRANCH  17  18
HETATM   18  O3  UNL     1       3.421   4.949   8.179  1.00  0.00    -0.398 OA
HETATM   19  H10 UNL     1       2.880   4.443   7.548  1.00  0.00     0.209 HD
ENDBRANCH  17  18
ENDBRANCH  13  17
BRANCH  14  20
HETATM   20  O4  UNL     1       5.227   5.570  10.263  1.00  0.00    -0.390 OA
HETATM   21  H12 UNL     1       5.731   5.372  11.079  1.00  0.00     0.210 HD
ENDBRANCH  14  20
BRANCH  15  22
HETATM   22  O5  UNL     1       5.280   6.776  12.771  1.00  0.00    -0.390 OA
HETATM   23  H14 UNL     1       5.434   7.480  13.430  1.00  0.00     0.210 HD
ENDBRANCH  15  22
BRANCH  16  24
HETATM   24  O6  UNL     1       3.812   9.520  12.511  1.00  0.00    -0.388 OA
HETATM   25  H16 UNL     1       3.892   9.972  11.650  1.00  0.00     0.210 HD
ENDBRANCH  16  24
ENDBRANCH  10  11
ENDBRANCH   3  10
BRANCH   4  26
HETATM   26  O7  UNL     1       1.092   5.634  14.300  1.00  0.00    -0.393 OA
HETATM   27  H18 UNL     1       0.199   5.270  14.406  1.00  0.00     0.210 HD
ENDBRANCH   4  26
BRANCH   9  28
HETATM   28  O8  UNL     1      -1.107  10.717  13.394  1.00  0.00    -0.385 OA
HETATM   29  H27 UNL     1      -1.497  11.153  14.166  1.00  0.00     0.211 HD
ENDBRANCH   9  28
BRANCH   9  30
HETATM   30  C16 UNL     1      -2.422   8.832  13.821  1.00  0.00     0.010 C 
HETATM   31  C17 UNL     1      -3.480   9.410  14.422  1.00  0.00     0.003 C 
BRANCH  31  32
HETATM   32  C18 UNL     1      -4.874   8.837  14.493  1.00  0.00     0.136 C 
HETATM   33  C19 UNL     1      -5.129   7.882  13.336  1.00  0.00     0.043 C 
BRANCH  32  34
HETATM   34  O9  UNL     1      -5.074   8.133  15.712  1.00  0.00    -0.392 OA
HETATM   35  H34 UNL     1      -4.951   8.781  16.429  1.00  0.00     0.210 HD
ENDBRANCH  32  34
ENDBRANCH  31  32
ENDBRANCH   9  30
TORSDOF 12
ENDMDL
MODEL 5
REMARK minimizedAffinity -7.72623873
REMARK  12 active torsions:
REMARK  status: ('A' for Active; 'I' for Inactive)
REMARK    1  A    between atoms: C3_3  and  O1_4 
REMARK    2  A    between atoms: O1_4  and  C4_5 
REMARK    3  A    between atoms: C5_7  and  C6_8 
REMARK    4  A    between atoms: C6_8  and  O3_9 
REMARK    5  A    between atoms: C7_10  and  O4_11 
REMARK    6  A    between atoms: C8_12  and  O5_13 
REMARK    7  A    between atoms: C9_14  and  O6_15 
REMARK    8  A    between atoms: C10_16  and  O7_17 
REMARK    9  A    between atoms: C15_22  and  O8_23 
REMARK   10  A    between atoms: C15_22  and  C16_24 
REMARK   11  A    between atoms: C17_25  and  C18_26 
REMARK   12  A    between atoms: C18_26  and  O9_28 
ROOT
HETATM    1  C1  UNL     1       1.751   8.151  14.037  1.00  0.00     0.016 C 
HETATM    2  C2  UNL     1       1.179   7.713  12.672  1.00  0.00     0.052 C 
HETATM    3  C3  UNL     1       0.599   6.279  12.749  1.00  0.00     0.160 C 
HETATM    4  C10 UNL     1       0.136   5.736  11.377  1.00  0.00     0.148 C 
HETATM    5  C11 UNL     1       1.105   6.034  10.233  1.00  0.00     0.046 C 
HETATM    6  C12 UNL     1       1.511   7.517  10.117  1.00  0.00    -0.010 C 
HETATM    7  C13 UNL     1       2.480   7.648   8.912  1.00  0.00     0.018 C 
HETATM    8  C14 UNL     1       0.270   8.371   9.751  1.00  0.00     0.018 C 
HETATM    9  C15 UNL     1       2.159   7.978  11.482  1.00  0.00     0.088 C 
ENDROOT
BRANCH   3  10
HETATM   10  O1  UNL     1      -0.476   6.357  13.710  1.00  0.00    -0.350 OA
BRANCH  10  11
HETATM   11  C4  UNL     1      -1.793   6.223  13.199  1.00  0.00     0.292 C 
HETATM   12  O2  UNL     1      -2.382   7.490  12.904  1.00  0.00    -0.348 OA
HETATM   13  C5  UNL     1      -2.561   8.376  14.026  1.00  0.00     0.179 C 
HETATM   14  C7  UNL     1      -2.609   7.673  15.390  1.00  0.00     0.180 C 
HETATM   15  C8  UNL     1      -3.366   6.362  15.216  1.00  0.00     0.183 C 
HETATM   16  C9  UNL     1      -2.653   5.437  14.223  1.00  0.00     0.204 C 
BRANCH  13  17
HETATM   17  C6  UNL     1      -1.571   9.550  13.989  1.00  0.00     0.198 C 
BRANCH  17  18
HETATM   18  O3  UNL     1      -1.302  10.003  12.667  1.00  0.00    -0.398 OA
HETATM   19  H10 UNL     1      -0.605  10.678  12.736  1.00  0.00     0.209 HD
ENDBRANCH  17  18
ENDBRANCH  13  17
BRANCH  14  20
HETATM   20  O4  UNL     1      -3.296   8.491  16.350  1.00  0.00    -0.390 OA
HETATM   21  H12 UNL     1      -3.493   7.884  17.092  1.00  0.00     0.210 HD
ENDBRANCH  14  20
BRANCH  15  22
HETATM   22  O5  UNL     1      -3.520   5.720  16.495  1.00  0.00    -0.390 OA
HETATM   23  H14 UNL     1      -3.890   4.835  16.314  1.00  0.00     0.210 HD
ENDBRANCH  15  22
BRANCH  16  24
HETATM   24  O6  UNL     1      -3.667   4.647  13.566  1.00  0.00    -0.388 OA
HETATM   25  H16 UNL     1      -4.102   5.230  12.914  1.00  0.00     0.210 HD
ENDBRANCH  16  24
ENDBRANCH  10  11
ENDBRANCH   3  10
BRANCH   4  26
HETATM   26  O7  UNL     1      -0.011   4.307  11.426  1.00  0.00    -0.393 OA
HETATM   27  H18 UNL     1       0.868   3.908  11.525  1.00  0.00     0.210 HD
ENDBRANCH   4  26
BRANCH   9  28
HETATM   28  O8  UNL     1       2.324   9.410  11.451  1.00  0.00    -0.385 OA
HETATM   29  H27 UNL     1       2.829   9.648  10.659  1.00  0.00     0.211 HD
ENDBRANCH   9  28
BRANCH   9  30
HETATM   30  C16 UNL     1       3.580   7.448  11.638  1.00  0.00     0.010 C 
HETATM   31  C17 UNL     1       4.466   7.027  10.715  1.00  0.00     0.003 C 
BRANCH  31  32
HETATM   32  C18 UNL     1       5.863   6.530  10.997  1.00  0.00     0.136 C 
HETATM   33  C19 UNL     1       6.198   6.660  12.475  1.00  0.00     0.043 C 
BRANCH  32  34
HETATM   34  O9  UNL     1       6.003   5.166  10.621  1.00  0.00    -0.392 OA
HETATM   35  H34 UNL     1       5.828   5.123   9.663  1.00  0.00     0.210 HD
ENDBRANCH  32  34
ENDBRANCH  31  32
ENDBRANCH   9  30
TORSDOF 12
ENDMDL
MODEL 6
REMARK minimizedAffinity -7.38937759
REMARK  12 active torsions:
REMARK  status: ('A' for Active; 'I' for Inactive)
REMARK    1  A    between atoms: C3_3  and  O1_4 
REMARK    2  A    between atoms: O1_4  and  C4_5 
REMARK    3  A    between atoms: C5_7  and  C6_8 
REMARK    4  A    between atoms: C6_8  and  O3_9 
REMARK    5  A    between atoms: C7_10  and  O4_11 
REMARK    6  A    between atoms: C8_12  and  O5_13 
REMARK    7  A    between atoms: C9_14  and  O6_15 
REMARK    8  A    between atoms: C10_16  and  O7_17 
REMARK    9  A    between atoms: C15_22  and  O8_23 
REMARK   10  A    between atoms: C15_22  and  C16_24 
REMARK   11  A    between atoms: C17_25  and  C18_26 
REMARK   12  A    between atoms: C18_26  and  O9_28 
ROOT
HETATM    1  C1  UNL     1       1.131   7.190  15.381  1.00  0.00     0.016 C 
HETATM    2  C2  UNL     1       0.188   6.935  14.186  1.00  0.00     0.052 C 
HETATM    3  C3  UNL     1       0.621   7.764  12.952  1.00  0.00     0.160 C 
HETATM    4  C10 UNL     1      -0.367   7.654  11.769  1.00  0.00     0.148 C 
HETATM    5  C11 UNL     1      -1.838   7.734  12.179  1.00  0.00     0.046 C 
HETATM    6  C12 UNL     1      -2.235   6.759  13.305  1.00  0.00    -0.010 C 
HETATM    7  C13 UNL     1      -3.746   6.959  13.591  1.00  0.00     0.018 C 
HETATM    8  C14 UNL     1      -2.093   5.298  12.805  1.00  0.00     0.018 C 
HETATM    9  C15 UNL     1      -1.326   7.038  14.567  1.00  0.00     0.088 C 
ENDROOT
BRANCH   3  10
HETATM   10  O1  UNL     1       1.943   7.287  12.622  1.00  0.00    -0.350 OA
BRANCH  10  11
HETATM   11  C4  UNL     1       2.873   8.260  12.170  1.00  0.00     0.292 C 
HETATM   12  O2  UNL     1       2.911   8.340  10.745  1.00  0.00    -0.348 OA
HETATM   13  C5  UNL     1       3.338   7.147  10.060  1.00  0.00     0.179 C 
HETATM   14  C7  UNL     1       4.177   6.187  10.917  1.00  0.00     0.180 C 
HETATM   15  C8  UNL     1       5.088   7.027  11.805  1.00  0.00     0.183 C 
HETATM   16  C9  UNL     1       4.274   7.923  12.744  1.00  0.00     0.204 C 
BRANCH  13  17
HETATM   17  C6  UNL     1       2.169   6.449   9.347  1.00  0.00     0.198 C 
BRANCH  17  18
HETATM   18  O3  UNL     1       2.595   5.624   8.269  1.00  0.00    -0.398 OA
HETATM   19  H10 UNL     1       1.791   5.301   7.827  1.00  0.00     0.209 HD
ENDBRANCH  17  18
ENDBRANCH  13  17
BRANCH  14  20
HETATM   20  O4  UNL     1       4.981   5.343  10.079  1.00  0.00    -0.390 OA
HETATM   21  H12 UNL     1       5.643   4.954  10.687  1.00  0.00     0.210 HD
ENDBRANCH  14  20
BRANCH  15  22
HETATM   22  O5  UNL     1       5.963   6.161  12.552  1.00  0.00    -0.390 OA
HETATM   23  H14 UNL     1       6.429   6.732  13.193  1.00  0.00     0.210 HD
ENDBRANCH  15  22
BRANCH  16  24
HETATM   24  O6  UNL     1       5.050   9.118  12.980  1.00  0.00    -0.388 OA
HETATM   25  H16 UNL     1       4.976   9.666  12.176  1.00  0.00     0.210 HD
ENDBRANCH  16  24
ENDBRANCH  10  11
ENDBRANCH   3  10
BRANCH   4  26
HETATM   26  O7  UNL     1      -0.147   8.719  10.828  1.00  0.00    -0.393 OA
HETATM   27  H18 UNL     1      -0.408   9.557  11.244  1.00  0.00     0.210 HD
ENDBRANCH   4  26
BRANCH   9  28
HETATM   28  O8  UNL     1      -1.538   5.983  15.527  1.00  0.00    -0.385 OA
HETATM   29  H27 UNL     1      -2.487   5.920  15.714  1.00  0.00     0.211 HD
ENDBRANCH   9  28
BRANCH   9  30
HETATM   30  C16 UNL     1      -1.760   8.300  15.304  1.00  0.00     0.010 C 
HETATM   31  C17 UNL     1      -2.155   8.480  16.580  1.00  0.00     0.003 C 
BRANCH  31  32
HETATM   32  C18 UNL     1      -2.553   9.796  17.201  1.00  0.00     0.136 C 
HETATM   33  C19 UNL     1      -3.694  10.439  16.428  1.00  0.00     0.043 C 
BRANCH  32  34
HETATM   34  O9  UNL     1      -2.966   9.617  18.550  1.00  0.00    -0.392 OA
HETATM   35  H34 UNL     1      -2.201   9.249  19.027  1.00  0.00     0.210 HD
ENDBRANCH  32  34
ENDBRANCH  31  32
ENDBRANCH   9  30
TORSDOF 12
ENDMDL
MODEL 7
REMARK minimizedAffinity -7.35273314
REMARK  12 active torsions:
REMARK  status: ('A' for Active; 'I' for Inactive)
REMARK    1  A    between atoms: C3_3  and  O1_4 
REMARK    2  A    between atoms: O1_4  and  C4_5 
REMARK    3  A    between atoms: C5_7  and  C6_8 
REMARK    4  A    between atoms: C6_8  and  O3_9 
REMARK    5  A    between atoms: C7_10  and  O4_11 
REMARK    6  A    between atoms: C8_12  and  O5_13 
REMARK    7  A    between atoms: C9_14  and  O6_15 
REMARK    8  A    between atoms: C10_16  and  O7_17 
REMARK    9  A    between atoms: C15_22  and  O8_23 
REMARK   10  A    between atoms: C15_22  and  C16_24 
REMARK   11  A    between atoms: C17_25  and  C18_26 
REMARK   12  A    between atoms: C18_26  and  O9_28 
ROOT
HETATM    1  C1  UNL     1      -1.117   9.100  12.131  1.00  0.00     0.016 C 
HETATM    2  C2  UNL     1      -1.035   7.566  12.293  1.00  0.00     0.052 C 
HETATM    3  C3  UNL     1      -1.206   7.157  13.777  1.00  0.00     0.160 C 
HETATM    4  C10 UNL     1      -0.995   5.644  14.017  1.00  0.00     0.148 C 
HETATM    5  C11 UNL     1       0.200   5.057  13.267  1.00  0.00     0.046 C 
HETATM    6  C12 UNL     1       0.215   5.369  11.757  1.00  0.00    -0.010 C 
HETATM    7  C13 UNL     1       1.475   4.699  11.149  1.00  0.00     0.018 C 
HETATM    8  C14 UNL     1      -0.996   4.687  11.070  1.00  0.00     0.018 C 
HETATM    9  C15 UNL     1       0.194   6.937  11.559  1.00  0.00     0.088 C 
ENDROOT
BRANCH   3  10
HETATM   10  O1  UNL     1      -2.530   7.601  14.142  1.00  0.00    -0.350 OA
BRANCH  10  11
HETATM   11  C4  UNL     1      -2.853   7.558  15.524  1.00  0.00     0.292 C 
HETATM   12  O2  UNL     1      -3.951   6.683  15.786  1.00  0.00    -0.348 OA
HETATM   13  C5  UNL     1      -5.204   7.046  15.174  1.00  0.00     0.179 C 
HETATM   14  C7  UNL     1      -5.324   8.531  14.802  1.00  0.00     0.180 C 
HETATM   15  C8  UNL     1      -4.649   9.346  15.900  1.00  0.00     0.183 C 
HETATM   16  C9  UNL     1      -3.161   8.997  16.014  1.00  0.00     0.204 C 
BRANCH  13  17
HETATM   17  C6  UNL     1      -5.566   6.105  14.015  1.00  0.00     0.198 C 
BRANCH  17  18
HETATM   18  O3  UNL     1      -4.478   5.275  13.620  1.00  0.00    -0.398 OA
HETATM   19  H10 UNL     1      -4.770   4.786  12.831  1.00  0.00     0.209 HD
ENDBRANCH  17  18
ENDBRANCH  13  17
BRANCH  14  20
HETATM   20  O4  UNL     1      -6.704   8.914  14.711  1.00  0.00    -0.390 OA
HETATM   21  H12 UNL     1      -6.688   9.893  14.717  1.00  0.00     0.210 HD
ENDBRANCH  14  20
BRANCH  15  22
HETATM   22  O5  UNL     1      -4.829  10.750  15.637  1.00  0.00    -0.390 OA
HETATM   23  H14 UNL     1      -4.274  11.222  16.288  1.00  0.00     0.210 HD
ENDBRANCH  15  22
BRANCH  16  24
HETATM   24  O6  UNL     1      -2.782   9.177  17.396  1.00  0.00    -0.388 OA
HETATM   25  H16 UNL     1      -3.135   8.412  17.888  1.00  0.00     0.210 HD
ENDBRANCH  16  24
ENDBRANCH  10  11
ENDBRANCH   3  10
BRANCH   4  26
HETATM   26  O7  UNL     1      -0.768   5.384  15.413  1.00  0.00    -0.393 OA
HETATM   27  H18 UNL     1       0.092   5.759  15.662  1.00  0.00     0.210 HD
ENDBRANCH   4  26
BRANCH   9  28
HETATM   28  O8  UNL     1      -0.024   7.220  10.162  1.00  0.00    -0.385 OA
HETATM   29  H27 UNL     1       0.646   6.752   9.642  1.00  0.00     0.211 HD
ENDBRANCH   9  28
BRANCH   9  30
HETATM   30  C16 UNL     1       1.555   7.559  11.852  1.00  0.00     0.010 C 
HETATM   31  C17 UNL     1       2.551   7.924  11.022  1.00  0.00     0.003 C 
BRANCH  31  32
HETATM   32  C18 UNL     1       3.861   8.546  11.437  1.00  0.00     0.136 C 
HETATM   33  C19 UNL     1       4.657   7.598  12.322  1.00  0.00     0.043 C 
BRANCH  32  34
HETATM   34  O9  UNL     1       4.651   8.875  10.302  1.00  0.00    -0.392 OA
HETATM   35  H34 UNL     1       4.136   9.517   9.782  1.00  0.00     0.210 HD
ENDBRANCH  32  34
ENDBRANCH  31  32
ENDBRANCH   9  30
TORSDOF 12
ENDMDL
MODEL 8
REMARK minimizedAffinity -7.31503725
REMARK  12 active torsions:
REMARK  status: ('A' for Active; 'I' for Inactive)
REMARK    1  A    between atoms: C3_3  and  O1_4 
REMARK    2  A    between atoms: O1_4  and  C4_5 
REMARK    3  A    between atoms: C5_7  and  C6_8 
REMARK    4  A    between atoms: C6_8  and  O3_9 
REMARK    5  A    between atoms: C7_10  and  O4_11 
REMARK    6  A    between atoms: C8_12  and  O5_13 
REMARK    7  A    between atoms: C9_14  and  O6_15 
REMARK    8  A    between atoms: C10_16  and  O7_17 
REMARK    9  A    between atoms: C15_22  and  O8_23 
REMARK   10  A    between atoms: C15_22  and  C16_24 
REMARK   11  A    between atoms: C17_25  and  C18_26 
REMARK   12  A    between atoms: C18_26  and  O9_28 
ROOT
HETATM    1  C1  UNL     1      -7.331 -10.249   6.159  1.00  0.00     0.016 C 
HETATM    2  C2  UNL     1      -5.852 -10.614   6.408  1.00  0.00     0.052 C 
HETATM    3  C3  UNL     1      -5.094  -9.432   7.062  1.00  0.00     0.160 C 
HETATM    4  C10 UNL     1      -3.576  -9.691   7.209  1.00  0.00     0.148 C 
HETATM    5  C11 UNL     1      -2.935 -10.335   5.980  1.00  0.00     0.046 C 
HETATM    6  C12 UNL     1      -3.653 -11.605   5.483  1.00  0.00    -0.010 C 
HETATM    7  C13 UNL     1      -2.877 -12.133   4.248  1.00  0.00     0.018 C 
HETATM    8  C14 UNL     1      -3.543 -12.720   6.555  1.00  0.00     0.018 C 
HETATM    9  C15 UNL     1      -5.158 -11.249   5.159  1.00  0.00     0.088 C 
ENDROOT
BRANCH   3  10
HETATM   10  O1  UNL     1      -5.749  -9.218   8.331  1.00  0.00    -0.350 OA
BRANCH  10  11
HETATM   11  C4  UNL     1      -5.366 -10.076   9.394  1.00  0.00     0.292 C 
HETATM   12  O2  UNL     1      -6.412 -10.981   9.751  1.00  0.00    -0.348 OA
HETATM   13  C5  UNL     1      -7.623 -10.377  10.246  1.00  0.00     0.179 C 
HETATM   14  C7  UNL     1      -7.442  -8.962  10.815  1.00  0.00     0.180 C 
HETATM   15  C8  UNL     1      -6.111  -8.922  11.556  1.00  0.00     0.183 C 
HETATM   16  C9  UNL     1      -4.940  -9.213  10.610  1.00  0.00     0.204 C 
BRANCH  13  17
HETATM   17  C6  UNL     1      -8.766 -10.472   9.223  1.00  0.00     0.198 C 
BRANCH  17  18
HETATM   18  O3  UNL     1      -9.193 -11.811   8.998  1.00  0.00    -0.398 OA
HETATM   19  H10 UNL     1      -9.847 -11.780   8.278  1.00  0.00     0.209 HD
ENDBRANCH  17  18
ENDBRANCH  13  17
BRANCH  14  20
HETATM   20  O4  UNL     1      -8.502  -8.654  11.732  1.00  0.00    -0.390 OA
HETATM   21  H12 UNL     1      -8.184  -7.865  12.218  1.00  0.00     0.210 HD
ENDBRANCH  14  20
BRANCH  15  22
HETATM   22  O5  UNL     1      -5.951  -7.639  12.191  1.00  0.00    -0.390 OA
HETATM   23  H14 UNL     1      -5.038  -7.618  12.537  1.00  0.00     0.210 HD
ENDBRANCH  15  22
BRANCH  16  24
HETATM   24  O6  UNL     1      -3.911  -9.863  11.386  1.00  0.00    -0.388 OA
HETATM   25  H16 UNL     1      -4.201 -10.785  11.525  1.00  0.00     0.210 HD
ENDBRANCH  16  24
ENDBRANCH  10  11
ENDBRANCH   3  10
BRANCH   4  26
HETATM   26  O7  UNL     1      -2.875  -8.457   7.437  1.00  0.00    -0.393 OA
HETATM   27  H18 UNL     1      -2.920  -7.921   6.628  1.00  0.00     0.210 HD
ENDBRANCH   4  26
BRANCH   9  28
HETATM   28  O8  UNL     1      -5.878 -12.475   4.919  1.00  0.00    -0.385 OA
HETATM   29  H27 UNL     1      -5.419 -12.974   4.227  1.00  0.00     0.211 HD
ENDBRANCH   9  28
BRANCH   9  30
HETATM   30  C16 UNL     1      -5.284 -10.485   3.846  1.00  0.00     0.010 C 
HETATM   31  C17 UNL     1      -6.018 -10.744   2.746  1.00  0.00     0.003 C 
BRANCH  31  32
HETATM   32  C18 UNL     1      -6.068  -9.894   1.500  1.00  0.00     0.136 C 
HETATM   33  C19 UNL     1      -6.202 -10.761   0.257  1.00  0.00     0.043 C 
BRANCH  32  34
HETATM   34  O9  UNL     1      -7.166  -8.992   1.543  1.00  0.00    -0.392 OA
HETATM   35  H34 UNL     1      -7.026  -8.422   2.320  1.00  0.00     0.210 HD
ENDBRANCH  32  34
ENDBRANCH  31  32
ENDBRANCH   9  30
TORSDOF 12
ENDMDL
MODEL 9
REMARK minimizedAffinity -7.30078554
REMARK  12 active torsions:
REMARK  status: ('A' for Active; 'I' for Inactive)
REMARK    1  A    between atoms: C3_3  and  O1_4 
REMARK    2  A    between atoms: O1_4  and  C4_5 
REMARK    3  A    between atoms: C5_7  and  C6_8 
REMARK    4  A    between atoms: C6_8  and  O3_9 
REMARK    5  A    between atoms: C7_10  and  O4_11 
REMARK    6  A    between atoms: C8_12  and  O5_13 
REMARK    7  A    between atoms: C9_14  and  O6_15 
REMARK    8  A    between atoms: C10_16  and  O7_17 
REMARK    9  A    between atoms: C15_22  and  O8_23 
REMARK   10  A    between atoms: C15_22  and  C16_24 
REMARK   11  A    between atoms: C17_25  and  C18_26 
REMARK   12  A    between atoms: C18_26  and  O9_28 
ROOT
HETATM    1  C1  UNL     1      -0.138   8.526  11.157  1.00  0.00     0.016 C 
HETATM    2  C2  UNL     1       0.259   8.708  12.638  1.00  0.00     0.052 C 
HETATM    3  C3  UNL     1       1.286   7.632  13.070  1.00  0.00     0.160 C 
HETATM    4  C10 UNL     1       1.616   7.680  14.580  1.00  0.00     0.148 C 
HETATM    5  C11 UNL     1       0.393   7.875  15.477  1.00  0.00     0.046 C 
HETATM    6  C12 UNL     1      -0.497   9.070  15.081  1.00  0.00    -0.010 C 
HETATM    7  C13 UNL     1      -1.676   9.133  16.088  1.00  0.00     0.018 C 
HETATM    8  C14 UNL     1       0.289  10.393  15.274  1.00  0.00     0.018 C 
HETATM    9  C15 UNL     1      -0.972   8.882  13.586  1.00  0.00     0.088 C 
ENDROOT
BRANCH   3  10
HETATM   10  O1  UNL     1       2.444   7.858  12.238  1.00  0.00    -0.350 OA
BRANCH  10  11
HETATM   11  C4  UNL     1       3.041   6.708  11.658  1.00  0.00     0.292 C 
HETATM   12  O2  UNL     1       4.384   6.958  11.241  1.00  0.00    -0.348 OA
HETATM   13  C5  UNL     1       4.546   7.956  10.215  1.00  0.00     0.179 C 
HETATM   14  C7  UNL     1       3.293   8.203   9.363  1.00  0.00     0.180 C 
HETATM   15  C8  UNL     1       2.606   6.861   9.139  1.00  0.00     0.183 C 
HETATM   16  C9  UNL     1       2.169   6.234  10.467  1.00  0.00     0.204 C 
BRANCH  13  17
HETATM   17  C6  UNL     1       5.160   9.251  10.771  1.00  0.00     0.198 C 
BRANCH  17  18
HETATM   18  O3  UNL     1       5.957   9.938   9.813  1.00  0.00    -0.398 OA
HETATM   19  H10 UNL     1       6.372  10.686  10.276  1.00  0.00     0.209 HD
ENDBRANCH  17  18
ENDBRANCH  13  17
BRANCH  14  20
HETATM   20  O4  UNL     1       3.655   8.767   8.093  1.00  0.00    -0.390 OA
HETATM   21  H12 UNL     1       2.853   8.661   7.541  1.00  0.00     0.210 HD
ENDBRANCH  14  20
BRANCH  15  22
HETATM   22  O5  UNL     1       1.481   7.037   8.259  1.00  0.00    -0.390 OA
HETATM   23  H14 UNL     1       1.004   6.185   8.252  1.00  0.00     0.210 HD
ENDBRANCH  15  22
BRANCH  16  24
HETATM   24  O6  UNL     1       2.230   4.799  10.305  1.00  0.00    -0.388 OA
HETATM   25  H16 UNL     1       3.173   4.550  10.345  1.00  0.00     0.210 HD
ENDBRANCH  16  24
ENDBRANCH  10  11
ENDBRANCH   3  10
BRANCH   4  26
HETATM   26  O7  UNL     1       2.237   6.452  14.998  1.00  0.00    -0.393 OA
HETATM   27  H18 UNL     1       1.579   5.740  14.948  1.00  0.00     0.210 HD
ENDBRANCH   4  26
BRANCH   9  28
HETATM   28  O8  UNL     1      -1.606  10.101  13.150  1.00  0.00    -0.385 OA
HETATM   29  H27 UNL     1      -2.310  10.326  13.776  1.00  0.00     0.211 HD
ENDBRANCH   9  28
BRANCH   9  30
HETATM   30  C16 UNL     1      -2.074   7.833  13.474  1.00  0.00     0.010 C 
HETATM   31  C17 UNL     1      -3.375   7.958  13.150  1.00  0.00     0.003 C 
BRANCH  31  32
HETATM   32  C18 UNL     1      -4.373   6.830  13.061  1.00  0.00     0.136 C 
HETATM   33  C19 UNL     1      -4.026   5.719  14.041  1.00  0.00     0.043 C 
BRANCH  32  34
HETATM   34  O9  UNL     1      -5.687   7.290  13.347  1.00  0.00    -0.392 OA
HETATM   35  H34 UNL     1      -5.897   7.964  12.676  1.00  0.00     0.210 HD
ENDBRANCH  32  34
ENDBRANCH  31  32
ENDBRANCH   9  30
TORSDOF 12
ENDMDL
