MODEL 1
REMARK minimizedAffinity -9.20452595
REMARK CNNscore 0.426241189
REMARK CNNaffinity 6.87762642
REMARK  13 active torsions:
REMARK  status: ('A' for Active; 'I' for Inactive)
REMARK    1  A    between atoms: C19_21  and  O3_22 
REMARK    2  A    between atoms: C19_21  and  C20_23 
REMARK    3  A    between atoms: C20_23  and  C21_25 
REMARK    4  A    between atoms: C21_25  and  O5_26 
REMARK    5  A    between atoms: O5_26  and  C22_27 
REMARK    6  A    between atoms: C22_27  and  C23_29 
REMARK    7  A    between atoms: C23_29  and  C24_30 
REMARK    8  A    between atoms: C24_30  and  C25_31 
REMARK       I    between atoms: C25_31  and  N1_33 
REMARK    9  A    between atoms: N1_33  and  C26_34 
REMARK   10  A    between atoms: C26_34  and  C27_35 
REMARK   11  A    between atoms: C26_34  and  C36_45 
REMARK   12  A    between atoms: C27_35  and  C28_36 
REMARK   13  A    between atoms: C36_45  and  O9_47 
ROOT
HETATM    1  C21 UNL     1      -1.076  50.449 -17.306  1.00  0.00     0.260 C 
ENDROOT
BRANCH   1   2
HETATM    2  C20 UNL     1      -2.205  49.532 -17.772  1.00  0.00     0.185 C 
HETATM    3  O4  UNL     1      -3.104  49.191 -16.997  1.00  0.00    -0.292 OA
BRANCH   2   4
HETATM    4  C19 UNL     1      -2.161  49.047 -19.244  1.00  0.00     0.128 C 
HETATM    5  C14 UNL     1      -2.021  50.175 -20.318  1.00  0.00     0.005 C 
HETATM    6  C13 UNL     1      -0.602  50.687 -20.619  1.00  0.00     0.091 C 
HETATM    7  C15 UNL     1      -2.902  51.403 -19.947  1.00  0.00     0.019 C 
HETATM    8  C16 UNL     1      -2.536  49.409 -21.577  1.00  0.00     0.002 C 
HETATM    9  C12 UNL     1      -0.614  51.511 -21.906  1.00  0.00     0.133 C 
HETATM   10  C11 UNL     1      -1.158  50.788 -23.147  1.00  0.00     0.072 C 
HETATM   11  O2  UNL     1      -0.170  52.655 -21.924  1.00  0.00    -0.297 OA
HETATM   12  C2  UNL     1      -1.076  51.539 -24.511  1.00  0.00    -0.009 C 
HETATM   13  C10 UNL     1      -2.606  50.303 -22.828  1.00  0.00     0.003 C 
HETATM   14  C1  UNL     1      -2.014  52.768 -24.543  1.00  0.00     0.021 C 
HETATM   15  C3  UNL     1       0.380  51.974 -24.832  1.00  0.00     0.022 C 
HETATM   16  C7  UNL     1      -1.501  50.549 -25.609  1.00  0.00    -0.067 C 
HETATM   17  C4  UNL     1       0.542  52.552 -26.239  1.00  0.00     0.084 C 
HETATM   18  C5  UNL     1      -0.102  51.687 -27.296  1.00  0.00     0.149 C 
HETATM   19  O1  UNL     1       0.143  51.829 -28.492  1.00  0.00    -0.293 OA
HETATM   20  C6  UNL     1      -1.065  50.642 -26.877  1.00  0.00     0.053 C 
HETATM   21  C8  UNL     1      -2.356  49.365 -25.209  1.00  0.00     0.035 C 
HETATM   22  C9  UNL     1      -3.293  49.649 -24.041  1.00  0.00     0.010 C 
HETATM   23  C17 UNL     1      -3.815  48.744 -21.082  1.00  0.00     0.009 C 
HETATM   24  C18 UNL     1      -3.516  48.373 -19.617  1.00  0.00     0.047 C 
BRANCH   4  25
HETATM   25  O3  UNL     1      -1.171  48.030 -19.433  1.00  0.00    -0.381 OA
HETATM   26  H25 UNL     1      -0.282  48.420 -19.409  1.00  0.00     0.211 HD
ENDBRANCH   4  25
ENDBRANCH   2   4
ENDBRANCH   1   2
BRANCH   1  27
HETATM   27  O5  UNL     1      -0.306  49.863 -16.255  1.00  0.00    -0.314 OA
BRANCH  27  28
HETATM   28  C22 UNL     1       0.832  50.549 -15.965  1.00  0.00     0.259 C 
HETATM   29  O6  UNL     1       1.330  51.390 -16.704  1.00  0.00    -0.265 OA
BRANCH  28  30
HETATM   30  C23 UNL     1       1.370  50.195 -14.605  1.00  0.00     0.120 C 
BRANCH  30  31
HETATM   31  C24 UNL     1       2.290  51.268 -14.038  1.00  0.00     0.112 C 
BRANCH  31  32
HETATM   32  C25 UNL     1       1.932  51.609 -12.609  1.00  0.00     0.218 C 
HETATM   33  O7  UNL     1       1.576  50.779 -11.780  1.00  0.00    -0.274 OA
HETATM   34  N1  UNL     1       2.051  52.951 -12.337  1.00  0.00    -0.346 N 
HETATM   35  H32 UNL     1       2.031  53.593 -13.117  1.00  0.00     0.163 HD
BRANCH  34  36
HETATM   36  C26 UNL     1       1.708  53.494 -11.017  1.00  0.00     0.186 C 
BRANCH  36  37
HETATM   37  C27 UNL     1       2.373  54.859 -10.782  1.00  0.00     0.077 C 
BRANCH  37  38
HETATM   38  C28 UNL     1       3.564  54.776  -9.874  1.00  0.00    -0.028 A 
HETATM   39  C29 UNL     1       4.484  53.745  -9.829  1.00  0.00     0.096 A 
HETATM   40  N2  UNL     1       5.439  54.062  -8.903  1.00  0.00    -0.365 N 
HETATM   41  C30 UNL     1       5.161  55.280  -8.327  1.00  0.00     0.042 A 
HETATM   42  H37 UNL     1       6.243  53.493  -8.676  1.00  0.00     0.165 HD
HETATM   43  C31 UNL     1       5.861  55.994  -7.346  1.00  0.00     0.030 A 
HETATM   44  C35 UNL     1       3.982  55.748  -8.907  1.00  0.00    -0.002 A 
HETATM   45  C32 UNL     1       5.338  57.226  -6.945  1.00  0.00     0.002 A 
HETATM   46  C33 UNL     1       4.161  57.721  -7.501  1.00  0.00     0.001 A 
HETATM   47  C34 UNL     1       3.474  56.994  -8.481  1.00  0.00     0.014 A 
ENDBRANCH  37  38
ENDBRANCH  36  37
BRANCH  36  48
HETATM   48  C36 UNL     1       0.196  53.671 -10.864  1.00  0.00     0.163 C 
HETATM   49  O8  UNL     1      -0.376  54.145  -9.895  1.00  0.00    -0.648 OA
BRANCH  48  50
HETATM   50  O9  UNL     1      -0.523  53.319 -11.955  1.00  0.00    -0.775 OA
HETATM   51  H42 UNL     1      -1.451  53.463 -11.674  1.00  0.00     0.167 HD
ENDBRANCH  48  50
ENDBRANCH  36  48
ENDBRANCH  34  36
ENDBRANCH  31  32
ENDBRANCH  30  31
ENDBRANCH  28  30
ENDBRANCH  27  28
ENDBRANCH   1  27
TORSDOF 13
ENDMDL
MODEL 2
REMARK minimizedAffinity -9.66845036
REMARK CNNscore 0.385513991
REMARK CNNaffinity 6.67894173
REMARK  13 active torsions:
REMARK  status: ('A' for Active; 'I' for Inactive)
REMARK    1  A    between atoms: C19_21  and  O3_22 
REMARK    2  A    between atoms: C19_21  and  C20_23 
REMARK    3  A    between atoms: C20_23  and  C21_25 
REMARK    4  A    between atoms: C21_25  and  O5_26 
REMARK    5  A    between atoms: O5_26  and  C22_27 
REMARK    6  A    between atoms: C22_27  and  C23_29 
REMARK    7  A    between atoms: C23_29  and  C24_30 
REMARK    8  A    between atoms: C24_30  and  C25_31 
REMARK       I    between atoms: C25_31  and  N1_33 
REMARK    9  A    between atoms: N1_33  and  C26_34 
REMARK   10  A    between atoms: C26_34  and  C27_35 
REMARK   11  A    between atoms: C26_34  and  C36_45 
REMARK   12  A    between atoms: C27_35  and  C28_36 
REMARK   13  A    between atoms: C36_45  and  O9_47 
ROOT
HETATM    1  C21 UNL     1      -5.762  47.957 -28.055  1.00  0.00     0.260 C 
ENDROOT
BRANCH   1   2
HETATM    2  C20 UNL     1      -6.938  47.808 -27.093  1.00  0.00     0.185 C 
HETATM    3  O4  UNL     1      -6.759  47.800 -25.871  1.00  0.00    -0.292 OA
BRANCH   2   4
HETATM    4  C19 UNL     1      -8.350  47.657 -27.717  1.00  0.00     0.128 C 
HETATM    5  C14 UNL     1      -9.408  46.940 -26.816  1.00  0.00     0.005 C 
HETATM    6  C13 UNL     1     -10.142  47.799 -25.773  1.00  0.00     0.091 C 
HETATM    7  C15 UNL     1      -8.771  45.730 -26.072  1.00  0.00     0.019 C 
HETATM    8  C16 UNL     1     -10.440  46.514 -27.906  1.00  0.00     0.002 C 
HETATM    9  C12 UNL     1     -11.355  47.038 -25.239  1.00  0.00     0.133 C 
HETATM   10  C11 UNL     1     -12.361  46.573 -26.303  1.00  0.00     0.072 C 
HETATM   11  O2  UNL     1     -11.508  46.865 -24.034  1.00  0.00    -0.297 OA
HETATM   12  C2  UNL     1     -13.678  45.903 -25.802  1.00  0.00    -0.009 C 
HETATM   13  C10 UNL     1     -11.600  45.682 -27.331  1.00  0.00     0.003 C 
HETATM   14  C1  UNL     1     -13.404  44.531 -25.142  1.00  0.00     0.021 C 
HETATM   15  C3  UNL     1     -14.443  46.824 -24.814  1.00  0.00     0.022 C 
HETATM   16  C7  UNL     1     -14.587  45.704 -27.026  1.00  0.00    -0.067 C 
HETATM   17  C4  UNL     1     -15.826  46.290 -24.437  1.00  0.00     0.084 C 
HETATM   18  C5  UNL     1     -16.627  45.861 -25.643  1.00  0.00     0.149 C 
HETATM   19  O1  UNL     1     -17.838  45.661 -25.582  1.00  0.00    -0.293 OA
HETATM   20  C6  UNL     1     -15.928  45.667 -26.934  1.00  0.00     0.053 C 
HETATM   21  C8  UNL     1     -13.941  45.659 -28.395  1.00  0.00     0.035 C 
HETATM   22  C9  UNL     1     -12.534  45.073 -28.394  1.00  0.00     0.010 C 
HETATM   23  C17 UNL     1      -9.567  45.898 -28.993  1.00  0.00     0.009 C 
HETATM   24  C18 UNL     1      -8.276  46.736 -28.972  1.00  0.00     0.047 C 
BRANCH   4  25
HETATM   25  O3  UNL     1      -8.847  48.910 -28.198  1.00  0.00    -0.381 OA
HETATM   26  H25 UNL     1      -9.106  49.476 -27.453  1.00  0.00     0.211 HD
ENDBRANCH   4  25
ENDBRANCH   2   4
ENDBRANCH   1   2
BRANCH   1  27
HETATM   27  O5  UNL     1      -4.519  48.108 -27.367  1.00  0.00    -0.314 OA
BRANCH  27  28
HETATM   28  C22 UNL     1      -3.861  49.258 -27.676  1.00  0.00     0.259 C 
HETATM   29  O6  UNL     1      -3.678  49.654 -28.821  1.00  0.00    -0.265 OA
BRANCH  28  30
HETATM   30  C23 UNL     1      -3.441  50.012 -26.444  1.00  0.00     0.120 C 
BRANCH  30  31
HETATM   31  C24 UNL     1      -2.132  49.503 -25.859  1.00  0.00     0.112 C 
BRANCH  31  32
HETATM   32  C25 UNL     1      -1.129  50.621 -25.680  1.00  0.00     0.218 C 
HETATM   33  O7  UNL     1      -0.059  50.677 -26.273  1.00  0.00    -0.274 OA
HETATM   34  N1  UNL     1      -1.549  51.572 -24.780  1.00  0.00    -0.346 N 
HETATM   35  H32 UNL     1      -2.260  51.307 -24.112  1.00  0.00     0.163 HD
BRANCH  34  36
HETATM   36  C26 UNL     1      -0.701  52.718 -24.432  1.00  0.00     0.186 C 
BRANCH  36  37
HETATM   37  C27 UNL     1       0.611  52.264 -23.773  1.00  0.00     0.077 C 
BRANCH  37  38
HETATM   38  C28 UNL     1       0.729  52.709 -22.346  1.00  0.00    -0.028 A 
HETATM   39  C29 UNL     1       1.218  53.926 -21.910  1.00  0.00     0.096 A 
HETATM   40  N2  UNL     1       1.123  53.964 -20.545  1.00  0.00    -0.365 N 
HETATM   41  C30 UNL     1       0.589  52.787 -20.072  1.00  0.00     0.042 A 
HETATM   42  H37 UNL     1       1.394  54.744 -19.963  1.00  0.00     0.165 HD
HETATM   43  C31 UNL     1       0.309  52.390 -18.758  1.00  0.00     0.030 A 
HETATM   44  C35 UNL     1       0.343  51.973 -21.177  1.00  0.00    -0.002 A 
HETATM   45  C32 UNL     1      -0.240  51.119 -18.569  1.00  0.00     0.002 A 
HETATM   46  C33 UNL     1      -0.494  50.279 -19.651  1.00  0.00     0.001 A 
HETATM   47  C34 UNL     1      -0.208  50.694 -20.958  1.00  0.00     0.014 A 
ENDBRANCH  37  38
ENDBRANCH  36  37
BRANCH  36  48
HETATM   48  C36 UNL     1      -0.349  53.546 -25.669  1.00  0.00     0.163 C 
HETATM   49  O8  UNL     1       0.699  54.144 -25.858  1.00  0.00    -0.648 OA
BRANCH  48  50
HETATM   50  O9  UNL     1      -1.289  53.527 -26.642  1.00  0.00    -0.775 OA
HETATM   51  H42 UNL     1      -0.920  54.123 -27.328  1.00  0.00     0.167 HD
ENDBRANCH  48  50
ENDBRANCH  36  48
ENDBRANCH  34  36
ENDBRANCH  31  32
ENDBRANCH  30  31
ENDBRANCH  28  30
ENDBRANCH  27  28
ENDBRANCH   1  27
TORSDOF 13
ENDMDL
MODEL 3
REMARK minimizedAffinity -9.29195023
REMARK CNNscore 0.363635063
REMARK CNNaffinity 7.14708948
REMARK  13 active torsions:
REMARK  status: ('A' for Active; 'I' for Inactive)
REMARK    1  A    between atoms: C19_21  and  O3_22 
REMARK    2  A    between atoms: C19_21  and  C20_23 
REMARK    3  A    between atoms: C20_23  and  C21_25 
REMARK    4  A    between atoms: C21_25  and  O5_26 
REMARK    5  A    between atoms: O5_26  and  C22_27 
REMARK    6  A    between atoms: C22_27  and  C23_29 
REMARK    7  A    between atoms: C23_29  and  C24_30 
REMARK    8  A    between atoms: C24_30  and  C25_31 
REMARK       I    between atoms: C25_31  and  N1_33 
REMARK    9  A    between atoms: N1_33  and  C26_34 
REMARK   10  A    between atoms: C26_34  and  C27_35 
REMARK   11  A    between atoms: C26_34  and  C36_45 
REMARK   12  A    between atoms: C27_35  and  C28_36 
REMARK   13  A    between atoms: C36_45  and  O9_47 
ROOT
HETATM    1  C21 UNL     1      -2.150  50.527 -14.718  1.00  0.00     0.260 C 
ENDROOT
BRANCH   1   2
HETATM    2  C20 UNL     1      -2.803  50.515 -13.338  1.00  0.00     0.185 C 
HETATM    3  O4  UNL     1      -3.440  49.531 -12.948  1.00  0.00    -0.292 OA
BRANCH   2   4
HETATM    4  C19 UNL     1      -2.642  51.787 -12.466  1.00  0.00     0.128 C 
HETATM    5  C14 UNL     1      -1.248  51.954 -11.777  1.00  0.00     0.005 C 
HETATM    6  C13 UNL     1      -0.121  52.585 -12.611  1.00  0.00     0.091 C 
HETATM    7  C15 UNL     1      -0.733  50.589 -11.235  1.00  0.00     0.019 C 
HETATM    8  C16 UNL     1      -1.631  52.957 -10.644  1.00  0.00     0.002 C 
HETATM    9  C12 UNL     1       1.036  52.985 -11.697  1.00  0.00     0.133 C 
HETATM   10  C11 UNL     1       0.670  53.939 -10.550  1.00  0.00     0.072 C 
HETATM   11  O2  UNL     1       2.177  52.591 -11.917  1.00  0.00    -0.297 OA
HETATM   12  C2  UNL     1       1.834  54.478  -9.664  1.00  0.00    -0.009 C 
HETATM   13  C10 UNL     1      -0.453  53.267  -9.702  1.00  0.00     0.003 C 
HETATM   14  C1  UNL     1       2.476  53.353  -8.819  1.00  0.00     0.021 C 
HETATM   15  C3  UNL     1       2.920  55.183 -10.521  1.00  0.00     0.022 C 
HETATM   16  C7  UNL     1       1.243  55.542  -8.724  1.00  0.00    -0.067 C 
HETATM   17  C4  UNL     1       3.989  55.886  -9.684  1.00  0.00     0.084 C 
HETATM   18  C5  UNL     1       3.396  56.745  -8.592  1.00  0.00     0.149 C 
HETATM   19  O1  UNL     1       4.061  57.588  -7.994  1.00  0.00    -0.293 OA
HETATM   20  C6  UNL     1       1.973  56.557  -8.229  1.00  0.00     0.053 C 
HETATM   21  C8  UNL     1      -0.243  55.497  -8.442  1.00  0.00     0.035 C 
HETATM   22  C9  UNL     1      -0.832  54.091  -8.458  1.00  0.00     0.010 C 
HETATM   23  C17 UNL     1      -2.898  52.352 -10.054  1.00  0.00     0.009 C 
HETATM   24  C18 UNL     1      -3.626  51.727 -11.259  1.00  0.00     0.047 C 
BRANCH   4  25
HETATM   25  O3  UNL     1      -3.004  52.969 -13.189  1.00  0.00    -0.381 OA
HETATM   26  H25 UNL     1      -2.319  53.184 -13.843  1.00  0.00     0.211 HD
ENDBRANCH   4  25
ENDBRANCH   2   4
ENDBRANCH   1   2
BRANCH   1  27
HETATM   27  O5  UNL     1      -3.051  50.961 -15.737  1.00  0.00    -0.314 OA
BRANCH  27  28
HETATM   28  C22 UNL     1      -2.469  51.094 -16.960  1.00  0.00     0.259 C 
HETATM   29  O6  UNL     1      -3.064  51.468 -17.963  1.00  0.00    -0.265 OA
BRANCH  28  30
HETATM   30  C23 UNL     1      -0.997  50.785 -16.916  1.00  0.00     0.120 C 
BRANCH  30  31
HETATM   31  C24 UNL     1      -0.512  50.053 -18.160  1.00  0.00     0.112 C 
BRANCH  31  32
HETATM   32  C25 UNL     1      -0.561  50.942 -19.383  1.00  0.00     0.218 C 
HETATM   33  O7  UNL     1       0.218  51.865 -19.584  1.00  0.00    -0.274 OA
HETATM   34  N1  UNL     1      -1.573  50.600 -20.248  1.00  0.00    -0.346 N 
HETATM   35  H32 UNL     1      -2.347  50.064 -19.879  1.00  0.00     0.163 HD
BRANCH  34  36
HETATM   36  C26 UNL     1      -1.818  51.368 -21.475  1.00  0.00     0.186 C 
BRANCH  36  37
HETATM   37  C27 UNL     1      -1.188  50.685 -22.698  1.00  0.00     0.077 C 
BRANCH  37  38
HETATM   38  C28 UNL     1      -0.478  51.649 -23.601  1.00  0.00    -0.028 A 
HETATM   39  C29 UNL     1       0.312  52.709 -23.199  1.00  0.00     0.096 A 
HETATM   40  N2  UNL     1       0.811  53.321 -24.317  1.00  0.00    -0.365 N 
HETATM   41  C30 UNL     1       0.354  52.689 -25.450  1.00  0.00     0.042 A 
HETATM   42  H37 UNL     1       1.434  54.116 -24.317  1.00  0.00     0.165 HD
HETATM   43  C31 UNL     1       0.609  52.965 -26.800  1.00  0.00     0.030 A 
HETATM   44  C35 UNL     1      -0.468  51.642 -25.035  1.00  0.00    -0.002 A 
HETATM   45  C32 UNL     1       0.002  52.145 -27.755  1.00  0.00     0.002 A 
HETATM   46  C33 UNL     1      -0.829  51.094 -27.373  1.00  0.00     0.001 A 
HETATM   47  C34 UNL     1      -1.071  50.832 -26.019  1.00  0.00     0.014 A 
ENDBRANCH  37  38
ENDBRANCH  36  37
BRANCH  36  48
HETATM   48  C36 UNL     1      -3.316  51.529 -21.740  1.00  0.00     0.163 C 
HETATM   49  O8  UNL     1      -3.818  52.030 -22.735  1.00  0.00    -0.648 OA
BRANCH  48  50
HETATM   50  O9  UNL     1      -4.115  50.992 -20.790  1.00  0.00    -0.775 OA
HETATM   51  H42 UNL     1      -5.020  51.212 -21.100  1.00  0.00     0.167 HD
ENDBRANCH  48  50
ENDBRANCH  36  48
ENDBRANCH  34  36
ENDBRANCH  31  32
ENDBRANCH  30  31
ENDBRANCH  28  30
ENDBRANCH  27  28
ENDBRANCH   1  27
TORSDOF 13
ENDMDL
MODEL 4
REMARK minimizedAffinity -9.04924393
REMARK CNNscore 0.344488144
REMARK CNNaffinity 7.01232147
REMARK  13 active torsions:
REMARK  status: ('A' for Active; 'I' for Inactive)
REMARK    1  A    between atoms: C19_21  and  O3_22 
REMARK    2  A    between atoms: C19_21  and  C20_23 
REMARK    3  A    between atoms: C20_23  and  C21_25 
REMARK    4  A    between atoms: C21_25  and  O5_26 
REMARK    5  A    between atoms: O5_26  and  C22_27 
REMARK    6  A    between atoms: C22_27  and  C23_29 
REMARK    7  A    between atoms: C23_29  and  C24_30 
REMARK    8  A    between atoms: C24_30  and  C25_31 
REMARK       I    between atoms: C25_31  and  N1_33 
REMARK    9  A    between atoms: N1_33  and  C26_34 
REMARK   10  A    between atoms: C26_34  and  C27_35 
REMARK   11  A    between atoms: C26_34  and  C36_45 
REMARK   12  A    between atoms: C27_35  and  C28_36 
REMARK   13  A    between atoms: C36_45  and  O9_47 
ROOT
HETATM    1  C21 UNL     1      -2.254  51.625 -10.758  1.00  0.00     0.260 C 
ENDROOT
BRANCH   1   2
HETATM    2  C20 UNL     1      -1.816  52.749  -9.821  1.00  0.00     0.185 C 
HETATM    3  O4  UNL     1      -2.649  53.398  -9.179  1.00  0.00    -0.292 OA
BRANCH   2   4
HETATM    4  C19 UNL     1      -0.297  53.041  -9.724  1.00  0.00     0.128 C 
HETATM    5  C14 UNL     1       0.088  54.340  -8.944  1.00  0.00     0.005 C 
HETATM    6  C13 UNL     1       0.179  54.239  -7.412  1.00  0.00     0.091 C 
HETATM    7  C15 UNL     1      -0.889  55.501  -9.288  1.00  0.00     0.019 C 
HETATM    8  C16 UNL     1       1.529  54.567  -9.500  1.00  0.00     0.002 C 
HETATM    9  C12 UNL     1       0.890  55.473  -6.855  1.00  0.00     0.133 C 
HETATM   10  C11 UNL     1       2.293  55.737  -7.423  1.00  0.00     0.072 C 
HETATM   11  O2  UNL     1       0.368  56.159  -5.983  1.00  0.00    -0.297 OA
HETATM   12  C2  UNL     1       3.112  56.908  -6.800  1.00  0.00    -0.009 C 
HETATM   13  C10 UNL     1       2.171  55.862  -8.973  1.00  0.00     0.003 C 
HETATM   14  C1  UNL     1       2.480  58.282  -7.124  1.00  0.00     0.021 C 
HETATM   15  C3  UNL     1       3.260  56.741  -5.263  1.00  0.00     0.022 C 
HETATM   16  C7  UNL     1       4.528  56.848  -7.396  1.00  0.00    -0.067 C 
HETATM   17  C4  UNL     1       4.206  57.764  -4.632  1.00  0.00     0.084 C 
HETATM   18  C5  UNL     1       5.513  57.879  -5.379  1.00  0.00     0.149 C 
HETATM   19  O1  UNL     1       6.496  58.433  -4.891  1.00  0.00    -0.293 OA
HETATM   20  C6  UNL     1       5.608  57.313  -6.745  1.00  0.00     0.053 C 
HETATM   21  C8  UNL     1       4.714  56.137  -8.720  1.00  0.00     0.035 C 
HETATM   22  C9  UNL     1       3.507  56.230  -9.645  1.00  0.00     0.010 C 
HETATM   23  C17 UNL     1       1.354  54.398 -11.004  1.00  0.00     0.009 C 
HETATM   24  C18 UNL     1       0.281  53.301 -11.148  1.00  0.00     0.047 C 
BRANCH   4  25
HETATM   25  O3  UNL     1       0.424  51.908  -9.227  1.00  0.00    -0.381 OA
HETATM   26  H25 UNL     1       0.263  51.800  -8.275  1.00  0.00     0.211 HD
ENDBRANCH   4  25
ENDBRANCH   2   4
ENDBRANCH   1   2
BRANCH   1  27
HETATM   27  O5  UNL     1      -3.561  51.845 -11.290  1.00  0.00    -0.314 OA
BRANCH  27  28
HETATM   28  C22 UNL     1      -3.562  52.523 -12.470  1.00  0.00     0.259 C 
HETATM   29  O6  UNL     1      -4.177  53.566 -12.658  1.00  0.00    -0.265 OA
BRANCH  28  30
HETATM   30  C23 UNL     1      -2.671  51.871 -13.492  1.00  0.00     0.120 C 
BRANCH  30  31
HETATM   31  C24 UNL     1      -3.411  51.505 -14.770  1.00  0.00     0.112 C 
BRANCH  31  32
HETATM   32  C25 UNL     1      -2.563  50.642 -15.678  1.00  0.00     0.218 C 
HETATM   33  O7  UNL     1      -1.717  49.855 -15.272  1.00  0.00    -0.274 OA
HETATM   34  N1  UNL     1      -2.845  50.834 -17.010  1.00  0.00    -0.346 N 
HETATM   35  H32 UNL     1      -3.300  51.697 -17.275  1.00  0.00     0.163 HD
BRANCH  34  36
HETATM   36  C26 UNL     1      -2.099  50.123 -18.056  1.00  0.00     0.186 C 
BRANCH  36  37
HETATM   37  C27 UNL     1      -0.590  50.135 -17.774  1.00  0.00     0.077 C 
BRANCH  37  38
HETATM   38  C28 UNL     1       0.090  51.367 -18.292  1.00  0.00    -0.028 A 
HETATM   39  C29 UNL     1       0.753  52.312 -17.532  1.00  0.00     0.096 A 
HETATM   40  N2  UNL     1       1.269  53.258 -18.376  1.00  0.00    -0.365 N 
HETATM   41  C30 UNL     1       0.949  52.958 -19.680  1.00  0.00     0.042 A 
HETATM   42  H37 UNL     1       1.816  54.057 -18.091  1.00  0.00     0.165 HD
HETATM   43  C31 UNL     1       1.268  53.635 -20.864  1.00  0.00     0.030 A 
HETATM   44  C35 UNL     1       0.198  51.783 -19.660  1.00  0.00    -0.002 A 
HETATM   45  C32 UNL     1       0.803  53.094 -22.066  1.00  0.00     0.002 A 
HETATM   46  C33 UNL     1       0.047  51.925 -22.080  1.00  0.00     0.001 A 
HETATM   47  C34 UNL     1      -0.262  51.260 -20.887  1.00  0.00     0.014 A 
ENDBRANCH  37  38
ENDBRANCH  36  37
BRANCH  36  48
HETATM   48  C36 UNL     1      -2.551  48.666 -18.168  1.00  0.00     0.163 C 
HETATM   49  O8  UNL     1      -3.648  48.229 -17.854  1.00  0.00    -0.648 OA
BRANCH  48  50
HETATM   50  O9  UNL     1      -1.643  47.839 -18.734  1.00  0.00    -0.775 OA
HETATM   51  H42 UNL     1      -2.077  46.960 -18.695  1.00  0.00     0.167 HD
ENDBRANCH  48  50
ENDBRANCH  36  48
ENDBRANCH  34  36
ENDBRANCH  31  32
ENDBRANCH  30  31
ENDBRANCH  28  30
ENDBRANCH  27  28
ENDBRANCH   1  27
TORSDOF 13
ENDMDL
MODEL 5
REMARK minimizedAffinity -9.25662231
REMARK CNNscore 0.331299871
REMARK CNNaffinity 6.68820047
REMARK  13 active torsions:
REMARK  status: ('A' for Active; 'I' for Inactive)
REMARK    1  A    between atoms: C19_21  and  O3_22 
REMARK    2  A    between atoms: C19_21  and  C20_23 
REMARK    3  A    between atoms: C20_23  and  C21_25 
REMARK    4  A    between atoms: C21_25  and  O5_26 
REMARK    5  A    between atoms: O5_26  and  C22_27 
REMARK    6  A    between atoms: C22_27  and  C23_29 
REMARK    7  A    between atoms: C23_29  and  C24_30 
REMARK    8  A    between atoms: C24_30  and  C25_31 
REMARK       I    between atoms: C25_31  and  N1_33 
REMARK    9  A    between atoms: N1_33  and  C26_34 
REMARK   10  A    between atoms: C26_34  and  C27_35 
REMARK   11  A    between atoms: C26_34  and  C36_45 
REMARK   12  A    between atoms: C27_35  and  C28_36 
REMARK   13  A    between atoms: C36_45  and  O9_47 
ROOT
HETATM    1  C21 UNL     1      -0.529  49.760 -17.101  1.00  0.00     0.260 C 
ENDROOT
BRANCH   1   2
HETATM    2  C20 UNL     1      -1.925  49.553 -17.683  1.00  0.00     0.185 C 
HETATM    3  O4  UNL     1      -2.932  49.737 -16.991  1.00  0.00    -0.292 OA
BRANCH   2   4
HETATM    4  C19 UNL     1      -2.017  49.096 -19.161  1.00  0.00     0.128 C 
HETATM    5  C14 UNL     1      -1.800  50.221 -20.225  1.00  0.00     0.005 C 
HETATM    6  C13 UNL     1      -0.349  50.570 -20.596  1.00  0.00     0.091 C 
HETATM    7  C15 UNL     1      -2.510  51.536 -19.790  1.00  0.00     0.019 C 
HETATM    8  C16 UNL     1      -2.468  49.547 -21.465  1.00  0.00     0.002 C 
HETATM    9  C12 UNL     1      -0.331  51.416 -21.869  1.00  0.00     0.133 C 
HETATM   10  C11 UNL     1      -1.021  50.786 -23.089  1.00  0.00     0.072 C 
HETATM   11  O2  UNL     1       0.243  52.499 -21.896  1.00  0.00    -0.297 OA
HETATM   12  C2  UNL     1      -0.923  51.549 -24.445  1.00  0.00    -0.009 C 
HETATM   13  C10 UNL     1      -2.497  50.467 -22.698  1.00  0.00     0.003 C 
HETATM   14  C1  UNL     1      -1.709  52.880 -24.408  1.00  0.00     0.021 C 
HETATM   15  C3  UNL     1       0.556  51.818 -24.838  1.00  0.00     0.022 C 
HETATM   16  C7  UNL     1      -1.519  50.638 -25.531  1.00  0.00    -0.067 C 
HETATM   17  C4  UNL     1       0.710  52.401 -26.243  1.00  0.00     0.084 C 
HETATM   18  C5  UNL     1      -0.085  51.639 -27.276  1.00  0.00     0.149 C 
HETATM   19  O1  UNL     1       0.112  51.775 -28.481  1.00  0.00    -0.293 OA
HETATM   20  C6  UNL     1      -1.141  50.705 -26.819  1.00  0.00     0.053 C 
HETATM   21  C8  UNL     1      -2.485  49.555 -25.101  1.00  0.00     0.035 C 
HETATM   22  C9  UNL     1      -3.320  49.923 -23.880  1.00  0.00     0.010 C 
HETATM   23  C17 UNL     1      -3.788  49.026 -20.910  1.00  0.00     0.009 C 
HETATM   24  C18 UNL     1      -3.459  48.593 -19.469  1.00  0.00     0.047 C 
BRANCH   4  25
HETATM   25  O3  UNL     1      -1.164  47.974 -19.417  1.00  0.00    -0.381 OA
HETATM   26  H25 UNL     1      -0.235  48.257 -19.437  1.00  0.00     0.211 HD
ENDBRANCH   4  25
ENDBRANCH   2   4
ENDBRANCH   1   2
BRANCH   1  27
HETATM   27  O5  UNL     1      -0.561  50.481 -15.868  1.00  0.00    -0.314 OA
BRANCH  27  28
HETATM   28  C22 UNL     1       0.464  51.365 -15.727  1.00  0.00     0.259 C 
HETATM   29  O6  UNL     1       1.113  51.814 -16.664  1.00  0.00    -0.265 OA
BRANCH  28  30
HETATM   30  C23 UNL     1       0.662  51.770 -14.291  1.00  0.00     0.120 C 
BRANCH  30  31
HETATM   31  C24 UNL     1       2.100  51.598 -13.824  1.00  0.00     0.112 C 
BRANCH  31  32
HETATM   32  C25 UNL     1       2.234  51.829 -12.335  1.00  0.00     0.218 C 
HETATM   33  O7  UNL     1       2.431  50.933 -11.523  1.00  0.00    -0.274 OA
HETATM   34  N1  UNL     1       2.112  53.155 -11.990  1.00  0.00    -0.346 N 
HETATM   35  H32 UNL     1       1.643  53.769 -12.640  1.00  0.00     0.163 HD
BRANCH  34  36
HETATM   36  C26 UNL     1       2.168  53.584 -10.587  1.00  0.00     0.186 C 
BRANCH  36  37
HETATM   37  C27 UNL     1       1.003  52.998  -9.776  1.00  0.00     0.077 C 
BRANCH  37  38
HETATM   38  C28 UNL     1      -0.308  53.658 -10.081  1.00  0.00    -0.028 A 
HETATM   39  C29 UNL     1      -0.524  55.018 -10.212  1.00  0.00     0.096 A 
HETATM   40  N2  UNL     1      -1.840  55.215 -10.531  1.00  0.00    -0.365 N 
HETATM   41  C30 UNL     1      -2.499  54.009 -10.602  1.00  0.00     0.042 A 
HETATM   42  H37 UNL     1      -2.270  56.113 -10.702  1.00  0.00     0.165 HD
HETATM   43  C31 UNL     1      -3.840  53.732 -10.901  1.00  0.00     0.030 A 
HETATM   44  C35 UNL     1      -1.568  53.013 -10.312  1.00  0.00    -0.002 A 
HETATM   45  C32 UNL     1      -4.239  52.393 -10.902  1.00  0.00     0.002 A 
HETATM   46  C33 UNL     1      -3.335  51.375 -10.612  1.00  0.00     0.001 A 
HETATM   47  C34 UNL     1      -1.998  51.670 -10.316  1.00  0.00     0.014 A 
ENDBRANCH  37  38
ENDBRANCH  36  37
BRANCH  36  48
HETATM   48  C36 UNL     1       3.476  53.148  -9.924  1.00  0.00     0.163 C 
HETATM   49  O8  UNL     1       4.576  53.643 -10.115  1.00  0.00    -0.648 OA
BRANCH  48  50
HETATM   50  O9  UNL     1       3.338  52.170  -9.000  1.00  0.00    -0.775 OA
HETATM   51  H42 UNL     1       4.258  51.998  -8.709  1.00  0.00     0.167 HD
ENDBRANCH  48  50
ENDBRANCH  36  48
ENDBRANCH  34  36
ENDBRANCH  31  32
ENDBRANCH  30  31
ENDBRANCH  28  30
ENDBRANCH  27  28
ENDBRANCH   1  27
TORSDOF 13
ENDMDL
MODEL 6
REMARK minimizedAffinity -9.14261627
REMARK CNNscore 0.311116129
REMARK CNNaffinity 6.38401937
REMARK  13 active torsions:
REMARK  status: ('A' for Active; 'I' for Inactive)
REMARK    1  A    between atoms: C19_21  and  O3_22 
REMARK    2  A    between atoms: C19_21  and  C20_23 
REMARK    3  A    between atoms: C20_23  and  C21_25 
REMARK    4  A    between atoms: C21_25  and  O5_26 
REMARK    5  A    between atoms: O5_26  and  C22_27 
REMARK    6  A    between atoms: C22_27  and  C23_29 
REMARK    7  A    between atoms: C23_29  and  C24_30 
REMARK    8  A    between atoms: C24_30  and  C25_31 
REMARK       I    between atoms: C25_31  and  N1_33 
REMARK    9  A    between atoms: N1_33  and  C26_34 
REMARK   10  A    between atoms: C26_34  and  C27_35 
REMARK   11  A    between atoms: C26_34  and  C36_45 
REMARK   12  A    between atoms: C27_35  and  C28_36 
REMARK   13  A    between atoms: C36_45  and  O9_47 
ROOT
HETATM    1  C21 UNL     1      -7.383  48.255 -24.130  1.00  0.00     0.260 C 
ENDROOT
BRANCH   1   2
HETATM    2  C20 UNL     1      -7.240  47.891 -22.654  1.00  0.00     0.185 C 
HETATM    3  O4  UNL     1      -7.647  46.806 -22.227  1.00  0.00    -0.292 OA
BRANCH   2   4
HETATM    4  C19 UNL     1      -6.578  48.942 -21.726  1.00  0.00     0.128 C 
HETATM    5  C14 UNL     1      -5.021  49.044 -21.831  1.00  0.00     0.005 C 
HETATM    6  C13 UNL     1      -4.448  49.920 -22.957  1.00  0.00     0.091 C 
HETATM    7  C15 UNL     1      -4.383  47.630 -21.957  1.00  0.00     0.019 C 
HETATM    8  C16 UNL     1      -4.707  49.738 -20.469  1.00  0.00     0.002 C 
HETATM    9  C12 UNL     1      -2.963  50.182 -22.702  1.00  0.00     0.133 C 
HETATM   10  C11 UNL     1      -2.631  50.827 -21.347  1.00  0.00     0.072 C 
HETATM   11  O2  UNL     1      -2.123  49.925 -23.558  1.00  0.00    -0.297 OA
HETATM   12  C2  UNL     1      -1.147  51.230 -21.088  1.00  0.00    -0.009 C 
HETATM   13  C10 UNL     1      -3.197  49.907 -20.223  1.00  0.00     0.003 C 
HETATM   14  C1  UNL     1      -0.231  49.989 -20.973  1.00  0.00     0.021 C 
HETATM   15  C3  UNL     1      -0.616  52.181 -22.194  1.00  0.00     0.022 C 
HETATM   16  C7  UNL     1      -1.108  52.013 -19.765  1.00  0.00    -0.067 C 
HETATM   17  C4  UNL     1       0.771  52.748 -21.889  1.00  0.00     0.084 C 
HETATM   18  C5  UNL     1       0.875  53.298 -20.487  1.00  0.00     0.149 C 
HETATM   19  O1  UNL     1       1.801  54.028 -20.140  1.00  0.00    -0.293 OA
HETATM   20  C6  UNL     1      -0.169  52.937 -19.498  1.00  0.00     0.053 C 
HETATM   21  C8  UNL     1      -2.238  51.806 -18.780  1.00  0.00     0.035 C 
HETATM   22  C9  UNL     1      -2.834  50.403 -18.811  1.00  0.00     0.010 C 
HETATM   23  C17 UNL     1      -5.526  48.932 -19.468  1.00  0.00     0.009 C 
HETATM   24  C18 UNL     1      -6.804  48.547 -20.236  1.00  0.00     0.047 C 
BRANCH   4  25
HETATM   25  O3  UNL     1      -7.189  50.229 -21.871  1.00  0.00    -0.381 OA
HETATM   26  H25 UNL     1      -6.925  50.632 -22.714  1.00  0.00     0.211 HD
ENDBRANCH   4  25
ENDBRANCH   2   4
ENDBRANCH   1   2
BRANCH   1  27
HETATM   27  O5  UNL     1      -8.320  49.313 -24.336  1.00  0.00    -0.314 OA
BRANCH  27  28
HETATM   28  C22 UNL     1      -9.099  49.145 -25.439  1.00  0.00     0.259 C 
HETATM   29  O6  UNL     1      -9.990  49.916 -25.770  1.00  0.00    -0.265 OA
BRANCH  28  30
HETATM   30  C23 UNL     1      -8.692  47.932 -26.233  1.00  0.00     0.120 C 
BRANCH  30  31
HETATM   31  C24 UNL     1      -8.899  48.112 -27.730  1.00  0.00     0.112 C 
BRANCH  31  32
HETATM   32  C25 UNL     1      -7.765  47.504 -28.526  1.00  0.00     0.218 C 
HETATM   33  O7  UNL     1      -7.081  46.569 -28.128  1.00  0.00    -0.274 OA
HETATM   34  N1  UNL     1      -7.587  48.111 -29.746  1.00  0.00    -0.346 N 
HETATM   35  H32 UNL     1      -7.953  49.046 -29.865  1.00  0.00     0.163 HD
BRANCH  34  36
HETATM   36  C26 UNL     1      -6.509  47.697 -30.652  1.00  0.00     0.186 C 
BRANCH  36  37
HETATM   37  C27 UNL     1      -6.900  47.910 -32.122  1.00  0.00     0.077 C 
BRANCH  37  38
HETATM   38  C28 UNL     1      -7.393  46.657 -32.781  1.00  0.00    -0.028 A 
HETATM   39  C29 UNL     1      -8.021  46.576 -34.010  1.00  0.00     0.096 A 
HETATM   40  N2  UNL     1      -8.278  45.259 -34.276  1.00  0.00    -0.365 N 
HETATM   41  C30 UNL     1      -7.841  44.469 -33.237  1.00  0.00     0.042 A 
HETATM   42  H37 UNL     1      -8.716  44.908 -35.116  1.00  0.00     0.165 HD
HETATM   43  C31 UNL     1      -7.890  43.078 -33.082  1.00  0.00     0.030 A 
HETATM   44  C35 UNL     1      -7.292  45.319 -32.278  1.00  0.00    -0.002 A 
HETATM   45  C32 UNL     1      -7.362  42.538 -31.906  1.00  0.00     0.002 A 
HETATM   46  C33 UNL     1      -6.811  43.359 -30.925  1.00  0.00     0.001 A 
HETATM   47  C34 UNL     1      -6.769  44.748 -31.098  1.00  0.00     0.014 A 
ENDBRANCH  37  38
ENDBRANCH  36  37
BRANCH  36  48
HETATM   48  C36 UNL     1      -5.223  48.482 -30.383  1.00  0.00     0.163 C 
HETATM   49  O8  UNL     1      -4.685  48.625 -29.296  1.00  0.00    -0.648 OA
BRANCH  48  50
HETATM   50  O9  UNL     1      -4.631  48.985 -31.490  1.00  0.00    -0.775 OA
HETATM   51  H42 UNL     1      -3.859  49.473 -31.135  1.00  0.00     0.167 HD
ENDBRANCH  48  50
ENDBRANCH  36  48
ENDBRANCH  34  36
ENDBRANCH  31  32
ENDBRANCH  30  31
ENDBRANCH  28  30
ENDBRANCH  27  28
ENDBRANCH   1  27
TORSDOF 13
ENDMDL
MODEL 7
REMARK minimizedAffinity -9.77406406
REMARK CNNscore 0.280249327
REMARK CNNaffinity 7.15106726
REMARK  13 active torsions:
REMARK  status: ('A' for Active; 'I' for Inactive)
REMARK    1  A    between atoms: C19_21  and  O3_22 
REMARK    2  A    between atoms: C19_21  and  C20_23 
REMARK    3  A    between atoms: C20_23  and  C21_25 
REMARK    4  A    between atoms: C21_25  and  O5_26 
REMARK    5  A    between atoms: O5_26  and  C22_27 
REMARK    6  A    between atoms: C22_27  and  C23_29 
REMARK    7  A    between atoms: C23_29  and  C24_30 
REMARK    8  A    between atoms: C24_30  and  C25_31 
REMARK       I    between atoms: C25_31  and  N1_33 
REMARK    9  A    between atoms: N1_33  and  C26_34 
REMARK   10  A    between atoms: C26_34  and  C27_35 
REMARK   11  A    between atoms: C26_34  and  C36_45 
REMARK   12  A    between atoms: C27_35  and  C28_36 
REMARK   13  A    between atoms: C36_45  and  O9_47 
ROOT
HETATM    1  C21 UNL     1      -3.752  49.407 -28.120  1.00  0.00     0.260 C 
ENDROOT
BRANCH   1   2
HETATM    2  C20 UNL     1      -3.378  50.591 -27.232  1.00  0.00     0.185 C 
HETATM    3  O4  UNL     1      -3.047  51.673 -27.727  1.00  0.00    -0.292 OA
BRANCH   2   4
HETATM    4  C19 UNL     1      -3.421  50.369 -25.698  1.00  0.00     0.128 C 
HETATM    5  C14 UNL     1      -2.127  50.785 -24.924  1.00  0.00     0.005 C 
HETATM    6  C13 UNL     1      -1.984  52.267 -24.538  1.00  0.00     0.091 C 
HETATM    7  C15 UNL     1      -0.853  50.374 -25.717  1.00  0.00     0.019 C 
HETATM    8  C16 UNL     1      -2.325  49.961 -23.613  1.00  0.00     0.002 C 
HETATM    9  C12 UNL     1      -0.864  52.426 -23.510  1.00  0.00     0.133 C 
HETATM   10  C11 UNL     1      -1.020  51.589 -22.231  1.00  0.00     0.072 C 
HETATM   11  O2  UNL     1       0.059  53.210 -23.702  1.00  0.00    -0.297 OA
HETATM   12  C2  UNL     1       0.027  51.808 -21.096  1.00  0.00    -0.009 C 
HETATM   13  C10 UNL     1      -1.135  50.090 -22.646  1.00  0.00     0.003 C 
HETATM   14  C1  UNL     1       1.432  51.314 -21.514  1.00  0.00     0.021 C 
HETATM   15  C3  UNL     1       0.095  53.299 -20.667  1.00  0.00     0.022 C 
HETATM   16  C7  UNL     1      -0.448  51.009 -19.871  1.00  0.00    -0.067 C 
HETATM   17  C4  UNL     1       0.972  53.534 -19.437  1.00  0.00     0.084 C 
HETATM   18  C5  UNL     1       0.664  52.572 -18.315  1.00  0.00     0.149 C 
HETATM   19  O1  UNL     1       1.059  52.762 -17.167  1.00  0.00    -0.293 OA
HETATM   20  C6  UNL     1      -0.133  51.359 -18.612  1.00  0.00     0.053 C 
HETATM   21  C8  UNL     1      -1.396  49.851 -20.099  1.00  0.00     0.035 C 
HETATM   22  C9  UNL     1      -1.195  49.143 -21.433  1.00  0.00     0.010 C 
HETATM   23  C17 UNL     1      -2.703  48.576 -24.125  1.00  0.00     0.009 C 
HETATM   24  C18 UNL     1      -3.541  48.847 -25.389  1.00  0.00     0.047 C 
BRANCH   4  25
HETATM   25  O3  UNL     1      -4.584  50.965 -25.114  1.00  0.00    -0.381 OA
HETATM   26  H25 UNL     1      -4.491  51.931 -25.092  1.00  0.00     0.211 HD
ENDBRANCH   4  25
ENDBRANCH   2   4
ENDBRANCH   1   2
BRANCH   1  27
HETATM   27  O5  UNL     1      -4.779  48.601 -27.538  1.00  0.00    -0.314 OA
BRANCH  27  28
HETATM   28  C22 UNL     1      -5.649  48.087 -28.449  1.00  0.00     0.259 C 
HETATM   29  O6  UNL     1      -5.444  48.069 -29.656  1.00  0.00    -0.265 OA
BRANCH  28  30
HETATM   30  C23 UNL     1      -6.863  47.490 -27.789  1.00  0.00     0.120 C 
BRANCH  30  31
HETATM   31  C24 UNL     1      -8.162  47.889 -28.474  1.00  0.00     0.112 C 
BRANCH  31  32
HETATM   32  C25 UNL     1      -8.545  46.906 -29.557  1.00  0.00     0.218 C 
HETATM   33  O7  UNL     1      -8.109  45.763 -29.623  1.00  0.00    -0.274 OA
HETATM   34  N1  UNL     1      -9.439  47.432 -30.460  1.00  0.00    -0.346 N 
HETATM   35  H32 UNL     1      -9.500  48.438 -30.532  1.00  0.00     0.163 HD
BRANCH  34  36
HETATM   36  C26 UNL     1      -9.904  46.652 -31.614  1.00  0.00     0.186 C 
BRANCH  36  37
HETATM   37  C27 UNL     1      -8.763  45.826 -32.227  1.00  0.00     0.077 C 
BRANCH  37  38
HETATM   38  C28 UNL     1      -7.928  46.614 -33.192  1.00  0.00    -0.028 A 
HETATM   39  C29 UNL     1      -8.398  47.345 -34.267  1.00  0.00     0.096 A 
HETATM   40  N2  UNL     1      -7.332  47.951 -34.875  1.00  0.00    -0.365 N 
HETATM   41  C30 UNL     1      -6.164  47.623 -34.225  1.00  0.00     0.042 A 
HETATM   42  H37 UNL     1      -7.388  48.561 -35.678  1.00  0.00     0.165 HD
HETATM   43  C31 UNL     1      -4.846  48.014 -34.492  1.00  0.00     0.030 A 
HETATM   44  C35 UNL     1      -6.504  46.775 -33.172  1.00  0.00    -0.002 A 
HETATM   45  C32 UNL     1      -3.842  47.520 -33.654  1.00  0.00     0.002 A 
HETATM   46  C33 UNL     1      -4.146  46.668 -32.596  1.00  0.00     0.001 A 
HETATM   47  C34 UNL     1      -5.471  46.288 -32.344  1.00  0.00     0.014 A 
ENDBRANCH  37  38
ENDBRANCH  36  37
BRANCH  36  48
HETATM   48  C36 UNL     1     -11.027  45.691 -31.220  1.00  0.00     0.163 C 
HETATM   49  O8  UNL     1     -11.459  45.518 -30.090  1.00  0.00    -0.648 OA
BRANCH  48  50
HETATM   50  O9  UNL     1     -11.607  45.049 -32.260  1.00  0.00    -0.775 OA
HETATM   51  H42 UNL     1     -12.267  44.465 -31.830  1.00  0.00     0.167 HD
ENDBRANCH  48  50
ENDBRANCH  36  48
ENDBRANCH  34  36
ENDBRANCH  31  32
ENDBRANCH  30  31
ENDBRANCH  28  30
ENDBRANCH  27  28
ENDBRANCH   1  27
TORSDOF 13
ENDMDL
MODEL 8
REMARK minimizedAffinity -9.3383894
REMARK CNNscore 0.267875224
REMARK CNNaffinity 6.49144888
REMARK  13 active torsions:
REMARK  status: ('A' for Active; 'I' for Inactive)
REMARK    1  A    between atoms: C19_21  and  O3_22 
REMARK    2  A    between atoms: C19_21  and  C20_23 
REMARK    3  A    between atoms: C20_23  and  C21_25 
REMARK    4  A    between atoms: C21_25  and  O5_26 
REMARK    5  A    between atoms: O5_26  and  C22_27 
REMARK    6  A    between atoms: C22_27  and  C23_29 
REMARK    7  A    between atoms: C23_29  and  C24_30 
REMARK    8  A    between atoms: C24_30  and  C25_31 
REMARK       I    between atoms: C25_31  and  N1_33 
REMARK    9  A    between atoms: N1_33  and  C26_34 
REMARK   10  A    between atoms: C26_34  and  C27_35 
REMARK   11  A    between atoms: C26_34  and  C36_45 
REMARK   12  A    between atoms: C27_35  and  C28_36 
REMARK   13  A    between atoms: C36_45  and  O9_47 
ROOT
HETATM    1  C21 UNL     1      -7.878  49.081 -23.650  1.00  0.00     0.260 C 
ENDROOT
BRANCH   1   2
HETATM    2  C20 UNL     1      -6.513  48.397 -23.636  1.00  0.00     0.185 C 
HETATM    3  O4  UNL     1      -6.039  47.911 -24.669  1.00  0.00    -0.292 OA
BRANCH   2   4
HETATM    4  C19 UNL     1      -5.766  48.332 -22.279  1.00  0.00     0.128 C 
HETATM    5  C14 UNL     1      -4.399  49.090 -22.229  1.00  0.00     0.005 C 
HETATM    6  C13 UNL     1      -4.442  50.600 -21.944  1.00  0.00     0.091 C 
HETATM    7  C15 UNL     1      -3.601  48.877 -23.548  1.00  0.00     0.019 C 
HETATM    8  C16 UNL     1      -3.748  48.383 -20.999  1.00  0.00     0.002 C 
HETATM    9  C12 UNL     1      -3.041  51.099 -21.591  1.00  0.00     0.133 C 
HETATM   10  C11 UNL     1      -2.367  50.385 -20.408  1.00  0.00     0.072 C 
HETATM   11  O2  UNL     1      -2.535  52.036 -22.199  1.00  0.00    -0.297 OA
HETATM   12  C2  UNL     1      -0.991  50.937 -19.926  1.00  0.00    -0.009 C 
HETATM   13  C10 UNL     1      -2.310  48.861 -20.733  1.00  0.00     0.003 C 
HETATM   14  C1  UNL     1       0.116  50.711 -20.982  1.00  0.00     0.021 C 
HETATM   15  C3  UNL     1      -1.079  52.445 -19.566  1.00  0.00     0.022 C 
HETATM   16  C7  UNL     1      -0.621  50.188 -18.635  1.00  0.00    -0.067 C 
HETATM   17  C4  UNL     1       0.195  52.987 -18.916  1.00  0.00     0.084 C 
HETATM   18  C5  UNL     1       0.695  52.103 -17.799  1.00  0.00     0.149 C 
HETATM   19  O1  UNL     1       1.532  52.491 -16.987  1.00  0.00    -0.293 OA
HETATM   20  C6  UNL     1       0.164  50.725 -17.685  1.00  0.00     0.053 C 
HETATM   21  C8  UNL     1      -1.261  48.839 -18.386  1.00  0.00     0.035 C 
HETATM   22  C9  UNL     1      -1.559  48.053 -19.658  1.00  0.00     0.010 C 
HETATM   23  C17 UNL     1      -3.987  46.904 -21.279  1.00  0.00     0.009 C 
HETATM   24  C18 UNL     1      -5.362  46.859 -21.970  1.00  0.00     0.047 C 
BRANCH   4  25
HETATM   25  O3  UNL     1      -6.613  48.725 -21.194  1.00  0.00    -0.381 OA
HETATM   26  H25 UNL     1      -6.751  49.687 -21.209  1.00  0.00     0.211 HD
ENDBRANCH   4  25
ENDBRANCH   2   4
ENDBRANCH   1   2
BRANCH   1  27
HETATM   27  O5  UNL     1      -8.545  48.928 -24.904  1.00  0.00    -0.314 OA
BRANCH  27  28
HETATM   28  C22 UNL     1      -9.415  47.883 -24.935  1.00  0.00     0.259 C 
HETATM   29  O6  UNL     1      -9.814  47.297 -23.936  1.00  0.00    -0.265 OA
BRANCH  28  30
HETATM   30  C23 UNL     1      -9.872  47.575 -26.335  1.00  0.00     0.120 C 
BRANCH  30  31
HETATM   31  C24 UNL     1      -9.108  48.362 -27.390  1.00  0.00     0.112 C 
BRANCH  31  32
HETATM   32  C25 UNL     1      -7.853  47.638 -27.824  1.00  0.00     0.218 C 
HETATM   33  O7  UNL     1      -7.579  46.492 -27.490  1.00  0.00    -0.274 OA
HETATM   34  N1  UNL     1      -7.051  48.405 -28.637  1.00  0.00    -0.346 N 
HETATM   35  H32 UNL     1      -7.170  49.408 -28.605  1.00  0.00     0.163 HD
BRANCH  34  36
HETATM   36  C26 UNL     1      -5.764  47.901 -29.131  1.00  0.00     0.186 C 
BRANCH  36  37
HETATM   37  C27 UNL     1      -5.589  48.188 -30.630  1.00  0.00     0.077 C 
BRANCH  37  38
HETATM   38  C28 UNL     1      -5.341  46.946 -31.434  1.00  0.00    -0.028 A 
HETATM   39  C29 UNL     1      -4.483  46.832 -32.512  1.00  0.00     0.096 A 
HETATM   40  N2  UNL     1      -4.507  45.534 -32.944  1.00  0.00    -0.365 N 
HETATM   41  C30 UNL     1      -5.374  44.792 -32.177  1.00  0.00     0.042 A 
HETATM   42  H37 UNL     1      -3.961  45.165 -33.710  1.00  0.00     0.165 HD
HETATM   43  C31 UNL     1      -5.707  43.433 -32.253  1.00  0.00     0.030 A 
HETATM   44  C35 UNL     1      -5.923  45.653 -31.227  1.00  0.00    -0.002 A 
HETATM   45  C32 UNL     1      -6.632  42.940 -31.329  1.00  0.00     0.002 A 
HETATM   46  C33 UNL     1      -7.203  43.774 -30.371  1.00  0.00     0.001 A 
HETATM   47  C34 UNL     1      -6.858  45.130 -30.309  1.00  0.00     0.014 A 
ENDBRANCH  37  38
ENDBRANCH  36  37
BRANCH  36  48
HETATM   48  C36 UNL     1      -4.593  48.543 -28.384  1.00  0.00     0.163 C 
HETATM   49  O8  UNL     1      -3.872  49.433 -28.810  1.00  0.00    -0.648 OA
BRANCH  48  50
HETATM   50  O9  UNL     1      -4.424  48.098 -27.118  1.00  0.00    -0.775 OA
HETATM   51  H42 UNL     1      -3.628  48.581 -26.809  1.00  0.00     0.167 HD
ENDBRANCH  48  50
ENDBRANCH  36  48
ENDBRANCH  34  36
ENDBRANCH  31  32
ENDBRANCH  30  31
ENDBRANCH  28  30
ENDBRANCH  27  28
ENDBRANCH   1  27
TORSDOF 13
ENDMDL
MODEL 9
REMARK minimizedAffinity -9.65310001
REMARK CNNscore 0.26486671
REMARK CNNaffinity 6.54963541
REMARK  13 active torsions:
REMARK  status: ('A' for Active; 'I' for Inactive)
REMARK    1  A    between atoms: C19_21  and  O3_22 
REMARK    2  A    between atoms: C19_21  and  C20_23 
REMARK    3  A    between atoms: C20_23  and  C21_25 
REMARK    4  A    between atoms: C21_25  and  O5_26 
REMARK    5  A    between atoms: O5_26  and  C22_27 
REMARK    6  A    between atoms: C22_27  and  C23_29 
REMARK    7  A    between atoms: C23_29  and  C24_30 
REMARK    8  A    between atoms: C24_30  and  C25_31 
REMARK       I    between atoms: C25_31  and  N1_33 
REMARK    9  A    between atoms: N1_33  and  C26_34 
REMARK   10  A    between atoms: C26_34  and  C27_35 
REMARK   11  A    between atoms: C26_34  and  C36_45 
REMARK   12  A    between atoms: C27_35  and  C28_36 
REMARK   13  A    between atoms: C36_45  and  O9_47 
ROOT
HETATM    1  C21 UNL     1      -0.722  49.430 -17.273  1.00  0.00     0.260 C 
ENDROOT
BRANCH   1   2
HETATM    2  C20 UNL     1      -2.068  49.059 -17.892  1.00  0.00     0.185 C 
HETATM    3  O4  UNL     1      -3.098  49.054 -17.210  1.00  0.00    -0.292 OA
BRANCH   2   4
HETATM    4  C19 UNL     1      -2.077  48.683 -19.397  1.00  0.00     0.128 C 
HETATM    5  C14 UNL     1      -1.915  49.882 -20.388  1.00  0.00     0.005 C 
HETATM    6  C13 UNL     1      -0.485  50.361 -20.686  1.00  0.00     0.091 C 
HETATM    7  C15 UNL     1      -2.738  51.112 -19.906  1.00  0.00     0.019 C 
HETATM    8  C16 UNL     1      -2.489  49.232 -21.686  1.00  0.00     0.002 C 
HETATM    9  C12 UNL     1      -0.492  51.278 -21.909  1.00  0.00     0.133 C 
HETATM   10  C11 UNL     1      -1.093  50.670 -23.185  1.00  0.00     0.072 C 
HETATM   11  O2  UNL     1      -0.004  52.402 -21.854  1.00  0.00    -0.297 OA
HETATM   12  C2  UNL     1      -1.011  51.516 -24.492  1.00  0.00    -0.009 C 
HETATM   13  C10 UNL     1      -2.551  50.218 -22.866  1.00  0.00     0.003 C 
HETATM   14  C1  UNL     1      -1.900  52.779 -24.410  1.00  0.00     0.021 C 
HETATM   15  C3  UNL     1       0.453  51.919 -24.817  1.00  0.00     0.022 C 
HETATM   16  C7  UNL     1      -1.500  50.628 -25.648  1.00  0.00    -0.067 C 
HETATM   17  C4  UNL     1       0.606  52.592 -26.181  1.00  0.00     0.084 C 
HETATM   18  C5  UNL     1      -0.095  51.834 -27.282  1.00  0.00     0.149 C 
HETATM   19  O1  UNL     1       0.129  52.055 -28.471  1.00  0.00    -0.293 OA
HETATM   20  C6  UNL     1      -1.089  50.798 -26.917  1.00  0.00     0.053 C 
HETATM   21  C8  UNL     1      -2.392  49.451 -25.314  1.00  0.00     0.035 C 
HETATM   22  C9  UNL     1      -3.291  49.682 -24.105  1.00  0.00     0.010 C 
HETATM   23  C17 UNL     1      -3.782  48.581 -21.209  1.00  0.00     0.009 C 
HETATM   24  C18 UNL     1      -3.465  48.092 -19.783  1.00  0.00     0.047 C 
BRANCH   4  25
HETATM   25  O3  UNL     1      -1.132  47.646 -19.684  1.00  0.00    -0.381 OA
HETATM   26  H25 UNL     1      -0.228  48.000 -19.654  1.00  0.00     0.211 HD
ENDBRANCH   4  25
ENDBRANCH   2   4
ENDBRANCH   1   2
BRANCH   1  27
HETATM   27  O5  UNL     1      -0.798  50.624 -16.493  1.00  0.00    -0.314 OA
BRANCH  27  28
HETATM   28  C22 UNL     1      -0.052  50.581 -15.356  1.00  0.00     0.259 C 
HETATM   29  O6  UNL     1       0.928  49.862 -15.209  1.00  0.00    -0.265 OA
BRANCH  28  30
HETATM   30  C23 UNL     1      -0.538  51.567 -14.328  1.00  0.00     0.120 C 
BRANCH  30  31
HETATM   31  C24 UNL     1       0.569  52.046 -13.401  1.00  0.00     0.112 C 
BRANCH  31  32
HETATM   32  C25 UNL     1       0.071  52.224 -11.984  1.00  0.00     0.218 C 
HETATM   33  O7  UNL     1       0.320  51.444 -11.073  1.00  0.00    -0.274 OA
HETATM   34  N1  UNL     1      -0.690  53.359 -11.827  1.00  0.00    -0.346 N 
HETATM   35  H32 UNL     1      -1.110  53.762 -12.653  1.00  0.00     0.163 HD
BRANCH  34  36
HETATM   36  C26 UNL     1      -1.304  53.691 -10.536  1.00  0.00     0.186 C 
BRANCH  36  37
HETATM   37  C27 UNL     1      -1.110  55.174 -10.188  1.00  0.00     0.077 C 
BRANCH  37  38
HETATM   38  C28 UNL     1       0.014  55.402  -9.221  1.00  0.00    -0.028 A 
HETATM   39  C29 UNL     1      -0.102  55.503  -7.847  1.00  0.00     0.096 A 
HETATM   40  N2  UNL     1       1.151  55.668  -7.322  1.00  0.00    -0.365 N 
HETATM   41  C30 UNL     1       2.091  55.689  -8.326  1.00  0.00     0.042 A 
HETATM   42  H37 UNL     1       1.364  55.753  -6.338  1.00  0.00     0.165 HD
HETATM   43  C31 UNL     1       3.483  55.829  -8.255  1.00  0.00     0.030 A 
HETATM   44  C35 UNL     1       1.407  55.537  -9.532  1.00  0.00    -0.002 A 
HETATM   45  C32 UNL     1       4.198  55.813  -9.455  1.00  0.00     0.002 A 
HETATM   46  C33 UNL     1       3.546  55.668 -10.676  1.00  0.00     0.001 A 
HETATM   47  C34 UNL     1       2.153  55.528 -10.729  1.00  0.00     0.014 A 
ENDBRANCH  37  38
ENDBRANCH  36  37
BRANCH  36  48
HETATM   48  C36 UNL     1      -2.806  53.397 -10.543  1.00  0.00     0.163 C 
HETATM   49  O8  UNL     1      -3.379  52.577  -9.842  1.00  0.00    -0.648 OA
BRANCH  48  50
HETATM   50  O9  UNL     1      -3.528  54.190 -11.365  1.00  0.00    -0.775 OA
HETATM   51  H42 UNL     1      -4.443  53.848 -11.270  1.00  0.00     0.167 HD
ENDBRANCH  48  50
ENDBRANCH  36  48
ENDBRANCH  34  36
ENDBRANCH  31  32
ENDBRANCH  30  31
ENDBRANCH  28  30
ENDBRANCH  27  28
ENDBRANCH   1  27
TORSDOF 13
ENDMDL
