MODEL 1
REMARK minimizedAffinity -8.89038754
REMARK  6 active torsions:
REMARK  status: ('A' for Active; 'I' for Inactive)
REMARK    1  A    between atoms: C4_4  and  C5_5 
REMARK    2  A    between atoms: C5_5  and  C6_6 
REMARK    3  A    between atoms: C6_6  and  C7_7 
REMARK    4  A    between atoms: C7_7  and  C9_9 
REMARK    5  A    between atoms: C17_17  and  C18_18 
REMARK    6  A    between atoms: C18_18  and  O1_21 
ROOT
HETATM    1  C9  UNL     1      -3.504  50.501 -25.420  1.00  0.00    -0.002 C 
HETATM    2  C10 UNL     1      -3.677  52.026 -25.168  1.00  0.00     0.006 C 
HETATM    3  C11 UNL     1      -3.681  52.218 -23.625  1.00  0.00     0.011 C 
HETATM    4  C12 UNL     1      -3.854  50.789 -23.061  1.00  0.00    -0.032 C 
HETATM    5  C13 UNL     1      -5.387  50.493 -23.184  1.00  0.00     0.016 C 
HETATM    6  C14 UNL     1      -3.351  50.551 -21.606  1.00  0.00     0.003 C 
HETATM    7  C15 UNL     1      -4.062  51.371 -20.529  1.00  0.00     0.009 C 
HETATM    8  C16 UNL     1      -3.190  51.411 -19.278  1.00  0.00     0.042 C 
HETATM    9  C17 UNL     1      -2.742  50.030 -18.710  1.00  0.00     0.095 C 
HETATM   10  O2  UNL     1      -3.937  49.524 -18.068  1.00  0.00    -0.377 OA
HETATM   11  C21 UNL     1      -3.805  48.278 -17.395  1.00  0.00     0.169 C 
HETATM   12  C22 UNL     1      -3.243  47.161 -18.258  1.00  0.00     0.027 C 
HETATM   13  C23 UNL     1      -2.171  47.584 -19.261  1.00  0.00     0.010 C 
HETATM   14  C24 UNL     1      -2.344  49.005 -19.847  1.00  0.00     0.032 C 
HETATM   15  C25 UNL     1      -3.255  49.038 -21.170  1.00  0.00    -0.033 C 
HETATM   16  C26 UNL     1      -4.634  48.386 -20.909  1.00  0.00     0.016 C 
HETATM   17  C27 UNL     1      -2.581  48.183 -22.311  1.00  0.00     0.011 C 
HETATM   18  C28 UNL     1      -3.041  48.492 -23.758  1.00  0.00     0.011 C 
HETATM   19  C29 UNL     1      -2.927  49.992 -24.069  1.00  0.00    -0.032 C 
HETATM   20  C30 UNL     1      -1.414  50.363 -23.976  1.00  0.00     0.016 C 
ENDROOT
BRANCH   1  21
HETATM   21  C7  UNL     1      -2.941  50.047 -26.793  1.00  0.00    -0.014 C 
HETATM   22  C8  UNL     1      -3.875  48.980 -27.397  1.00  0.00     0.010 C 
BRANCH  21  23
HETATM   23  C6  UNL     1      -2.544  51.056 -27.892  1.00  0.00     0.008 C 
BRANCH  23  24
HETATM   24  C5  UNL     1      -1.548  52.157 -27.523  1.00  0.00     0.028 C 
BRANCH  24  25
HETATM   25  C4  UNL     1      -0.158  51.608 -27.337  1.00  0.00    -0.025 C 
HETATM   26  C2  UNL     1       0.762  51.994 -26.433  1.00  0.00    -0.091 C 
HETATM   27  C1  UNL     1       0.539  53.034 -25.368  1.00  0.00     0.042 C 
HETATM   28  C3  UNL     1       2.121  51.343 -26.398  1.00  0.00     0.042 C 
ENDBRANCH  24  25
ENDBRANCH  23  24
ENDBRANCH  21  23
ENDBRANCH   1  21
BRANCH   9  29
HETATM   29  C18 UNL     1      -1.567  50.308 -17.625  1.00  0.00     0.082 C 
HETATM   30  C19 UNL     1      -0.704  51.526 -18.017  1.00  0.00     0.049 C 
HETATM   31  C20 UNL     1      -0.641  49.096 -17.392  1.00  0.00     0.049 C 
BRANCH  29  32
HETATM   32  O1  UNL     1      -2.105  50.604 -16.324  1.00  0.00    -0.388 OA
HETATM   33  H35 UNL     1      -1.366  50.803 -15.725  1.00  0.00     0.210 HD
ENDBRANCH  29  32
ENDBRANCH   9  29
TORSDOF 6
ENDMDL
MODEL 2
REMARK minimizedAffinity -8.76136875
REMARK  6 active torsions:
REMARK  status: ('A' for Active; 'I' for Inactive)
REMARK    1  A    between atoms: C4_4  and  C5_5 
REMARK    2  A    between atoms: C5_5  and  C6_6 
REMARK    3  A    between atoms: C6_6  and  C7_7 
REMARK    4  A    between atoms: C7_7  and  C9_9 
REMARK    5  A    between atoms: C17_17  and  C18_18 
REMARK    6  A    between atoms: C18_18  and  O1_21 
ROOT
HETATM    1  C9  UNL     1      -3.060  49.180 -20.438  1.00  0.00    -0.002 C 
HETATM    2  C10 UNL     1      -3.363  47.950 -21.340  1.00  0.00     0.006 C 
HETATM    3  C11 UNL     1      -2.878  48.323 -22.770  1.00  0.00     0.011 C 
HETATM    4  C12 UNL     1      -2.637  49.848 -22.707  1.00  0.00    -0.032 C 
HETATM    5  C13 UNL     1      -4.060  50.485 -22.855  1.00  0.00     0.016 C 
HETATM    6  C14 UNL     1      -1.645  50.438 -23.754  1.00  0.00     0.003 C 
HETATM    7  C15 UNL     1      -2.068  50.276 -25.215  1.00  0.00     0.009 C 
HETATM    8  C16 UNL     1      -0.844  50.445 -26.109  1.00  0.00     0.042 C 
HETATM    9  C17 UNL     1      -0.030  51.761 -25.915  1.00  0.00     0.095 C 
HETATM   10  O2  UNL     1      -0.851  52.764 -26.561  1.00  0.00    -0.377 OA
HETATM   11  C21 UNL     1      -0.317  54.082 -26.594  1.00  0.00     0.169 C 
HETATM   12  C22 UNL     1       0.082  54.627 -25.233  1.00  0.00     0.027 C 
HETATM   13  C23 UNL     1       0.680  53.604 -24.268  1.00  0.00     0.010 C 
HETATM   14  C24 UNL     1       0.111  52.171 -24.394  1.00  0.00     0.032 C 
HETATM   15  C25 UNL     1      -1.185  51.922 -23.478  1.00  0.00    -0.033 C 
HETATM   16  C26 UNL     1      -2.283  52.971 -23.774  1.00  0.00     0.016 C 
HETATM   17  C27 UNL     1      -0.813  52.103 -21.956  1.00  0.00     0.011 C 
HETATM   18  C28 UNL     1      -1.772  51.441 -20.935  1.00  0.00     0.011 C 
HETATM   19  C29 UNL     1      -1.994  49.956 -21.263  1.00  0.00    -0.032 C 
HETATM   20  C30 UNL     1      -0.610  49.248 -21.124  1.00  0.00     0.016 C 
ENDROOT
BRANCH   1  21
HETATM   21  C7  UNL     1      -2.928  48.950 -18.910  1.00  0.00    -0.014 C 
HETATM   22  C8  UNL     1      -2.564  47.474 -18.648  1.00  0.00     0.010 C 
BRANCH  21  23
HETATM   23  C6  UNL     1      -2.054  49.855 -18.016  1.00  0.00     0.008 C 
BRANCH  23  24
HETATM   24  C5  UNL     1      -0.582  49.478 -17.842  1.00  0.00     0.028 C 
BRANCH  24  25
HETATM   25  C4  UNL     1       0.100  50.358 -16.826  1.00  0.00    -0.025 C 
HETATM   26  C2  UNL     1       0.652  51.569 -17.029  1.00  0.00    -0.091 C 
HETATM   27  C1  UNL     1       0.631  52.316 -18.336  1.00  0.00     0.042 C 
HETATM   28  C3  UNL     1       1.313  52.309 -15.896  1.00  0.00     0.042 C 
ENDBRANCH  24  25
ENDBRANCH  23  24
ENDBRANCH  21  23
ENDBRANCH   1  21
BRANCH   9  29
HETATM   29  C18 UNL     1       1.384  51.577 -26.688  1.00  0.00     0.082 C 
HETATM   30  C19 UNL     1       1.206  51.609 -28.221  1.00  0.00     0.049 C 
HETATM   31  C20 UNL     1       2.137  50.286 -26.302  1.00  0.00     0.049 C 
BRANCH  29  32
HETATM   32  O1  UNL     1       2.305  52.637 -26.374  1.00  0.00    -0.388 OA
HETATM   33  H35 UNL     1       3.116  52.503 -26.892  1.00  0.00     0.210 HD
ENDBRANCH  29  32
ENDBRANCH   9  29
TORSDOF 6
ENDMDL
MODEL 3
REMARK minimizedAffinity -8.74456024
REMARK  6 active torsions:
REMARK  status: ('A' for Active; 'I' for Inactive)
REMARK    1  A    between atoms: C4_4  and  C5_5 
REMARK    2  A    between atoms: C5_5  and  C6_6 
REMARK    3  A    between atoms: C6_6  and  C7_7 
REMARK    4  A    between atoms: C7_7  and  C9_9 
REMARK    5  A    between atoms: C17_17  and  C18_18 
REMARK    6  A    between atoms: C18_18  and  O1_21 
ROOT
HETATM    1  C9  UNL     1      -4.293  48.601 -20.133  1.00  0.00    -0.002 C 
HETATM    2  C10 UNL     1      -5.716  48.959 -20.647  1.00  0.00     0.006 C 
HETATM    3  C11 UNL     1      -5.519  49.933 -21.843  1.00  0.00     0.011 C 
HETATM    4  C12 UNL     1      -4.035  50.358 -21.752  1.00  0.00    -0.032 C 
HETATM    5  C13 UNL     1      -4.004  51.464 -20.644  1.00  0.00     0.016 C 
HETATM    6  C14 UNL     1      -3.375  50.863 -23.069  1.00  0.00     0.003 C 
HETATM    7  C15 UNL     1      -3.997  52.126 -23.667  1.00  0.00     0.009 C 
HETATM    8  C16 UNL     1      -3.600  52.227 -25.136  1.00  0.00     0.042 C 
HETATM    9  C17 UNL     1      -2.072  52.171 -25.439  1.00  0.00     0.095 C 
HETATM   10  O2  UNL     1      -1.600  53.483 -25.045  1.00  0.00    -0.377 OA
HETATM   11  C21 UNL     1      -0.221  53.745 -25.271  1.00  0.00     0.169 C 
HETATM   12  C22 UNL     1       0.717  52.720 -24.657  1.00  0.00     0.027 C 
HETATM   13  C23 UNL     1       0.218  51.276 -24.685  1.00  0.00     0.010 C 
HETATM   14  C24 UNL     1      -1.314  51.107 -24.548  1.00  0.00     0.032 C 
HETATM   15  C25 UNL     1      -1.804  50.994 -23.022  1.00  0.00    -0.033 C 
HETATM   16  C26 UNL     1      -1.313  52.204 -22.192  1.00  0.00     0.016 C 
HETATM   17  C27 UNL     1      -1.169  49.719 -22.344  1.00  0.00     0.011 C 
HETATM   18  C28 UNL     1      -1.889  49.190 -21.079  1.00  0.00     0.011 C 
HETATM   19  C29 UNL     1      -3.387  48.971 -21.342  1.00  0.00    -0.032 C 
HETATM   20  C30 UNL     1      -3.501  47.865 -22.437  1.00  0.00     0.016 C 
ENDROOT
BRANCH   1  21
HETATM   21  C7  UNL     1      -4.116  47.285 -19.330  1.00  0.00    -0.014 C 
HETATM   22  C8  UNL     1      -4.229  46.085 -20.292  1.00  0.00     0.010 C 
BRANCH  21  23
HETATM   23  C6  UNL     1      -2.925  47.060 -18.375  1.00  0.00     0.008 C 
BRANCH  23  24
HETATM   24  C5  UNL     1      -2.709  48.076 -17.253  1.00  0.00     0.028 C 
BRANCH  24  25
HETATM   25  C4  UNL     1      -1.882  49.247 -17.717  1.00  0.00    -0.025 C 
HETATM   26  C2  UNL     1      -0.658  49.608 -17.287  1.00  0.00    -0.091 C 
HETATM   27  C1  UNL     1       0.160  48.845 -16.279  1.00  0.00     0.042 C 
HETATM   28  C3  UNL     1       0.023  50.827 -17.852  1.00  0.00     0.042 C 
ENDBRANCH  24  25
ENDBRANCH  23  24
ENDBRANCH  21  23
ENDBRANCH   1  21
BRANCH   9  29
HETATM   29  C18 UNL     1      -1.900  51.944 -27.037  1.00  0.00     0.082 C 
HETATM   30  C19 UNL     1      -2.987  51.003 -27.599  1.00  0.00     0.049 C 
HETATM   31  C20 UNL     1      -0.513  51.399 -27.438  1.00  0.00     0.049 C 
BRANCH  29  32
HETATM   32  O1  UNL     1      -2.026  53.178 -27.766  1.00  0.00    -0.388 OA
HETATM   33  H35 UNL     1      -1.957  52.981 -28.715  1.00  0.00     0.210 HD
ENDBRANCH  29  32
ENDBRANCH   9  29
TORSDOF 6
ENDMDL
MODEL 4
REMARK minimizedAffinity -8.68791771
REMARK  6 active torsions:
REMARK  status: ('A' for Active; 'I' for Inactive)
REMARK    1  A    between atoms: C4_4  and  C5_5 
REMARK    2  A    between atoms: C5_5  and  C6_6 
REMARK    3  A    between atoms: C6_6  and  C7_7 
REMARK    4  A    between atoms: C7_7  and  C9_9 
REMARK    5  A    between atoms: C17_17  and  C18_18 
REMARK    6  A    between atoms: C18_18  and  O1_21 
ROOT
HETATM    1  C9  UNL     1      -3.284  51.098 -25.312  1.00  0.00    -0.002 C 
HETATM    2  C10 UNL     1      -3.415  52.574 -24.840  1.00  0.00     0.006 C 
HETATM    3  C11 UNL     1      -3.479  52.535 -23.287  1.00  0.00     0.011 C 
HETATM    4  C12 UNL     1      -3.724  51.046 -22.950  1.00  0.00    -0.032 C 
HETATM    5  C13 UNL     1      -5.260  50.834 -23.174  1.00  0.00     0.016 C 
HETATM    6  C14 UNL     1      -3.293  50.574 -21.530  1.00  0.00     0.003 C 
HETATM    7  C15 UNL     1      -4.021  51.253 -20.369  1.00  0.00     0.009 C 
HETATM    8  C16 UNL     1      -3.203  51.072 -19.095  1.00  0.00     0.042 C 
HETATM    9  C17 UNL     1      -2.827  49.605 -18.725  1.00  0.00     0.095 C 
HETATM   10  O2  UNL     1      -4.065  49.057 -18.211  1.00  0.00    -0.377 OA
HETATM   11  C21 UNL     1      -4.005  47.721 -17.728  1.00  0.00     0.169 C 
HETATM   12  C22 UNL     1      -3.445  46.722 -18.728  1.00  0.00     0.027 C 
HETATM   13  C23 UNL     1      -2.317  47.247 -19.615  1.00  0.00     0.010 C 
HETATM   14  C24 UNL     1      -2.416  48.745 -19.986  1.00  0.00     0.032 C 
HETATM   15  C25 UNL     1      -3.267  49.011 -21.323  1.00  0.00    -0.033 C 
HETATM   16  C26 UNL     1      -4.678  48.383 -21.215  1.00  0.00     0.016 C 
HETATM   17  C27 UNL     1      -2.575  48.308 -22.554  1.00  0.00     0.011 C 
HETATM   18  C28 UNL     1      -2.962  48.847 -23.953  1.00  0.00     0.011 C 
HETATM   19  C29 UNL     1      -2.783  50.371 -24.032  1.00  0.00    -0.032 C 
HETATM   20  C30 UNL     1      -1.263  50.663 -23.827  1.00  0.00     0.016 C 
ENDROOT
BRANCH   1  21
HETATM   21  C7  UNL     1      -2.678  50.831 -26.715  1.00  0.00    -0.014 C 
HETATM   22  C8  UNL     1      -1.208  50.390 -26.557  1.00  0.00     0.010 C 
BRANCH  21  23
HETATM   23  C6  UNL     1      -3.373  49.922 -27.750  1.00  0.00     0.008 C 
BRANCH  23  24
HETATM   24  C5  UNL     1      -3.522  48.438 -27.410  1.00  0.00     0.028 C 
BRANCH  24  25
HETATM   25  C4  UNL     1      -4.927  48.107 -26.978  1.00  0.00    -0.025 C 
HETATM   26  C2  UNL     1      -5.960  47.738 -27.759  1.00  0.00    -0.091 C 
HETATM   27  C1  UNL     1      -5.879  47.519 -29.246  1.00  0.00     0.042 C 
HETATM   28  C3  UNL     1      -7.313  47.459 -27.158  1.00  0.00     0.042 C 
ENDBRANCH  24  25
ENDBRANCH  23  24
ENDBRANCH  21  23
ENDBRANCH   1  21
BRANCH   9  29
HETATM   29  C18 UNL     1      -1.691  49.671 -17.567  1.00  0.00     0.082 C 
HETATM   30  C19 UNL     1      -2.294  50.047 -16.197  1.00  0.00     0.049 C 
HETATM   31  C20 UNL     1      -0.538  50.644 -17.887  1.00  0.00     0.049 C 
BRANCH  29  32
HETATM   32  O1  UNL     1      -1.046  48.398 -17.381  1.00  0.00    -0.388 OA
HETATM   33  H35 UNL     1      -0.408  48.481 -16.653  1.00  0.00     0.210 HD
ENDBRANCH  29  32
ENDBRANCH   9  29
TORSDOF 6
ENDMDL
MODEL 5
REMARK minimizedAffinity -8.64778042
REMARK  6 active torsions:
REMARK  status: ('A' for Active; 'I' for Inactive)
REMARK    1  A    between atoms: C4_4  and  C5_5 
REMARK    2  A    between atoms: C5_5  and  C6_6 
REMARK    3  A    between atoms: C6_6  and  C7_7 
REMARK    4  A    between atoms: C7_7  and  C9_9 
REMARK    5  A    between atoms: C17_17  and  C18_18 
REMARK    6  A    between atoms: C18_18  and  O1_21 
ROOT
HETATM    1  C9  UNL     1      -1.074  51.556 -26.813  1.00  0.00    -0.002 C 
HETATM    2  C10 UNL     1      -1.919  51.232 -28.077  1.00  0.00     0.006 C 
HETATM    3  C11 UNL     1      -3.118  50.367 -27.594  1.00  0.00     0.011 C 
HETATM    4  C12 UNL     1      -2.735  49.949 -26.156  1.00  0.00    -0.032 C 
HETATM    5  C13 UNL     1      -1.744  48.751 -26.338  1.00  0.00     0.016 C 
HETATM    6  C14 UNL     1      -3.910  49.568 -25.207  1.00  0.00     0.003 C 
HETATM    7  C15 UNL     1      -4.734  48.356 -25.647  1.00  0.00     0.009 C 
HETATM    8  C16 UNL     1      -6.082  48.386 -24.933  1.00  0.00     0.042 C 
HETATM    9  C17 UNL     1      -6.032  48.482 -23.377  1.00  0.00     0.095 C 
HETATM   10  O2  UNL     1      -5.653  47.146 -22.968  1.00  0.00    -0.377 OA
HETATM   11  C21 UNL     1      -5.589  46.916 -21.566  1.00  0.00     0.169 C 
HETATM   12  C22 UNL     1      -4.698  47.892 -20.816  1.00  0.00     0.027 C 
HETATM   13  C23 UNL     1      -4.717  49.329 -21.336  1.00  0.00     0.010 C 
HETATM   14  C24 UNL     1      -4.910  49.471 -22.864  1.00  0.00     0.032 C 
HETATM   15  C25 UNL     1      -3.527  49.447 -23.682  1.00  0.00    -0.033 C 
HETATM   16  C26 UNL     1      -2.711  48.173 -23.353  1.00  0.00     0.016 C 
HETATM   17  C27 UNL     1      -2.621  50.663 -23.249  1.00  0.00     0.011 C 
HETATM   18  C28 UNL     1      -1.508  51.074 -24.245  1.00  0.00     0.011 C 
HETATM   19  C29 UNL     1      -2.078  51.301 -25.653  1.00  0.00    -0.032 C 
HETATM   20  C30 UNL     1      -3.075  52.498 -25.554  1.00  0.00     0.016 C 
ENDROOT
BRANCH   1  21
HETATM   21  C7  UNL     1      -0.146  52.799 -26.855  1.00  0.00    -0.014 C 
HETATM   22  C8  UNL     1      -0.742  53.845 -27.818  1.00  0.00     0.010 C 
BRANCH  21  23
HETATM   23  C6  UNL     1       0.337  53.506 -25.571  1.00  0.00     0.008 C 
BRANCH  23  24
HETATM   24  C5  UNL     1       0.583  52.645 -24.331  1.00  0.00     0.028 C 
BRANCH  24  25
HETATM   25  C4  UNL     1       0.889  53.490 -23.121  1.00  0.00    -0.025 C 
HETATM   26  C2  UNL     1       0.843  53.117 -21.828  1.00  0.00    -0.091 C 
HETATM   27  C1  UNL     1       0.529  51.727 -21.344  1.00  0.00     0.042 C 
HETATM   28  C3  UNL     1       1.166  54.103 -20.735  1.00  0.00     0.042 C 
ENDBRANCH  24  25
ENDBRANCH  23  24
ENDBRANCH  21  23
ENDBRANCH   1  21
BRANCH   9  29
HETATM   29  C18 UNL     1      -7.527  48.850 -22.864  1.00  0.00     0.082 C 
HETATM   30  C19 UNL     1      -7.496  49.677 -21.561  1.00  0.00     0.049 C 
HETATM   31  C20 UNL     1      -8.427  47.615 -22.648  1.00  0.00     0.049 C 
BRANCH  29  32
HETATM   32  O1  UNL     1      -8.238  49.649 -23.825  1.00  0.00    -0.388 OA
HETATM   33  H35 UNL     1      -9.107  49.875 -23.453  1.00  0.00     0.210 HD
ENDBRANCH  29  32
ENDBRANCH   9  29
TORSDOF 6
ENDMDL
MODEL 6
REMARK minimizedAffinity -8.55095005
REMARK  6 active torsions:
REMARK  status: ('A' for Active; 'I' for Inactive)
REMARK    1  A    between atoms: C4_4  and  C5_5 
REMARK    2  A    between atoms: C5_5  and  C6_6 
REMARK    3  A    between atoms: C6_6  and  C7_7 
REMARK    4  A    between atoms: C7_7  and  C9_9 
REMARK    5  A    between atoms: C17_17  and  C18_18 
REMARK    6  A    between atoms: C18_18  and  O1_21 
ROOT
HETATM    1  C9  UNL     1      -3.054  50.469 -25.163  1.00  0.00    -0.002 C 
HETATM    2  C10 UNL     1      -2.189  51.373 -24.240  1.00  0.00     0.006 C 
HETATM    3  C11 UNL     1      -2.803  51.262 -22.815  1.00  0.00     0.011 C 
HETATM    4  C12 UNL     1      -4.174  50.585 -23.040  1.00  0.00    -0.032 C 
HETATM    5  C13 UNL     1      -5.115  51.739 -23.525  1.00  0.00     0.016 C 
HETATM    6  C14 UNL     1      -4.787  49.835 -21.821  1.00  0.00     0.003 C 
HETATM    7  C15 UNL     1      -5.097  50.711 -20.606  1.00  0.00     0.009 C 
HETATM    8  C16 UNL     1      -5.225  49.824 -19.372  1.00  0.00     0.042 C 
HETATM    9  C17 UNL     1      -6.243  48.648 -19.476  1.00  0.00     0.095 C 
HETATM   10  O2  UNL     1      -7.529  49.301 -19.348  1.00  0.00    -0.377 OA
HETATM   11  C21 UNL     1      -8.666  48.448 -19.344  1.00  0.00     0.169 C 
HETATM   12  C22 UNL     1      -8.747  47.513 -20.539  1.00  0.00     0.027 C 
HETATM   13  C23 UNL     1      -7.409  46.970 -21.038  1.00  0.00     0.010 C 
HETATM   14  C24 UNL     1      -6.211  47.937 -20.888  1.00  0.00     0.032 C 
HETATM   15  C25 UNL     1      -6.017  48.905 -22.155  1.00  0.00    -0.033 C 
HETATM   16  C26 UNL     1      -7.316  49.692 -22.456  1.00  0.00     0.016 C 
HETATM   17  C27 UNL     1      -5.721  48.052 -23.448  1.00  0.00     0.011 C 
HETATM   18  C28 UNL     1      -5.040  48.801 -24.620  1.00  0.00     0.011 C 
HETATM   19  C29 UNL     1      -3.770  49.529 -24.151  1.00  0.00    -0.032 C 
HETATM   20  C30 UNL     1      -2.772  48.435 -23.660  1.00  0.00     0.016 C 
ENDROOT
BRANCH   1  21
HETATM   21  C7  UNL     1      -2.419  49.949 -26.479  1.00  0.00    -0.014 C 
HETATM   22  C8  UNL     1      -3.206  48.717 -26.970  1.00  0.00     0.010 C 
BRANCH  21  23
HETATM   23  C6  UNL     1      -2.133  50.880 -27.677  1.00  0.00     0.008 C 
BRANCH  23  24
HETATM   24  C5  UNL     1      -1.147  52.029 -27.467  1.00  0.00     0.028 C 
BRANCH  24  25
HETATM   25  C4  UNL     1       0.272  51.532 -27.368  1.00  0.00    -0.025 C 
HETATM   26  C2  UNL     1       1.167  51.794 -26.397  1.00  0.00    -0.091 C 
HETATM   27  C1  UNL     1       0.883  52.605 -25.161  1.00  0.00     0.042 C 
HETATM   28  C3  UNL     1       2.559  51.223 -26.464  1.00  0.00     0.042 C 
ENDBRANCH  24  25
ENDBRANCH  23  24
ENDBRANCH  21  23
ENDBRANCH   1  21
BRANCH   9  29
HETATM   29  C18 UNL     1      -5.966  47.652 -18.224  1.00  0.00     0.082 C 
HETATM   30  C19 UNL     1      -4.607  47.943 -17.553  1.00  0.00     0.049 C 
HETATM   31  C20 UNL     1      -6.025  46.156 -18.599  1.00  0.00     0.049 C 
BRANCH  29  32
HETATM   32  O1  UNL     1      -6.959  47.804 -17.194  1.00  0.00    -0.388 OA
HETATM   33  H35 UNL     1      -6.724  47.219 -16.454  1.00  0.00     0.210 HD
ENDBRANCH  29  32
ENDBRANCH   9  29
TORSDOF 6
ENDMDL
MODEL 7
REMARK minimizedAffinity -8.53672314
REMARK  6 active torsions:
REMARK  status: ('A' for Active; 'I' for Inactive)
REMARK    1  A    between atoms: C4_4  and  C5_5 
REMARK    2  A    between atoms: C5_5  and  C6_6 
REMARK    3  A    between atoms: C6_6  and  C7_7 
REMARK    4  A    between atoms: C7_7  and  C9_9 
REMARK    5  A    between atoms: C17_17  and  C18_18 
REMARK    6  A    between atoms: C18_18  and  O1_21 
ROOT
HETATM    1  C9  UNL     1      -0.941  51.761 -21.164  1.00  0.00    -0.002 C 
HETATM    2  C10 UNL     1      -0.129  50.904 -20.152  1.00  0.00     0.006 C 
HETATM    3  C11 UNL     1      -1.072  49.754 -19.695  1.00  0.00     0.011 C 
HETATM    4  C12 UNL     1      -2.472  50.187 -20.188  1.00  0.00    -0.032 C 
HETATM    5  C13 UNL     1      -2.967  51.226 -19.125  1.00  0.00     0.016 C 
HETATM    6  C14 UNL     1      -3.518  49.051 -20.393  1.00  0.00     0.003 C 
HETATM    7  C15 UNL     1      -3.888  48.271 -19.131  1.00  0.00     0.009 C 
HETATM    8  C16 UNL     1      -4.513  46.939 -19.534  1.00  0.00     0.042 C 
HETATM    9  C17 UNL     1      -5.728  47.020 -20.508  1.00  0.00     0.095 C 
HETATM   10  O2  UNL     1      -6.813  47.465 -19.658  1.00  0.00    -0.377 OA
HETATM   11  C21 UNL     1      -8.089  47.571 -20.277  1.00  0.00     0.169 C 
HETATM   12  C22 UNL     1      -8.105  48.434 -21.527  1.00  0.00     0.027 C 
HETATM   13  C23 UNL     1      -6.857  48.341 -22.403  1.00  0.00     0.010 C 
HETATM   14  C24 UNL     1      -5.533  48.108 -21.637  1.00  0.00     0.032 C 
HETATM   15  C25 UNL     1      -4.819  49.473 -21.180  1.00  0.00    -0.033 C 
HETATM   16  C26 UNL     1      -5.783  50.350 -20.345  1.00  0.00     0.016 C 
HETATM   17  C27 UNL     1      -4.437  50.334 -22.444  1.00  0.00     0.011 C 
HETATM   18  C28 UNL     1      -3.338  51.406 -22.234  1.00  0.00     0.011 C 
HETATM   19  C29 UNL     1      -2.080  50.795 -21.598  1.00  0.00    -0.032 C 
HETATM   20  C30 UNL     1      -1.518  49.750 -22.611  1.00  0.00     0.016 C 
ENDROOT
BRANCH   1  21
HETATM   21  C7  UNL     1      -0.155  52.634 -22.177  1.00  0.00    -0.014 C 
HETATM   22  C8  UNL     1       1.174  53.083 -21.536  1.00  0.00     0.010 C 
BRANCH  21  23
HETATM   23  C6  UNL     1       0.110  52.171 -23.626  1.00  0.00     0.008 C 
BRANCH  23  24
HETATM   24  C5  UNL     1       0.619  53.212 -24.625  1.00  0.00     0.028 C 
BRANCH  24  25
HETATM   25  C4  UNL     1       0.374  52.781 -26.048  1.00  0.00    -0.025 C 
HETATM   26  C2  UNL     1       1.157  52.000 -26.815  1.00  0.00    -0.091 C 
HETATM   27  C1  UNL     1       2.430  51.341 -26.354  1.00  0.00     0.042 C 
HETATM   28  C3  UNL     1       0.765  51.681 -28.234  1.00  0.00     0.042 C 
ENDBRANCH  24  25
ENDBRANCH  23  24
ENDBRANCH  21  23
ENDBRANCH   1  21
BRANCH   9  29
HETATM   29  C18 UNL     1      -6.002  45.522 -21.069  1.00  0.00     0.082 C 
HETATM   30  C19 UNL     1      -6.604  45.545 -22.490  1.00  0.00     0.049 C 
HETATM   31  C20 UNL     1      -6.916  44.677 -20.156  1.00  0.00     0.049 C 
BRANCH  29  32
HETATM   32  O1  UNL     1      -4.787  44.759 -21.165  1.00  0.00    -0.388 OA
HETATM   33  H35 UNL     1      -4.999  43.889 -21.543  1.00  0.00     0.210 HD
ENDBRANCH  29  32
ENDBRANCH   9  29
TORSDOF 6
ENDMDL
MODEL 8
REMARK minimizedAffinity -8.43231297
REMARK  6 active torsions:
REMARK  status: ('A' for Active; 'I' for Inactive)
REMARK    1  A    between atoms: C4_4  and  C5_5 
REMARK    2  A    between atoms: C5_5  and  C6_6 
REMARK    3  A    between atoms: C6_6  and  C7_7 
REMARK    4  A    between atoms: C7_7  and  C9_9 
REMARK    5  A    between atoms: C17_17  and  C18_18 
REMARK    6  A    between atoms: C18_18  and  O1_21 
ROOT
HETATM    1  C9  UNL     1      -2.382  51.322 -24.357  1.00  0.00    -0.002 C 
HETATM    2  C10 UNL     1      -2.912  52.594 -23.636  1.00  0.00     0.006 C 
HETATM    3  C11 UNL     1      -3.959  52.105 -22.595  1.00  0.00     0.011 C 
HETATM    4  C12 UNL     1      -4.235  50.636 -22.989  1.00  0.00    -0.032 C 
HETATM    5  C13 UNL     1      -5.238  50.725 -24.187  1.00  0.00     0.016 C 
HETATM    6  C14 UNL     1      -4.782  49.707 -21.865  1.00  0.00     0.003 C 
HETATM    7  C15 UNL     1      -6.142  50.109 -21.292  1.00  0.00     0.009 C 
HETATM    8  C16 UNL     1      -6.326  49.441 -19.933  1.00  0.00     0.042 C 
HETATM    9  C17 UNL     1      -6.153  47.892 -19.902  1.00  0.00     0.095 C 
HETATM   10  O2  UNL     1      -7.378  47.402 -20.500  1.00  0.00    -0.377 OA
HETATM   11  C21 UNL     1      -7.529  45.989 -20.548  1.00  0.00     0.169 C 
HETATM   12  C22 UNL     1      -6.374  45.262 -21.216  1.00  0.00     0.027 C 
HETATM   13  C23 UNL     1      -4.990  45.856 -20.959  1.00  0.00     0.010 C 
HETATM   14  C24 UNL     1      -4.954  47.395 -20.805  1.00  0.00     0.032 C 
HETATM   15  C25 UNL     1      -4.762  48.166 -22.202  1.00  0.00    -0.033 C 
HETATM   16  C26 UNL     1      -5.849  47.746 -23.220  1.00  0.00     0.016 C 
HETATM   17  C27 UNL     1      -3.382  47.767 -22.854  1.00  0.00     0.011 C 
HETATM   18  C28 UNL     1      -2.820  48.748 -23.914  1.00  0.00     0.011 C 
HETATM   19  C29 UNL     1      -2.764  50.183 -23.369  1.00  0.00    -0.032 C 
HETATM   20  C30 UNL     1      -1.767  50.177 -22.169  1.00  0.00     0.016 C 
ENDROOT
BRANCH   1  21
HETATM   21  C7  UNL     1      -0.994  51.398 -25.046  1.00  0.00    -0.014 C 
HETATM   22  C8  UNL     1      -1.001  50.499 -26.299  1.00  0.00     0.010 C 
BRANCH  21  23
HETATM   23  C6  UNL     1      -0.321  52.744 -25.389  1.00  0.00     0.008 C 
BRANCH  23  24
HETATM   24  C5  UNL     1       0.690  53.311 -24.392  1.00  0.00     0.028 C 
BRANCH  24  25
HETATM   25  C4  UNL     1       0.515  52.709 -23.022  1.00  0.00    -0.025 C 
HETATM   26  C2  UNL     1       0.955  53.199 -21.848  1.00  0.00    -0.091 C 
HETATM   27  C1  UNL     1       1.669  54.514 -21.678  1.00  0.00     0.042 C 
HETATM   28  C3  UNL     1       0.704  52.453 -20.563  1.00  0.00     0.042 C 
ENDBRANCH  24  25
ENDBRANCH  23  24
ENDBRANCH  21  23
ENDBRANCH   1  21
BRANCH   9  29
HETATM   29  C18 UNL     1      -6.042  47.445 -18.346  1.00  0.00     0.082 C 
HETATM   30  C19 UNL     1      -4.574  47.366 -17.878  1.00  0.00     0.049 C 
HETATM   31  C20 UNL     1      -6.736  46.102 -18.037  1.00  0.00     0.049 C 
BRANCH  29  32
HETATM   32  O1  UNL     1      -6.687  48.391 -17.474  1.00  0.00    -0.388 OA
HETATM   33  H35 UNL     1      -6.556  48.100 -16.556  1.00  0.00     0.210 HD
ENDBRANCH  29  32
ENDBRANCH   9  29
TORSDOF 6
ENDMDL
MODEL 9
REMARK minimizedAffinity -8.3831501
REMARK  6 active torsions:
REMARK  status: ('A' for Active; 'I' for Inactive)
REMARK    1  A    between atoms: C4_4  and  C5_5 
REMARK    2  A    between atoms: C5_5  and  C6_6 
REMARK    3  A    between atoms: C6_6  and  C7_7 
REMARK    4  A    between atoms: C7_7  and  C9_9 
REMARK    5  A    between atoms: C17_17  and  C18_18 
REMARK    6  A    between atoms: C18_18  and  O1_21 
ROOT
HETATM    1  C9  UNL     1      -4.684  48.570 -20.365  1.00  0.00    -0.002 C 
HETATM    2  C10 UNL     1      -6.071  49.018 -20.909  1.00  0.00     0.006 C 
HETATM    3  C11 UNL     1      -5.787  50.018 -22.065  1.00  0.00     0.011 C 
HETATM    4  C12 UNL     1      -4.287  50.362 -21.915  1.00  0.00    -0.032 C 
HETATM    5  C13 UNL     1      -4.234  51.429 -20.770  1.00  0.00     0.016 C 
HETATM    6  C14 UNL     1      -3.560  50.873 -23.194  1.00  0.00     0.003 C 
HETATM    7  C15 UNL     1      -4.098  52.186 -23.768  1.00  0.00     0.009 C 
HETATM    8  C16 UNL     1      -3.650  52.314 -25.220  1.00  0.00     0.042 C 
HETATM    9  C17 UNL     1      -2.118  52.187 -25.479  1.00  0.00     0.095 C 
HETATM   10  O2  UNL     1      -1.592  53.459 -25.027  1.00  0.00    -0.377 OA
HETATM   11  C21 UNL     1      -0.195  53.657 -25.203  1.00  0.00     0.169 C 
HETATM   12  C22 UNL     1       0.669  52.565 -24.596  1.00  0.00     0.027 C 
HETATM   13  C23 UNL     1       0.098  51.151 -24.688  1.00  0.00     0.010 C 
HETATM   14  C24 UNL     1      -1.443  51.058 -24.602  1.00  0.00     0.032 C 
HETATM   15  C25 UNL     1      -1.986  50.921 -23.096  1.00  0.00    -0.033 C 
HETATM   16  C26 UNL     1      -1.461  52.077 -22.211  1.00  0.00     0.016 C 
HETATM   17  C27 UNL     1      -1.440  49.594 -22.442  1.00  0.00     0.011 C 
HETATM   18  C28 UNL     1      -2.226  49.063 -21.218  1.00  0.00     0.011 C 
HETATM   19  C29 UNL     1      -3.724  48.931 -21.533  1.00  0.00    -0.032 C 
HETATM   20  C30 UNL     1      -3.859  47.867 -22.667  1.00  0.00     0.016 C 
ENDROOT
BRANCH   1  21
HETATM   21  C7  UNL     1      -4.601  47.222 -19.602  1.00  0.00    -0.014 C 
HETATM   22  C8  UNL     1      -5.862  47.054 -18.730  1.00  0.00     0.010 C 
BRANCH  21  23
HETATM   23  C6  UNL     1      -4.298  45.889 -20.319  1.00  0.00     0.008 C 
BRANCH  23  24
HETATM   24  C5  UNL     1      -5.366  44.796 -20.275  1.00  0.00     0.028 C 
BRANCH  24  25
HETATM   25  C4  UNL     1      -6.158  44.742 -21.555  1.00  0.00    -0.025 C 
HETATM   26  C2  UNL     1      -6.734  43.664 -22.119  1.00  0.00    -0.091 C 
HETATM   27  C1  UNL     1      -6.747  42.283 -21.519  1.00  0.00     0.042 C 
HETATM   28  C3  UNL     1      -7.480  43.787 -23.422  1.00  0.00     0.042 C 
ENDBRANCH  24  25
ENDBRANCH  23  24
ENDBRANCH  21  23
ENDBRANCH   1  21
BRANCH   9  29
HETATM   29  C18 UNL     1      -1.907  52.003 -27.078  1.00  0.00     0.082 C 
HETATM   30  C19 UNL     1      -2.958  51.049 -27.685  1.00  0.00     0.049 C 
HETATM   31  C20 UNL     1      -0.499  51.502 -27.462  1.00  0.00     0.049 C 
BRANCH  29  32
HETATM   32  O1  UNL     1      -2.049  53.250 -27.780  1.00  0.00    -0.388 OA
HETATM   33  H35 UNL     1      -1.956  53.078 -28.732  1.00  0.00     0.210 HD
ENDBRANCH  29  32
ENDBRANCH   9  29
TORSDOF 6
ENDMDL
