MODEL 1
REMARK minimizedAffinity -9.68979168
REMARK  8 active torsions:
REMARK  status: ('A' for Active; 'I' for Inactive)
REMARK    1  A    between atoms: C4_4  and  C5_5 
REMARK    2  A    between atoms: C5_5  and  C6_6 
REMARK    3  A    between atoms: C6_6  and  C7_7 
REMARK    4  A    between atoms: C7_7  and  C9_9 
REMARK    5  A    between atoms: C18_18  and  C20_20 
REMARK    6  A    between atoms: C20_20  and  O2_22 
REMARK    7  A    between atoms: C21_23  and  O3_24 
REMARK    8  A    between atoms: C23_26  and  O4_27 
ROOT
HETATM    1  C9  UNL     1      -1.313  51.998 -23.185  1.00  0.00    -0.002 C 
HETATM    2  C10 UNL     1      -0.553  51.429 -24.403  1.00  0.00     0.006 C 
HETATM    3  C11 UNL     1      -1.464  50.364 -25.045  1.00  0.00     0.011 C 
HETATM    4  C12 UNL     1      -2.822  50.477 -24.325  1.00  0.00    -0.032 C 
HETATM    5  C13 UNL     1      -3.659  51.553 -25.085  1.00  0.00     0.016 C 
HETATM    6  C14 UNL     1      -3.625  49.155 -24.246  1.00  0.00     0.004 C 
HETATM    7  C15 UNL     1      -4.051  48.608 -25.625  1.00  0.00     0.007 C 
HETATM    8  C16 UNL     1      -5.552  48.636 -25.882  1.00  0.00     0.007 C 
HETATM    9  C17 UNL     1      -6.271  47.793 -24.821  1.00  0.00     0.018 C 
HETATM   10  C18 UNL     1      -7.741  47.387 -25.170  1.00  0.00     0.072 C 
HETATM   11  C19 UNL     1      -7.722  46.276 -26.256  1.00  0.00     0.030 C 
HETATM   12  C21 UNL     1      -8.410  46.819 -23.894  1.00  0.00     0.139 C 
HETATM   13  C22 UNL     1      -8.423  47.789 -22.700  1.00  0.00     0.065 C 
HETATM   14  C23 UNL     1      -7.391  48.914 -22.793  1.00  0.00     0.130 C 
HETATM   15  C24 UNL     1      -6.101  48.464 -23.449  1.00  0.00    -0.001 A 
HETATM   16  C25 UNL     1      -5.062  47.891 -22.514  1.00  0.00     0.024 A 
HETATM   17  C26 UNL     1      -4.761  49.219 -23.184  1.00  0.00    -0.025 A 
HETATM   18  C27 UNL     1      -4.846  50.476 -22.294  1.00  0.00     0.011 C 
HETATM   19  C28 UNL     1      -3.606  51.371 -22.120  1.00  0.00     0.011 C 
HETATM   20  C29 UNL     1      -2.374  50.892 -22.882  1.00  0.00    -0.032 C 
HETATM   21  C30 UNL     1      -1.729  49.744 -22.056  1.00  0.00     0.016 C 
ENDROOT
BRANCH   1  22
HETATM   22  C7  UNL     1      -0.466  52.544 -21.996  1.00  0.00    -0.014 C 
HETATM   23  C8  UNL     1       0.826  53.183 -22.525  1.00  0.00     0.010 C 
BRANCH  22  24
HETATM   24  C6  UNL     1      -0.191  51.564 -20.828  1.00  0.00     0.008 C 
BRANCH  24  25
HETATM   25  C5  UNL     1      -0.697  51.958 -19.425  1.00  0.00     0.028 C 
BRANCH  25  26
HETATM   26  C4  UNL     1       0.403  52.426 -18.510  1.00  0.00    -0.025 C 
HETATM   27  C2  UNL     1       0.883  51.825 -17.404  1.00  0.00    -0.091 C 
HETATM   28  C1  UNL     1       0.379  50.532 -16.827  1.00  0.00     0.042 C 
HETATM   29  C3  UNL     1       2.019  52.441 -16.631  1.00  0.00     0.042 C 
ENDBRANCH  25  26
ENDBRANCH  24  25
ENDBRANCH  22  24
ENDBRANCH   1  22
BRANCH  14  30
HETATM   30  O4  UNL     1      -7.919  50.014 -23.530  1.00  0.00    -0.395 OA
HETATM   31  H39 UNL     1      -8.611  50.422 -22.982  1.00  0.00     0.210 HD
ENDBRANCH  14  30
BRANCH  10  32
HETATM   32  C20 UNL     1      -8.581  48.501 -25.798  1.00  0.00     0.151 C 
HETATM   33  O1  UNL     1      -9.070  48.516 -26.918  1.00  0.00    -0.649 OA
BRANCH  32  34
HETATM   34  O2  UNL     1      -8.908  49.499 -24.950  1.00  0.00    -0.776 OA
HETATM   35  H33 UNL     1      -9.460  50.078 -25.517  1.00  0.00     0.167 HD
ENDBRANCH  32  34
ENDBRANCH  10  32
BRANCH  12  36
HETATM   36  O3  UNL     1      -7.725  45.619 -23.481  1.00  0.00    -0.394 OA
HETATM   37  H35 UNL     1      -8.277  45.187 -22.808  1.00  0.00     0.210 HD
ENDBRANCH  12  36
TORSDOF 8
ENDMDL
MODEL 2
REMARK minimizedAffinity -9.50784588
REMARK  8 active torsions:
REMARK  status: ('A' for Active; 'I' for Inactive)
REMARK    1  A    between atoms: C4_4  and  C5_5 
REMARK    2  A    between atoms: C5_5  and  C6_6 
REMARK    3  A    between atoms: C6_6  and  C7_7 
REMARK    4  A    between atoms: C7_7  and  C9_9 
REMARK    5  A    between atoms: C18_18  and  C20_20 
REMARK    6  A    between atoms: C20_20  and  O2_22 
REMARK    7  A    between atoms: C21_23  and  O3_24 
REMARK    8  A    between atoms: C23_26  and  O4_27 
ROOT
HETATM    1  C9  UNL     1      -1.231  52.080 -23.966  1.00  0.00    -0.002 C 
HETATM    2  C10 UNL     1      -0.638  51.313 -25.168  1.00  0.00     0.006 C 
HETATM    3  C11 UNL     1      -1.602  50.151 -25.481  1.00  0.00     0.011 C 
HETATM    4  C12 UNL     1      -2.847  50.384 -24.603  1.00  0.00    -0.032 C 
HETATM    5  C13 UNL     1      -3.811  51.312 -25.404  1.00  0.00     0.016 C 
HETATM    6  C14 UNL     1      -3.596  49.094 -24.186  1.00  0.00     0.004 C 
HETATM    7  C15 UNL     1      -4.199  48.318 -25.375  1.00  0.00     0.007 C 
HETATM    8  C16 UNL     1      -5.721  48.299 -25.414  1.00  0.00     0.007 C 
HETATM    9  C17 UNL     1      -6.259  47.649 -24.133  1.00  0.00     0.018 C 
HETATM   10  C18 UNL     1      -7.752  47.186 -24.192  1.00  0.00     0.072 C 
HETATM   11  C19 UNL     1      -7.859  45.906 -25.065  1.00  0.00     0.030 C 
HETATM   12  C21 UNL     1      -8.219  46.845 -22.755  1.00  0.00     0.139 C 
HETATM   13  C22 UNL     1      -8.088  48.005 -21.754  1.00  0.00     0.065 C 
HETATM   14  C23 UNL     1      -7.109  49.099 -22.184  1.00  0.00     0.130 C 
HETATM   15  C24 UNL     1      -5.914  48.546 -22.933  1.00  0.00    -0.001 A 
HETATM   16  C25 UNL     1      -4.738  48.142 -22.075  1.00  0.00     0.024 A 
HETATM   17  C26 UNL     1      -4.570  49.337 -22.997  1.00  0.00    -0.025 A 
HETATM   18  C27 UNL     1      -4.561  50.728 -22.329  1.00  0.00     0.011 C 
HETATM   19  C28 UNL     1      -3.333  51.641 -22.490  1.00  0.00     0.011 C 
HETATM   20  C29 UNL     1      -2.209  51.041 -23.331  1.00  0.00    -0.032 C 
HETATM   21  C30 UNL     1      -1.424  50.052 -22.424  1.00  0.00     0.016 C 
ENDROOT
BRANCH   1  22
HETATM   22  C7  UNL     1      -0.239  52.823 -23.022  1.00  0.00    -0.014 C 
HETATM   23  C8  UNL     1       0.828  53.549 -23.853  1.00  0.00     0.010 C 
BRANCH  22  24
HETATM   24  C6  UNL     1       0.387  51.991 -21.875  1.00  0.00     0.008 C 
BRANCH  24  25
HETATM   25  C5  UNL     1       0.345  52.583 -20.452  1.00  0.00     0.028 C 
BRANCH  25  26
HETATM   26  C4  UNL     1      -0.153  51.606 -19.420  1.00  0.00    -0.025 C 
HETATM   27  C2  UNL     1       0.192  51.515 -18.120  1.00  0.00    -0.091 C 
HETATM   28  C1  UNL     1       1.197  52.387 -17.422  1.00  0.00     0.042 C 
HETATM   29  C3  UNL     1      -0.444  50.478 -17.232  1.00  0.00     0.042 C 
ENDBRANCH  25  26
ENDBRANCH  24  25
ENDBRANCH  22  24
ENDBRANCH   1  22
BRANCH  14  30
HETATM   30  O4  UNL     1      -7.765  50.056 -23.012  1.00  0.00    -0.395 OA
HETATM   31  H39 UNL     1      -8.383  50.551 -22.448  1.00  0.00     0.210 HD
ENDBRANCH  14  30
BRANCH  10  32
HETATM   32  C20 UNL     1      -8.702  48.176 -24.872  1.00  0.00     0.151 C 
HETATM   33  O1  UNL     1      -9.913  48.252 -24.731  1.00  0.00    -0.649 OA
BRANCH  32  34
HETATM   34  O2  UNL     1      -8.086  49.136 -25.592  1.00  0.00    -0.776 OA
HETATM   35  H33 UNL     1      -8.842  49.674 -25.908  1.00  0.00     0.167 HD
ENDBRANCH  32  34
ENDBRANCH  10  32
BRANCH  12  36
HETATM   36  O3  UNL     1      -7.451  45.734 -22.248  1.00  0.00    -0.394 OA
HETATM   37  H35 UNL     1      -7.889  45.423 -21.439  1.00  0.00     0.210 HD
ENDBRANCH  12  36
TORSDOF 8
ENDMDL
MODEL 3
REMARK minimizedAffinity -9.0540638
REMARK  8 active torsions:
REMARK  status: ('A' for Active; 'I' for Inactive)
REMARK    1  A    between atoms: C4_4  and  C5_5 
REMARK    2  A    between atoms: C5_5  and  C6_6 
REMARK    3  A    between atoms: C6_6  and  C7_7 
REMARK    4  A    between atoms: C7_7  and  C9_9 
REMARK    5  A    between atoms: C18_18  and  C20_20 
REMARK    6  A    between atoms: C20_20  and  O2_22 
REMARK    7  A    between atoms: C21_23  and  O3_24 
REMARK    8  A    between atoms: C23_26  and  O4_27 
ROOT
HETATM    1  C9  UNL     1      -4.823  48.656 -21.713  1.00  0.00    -0.002 C 
HETATM    2  C10 UNL     1      -5.288  47.725 -22.854  1.00  0.00     0.006 C 
HETATM    3  C11 UNL     1      -4.563  48.184 -24.134  1.00  0.00     0.011 C 
HETATM    4  C12 UNL     1      -3.527  49.234 -23.683  1.00  0.00    -0.032 C 
HETATM    5  C13 UNL     1      -2.225  48.464 -23.302  1.00  0.00     0.016 C 
HETATM    6  C14 UNL     1      -3.200  50.317 -24.740  1.00  0.00     0.004 C 
HETATM    7  C15 UNL     1      -2.534  49.756 -26.013  1.00  0.00     0.007 C 
HETATM    8  C16 UNL     1      -1.086  50.183 -26.213  1.00  0.00     0.007 C 
HETATM    9  C17 UNL     1      -1.010  51.712 -26.302  1.00  0.00     0.018 C 
HETATM   10  C18 UNL     1       0.317  52.284 -26.904  1.00  0.00     0.072 C 
HETATM   11  C19 UNL     1       0.328  52.045 -28.438  1.00  0.00     0.030 C 
HETATM   12  C21 UNL     1       0.359  53.810 -26.641  1.00  0.00     0.139 C 
HETATM   13  C22 UNL     1       0.269  54.199 -25.156  1.00  0.00     0.065 C 
HETATM   14  C23 UNL     1      -0.317  53.111 -24.254  1.00  0.00     0.130 C 
HETATM   15  C24 UNL     1      -1.406  52.313 -24.943  1.00  0.00    -0.001 A 
HETATM   16  C25 UNL     1      -2.805  52.867 -24.806  1.00  0.00     0.024 A 
HETATM   17  C26 UNL     1      -2.489  51.553 -24.116  1.00  0.00    -0.025 A 
HETATM   18  C27 UNL     1      -2.337  51.598 -22.581  1.00  0.00     0.011 C 
HETATM   19  C28 UNL     1      -3.261  50.741 -21.699  1.00  0.00     0.011 C 
HETATM   20  C29 UNL     1      -4.272  49.902 -22.476  1.00  0.00    -0.032 C 
HETATM   21  C30 UNL     1      -5.442  50.840 -22.885  1.00  0.00     0.016 C 
ENDROOT
BRANCH   1  22
HETATM   22  C7  UNL     1      -5.811  48.899 -20.532  1.00  0.00    -0.014 C 
HETATM   23  C8  UNL     1      -5.031  49.015 -19.215  1.00  0.00     0.010 C 
BRANCH  22  24
HETATM   24  C6  UNL     1      -7.009  47.924 -20.413  1.00  0.00     0.008 C 
BRANCH  24  25
HETATM   25  C5  UNL     1      -8.392  48.424 -20.878  1.00  0.00     0.028 C 
BRANCH  25  26
HETATM   26  C4  UNL     1      -9.523  47.910 -20.027  1.00  0.00    -0.025 C 
HETATM   27  C2  UNL     1      -9.844  48.257 -18.765  1.00  0.00    -0.091 C 
HETATM   28  C1  UNL     1      -9.095  49.244 -17.915  1.00  0.00     0.042 C 
HETATM   29  C3  UNL     1     -11.042  47.647 -18.087  1.00  0.00     0.042 C 
ENDBRANCH  25  26
ENDBRANCH  24  25
ENDBRANCH  22  24
ENDBRANCH   1  22
BRANCH  14  30
HETATM   30  O4  UNL     1       0.705  52.215 -23.826  1.00  0.00    -0.395 OA
HETATM   31  H39 UNL     1       1.274  52.703 -23.207  1.00  0.00     0.210 HD
ENDBRANCH  14  30
BRANCH  10  32
HETATM   32  C20 UNL     1       1.591  51.593 -26.415  1.00  0.00     0.151 C 
HETATM   33  O1  UNL     1       1.685  50.478 -25.923  1.00  0.00    -0.649 OA
BRANCH  32  34
HETATM   34  O2  UNL     1       2.731  52.260 -26.695  1.00  0.00    -0.776 OA
HETATM   35  H33 UNL     1       3.416  51.653 -26.342  1.00  0.00     0.167 HD
ENDBRANCH  32  34
ENDBRANCH  10  32
BRANCH  12  36
HETATM   36  O3  UNL     1      -0.732  54.450 -27.334  1.00  0.00    -0.394 OA
HETATM   37  H35 UNL     1      -0.568  55.408 -27.311  1.00  0.00     0.210 HD
ENDBRANCH  12  36
TORSDOF 8
ENDMDL
MODEL 4
REMARK minimizedAffinity -9.03585625
REMARK  8 active torsions:
REMARK  status: ('A' for Active; 'I' for Inactive)
REMARK    1  A    between atoms: C4_4  and  C5_5 
REMARK    2  A    between atoms: C5_5  and  C6_6 
REMARK    3  A    between atoms: C6_6  and  C7_7 
REMARK    4  A    between atoms: C7_7  and  C9_9 
REMARK    5  A    between atoms: C18_18  and  C20_20 
REMARK    6  A    between atoms: C20_20  and  O2_22 
REMARK    7  A    between atoms: C21_23  and  O3_24 
REMARK    8  A    between atoms: C23_26  and  O4_27 
ROOT
HETATM    1  C9  UNL     1      -4.873  48.702 -21.800  1.00  0.00    -0.002 C 
HETATM    2  C10 UNL     1      -5.355  47.798 -22.956  1.00  0.00     0.006 C 
HETATM    3  C11 UNL     1      -4.621  48.265 -24.229  1.00  0.00     0.011 C 
HETATM    4  C12 UNL     1      -3.566  49.287 -23.760  1.00  0.00    -0.032 C 
HETATM    5  C13 UNL     1      -2.279  48.486 -23.392  1.00  0.00     0.016 C 
HETATM    6  C14 UNL     1      -3.218  50.381 -24.799  1.00  0.00     0.004 C 
HETATM    7  C15 UNL     1      -2.562  49.828 -26.082  1.00  0.00     0.007 C 
HETATM    8  C16 UNL     1      -1.107  50.231 -26.275  1.00  0.00     0.007 C 
HETATM    9  C17 UNL     1      -1.001  51.760 -26.338  1.00  0.00     0.018 C 
HETATM   10  C18 UNL     1       0.336  52.316 -26.931  1.00  0.00     0.072 C 
HETATM   11  C19 UNL     1       0.343  52.102 -28.469  1.00  0.00     0.030 C 
HETATM   12  C21 UNL     1       0.407  53.836 -26.643  1.00  0.00     0.139 C 
HETATM   13  C22 UNL     1       0.324  54.203 -25.152  1.00  0.00     0.065 C 
HETATM   14  C23 UNL     1      -0.283  53.111 -24.268  1.00  0.00     0.130 C 
HETATM   15  C24 UNL     1      -1.387  52.346 -24.970  1.00  0.00    -0.001 A 
HETATM   16  C25 UNL     1      -2.775  52.924 -24.824  1.00  0.00     0.024 A 
HETATM   17  C26 UNL     1      -2.484  51.592 -24.155  1.00  0.00    -0.025 A 
HETATM   18  C27 UNL     1      -2.331  51.610 -22.620  1.00  0.00     0.011 C 
HETATM   19  C28 UNL     1      -3.272  50.756 -21.752  1.00  0.00     0.011 C 
HETATM   20  C29 UNL     1      -4.298  49.950 -22.543  1.00  0.00    -0.032 C 
HETATM   21  C30 UNL     1      -5.450  50.916 -22.936  1.00  0.00     0.016 C 
ENDROOT
BRANCH   1  22
HETATM   22  C7  UNL     1      -5.856  48.945 -20.615  1.00  0.00    -0.014 C 
HETATM   23  C8  UNL     1      -7.086  49.721 -21.108  1.00  0.00     0.010 C 
BRANCH  22  24
HETATM   24  C6  UNL     1      -5.257  49.566 -19.329  1.00  0.00     0.008 C 
BRANCH  24  25
HETATM   25  C5  UNL     1      -4.203  48.744 -18.558  1.00  0.00     0.028 C 
BRANCH  25  26
HETATM   26  C4  UNL     1      -2.910  49.488 -18.352  1.00  0.00    -0.025 C 
HETATM   27  C2  UNL     1      -1.704  49.235 -18.897  1.00  0.00    -0.091 C 
HETATM   28  C1  UNL     1      -1.392  48.104 -19.836  1.00  0.00     0.042 C 
HETATM   29  C3  UNL     1      -0.525  50.120 -18.588  1.00  0.00     0.042 C 
ENDBRANCH  25  26
ENDBRANCH  24  25
ENDBRANCH  22  24
ENDBRANCH   1  22
BRANCH  14  30
HETATM   30  O4  UNL     1       0.722  52.189 -23.855  1.00  0.00    -0.395 OA
HETATM   31  H39 UNL     1       1.301  52.656 -23.228  1.00  0.00     0.210 HD
ENDBRANCH  14  30
BRANCH  10  32
HETATM   32  C20 UNL     1       1.597  51.592 -26.453  1.00  0.00     0.151 C 
HETATM   33  O1  UNL     1       1.665  50.482 -25.949  1.00  0.00    -0.649 OA
BRANCH  32  34
HETATM   34  O2  UNL     1       2.751  52.221 -26.760  1.00  0.00    -0.776 OA
HETATM   35  H33 UNL     1       3.424  51.599 -26.411  1.00  0.00     0.167 HD
ENDBRANCH  32  34
ENDBRANCH  10  32
BRANCH  12  36
HETATM   36  O3  UNL     1      -0.671  54.509 -27.325  1.00  0.00    -0.394 OA
HETATM   37  H35 UNL     1      -0.489  55.462 -27.287  1.00  0.00     0.210 HD
ENDBRANCH  12  36
TORSDOF 8
ENDMDL
MODEL 5
REMARK minimizedAffinity -8.81573486
REMARK  8 active torsions:
REMARK  status: ('A' for Active; 'I' for Inactive)
REMARK    1  A    between atoms: C4_4  and  C5_5 
REMARK    2  A    between atoms: C5_5  and  C6_6 
REMARK    3  A    between atoms: C6_6  and  C7_7 
REMARK    4  A    between atoms: C7_7  and  C9_9 
REMARK    5  A    between atoms: C18_18  and  C20_20 
REMARK    6  A    between atoms: C20_20  and  O2_22 
REMARK    7  A    between atoms: C21_23  and  O3_24 
REMARK    8  A    between atoms: C23_26  and  O4_27 
ROOT
HETATM    1  C9  UNL     1       0.131  51.597 -20.832  1.00  0.00    -0.002 C 
HETATM    2  C10 UNL     1      -0.187  52.412 -19.559  1.00  0.00     0.006 C 
HETATM    3  C11 UNL     1      -1.453  51.794 -18.934  1.00  0.00     0.011 C 
HETATM    4  C12 UNL     1      -1.732  50.502 -19.727  1.00  0.00    -0.032 C 
HETATM    5  C13 UNL     1      -0.919  49.358 -19.045  1.00  0.00     0.016 C 
HETATM    6  C14 UNL     1      -3.225  50.101 -19.807  1.00  0.00     0.004 C 
HETATM    7  C15 UNL     1      -3.849  49.762 -18.437  1.00  0.00     0.007 C 
HETATM    8  C16 UNL     1      -4.234  48.299 -18.260  1.00  0.00     0.007 C 
HETATM    9  C17 UNL     1      -5.259  47.905 -19.331  1.00  0.00     0.018 C 
HETATM   10  C18 UNL     1      -6.052  46.586 -19.047  1.00  0.00     0.072 C 
HETATM   11  C19 UNL     1      -7.097  46.846 -17.928  1.00  0.00     0.030 C 
HETATM   12  C21 UNL     1      -6.802  46.175 -20.339  1.00  0.00     0.139 C 
HETATM   13  C22 UNL     1      -5.891  45.965 -21.560  1.00  0.00     0.065 C 
HETATM   14  C23 UNL     1      -4.522  46.640 -21.448  1.00  0.00     0.130 C 
HETATM   15  C24 UNL     1      -4.587  47.963 -20.712  1.00  0.00    -0.001 A 
HETATM   16  C25 UNL     1      -4.864  49.173 -21.573  1.00  0.00     0.024 A 
HETATM   17  C26 UNL     1      -3.495  49.056 -20.929  1.00  0.00    -0.025 A 
HETATM   18  C27 UNL     1      -2.324  48.680 -21.861  1.00  0.00     0.011 C 
HETATM   19  C28 UNL     1      -1.123  49.633 -21.997  1.00  0.00     0.011 C 
HETATM   20  C29 UNL     1      -1.230  50.902 -21.156  1.00  0.00    -0.032 C 
HETATM   21  C30 UNL     1      -2.167  51.886 -21.912  1.00  0.00     0.016 C 
ENDROOT
BRANCH   1  22
HETATM   22  C7  UNL     1       0.872  52.329 -21.991  1.00  0.00    -0.014 C 
HETATM   23  C8  UNL     1       1.201  53.769 -21.574  1.00  0.00     0.010 C 
BRANCH  22  24
HETATM   24  C6  UNL     1       0.210  52.269 -23.390  1.00  0.00     0.008 C 
BRANCH  24  25
HETATM   25  C5  UNL     1       0.727  53.238 -24.473  1.00  0.00     0.028 C 
BRANCH  25  26
HETATM   26  C4  UNL     1       0.377  52.803 -25.872  1.00  0.00    -0.025 C 
HETATM   27  C2  UNL     1       1.084  52.013 -26.704  1.00  0.00    -0.091 C 
HETATM   28  C1  UNL     1       2.426  51.408 -26.400  1.00  0.00     0.042 C 
HETATM   29  C3  UNL     1       0.547  51.665 -28.067  1.00  0.00     0.042 C 
ENDBRANCH  25  26
ENDBRANCH  24  25
ENDBRANCH  22  24
ENDBRANCH   1  22
BRANCH  14  30
HETATM   30  O4  UNL     1      -3.601  45.787 -20.774  1.00  0.00    -0.395 OA
HETATM   31  H39 UNL     1      -3.409  45.042 -21.369  1.00  0.00     0.210 HD
ENDBRANCH  14  30
BRANCH  10  32
HETATM   32  C20 UNL     1      -5.204  45.436 -18.498  1.00  0.00     0.151 C 
HETATM   33  O1  UNL     1      -4.094  45.512 -17.994  1.00  0.00    -0.649 OA
BRANCH  32  34
HETATM   34  O2  UNL     1      -5.838  44.245 -18.461  1.00  0.00    -0.776 OA
HETATM   35  H33 UNL     1      -5.159  43.663 -18.056  1.00  0.00     0.167 HD
ENDBRANCH  32  34
ENDBRANCH  10  32
BRANCH  12  36
HETATM   36  O3  UNL     1      -7.771  47.188 -20.678  1.00  0.00    -0.394 OA
HETATM   37  H35 UNL     1      -8.349  46.818 -21.366  1.00  0.00     0.210 HD
ENDBRANCH  12  36
TORSDOF 8
ENDMDL
MODEL 6
REMARK minimizedAffinity -8.75120068
REMARK  8 active torsions:
REMARK  status: ('A' for Active; 'I' for Inactive)
REMARK    1  A    between atoms: C4_4  and  C5_5 
REMARK    2  A    between atoms: C5_5  and  C6_6 
REMARK    3  A    between atoms: C6_6  and  C7_7 
REMARK    4  A    between atoms: C7_7  and  C9_9 
REMARK    5  A    between atoms: C18_18  and  C20_20 
REMARK    6  A    between atoms: C20_20  and  O2_22 
REMARK    7  A    between atoms: C21_23  and  O3_24 
REMARK    8  A    between atoms: C23_26  and  O4_27 
ROOT
HETATM    1  C9  UNL     1      -1.763  50.392 -23.058  1.00  0.00    -0.002 C 
HETATM    2  C10 UNL     1      -0.798  51.593 -22.946  1.00  0.00     0.006 C 
HETATM    3  C11 UNL     1      -0.508  51.800 -21.446  1.00  0.00     0.011 C 
HETATM    4  C12 UNL     1      -1.132  50.590 -20.722  1.00  0.00    -0.032 C 
HETATM    5  C13 UNL     1      -0.059  49.458 -20.705  1.00  0.00     0.016 C 
HETATM    6  C14 UNL     1      -1.608  50.875 -19.276  1.00  0.00     0.004 C 
HETATM    7  C15 UNL     1      -0.464  51.255 -18.313  1.00  0.00     0.007 C 
HETATM    8  C16 UNL     1      -0.185  50.227 -17.224  1.00  0.00     0.007 C 
HETATM    9  C17 UNL     1      -1.445  50.028 -16.371  1.00  0.00     0.018 C 
HETATM   10  C18 UNL     1      -1.216  49.331 -14.989  1.00  0.00     0.072 C 
HETATM   11  C19 UNL     1      -0.534  50.332 -14.017  1.00  0.00     0.030 C 
HETATM   12  C21 UNL     1      -2.594  48.934 -14.404  1.00  0.00     0.139 C 
HETATM   13  C22 UNL     1      -3.422  48.005 -15.308  1.00  0.00     0.065 C 
HETATM   14  C23 UNL     1      -2.998  48.016 -16.778  1.00  0.00     0.130 C 
HETATM   15  C24 UNL     1      -2.540  49.385 -17.238  1.00  0.00    -0.001 A 
HETATM   16  C25 UNL     1      -3.625  50.288 -17.776  1.00  0.00     0.024 A 
HETATM   17  C26 UNL     1      -2.577  49.778 -18.748  1.00  0.00    -0.025 A 
HETATM   18  C27 UNL     1      -3.026  48.677 -19.732  1.00  0.00     0.011 C 
HETATM   19  C28 UNL     1      -2.931  48.927 -21.248  1.00  0.00     0.011 C 
HETATM   20  C29 UNL     1      -2.379  50.299 -21.625  1.00  0.00    -0.032 C 
HETATM   21  C30 UNL     1      -3.535  51.327 -21.472  1.00  0.00     0.016 C 
ENDROOT
BRANCH   1  22
HETATM   22  C7  UNL     1      -2.735  50.358 -24.275  1.00  0.00    -0.014 C 
HETATM   23  C8  UNL     1      -3.039  48.903 -24.660  1.00  0.00     0.010 C 
BRANCH  22  24
HETATM   24  C6  UNL     1      -2.340  51.211 -25.506  1.00  0.00     0.008 C 
BRANCH  24  25
HETATM   25  C5  UNL     1      -1.473  50.545 -26.595  1.00  0.00     0.028 C 
BRANCH  25  26
HETATM   26  C4  UNL     1       0.004  50.660 -26.326  1.00  0.00    -0.025 C 
HETATM   27  C2  UNL     1       0.925  51.371 -27.006  1.00  0.00    -0.091 C 
HETATM   28  C1  UNL     1       0.654  52.203 -28.229  1.00  0.00     0.042 C 
HETATM   29  C3  UNL     1       2.363  51.383 -26.561  1.00  0.00     0.042 C 
ENDBRANCH  25  26
ENDBRANCH  24  25
ENDBRANCH  22  24
ENDBRANCH   1  22
BRANCH  14  30
HETATM   30  O4  UNL     1      -1.944  47.082 -16.999  1.00  0.00    -0.395 OA
HETATM   31  H39 UNL     1      -2.324  46.192 -16.907  1.00  0.00     0.210 HD
ENDBRANCH  14  30
BRANCH  10  32
HETATM   32  C20 UNL     1      -0.255  48.140 -15.024  1.00  0.00     0.151 C 
HETATM   33  O1  UNL     1      -0.281  47.149 -14.311  1.00  0.00    -0.649 OA
BRANCH  32  34
HETATM   34  O2  UNL     1       0.619  48.159 -16.053  1.00  0.00    -0.776 OA
HETATM   35  H33 UNL     1       1.108  47.319 -15.922  1.00  0.00     0.167 HD
ENDBRANCH  32  34
ENDBRANCH  10  32
BRANCH  12  36
HETATM   36  O3  UNL     1      -3.375  50.121 -14.156  1.00  0.00    -0.394 OA
HETATM   37  H35 UNL     1      -4.140  49.858 -13.618  1.00  0.00     0.210 HD
ENDBRANCH  12  36
TORSDOF 8
ENDMDL
MODEL 7
REMARK minimizedAffinity -8.73332882
REMARK  8 active torsions:
REMARK  status: ('A' for Active; 'I' for Inactive)
REMARK    1  A    between atoms: C4_4  and  C5_5 
REMARK    2  A    between atoms: C5_5  and  C6_6 
REMARK    3  A    between atoms: C6_6  and  C7_7 
REMARK    4  A    between atoms: C7_7  and  C9_9 
REMARK    5  A    between atoms: C18_18  and  C20_20 
REMARK    6  A    between atoms: C20_20  and  O2_22 
REMARK    7  A    between atoms: C21_23  and  O3_24 
REMARK    8  A    between atoms: C23_26  and  O4_27 
ROOT
HETATM    1  C9  UNL     1       0.330  51.977 -23.066  1.00  0.00    -0.002 C 
HETATM    2  C10 UNL     1       0.502  52.838 -21.796  1.00  0.00     0.006 C 
HETATM    3  C11 UNL     1      -0.625  52.437 -20.823  1.00  0.00     0.011 C 
HETATM    4  C12 UNL     1      -1.307  51.204 -21.449  1.00  0.00    -0.032 C 
HETATM    5  C13 UNL     1      -0.526  49.946 -20.956  1.00  0.00     0.016 C 
HETATM    6  C14 UNL     1      -2.809  51.050 -21.105  1.00  0.00     0.004 C 
HETATM    7  C15 UNL     1      -3.079  50.823 -19.603  1.00  0.00     0.007 C 
HETATM    8  C16 UNL     1      -3.623  49.444 -19.258  1.00  0.00     0.007 C 
HETATM    9  C17 UNL     1      -4.950  49.216 -19.993  1.00  0.00     0.018 C 
HETATM   10  C18 UNL     1      -5.829  48.045 -19.443  1.00  0.00     0.072 C 
HETATM   11  C19 UNL     1      -6.476  48.476 -18.098  1.00  0.00     0.030 C 
HETATM   12  C21 UNL     1      -6.958  47.756 -20.464  1.00  0.00     0.139 C 
HETATM   13  C22 UNL     1      -6.460  47.396 -21.873  1.00  0.00     0.065 C 
HETATM   14  C23 UNL     1      -5.025  47.839 -22.166  1.00  0.00     0.130 C 
HETATM   15  C24 UNL     1      -4.681  49.159 -21.505  1.00  0.00    -0.001 A 
HETATM   16  C25 UNL     1      -4.991  50.394 -22.318  1.00  0.00     0.024 A 
HETATM   17  C26 UNL     1      -3.533  50.058 -22.061  1.00  0.00    -0.025 A 
HETATM   18  C27 UNL     1      -2.734  49.493 -23.254  1.00  0.00     0.011 C 
HETATM   19  C28 UNL     1      -1.484  50.238 -23.754  1.00  0.00     0.011 C 
HETATM   20  C29 UNL     1      -1.159  51.511 -22.978  1.00  0.00    -0.032 C 
HETATM   21  C30 UNL     1      -2.102  52.631 -23.501  1.00  0.00     0.016 C 
ENDROOT
BRANCH   1  22
HETATM   22  C7  UNL     1       0.830  52.574 -24.416  1.00  0.00    -0.014 C 
HETATM   23  C8  UNL     1       0.110  53.899 -24.701  1.00  0.00     0.010 C 
BRANCH  22  24
HETATM   24  C6  UNL     1       0.812  51.630 -25.644  1.00  0.00     0.008 C 
BRANCH  24  25
HETATM   25  C5  UNL     1       0.033  52.091 -26.893  1.00  0.00     0.028 C 
BRANCH  25  26
HETATM   26  C4  UNL     1      -0.996  51.090 -27.351  1.00  0.00    -0.025 C 
HETATM   27  C2  UNL     1      -2.332  51.132 -27.186  1.00  0.00    -0.091 C 
HETATM   28  C1  UNL     1      -3.089  52.211 -26.464  1.00  0.00     0.042 C 
HETATM   29  C3  UNL     1      -3.205  50.040 -27.747  1.00  0.00     0.042 C 
ENDBRANCH  25  26
ENDBRANCH  24  25
ENDBRANCH  22  24
ENDBRANCH   1  22
BRANCH  14  30
HETATM   30  O4  UNL     1      -4.099  46.850 -21.724  1.00  0.00    -0.395 OA
HETATM   31  H39 UNL     1      -4.195  46.082 -22.312  1.00  0.00     0.210 HD
ENDBRANCH  14  30
BRANCH  10  32
HETATM   32  C20 UNL     1      -5.053  46.775 -19.087  1.00  0.00     0.151 C 
HETATM   33  O1  UNL     1      -5.420  45.619 -19.238  1.00  0.00    -0.649 OA
BRANCH  32  34
HETATM   34  O2  UNL     1      -3.781  46.990 -18.691  1.00  0.00    -0.776 OA
HETATM   35  H33 UNL     1      -3.453  46.078 -18.548  1.00  0.00     0.167 HD
ENDBRANCH  32  34
ENDBRANCH  10  32
BRANCH  12  36
HETATM   36  O3  UNL     1      -7.814  48.911 -20.579  1.00  0.00    -0.394 OA
HETATM   37  H35 UNL     1      -8.608  48.637 -21.067  1.00  0.00     0.210 HD
ENDBRANCH  12  36
TORSDOF 8
ENDMDL
MODEL 8
REMARK minimizedAffinity -8.72947788
REMARK  8 active torsions:
REMARK  status: ('A' for Active; 'I' for Inactive)
REMARK    1  A    between atoms: C4_4  and  C5_5 
REMARK    2  A    between atoms: C5_5  and  C6_6 
REMARK    3  A    between atoms: C6_6  and  C7_7 
REMARK    4  A    between atoms: C7_7  and  C9_9 
REMARK    5  A    between atoms: C18_18  and  C20_20 
REMARK    6  A    between atoms: C20_20  and  O2_22 
REMARK    7  A    between atoms: C21_23  and  O3_24 
REMARK    8  A    between atoms: C23_26  and  O4_27 
ROOT
HETATM    1  C9  UNL     1      -1.000  51.071 -23.604  1.00  0.00    -0.002 C 
HETATM    2  C10 UNL     1      -0.200  52.379 -23.427  1.00  0.00     0.006 C 
HETATM    3  C11 UNL     1      -0.099  52.645 -21.912  1.00  0.00     0.011 C 
HETATM    4  C12 UNL     1      -0.653  51.382 -21.222  1.00  0.00    -0.032 C 
HETATM    5  C13 UNL     1       0.536  50.386 -21.058  1.00  0.00     0.016 C 
HETATM    6  C14 UNL     1      -1.313  51.634 -19.843  1.00  0.00     0.004 C 
HETATM    7  C15 UNL     1      -0.332  52.163 -18.777  1.00  0.00     0.007 C 
HETATM    8  C16 UNL     1      -0.055  51.196 -17.634  1.00  0.00     0.007 C 
HETATM    9  C17 UNL     1      -1.368  50.863 -16.913  1.00  0.00     0.018 C 
HETATM   10  C18 UNL     1      -1.210  50.222 -15.495  1.00  0.00     0.072 C 
HETATM   11  C19 UNL     1      -0.759  51.314 -14.486  1.00  0.00     0.030 C 
HETATM   12  C21 UNL     1      -2.588  49.675 -15.046  1.00  0.00     0.139 C 
HETATM   13  C22 UNL     1      -3.200  48.638 -16.004  1.00  0.00     0.065 C 
HETATM   14  C23 UNL     1      -2.623  48.674 -17.421  1.00  0.00     0.130 C 
HETATM   15  C24 UNL     1      -2.280  50.080 -17.871  1.00  0.00    -0.001 A 
HETATM   16  C25 UNL     1      -3.398  50.838 -18.547  1.00  0.00     0.024 A 
HETATM   17  C26 UNL     1      -2.199  50.439 -19.387  1.00  0.00    -0.025 A 
HETATM   18  C27 UNL     1      -2.408  49.276 -20.380  1.00  0.00     0.011 C 
HETATM   19  C28 UNL     1      -2.180  49.509 -21.884  1.00  0.00     0.011 C 
HETATM   20  C29 UNL     1      -1.753  50.930 -22.242  1.00  0.00    -0.032 C 
HETATM   21  C30 UNL     1      -3.030  51.816 -22.243  1.00  0.00     0.016 C 
ENDROOT
BRANCH   1  22
HETATM   22  C7  UNL     1      -1.824  50.900 -24.916  1.00  0.00    -0.014 C 
HETATM   23  C8  UNL     1      -2.279  52.273 -25.430  1.00  0.00     0.010 C 
BRANCH  22  24
HETATM   24  C6  UNL     1      -2.990  49.880 -24.879  1.00  0.00     0.008 C 
BRANCH  24  25
HETATM   25  C5  UNL     1      -2.800  48.545 -25.627  1.00  0.00     0.028 C 
BRANCH  25  26
HETATM   26  C4  UNL     1      -3.346  48.572 -27.031  1.00  0.00    -0.025 C 
HETATM   27  C2  UNL     1      -4.596  48.288 -27.448  1.00  0.00    -0.091 C 
HETATM   28  C1  UNL     1      -5.729  47.846 -26.565  1.00  0.00     0.042 C 
HETATM   29  C3  UNL     1      -4.960  48.402 -28.904  1.00  0.00     0.042 C 
ENDBRANCH  25  26
ENDBRANCH  24  25
ENDBRANCH  22  24
ENDBRANCH   1  22
BRANCH  14  30
HETATM   30  O4  UNL     1      -1.451  47.868 -17.502  1.00  0.00    -0.395 OA
HETATM   31  H39 UNL     1      -1.732  46.941 -17.423  1.00  0.00     0.210 HD
ENDBRANCH  14  30
BRANCH  10  32
HETATM   32  C20 UNL     1      -0.119  49.154 -15.392  1.00  0.00     0.151 C 
HETATM   33  O1  UNL     1      -0.072  48.219 -14.607  1.00  0.00    -0.649 OA
BRANCH  32  34
HETATM   34  O2  UNL     1       0.803  49.202 -16.377  1.00  0.00    -0.776 OA
HETATM   35  H33 UNL     1       1.376  48.436 -16.159  1.00  0.00     0.167 HD
ENDBRANCH  32  34
ENDBRANCH  10  32
BRANCH  12  36
HETATM   36  O3  UNL     1      -3.524  50.765 -14.918  1.00  0.00    -0.394 OA
HETATM   37  H35 UNL     1      -4.307  50.422 -14.456  1.00  0.00     0.210 HD
ENDBRANCH  12  36
TORSDOF 8
ENDMDL
MODEL 9
REMARK minimizedAffinity -8.71492767
REMARK  8 active torsions:
REMARK  status: ('A' for Active; 'I' for Inactive)
REMARK    1  A    between atoms: C4_4  and  C5_5 
REMARK    2  A    between atoms: C5_5  and  C6_6 
REMARK    3  A    between atoms: C6_6  and  C7_7 
REMARK    4  A    between atoms: C7_7  and  C9_9 
REMARK    5  A    between atoms: C18_18  and  C20_20 
REMARK    6  A    between atoms: C20_20  and  O2_22 
REMARK    7  A    between atoms: C21_23  and  O3_24 
REMARK    8  A    between atoms: C23_26  and  O4_27 
ROOT
HETATM    1  C9  UNL     1      -1.197  51.062 -16.808  1.00  0.00    -0.002 C 
HETATM    2  C10 UNL     1       0.333  51.149 -16.995  1.00  0.00     0.006 C 
HETATM    3  C11 UNL     1       0.608  51.047 -18.509  1.00  0.00     0.011 C 
HETATM    4  C12 UNL     1      -0.770  51.118 -19.197  1.00  0.00    -0.032 C 
HETATM    5  C13 UNL     1      -1.095  52.626 -19.426  1.00  0.00     0.016 C 
HETATM    6  C14 UNL     1      -0.861  50.357 -20.543  1.00  0.00     0.004 C 
HETATM    7  C15 UNL     1       0.061  50.929 -21.639  1.00  0.00     0.007 C 
HETATM    8  C16 UNL     1      -0.670  51.576 -22.809  1.00  0.00     0.007 C 
HETATM    9  C17 UNL     1      -1.581  50.541 -23.480  1.00  0.00     0.018 C 
HETATM   10  C18 UNL     1      -2.080  50.917 -24.915  1.00  0.00     0.072 C 
HETATM   11  C19 UNL     1      -0.908  50.761 -25.923  1.00  0.00     0.030 C 
HETATM   12  C21 UNL     1      -3.210  49.937 -25.316  1.00  0.00     0.139 C 
HETATM   13  C22 UNL     1      -4.408  49.923 -24.352  1.00  0.00     0.065 C 
HETATM   14  C23 UNL     1      -4.101  50.477 -22.959  1.00  0.00     0.130 C 
HETATM   15  C24 UNL     1      -2.696  50.143 -22.500  1.00  0.00    -0.001 A 
HETATM   16  C25 UNL     1      -2.546  48.831 -21.766  1.00  0.00     0.024 A 
HETATM   17  C26 UNL     1      -2.334  50.114 -20.982  1.00  0.00    -0.025 A 
HETATM   18  C27 UNL     1      -3.455  50.516 -20.001  1.00  0.00     0.011 C 
HETATM   19  C28 UNL     1      -3.136  50.675 -18.504  1.00  0.00     0.011 C 
HETATM   20  C29 UNL     1      -1.680  50.403 -18.140  1.00  0.00    -0.032 C 
HETATM   21  C30 UNL     1      -1.494  48.861 -18.072  1.00  0.00     0.016 C 
ENDROOT
BRANCH   1  22
HETATM   22  C7  UNL     1      -1.728  50.472 -15.467  1.00  0.00    -0.014 C 
HETATM   23  C8  UNL     1      -1.708  48.938 -15.526  1.00  0.00     0.010 C 
BRANCH  22  24
HETATM   24  C6  UNL     1      -3.087  51.014 -14.957  1.00  0.00     0.008 C 
BRANCH  24  25
HETATM   25  C5  UNL     1      -3.072  51.960 -13.739  1.00  0.00     0.028 C 
BRANCH  25  26
HETATM   26  C4  UNL     1      -3.463  51.278 -12.455  1.00  0.00    -0.025 C 
HETATM   27  C2  UNL     1      -3.873  51.840 -11.301  1.00  0.00    -0.091 C 
HETATM   28  C1  UNL     1      -4.001  53.316 -11.048  1.00  0.00     0.042 C 
HETATM   29  C3  UNL     1      -4.253  50.980 -10.125  1.00  0.00     0.042 C 
ENDBRANCH  25  26
ENDBRANCH  24  25
ENDBRANCH  22  24
ENDBRANCH   1  22
BRANCH  14  30
HETATM   30  O4  UNL     1      -4.264  51.893 -22.940  1.00  0.00    -0.395 OA
HETATM   31  H39 UNL     1      -5.216  52.075 -23.022  1.00  0.00     0.210 HD
ENDBRANCH  14  30
BRANCH  10  32
HETATM   32  C20 UNL     1      -2.514  52.375 -25.080  1.00  0.00     0.151 C 
HETATM   33  O1  UNL     1      -2.254  53.311 -24.339  1.00  0.00    -0.649 OA
BRANCH  32  34
HETATM   34  O2  UNL     1      -3.136  52.644 -26.247  1.00  0.00    -0.776 OA
HETATM   35  H33 UNL     1      -3.298  53.609 -26.177  1.00  0.00     0.167 HD
ENDBRANCH  32  34
ENDBRANCH  10  32
BRANCH  12  36
HETATM   36  O3  UNL     1      -2.684  48.595 -25.388  1.00  0.00    -0.394 OA
HETATM   37  H35 UNL     1      -3.355  48.044 -25.823  1.00  0.00     0.210 HD
ENDBRANCH  12  36
TORSDOF 8
ENDMDL
