MODEL 1
REMARK minimizedAffinity -7.3298974
REMARK CNNscore 0.687220216
REMARK CNNaffinity 6.7485733
REMARK  6 active torsions:
REMARK  status: ('A' for Active; 'I' for Inactive)
REMARK    1  A    between atoms: C2_2  and  C30_33 
REMARK    2  A    between atoms: C3_3  and  C4_4 
REMARK    3  A    between atoms: C4_4  and  C5_5 
REMARK    4  A    between atoms: C5_5  and  C6_6 
REMARK    5  A    between atoms: C6_6  and  C8_8 
REMARK    6  A    between atoms: C30_33  and  O5_35 
ROOT
HETATM    1  C8  UNL     1       0.734  12.441  18.388  1.00  0.00    -0.001 C 
HETATM    2  C9  UNL     1      -0.422  13.472  18.500  1.00  0.00     0.007 C 
HETATM    3  C10 UNL     1      -1.657  12.831  17.840  1.00  0.00     0.015 C 
HETATM    4  C11 UNL     1      -1.315  11.333  17.712  1.00  0.00    -0.004 C 
HETATM    5  C12 UNL     1      -1.622  10.677  19.094  1.00  0.00     0.021 C 
HETATM    6  C13 UNL     1      -2.028  10.454  16.696  1.00  0.00     0.007 C 
HETATM    7  C14 UNL     1      -1.462   9.338  16.170  1.00  0.00     0.007 C 
HETATM    8  C15 UNL     1      -0.021   9.031  16.560  1.00  0.00     0.157 C 
HETATM    9  O1  UNL     1       0.511   7.978  16.212  1.00  0.00    -0.293 OA
HETATM   10  C16 UNL     1       0.792  10.021  17.388  1.00  0.00     0.094 C 
HETATM   11  C17 UNL     1       0.208  11.430  17.325  1.00  0.00    -0.022 C 
HETATM   12  C18 UNL     1       0.439  11.987  15.889  1.00  0.00     0.017 C 
HETATM   13  C19 UNL     1      -2.170   8.367  15.189  1.00  0.00    -0.007 C 
HETATM   14  C20 UNL     1      -1.528   8.604  13.800  1.00  0.00     0.021 C 
HETATM   15  C21 UNL     1      -1.966   6.871  15.594  1.00  0.00     0.022 C 
HETATM   16  C22 UNL     1      -3.094   5.911  15.218  1.00  0.00     0.080 C 
HETATM   17  C23 UNL     1      -3.883   6.401  14.030  1.00  0.00     0.135 C 
HETATM   18  O2  UNL     1      -4.030   5.698  13.032  1.00  0.00    -0.297 OA
HETATM   19  C24 UNL     1      -4.549   7.773  14.178  1.00  0.00     0.018 C 
HETATM   20  C25 UNL     1      -4.720   8.421  12.789  1.00  0.00     0.023 C 
HETATM   21  C26 UNL     1      -5.963   7.517  14.744  1.00  0.00     0.023 C 
HETATM   22  C27 UNL     1      -3.719   8.634  15.190  1.00  0.00     0.021 C 
HETATM   23  C28 UNL     1      -4.021  10.129  15.103  1.00  0.00     0.090 C 
HETATM   24  C29 UNL     1      -3.420  10.825  16.295  1.00  0.00     0.157 C 
HETATM   25  O3  UNL     1      -4.049  11.690  16.895  1.00  0.00    -0.293 OA
ENDROOT
BRANCH   1  26
HETATM   26  C6  UNL     1       2.151  13.087  18.332  1.00  0.00    -0.014 C 
HETATM   27  C7  UNL     1       2.876  13.055  16.980  1.00  0.00     0.010 C 
BRANCH  26  28
HETATM   28  C5  UNL     1       3.068  12.541  19.452  1.00  0.00     0.008 C 
BRANCH  28  29
HETATM   29  C4  UNL     1       2.437  12.506  20.854  1.00  0.00     0.028 C 
BRANCH  29  30
HETATM   30  C3  UNL     1       2.177  11.104  21.334  1.00  0.00    -0.013 C 
HETATM   31  C2  UNL     1       2.887  10.386  22.229  1.00  0.00     0.008 C 
HETATM   32  C1  UNL     1       4.121  10.843  22.951  1.00  0.00     0.055 C 
BRANCH  31  33
HETATM   33  C30 UNL     1       2.471   9.002  22.590  1.00  0.00     0.171 C 
HETATM   34  O4  UNL     1       2.002   8.185  21.817  1.00  0.00    -0.646 OA
BRANCH  33  35
HETATM   35  O5  UNL     1       2.671   8.689  23.881  1.00  0.00    -0.773 OA
HETATM   36  H42 UNL     1       2.357   7.763  23.942  1.00  0.00     0.167 HD
ENDBRANCH  33  35
ENDBRANCH  31  33
ENDBRANCH  29  30
ENDBRANCH  28  29
ENDBRANCH  26  28
ENDBRANCH   1  26
TORSDOF 6
ENDMDL
MODEL 2
REMARK minimizedAffinity -7.31222534
REMARK CNNscore 0.442854166
REMARK CNNaffinity 6.5555892
REMARK  6 active torsions:
REMARK  status: ('A' for Active; 'I' for Inactive)
REMARK    1  A    between atoms: C2_2  and  C30_33 
REMARK    2  A    between atoms: C3_3  and  C4_4 
REMARK    3  A    between atoms: C4_4  and  C5_5 
REMARK    4  A    between atoms: C5_5  and  C6_6 
REMARK    5  A    between atoms: C6_6  and  C8_8 
REMARK    6  A    between atoms: C30_33  and  O5_35 
ROOT
HETATM    1  C8  UNL     1     -12.072   8.930  14.685  1.00  0.00    -0.001 C 
HETATM    2  C9  UNL     1     -11.997   9.172  13.153  1.00  0.00     0.007 C 
HETATM    3  C10 UNL     1     -13.286   8.589  12.544  1.00  0.00     0.015 C 
HETATM    4  C11 UNL     1     -14.237   8.378  13.740  1.00  0.00    -0.004 C 
HETATM    5  C12 UNL     1     -14.911   9.755  14.034  1.00  0.00     0.021 C 
HETATM    6  C13 UNL     1     -15.390   7.391  13.656  1.00  0.00     0.007 C 
HETATM    7  C14 UNL     1     -15.912   6.780  14.749  1.00  0.00     0.007 C 
HETATM    8  C15 UNL     1     -15.234   7.042  16.089  1.00  0.00     0.157 C 
HETATM    9  O1  UNL     1     -15.725   6.614  17.133  1.00  0.00    -0.293 OA
HETATM   10  C16 UNL     1     -13.936   7.839  16.166  1.00  0.00     0.094 C 
HETATM   11  C17 UNL     1     -13.211   7.875  14.823  1.00  0.00    -0.022 C 
HETATM   12  C18 UNL     1     -12.664   6.447  14.528  1.00  0.00     0.017 C 
HETATM   13  C19 UNL     1     -17.132   5.822  14.729  1.00  0.00    -0.007 C 
HETATM   14  C20 UNL     1     -16.573   4.396  14.958  1.00  0.00     0.021 C 
HETATM   15  C21 UNL     1     -18.157   6.154  15.862  1.00  0.00     0.022 C 
HETATM   16  C22 UNL     1     -19.621   5.833  15.563  1.00  0.00     0.080 C 
HETATM   17  C23 UNL     1     -19.762   4.731  14.543  1.00  0.00     0.135 C 
HETATM   18  O2  UNL     1     -20.423   3.723  14.787  1.00  0.00    -0.297 OA
HETATM   19  C24 UNL     1     -19.113   4.982  13.178  1.00  0.00     0.018 C 
HETATM   20  C25 UNL     1     -18.747   3.637  12.520  1.00  0.00     0.023 C 
HETATM   21  C26 UNL     1     -20.190   5.649  12.295  1.00  0.00     0.023 C 
HETATM   22  C27 UNL     1     -17.900   5.957  13.364  1.00  0.00     0.021 C 
HETATM   23  C28 UNL     1     -16.931   5.950  12.184  1.00  0.00     0.090 C 
HETATM   24  C29 UNL     1     -15.987   7.115  12.313  1.00  0.00     0.157 C 
HETATM   25  O3  UNL     1     -15.699   7.796  11.332  1.00  0.00    -0.293 OA
ENDROOT
BRANCH   1  26
HETATM   26  C6  UNL     1     -10.680   8.786  15.368  1.00  0.00    -0.014 C 
HETATM   27  C7  UNL     1      -9.643   9.876  15.070  1.00  0.00     0.010 C 
BRANCH  26  28
HETATM   28  C5  UNL     1     -10.074   7.382  15.131  1.00  0.00     0.008 C 
BRANCH  28  29
HETATM   29  C4  UNL     1      -8.565   7.362  14.837  1.00  0.00     0.028 C 
BRANCH  29  30
HETATM   30  C3  UNL     1      -8.059   5.983  14.515  1.00  0.00    -0.013 C 
HETATM   31  C2  UNL     1      -8.161   5.309  13.351  1.00  0.00     0.008 C 
HETATM   32  C1  UNL     1      -8.822   5.804  12.098  1.00  0.00     0.055 C 
BRANCH  31  33
HETATM   33  C30 UNL     1      -7.587   3.941  13.215  1.00  0.00     0.171 C 
HETATM   34  O4  UNL     1      -6.400   3.670  13.265  1.00  0.00    -0.646 OA
BRANCH  33  35
HETATM   35  O5  UNL     1      -8.505   2.976  13.044  1.00  0.00    -0.773 OA
HETATM   36  H42 UNL     1      -7.967   2.159  12.981  1.00  0.00     0.167 HD
ENDBRANCH  33  35
ENDBRANCH  31  33
ENDBRANCH  29  30
ENDBRANCH  28  29
ENDBRANCH  26  28
ENDBRANCH   1  26
TORSDOF 6
ENDMDL
MODEL 3
REMARK minimizedAffinity -8.96404457
REMARK CNNscore 0.439030588
REMARK CNNaffinity 6.92984533
REMARK  6 active torsions:
REMARK  status: ('A' for Active; 'I' for Inactive)
REMARK    1  A    between atoms: C2_2  and  C30_33 
REMARK    2  A    between atoms: C3_3  and  C4_4 
REMARK    3  A    between atoms: C4_4  and  C5_5 
REMARK    4  A    between atoms: C5_5  and  C6_6 
REMARK    5  A    between atoms: C6_6  and  C8_8 
REMARK    6  A    between atoms: C30_33  and  O5_35 
ROOT
HETATM    1  C8  UNL     1      -5.783   6.244  14.658  1.00  0.00    -0.001 C 
HETATM    2  C9  UNL     1      -5.994   5.111  13.617  1.00  0.00     0.007 C 
HETATM    3  C10 UNL     1      -4.670   4.960  12.844  1.00  0.00     0.015 C 
HETATM    4  C11 UNL     1      -3.623   5.715  13.689  1.00  0.00    -0.004 C 
HETATM    5  C12 UNL     1      -3.160   4.741  14.816  1.00  0.00     0.021 C 
HETATM    6  C13 UNL     1      -2.335   6.224  13.061  1.00  0.00     0.007 C 
HETATM    7  C14 UNL     1      -1.653   7.289  13.552  1.00  0.00     0.007 C 
HETATM    8  C15 UNL     1      -2.276   8.043  14.721  1.00  0.00     0.157 C 
HETATM    9  O1  UNL     1      -1.657   8.943  15.287  1.00  0.00    -0.293 OA
HETATM   10  C16 UNL     1      -3.676   7.698  15.215  1.00  0.00     0.094 C 
HETATM   11  C17 UNL     1      -4.484   6.946  14.160  1.00  0.00    -0.022 C 
HETATM   12  C18 UNL     1      -4.814   7.938  13.005  1.00  0.00     0.017 C 
HETATM   13  C19 UNL     1      -0.300   7.805  12.996  1.00  0.00    -0.007 C 
HETATM   14  C20 UNL     1      -0.607   9.125  12.248  1.00  0.00     0.021 C 
HETATM   15  C21 UNL     1       0.731   8.095  14.136  1.00  0.00     0.022 C 
HETATM   16  C22 UNL     1       2.204   7.910  13.777  1.00  0.00     0.080 C 
HETATM   17  C23 UNL     1       2.453   8.086  12.300  1.00  0.00     0.135 C 
HETATM   18  O2  UNL     1       3.281   8.897  11.888  1.00  0.00    -0.297 OA
HETATM   19  C24 UNL     1       1.686   7.145  11.366  1.00  0.00     0.018 C 
HETATM   20  C25 UNL     1       1.498   7.815   9.990  1.00  0.00     0.023 C 
HETATM   21  C26 UNL     1       2.583   5.906  11.155  1.00  0.00     0.023 C 
HETATM   22  C27 UNL     1       0.348   6.719  12.061  1.00  0.00     0.021 C 
HETATM   23  C28 UNL     1      -0.682   6.143  11.091  1.00  0.00     0.090 C 
HETATM   24  C29 UNL     1      -1.790   5.493  11.876  1.00  0.00     0.157 C 
HETATM   25  O3  UNL     1      -2.246   4.407  11.529  1.00  0.00    -0.293 OA
ENDROOT
BRANCH   1  26
HETATM   26  C6  UNL     1      -7.087   7.012  15.026  1.00  0.00    -0.014 C 
HETATM   27  C7  UNL     1      -7.435   7.115  16.517  1.00  0.00     0.010 C 
BRANCH  26  28
HETATM   28  C5  UNL     1      -8.300   6.489  14.220  1.00  0.00     0.008 C 
BRANCH  28  29
HETATM   29  C4  UNL     1      -9.675   6.910  14.763  1.00  0.00     0.028 C 
BRANCH  29  30
HETATM   30  C3  UNL     1     -10.595   7.404  13.679  1.00  0.00    -0.013 C 
HETATM   31  C2  UNL     1     -11.368   8.510  13.684  1.00  0.00     0.008 C 
HETATM   32  C1  UNL     1     -11.480   9.507  14.800  1.00  0.00     0.055 C 
BRANCH  31  33
HETATM   33  C30 UNL     1     -12.217   8.845  12.506  1.00  0.00     0.171 C 
HETATM   34  O4  UNL     1     -13.405   8.597  12.403  1.00  0.00    -0.646 OA
BRANCH  33  35
HETATM   35  O5  UNL     1     -11.562   9.487  11.524  1.00  0.00    -0.773 OA
HETATM   36  H42 UNL     1     -12.255   9.634  10.848  1.00  0.00     0.167 HD
ENDBRANCH  33  35
ENDBRANCH  31  33
ENDBRANCH  29  30
ENDBRANCH  28  29
ENDBRANCH  26  28
ENDBRANCH   1  26
TORSDOF 6
ENDMDL
MODEL 4
REMARK minimizedAffinity -7.53312635
REMARK CNNscore 0.406571716
REMARK CNNaffinity 6.78253412
REMARK  6 active torsions:
REMARK  status: ('A' for Active; 'I' for Inactive)
REMARK    1  A    between atoms: C2_2  and  C30_33 
REMARK    2  A    between atoms: C3_3  and  C4_4 
REMARK    3  A    between atoms: C4_4  and  C5_5 
REMARK    4  A    between atoms: C5_5  and  C6_6 
REMARK    5  A    between atoms: C6_6  and  C8_8 
REMARK    6  A    between atoms: C30_33  and  O5_35 
ROOT
HETATM    1  C8  UNL     1     -10.509   7.631  14.353  1.00  0.00    -0.001 C 
HETATM    2  C9  UNL     1     -11.493   6.594  13.747  1.00  0.00     0.007 C 
HETATM    3  C10 UNL     1     -12.707   7.383  13.222  1.00  0.00     0.015 C 
HETATM    4  C11 UNL     1     -12.244   8.854  13.179  1.00  0.00    -0.004 C 
HETATM    5  C12 UNL     1     -11.453   9.043  11.847  1.00  0.00     0.021 C 
HETATM    6  C13 UNL     1     -13.254   9.991  13.197  1.00  0.00     0.007 C 
HETATM    7  C14 UNL     1     -12.957  11.226  13.675  1.00  0.00     0.007 C 
HETATM    8  C15 UNL     1     -11.581  11.424  14.298  1.00  0.00     0.157 C 
HETATM    9  O1  UNL     1     -11.206  12.544  14.644  1.00  0.00    -0.293 OA
HETATM   10  C16 UNL     1     -10.639  10.243  14.506  1.00  0.00     0.094 C 
HETATM   11  C17 UNL     1     -11.386   8.912  14.498  1.00  0.00    -0.022 C 
HETATM   12  C18 UNL     1     -12.249   8.832  15.792  1.00  0.00     0.017 C 
HETATM   13  C19 UNL     1     -13.924  12.439  13.650  1.00  0.00    -0.007 C 
HETATM   14  C20 UNL     1     -14.390  12.657  15.110  1.00  0.00     0.021 C 
HETATM   15  C21 UNL     1     -13.220  13.739  13.142  1.00  0.00     0.022 C 
HETATM   16  C22 UNL     1     -14.109  14.746  12.413  1.00  0.00     0.080 C 
HETATM   17  C23 UNL     1     -15.553  14.633  12.832  1.00  0.00     0.135 C 
HETATM   18  O2  UNL     1     -16.168  15.609  13.260  1.00  0.00    -0.297 OA
HETATM   19  C24 UNL     1     -16.219  13.271  12.613  1.00  0.00     0.018 C 
HETATM   20  C25 UNL     1     -17.366  13.082  13.625  1.00  0.00     0.023 C 
HETATM   21  C26 UNL     1     -16.850  13.310  11.204  1.00  0.00     0.023 C 
HETATM   22  C27 UNL     1     -15.121  12.154  12.671  1.00  0.00     0.021 C 
HETATM   23  C28 UNL     1     -15.691  10.755  12.891  1.00  0.00     0.090 C 
HETATM   24  C29 UNL     1     -14.615   9.736  12.631  1.00  0.00     0.157 C 
HETATM   25  O3  UNL     1     -14.863   8.714  11.997  1.00  0.00    -0.293 OA
ENDROOT
BRANCH   1  26
HETATM   26  C6  UNL     1      -9.623   7.063  15.502  1.00  0.00    -0.014 C 
HETATM   27  C7  UNL     1      -9.055   8.073  16.506  1.00  0.00     0.010 C 
BRANCH  26  28
HETATM   28  C5  UNL     1      -8.499   6.152  14.953  1.00  0.00     0.008 C 
BRANCH  28  29
HETATM   29  C4  UNL     1      -8.389   6.102  13.421  1.00  0.00     0.028 C 
BRANCH  29  30
HETATM   30  C3  UNL     1      -8.178   4.705  12.903  1.00  0.00    -0.013 C 
HETATM   31  C2  UNL     1      -7.018   4.025  12.792  1.00  0.00     0.008 C 
HETATM   32  C1  UNL     1      -5.656   4.531  13.167  1.00  0.00     0.055 C 
BRANCH  31  33
HETATM   33  C30 UNL     1      -7.004   2.634  12.259  1.00  0.00     0.171 C 
HETATM   34  O4  UNL     1      -6.170   2.183  11.494  1.00  0.00    -0.646 OA
BRANCH  33  35
HETATM   35  O5  UNL     1      -8.007   1.864  12.711  1.00  0.00    -0.773 OA
HETATM   36  H42 UNL     1      -7.845   1.001  12.277  1.00  0.00     0.167 HD
ENDBRANCH  33  35
ENDBRANCH  31  33
ENDBRANCH  29  30
ENDBRANCH  28  29
ENDBRANCH  26  28
ENDBRANCH   1  26
TORSDOF 6
ENDMDL
MODEL 5
REMARK minimizedAffinity -8.41361809
REMARK CNNscore 0.403206348
REMARK CNNaffinity 6.89506292
REMARK  6 active torsions:
REMARK  status: ('A' for Active; 'I' for Inactive)
REMARK    1  A    between atoms: C2_2  and  C30_33 
REMARK    2  A    between atoms: C3_3  and  C4_4 
REMARK    3  A    between atoms: C4_4  and  C5_5 
REMARK    4  A    between atoms: C5_5  and  C6_6 
REMARK    5  A    between atoms: C6_6  and  C8_8 
REMARK    6  A    between atoms: C30_33  and  O5_35 
ROOT
HETATM    1  C8  UNL     1       0.473   7.531  13.139  1.00  0.00    -0.001 C 
HETATM    2  C9  UNL     1       0.694   8.606  14.238  1.00  0.00     0.007 C 
HETATM    3  C10 UNL     1      -0.647   8.772  14.977  1.00  0.00     0.015 C 
HETATM    4  C11 UNL     1      -1.489   7.547  14.566  1.00  0.00    -0.004 C 
HETATM    5  C12 UNL     1      -1.046   6.364  15.483  1.00  0.00     0.021 C 
HETATM    6  C13 UNL     1      -3.006   7.573  14.669  1.00  0.00     0.007 C 
HETATM    7  C14 UNL     1      -3.805   6.808  13.882  1.00  0.00     0.007 C 
HETATM    8  C15 UNL     1      -3.132   5.971  12.801  1.00  0.00     0.157 C 
HETATM    9  O1  UNL     1      -3.784   5.170  12.133  1.00  0.00    -0.293 OA
HETATM   10  C16 UNL     1      -1.638   6.108  12.524  1.00  0.00     0.094 C 
HETATM   11  C17 UNL     1      -1.080   7.427  13.051  1.00  0.00    -0.022 C 
HETATM   12  C18 UNL     1      -1.650   8.580  12.172  1.00  0.00     0.017 C 
HETATM   13  C19 UNL     1      -5.351   6.741  13.993  1.00  0.00    -0.007 C 
HETATM   14  C20 UNL     1      -5.911   7.503  12.767  1.00  0.00     0.021 C 
HETATM   15  C21 UNL     1      -5.879   5.270  13.962  1.00  0.00     0.022 C 
HETATM   16  C22 UNL     1      -7.169   4.999  14.734  1.00  0.00     0.080 C 
HETATM   17  C23 UNL     1      -8.021   6.237  14.865  1.00  0.00     0.135 C 
HETATM   18  O2  UNL     1      -9.191   6.244  14.487  1.00  0.00    -0.297 OA
HETATM   19  C24 UNL     1      -7.372   7.436  15.564  1.00  0.00     0.018 C 
HETATM   20  C25 UNL     1      -8.018   8.743  15.063  1.00  0.00     0.023 C 
HETATM   21  C26 UNL     1      -7.707   7.304  17.066  1.00  0.00     0.023 C 
HETATM   22  C27 UNL     1      -5.820   7.366  15.358  1.00  0.00     0.021 C 
HETATM   23  C28 UNL     1      -5.113   8.692  15.628  1.00  0.00     0.090 C 
HETATM   24  C29 UNL     1      -3.629   8.455  15.703  1.00  0.00     0.157 C 
HETATM   25  O3  UNL     1      -2.953   8.996  16.573  1.00  0.00    -0.293 OA
ENDROOT
BRANCH   1  26
HETATM   26  C6  UNL     1       1.394   7.703  11.895  1.00  0.00    -0.014 C 
HETATM   27  C7  UNL     1       0.803   8.446  10.690  1.00  0.00     0.010 C 
BRANCH  26  28
HETATM   28  C5  UNL     1       2.008   6.353  11.453  1.00  0.00     0.008 C 
BRANCH  28  29
HETATM   29  C4  UNL     1       2.803   6.397  10.138  1.00  0.00     0.028 C 
BRANCH  29  30
HETATM   30  C3  UNL     1       4.256   6.058  10.332  1.00  0.00    -0.013 C 
HETATM   31  C2  UNL     1       5.214   6.805  10.918  1.00  0.00     0.008 C 
HETATM   32  C1  UNL     1       5.030   8.170  11.514  1.00  0.00     0.055 C 
BRANCH  31  33
HETATM   33  C30 UNL     1       6.610   6.297  11.027  1.00  0.00     0.171 C 
HETATM   34  O4  UNL     1       7.579   6.966  11.342  1.00  0.00    -0.646 OA
BRANCH  33  35
HETATM   35  O5  UNL     1       6.739   4.987  10.761  1.00  0.00    -0.773 OA
HETATM   36  H42 UNL     1       7.697   4.823  10.884  1.00  0.00     0.167 HD
ENDBRANCH  33  35
ENDBRANCH  31  33
ENDBRANCH  29  30
ENDBRANCH  28  29
ENDBRANCH  26  28
ENDBRANCH   1  26
TORSDOF 6
ENDMDL
MODEL 6
REMARK minimizedAffinity -7.37711096
REMARK CNNscore 0.398043841
REMARK CNNaffinity 7.1063571
REMARK  6 active torsions:
REMARK  status: ('A' for Active; 'I' for Inactive)
REMARK    1  A    between atoms: C2_2  and  C30_33 
REMARK    2  A    between atoms: C3_3  and  C4_4 
REMARK    3  A    between atoms: C4_4  and  C5_5 
REMARK    4  A    between atoms: C5_5  and  C6_6 
REMARK    5  A    between atoms: C6_6  and  C8_8 
REMARK    6  A    between atoms: C30_33  and  O5_35 
ROOT
HETATM    1  C8  UNL     1      -0.495   7.633  13.989  1.00  0.00    -0.001 C 
HETATM    2  C9  UNL     1      -0.442   9.056  14.606  1.00  0.00     0.007 C 
HETATM    3  C10 UNL     1      -1.861   9.379  15.110  1.00  0.00     0.015 C 
HETATM    4  C11 UNL     1      -2.599   8.024  15.130  1.00  0.00    -0.004 C 
HETATM    5  C12 UNL     1      -2.207   7.314  16.464  1.00  0.00     0.021 C 
HETATM    6  C13 UNL     1      -4.118   7.962  15.087  1.00  0.00     0.007 C 
HETATM    7  C14 UNL     1      -4.792   6.894  14.590  1.00  0.00     0.007 C 
HETATM    8  C15 UNL     1      -3.969   5.770  13.973  1.00  0.00     0.157 C 
HETATM    9  O1  UNL     1      -4.508   4.725  13.610  1.00  0.00    -0.293 OA
HETATM   10  C16 UNL     1      -2.462   5.914  13.791  1.00  0.00     0.094 C 
HETATM   11  C17 UNL     1      -2.022   7.376  13.817  1.00  0.00    -0.022 C 
HETATM   12  C18 UNL     1      -2.543   8.061  12.519  1.00  0.00     0.017 C 
HETATM   13  C19 UNL     1      -6.336   6.747  14.588  1.00  0.00    -0.007 C 
HETATM   14  C20 UNL     1      -6.793   6.942  13.121  1.00  0.00     0.021 C 
HETATM   15  C21 UNL     1      -6.792   5.335  15.079  1.00  0.00     0.022 C 
HETATM   16  C22 UNL     1      -8.146   5.270  15.784  1.00  0.00     0.080 C 
HETATM   17  C23 UNL     1      -9.060   6.391  15.359  1.00  0.00     0.135 C 
HETATM   18  O2  UNL     1     -10.182   6.159  14.910  1.00  0.00    -0.297 OA
HETATM   19  C24 UNL     1      -8.545   7.814  15.597  1.00  0.00     0.018 C 
HETATM   20  C25 UNL     1      -9.190   8.778  14.581  1.00  0.00     0.023 C 
HETATM   21  C26 UNL     1      -9.035   8.231  17.001  1.00  0.00     0.023 C 
HETATM   22  C27 UNL     1      -6.979   7.799  15.564  1.00  0.00     0.021 C 
HETATM   23  C28 UNL     1      -6.364   9.183  15.364  1.00  0.00     0.090 C 
HETATM   24  C29 UNL     1      -4.888   9.114  15.648  1.00  0.00     0.157 C 
HETATM   25  O3  UNL     1      -4.336   9.997  16.298  1.00  0.00    -0.293 OA
ENDROOT
BRANCH   1  26
HETATM   26  C6  UNL     1       0.549   7.398  12.855  1.00  0.00    -0.014 C 
HETATM   27  C7  UNL     1       0.381   8.226  11.575  1.00  0.00     0.010 C 
BRANCH  26  28
HETATM   28  C5  UNL     1       0.689   5.895  12.516  1.00  0.00     0.008 C 
BRANCH  28  29
HETATM   29  C4  UNL     1      -0.211   5.397  11.373  1.00  0.00     0.028 C 
BRANCH  29  30
HETATM   30  C3  UNL     1      -0.346   3.899  11.357  1.00  0.00    -0.013 C 
HETATM   31  C2  UNL     1      -1.433   3.165  11.043  1.00  0.00     0.008 C 
HETATM   32  C1  UNL     1      -2.775   3.700  10.634  1.00  0.00     0.055 C 
BRANCH  31  33
HETATM   33  C30 UNL     1      -1.377   1.676  11.076  1.00  0.00     0.171 C 
HETATM   34  O4  UNL     1      -0.356   1.013  11.108  1.00  0.00    -0.646 OA
BRANCH  33  35
HETATM   35  O5  UNL     1      -2.582   1.083  11.089  1.00  0.00    -0.773 OA
HETATM   36  H42 UNL     1      -2.365   0.128  11.119  1.00  0.00     0.167 HD
ENDBRANCH  33  35
ENDBRANCH  31  33
ENDBRANCH  29  30
ENDBRANCH  28  29
ENDBRANCH  26  28
ENDBRANCH   1  26
TORSDOF 6
ENDMDL
MODEL 7
REMARK minimizedAffinity -8.19225693
REMARK CNNscore 0.377504855
REMARK CNNaffinity 6.12468338
REMARK  6 active torsions:
REMARK  status: ('A' for Active; 'I' for Inactive)
REMARK    1  A    between atoms: C2_2  and  C30_33 
REMARK    2  A    between atoms: C3_3  and  C4_4 
REMARK    3  A    between atoms: C4_4  and  C5_5 
REMARK    4  A    between atoms: C5_5  and  C6_6 
REMARK    5  A    between atoms: C6_6  and  C8_8 
REMARK    6  A    between atoms: C30_33  and  O5_35 
ROOT
HETATM    1  C8  UNL     1       7.368   9.941  15.386  1.00  0.00    -0.001 C 
HETATM    2  C9  UNL     1       6.160  10.518  16.173  1.00  0.00     0.007 C 
HETATM    3  C10 UNL     1       4.886  10.054  15.441  1.00  0.00     0.015 C 
HETATM    4  C11 UNL     1       5.352   8.926  14.498  1.00  0.00    -0.004 C 
HETATM    5  C12 UNL     1       5.423   7.621  15.352  1.00  0.00     0.021 C 
HETATM    6  C13 UNL     1       4.534   8.545  13.273  1.00  0.00     0.007 C 
HETATM    7  C14 UNL     1       5.089   7.983  12.170  1.00  0.00     0.007 C 
HETATM    8  C15 UNL     1       6.605   7.825  12.149  1.00  0.00     0.157 C 
HETATM    9  O1  UNL     1       7.158   7.219  11.233  1.00  0.00    -0.293 OA
HETATM   10  C16 UNL     1       7.466   8.412  13.261  1.00  0.00     0.094 C 
HETATM   11  C17 UNL     1       6.735   9.512  14.028  1.00  0.00    -0.022 C 
HETATM   12  C18 UNL     1       6.588  10.744  13.087  1.00  0.00     0.017 C 
HETATM   13  C19 UNL     1       4.294   7.510  10.925  1.00  0.00    -0.007 C 
HETATM   14  C20 UNL     1       4.590   8.533   9.801  1.00  0.00     0.021 C 
HETATM   15  C21 UNL     1       4.739   6.089  10.449  1.00  0.00     0.022 C 
HETATM   16  C22 UNL     1       3.667   5.237   9.772  1.00  0.00     0.080 C 
HETATM   17  C23 UNL     1       2.591   6.081   9.135  1.00  0.00     0.135 C 
HETATM   18  O2  UNL     1       2.308   5.955   7.945  1.00  0.00    -0.297 OA
HETATM   19  C24 UNL     1       1.830   7.027  10.069  1.00  0.00     0.018 C 
HETATM   20  C25 UNL     1       1.293   8.230   9.268  1.00  0.00     0.023 C 
HETATM   21  C26 UNL     1       0.608   6.241  10.592  1.00  0.00     0.023 C 
HETATM   22  C27 UNL     1       2.762   7.417  11.267  1.00  0.00     0.021 C 
HETATM   23  C28 UNL     1       2.290   8.658  12.021  1.00  0.00     0.090 C 
HETATM   24  C29 UNL     1       3.057   8.774  13.311  1.00  0.00     0.157 C 
HETATM   25  O3  UNL     1       2.483   9.075  14.354  1.00  0.00    -0.293 OA
ENDROOT
BRANCH   1  26
HETATM   26  C6  UNL     1       8.661  10.803  15.497  1.00  0.00    -0.014 C 
HETATM   27  C7  UNL     1       9.989  10.108  15.167  1.00  0.00     0.010 C 
BRANCH  26  28
HETATM   28  C5  UNL     1       8.749  11.519  16.866  1.00  0.00     0.008 C 
BRANCH  28  29
HETATM   29  C4  UNL     1       9.274  10.654  18.023  1.00  0.00     0.028 C 
BRANCH  29  30
HETATM   30  C3  UNL     1       9.136  11.332  19.359  1.00  0.00    -0.013 C 
HETATM   31  C2  UNL     1      10.114  11.816  20.152  1.00  0.00     0.008 C 
HETATM   32  C1  UNL     1      11.587  11.777  19.864  1.00  0.00     0.055 C 
BRANCH  31  33
HETATM   33  C30 UNL     1       9.784  12.469  21.449  1.00  0.00     0.171 C 
HETATM   34  O4  UNL     1       9.999  13.637  21.722  1.00  0.00    -0.646 OA
BRANCH  33  35
HETATM   35  O5  UNL     1       9.189  11.656  22.336  1.00  0.00    -0.773 OA
HETATM   36  H42 UNL     1       9.039  12.235  23.112  1.00  0.00     0.167 HD
ENDBRANCH  33  35
ENDBRANCH  31  33
ENDBRANCH  29  30
ENDBRANCH  28  29
ENDBRANCH  26  28
ENDBRANCH   1  26
TORSDOF 6
ENDMDL
MODEL 8
REMARK minimizedAffinity -8.54601765
REMARK CNNscore 0.372517318
REMARK CNNaffinity 6.91493988
REMARK  6 active torsions:
REMARK  status: ('A' for Active; 'I' for Inactive)
REMARK    1  A    between atoms: C2_2  and  C30_33 
REMARK    2  A    between atoms: C3_3  and  C4_4 
REMARK    3  A    between atoms: C4_4  and  C5_5 
REMARK    4  A    between atoms: C5_5  and  C6_6 
REMARK    5  A    between atoms: C6_6  and  C8_8 
REMARK    6  A    between atoms: C30_33  and  O5_35 
ROOT
HETATM    1  C8  UNL     1       0.736   7.284  13.160  1.00  0.00    -0.001 C 
HETATM    2  C9  UNL     1       0.980   8.278  14.328  1.00  0.00     0.007 C 
HETATM    3  C10 UNL     1      -0.365   8.445  15.061  1.00  0.00     0.015 C 
HETATM    4  C11 UNL     1      -1.243   7.279  14.562  1.00  0.00    -0.004 C 
HETATM    5  C12 UNL     1      -0.855   6.025  15.406  1.00  0.00     0.021 C 
HETATM    6  C13 UNL     1      -2.760   7.353  14.649  1.00  0.00     0.007 C 
HETATM    7  C14 UNL     1      -3.574   6.669  13.806  1.00  0.00     0.007 C 
HETATM    8  C15 UNL     1      -2.916   5.879  12.681  1.00  0.00     0.157 C 
HETATM    9  O1  UNL     1      -3.586   5.146  11.955  1.00  0.00    -0.293 OA
HETATM   10  C16 UNL     1      -1.415   5.979  12.431  1.00  0.00     0.094 C 
HETATM   11  C17 UNL     1      -0.818   7.242  13.047  1.00  0.00    -0.022 C 
HETATM   12  C18 UNL     1      -1.335   8.468  12.238  1.00  0.00     0.017 C 
HETATM   13  C19 UNL     1      -5.122   6.651  13.894  1.00  0.00    -0.007 C 
HETATM   14  C20 UNL     1      -5.639   7.508  12.713  1.00  0.00     0.021 C 
HETATM   15  C21 UNL     1      -5.701   5.204  13.763  1.00  0.00     0.022 C 
HETATM   16  C22 UNL     1      -7.011   4.931  14.500  1.00  0.00     0.080 C 
HETATM   17  C23 UNL     1      -7.820   6.188  14.700  1.00  0.00     0.135 C 
HETATM   18  O2  UNL     1      -8.984   6.261  14.310  1.00  0.00    -0.297 OA
HETATM   19  C24 UNL     1      -7.140   7.316  15.482  1.00  0.00     0.018 C 
HETATM   20  C25 UNL     1      -7.733   8.675  15.059  1.00  0.00     0.023 C 
HETATM   21  C26 UNL     1      -7.500   7.101  16.969  1.00  0.00     0.023 C 
HETATM   22  C27 UNL     1      -5.589   7.204  15.290  1.00  0.00     0.021 C 
HETATM   23  C28 UNL     1      -4.840   8.484  15.654  1.00  0.00     0.090 C 
HETATM   24  C29 UNL     1      -3.366   8.189  15.730  1.00  0.00     0.157 C 
HETATM   25  O3  UNL     1      -2.684   8.650  16.641  1.00  0.00    -0.293 OA
ENDROOT
BRANCH   1  26
HETATM   26  C6  UNL     1       1.681   7.502  11.940  1.00  0.00    -0.014 C 
HETATM   27  C7  UNL     1       2.465   8.820  11.896  1.00  0.00     0.010 C 
BRANCH  26  28
HETATM   28  C5  UNL     1       0.942   7.265  10.602  1.00  0.00     0.008 C 
BRANCH  28  29
HETATM   29  C4  UNL     1       1.691   7.744   9.348  1.00  0.00     0.028 C 
BRANCH  29  30
HETATM   30  C3  UNL     1       2.114   6.606   8.460  1.00  0.00    -0.013 C 
HETATM   31  C2  UNL     1       3.055   5.669   8.698  1.00  0.00     0.008 C 
HETATM   32  C1  UNL     1       3.902   5.561   9.932  1.00  0.00     0.055 C 
BRANCH  31  33
HETATM   33  C30 UNL     1       3.335   4.604   7.695  1.00  0.00     0.171 C 
HETATM   34  O4  UNL     1       3.025   4.650   6.517  1.00  0.00    -0.646 OA
BRANCH  33  35
HETATM   35  O5  UNL     1       3.999   3.547   8.189  1.00  0.00    -0.773 OA
HETATM   36  H42 UNL     1       4.104   2.960   7.411  1.00  0.00     0.167 HD
ENDBRANCH  33  35
ENDBRANCH  31  33
ENDBRANCH  29  30
ENDBRANCH  28  29
ENDBRANCH  26  28
ENDBRANCH   1  26
TORSDOF 6
ENDMDL
MODEL 9
REMARK minimizedAffinity -6.78907633
REMARK CNNscore 0.338874817
REMARK CNNaffinity 6.0390048
REMARK  6 active torsions:
REMARK  status: ('A' for Active; 'I' for Inactive)
REMARK    1  A    between atoms: C2_2  and  C30_33 
REMARK    2  A    between atoms: C3_3  and  C4_4 
REMARK    3  A    between atoms: C4_4  and  C5_5 
REMARK    4  A    between atoms: C5_5  and  C6_6 
REMARK    5  A    between atoms: C6_6  and  C8_8 
REMARK    6  A    between atoms: C30_33  and  O5_35 
ROOT
HETATM    1  C8  UNL     1       6.524  11.964  14.961  1.00  0.00    -0.001 C 
HETATM    2  C9  UNL     1       7.671  12.049  13.918  1.00  0.00     0.007 C 
HETATM    3  C10 UNL     1       7.195  11.285  12.667  1.00  0.00     0.015 C 
HETATM    4  C11 UNL     1       5.674  11.112  12.855  1.00  0.00    -0.004 C 
HETATM    5  C12 UNL     1       5.004  12.441  12.387  1.00  0.00     0.021 C 
HETATM    6  C13 UNL     1       4.917  10.015  12.121  1.00  0.00     0.007 C 
HETATM    7  C14 UNL     1       3.767   9.476  12.598  1.00  0.00     0.007 C 
HETATM    8  C15 UNL     1       3.289   9.941  13.969  1.00  0.00     0.157 C 
HETATM    9  O1  UNL     1       2.197   9.581  14.407  1.00  0.00    -0.293 OA
HETATM   10  C16 UNL     1       4.151  10.862  14.826  1.00  0.00     0.094 C 
HETATM   11  C17 UNL     1       5.618  10.826  14.402  1.00  0.00    -0.022 C 
HETATM   12  C18 UNL     1       6.199   9.433  14.787  1.00  0.00     0.017 C 
HETATM   13  C19 UNL     1       2.918   8.410  11.858  1.00  0.00    -0.007 C 
HETATM   14  C20 UNL     1       3.134   7.076  12.613  1.00  0.00     0.021 C 
HETATM   15  C21 UNL     1       1.394   8.759  11.872  1.00  0.00     0.022 C 
HETATM   16  C22 UNL     1       0.578   8.271  10.676  1.00  0.00     0.080 C 
HETATM   17  C23 UNL     1       1.197   7.059  10.026  1.00  0.00     0.135 C 
HETATM   18  O2  UNL     1       0.552   6.024   9.871  1.00  0.00    -0.297 OA
HETATM   19  C24 UNL     1       2.627   7.226   9.502  1.00  0.00     0.018 C 
HETATM   20  C25 UNL     1       3.341   5.860   9.495  1.00  0.00     0.023 C 
HETATM   21  C26 UNL     1       2.507   7.690   8.034  1.00  0.00     0.023 C 
HETATM   22  C27 UNL     1       3.353   8.326  10.349  1.00  0.00     0.021 C 
HETATM   23  C28 UNL     1       4.874   8.287  10.217  1.00  0.00     0.090 C 
HETATM   24  C29 UNL     1       5.454   9.544  10.808  1.00  0.00     0.157 C 
HETATM   25  O3  UNL     1       6.361  10.142  10.236  1.00  0.00    -0.293 OA
ENDROOT
BRANCH   1  26
HETATM   26  C6  UNL     1       7.012  12.026  16.439  1.00  0.00    -0.014 C 
HETATM   27  C7  UNL     1       5.975  11.715  17.526  1.00  0.00     0.010 C 
BRANCH  26  28
HETATM   28  C5  UNL     1       7.732  13.361  16.743  1.00  0.00     0.008 C 
BRANCH  28  29
HETATM   29  C4  UNL     1       9.173  13.222  17.260  1.00  0.00     0.028 C 
BRANCH  29  30
HETATM   30  C3  UNL     1       9.262  13.339  18.758  1.00  0.00    -0.013 C 
HETATM   31  C2  UNL     1       9.727  12.429  19.638  1.00  0.00     0.008 C 
HETATM   32  C1  UNL     1      10.266  11.069  19.302  1.00  0.00     0.055 C 
BRANCH  31  33
HETATM   33  C30 UNL     1       9.744  12.726  21.097  1.00  0.00     0.171 C 
HETATM   34  O4  UNL     1      10.038  13.801  21.592  1.00  0.00    -0.646 OA
BRANCH  33  35
HETATM   35  O5  UNL     1       9.380  11.691  21.872  1.00  0.00    -0.773 OA
HETATM   36  H42 UNL     1       9.438  12.055  22.780  1.00  0.00     0.167 HD
ENDBRANCH  33  35
ENDBRANCH  31  33
ENDBRANCH  29  30
ENDBRANCH  28  29
ENDBRANCH  26  28
ENDBRANCH   1  26
TORSDOF 6
ENDMDL
