MODEL 1
REMARK minimizedAffinity -9.54411411
REMARK CNNscore 0.354228675
REMARK CNNaffinity 7.4418292
REMARK  13 active torsions:
REMARK  status: ('A' for Active; 'I' for Inactive)
REMARK    1  A    between atoms: C2_2  and  C3_3 
REMARK    2  A    between atoms: C2_2  and  C11_12 
REMARK    3  A    between atoms: C3_3  and  C4_4 
REMARK    4  A    between atoms: C4_4  and  C5_5 
REMARK    5  A    between atoms: C5_5  and  O1_7 
REMARK    6  A    between atoms: C5_5  and  C7_8 
REMARK    7  A    between atoms: C28_32  and  O5_33 
REMARK    8  A    between atoms: O5_33  and  C29_34 
REMARK    9  A    between atoms: C30_36  and  C31_37 
REMARK   10  A    between atoms: C31_37  and  O7_38 
REMARK   11  A    between atoms: C32_39  and  O8_40 
REMARK   12  A    between atoms: C33_41  and  O9_42 
REMARK   13  A    between atoms: C34_43  and  O10_44 
ROOT
HETATM    1  C11 UNL     1       0.423   7.240  13.216  1.00  0.00    -0.001 C 
HETATM    2  C12 UNL     1       0.259   6.472  11.873  1.00  0.00     0.007 C 
HETATM    3  C13 UNL     1      -1.224   6.112  11.723  1.00  0.00     0.024 C 
HETATM    4  C14 UNL     1      -1.911   6.764  12.909  1.00  0.00     0.092 C 
HETATM    5  C15 UNL     1      -2.427   8.205  12.584  1.00  0.00     0.272 C 
HETATM    6  O2  UNL     1      -1.935   9.020  11.823  1.00  0.00    -0.264 OA
HETATM    7  O3  UNL     1      -3.561   8.450  13.347  1.00  0.00    -0.305 OA
HETATM    8  C16 UNL     1      -3.760   7.333  14.237  1.00  0.00     0.113 C 
HETATM    9  C17 UNL     1      -2.789   7.582  15.455  1.00  0.00     0.043 C 
HETATM   10  C18 UNL     1      -1.302   7.791  15.103  1.00  0.00     0.014 C 
HETATM   11  C19 UNL     1      -0.834   6.793  14.026  1.00  0.00    -0.020 C 
HETATM   12  C20 UNL     1      -0.633   5.394  14.665  1.00  0.00     0.017 C 
HETATM   13  C21 UNL     1      -3.211   6.197  13.400  1.00  0.00     0.137 A 
HETATM   14  O4  UNL     1      -3.941   5.878  12.171  1.00  0.00    -0.364 OA
HETATM   15  C22 UNL     1      -4.010   4.914  13.196  1.00  0.00     0.162 A 
HETATM   16  C23 UNL     1      -5.430   4.805  13.681  1.00  0.00     0.041 C 
HETATM   17  C24 UNL     1      -6.102   6.214  13.753  1.00  0.00     0.009 C 
HETATM   18  C25 UNL     1      -7.676   6.184  13.917  1.00  0.00    -0.017 C 
HETATM   19  C26 UNL     1      -8.200   5.289  15.064  1.00  0.00     0.018 C 
HETATM   20  C27 UNL     1      -8.293   5.588  12.616  1.00  0.00     0.018 C 
HETATM   21  C28 UNL     1      -8.221   7.649  14.044  1.00  0.00     0.133 C 
HETATM   22  C35 UNL     1      -7.459   8.478  15.080  1.00  0.00     0.034 C 
HETATM   23  C36 UNL     1      -5.970   8.540  14.766  1.00  0.00     0.015 C 
HETATM   24  C37 UNL     1      -5.284   7.151  14.728  1.00  0.00    -0.004 C 
HETATM   25  C38 UNL     1      -5.307   6.555  16.166  1.00  0.00     0.019 C 
ENDROOT
BRANCH  21  26
HETATM   26  O5  UNL     1      -9.624   7.603  14.366  1.00  0.00    -0.352 OA
BRANCH  26  27
HETATM   27  C29 UNL     1     -10.402   8.604  13.710  1.00  0.00     0.292 C 
HETATM   28  O6  UNL     1     -10.735   9.705  14.559  1.00  0.00    -0.348 OA
HETATM   29  C30 UNL     1     -11.620   9.420  15.657  1.00  0.00     0.179 C 
HETATM   30  C32 UNL     1     -12.905   8.685  15.220  1.00  0.00     0.180 C 
HETATM   31  C33 UNL     1     -12.621   7.526  14.252  1.00  0.00     0.183 C 
HETATM   32  C34 UNL     1     -11.677   7.965  13.129  1.00  0.00     0.204 C 
BRANCH  29  33
HETATM   33  C31 UNL     1     -10.895   8.791  16.860  1.00  0.00     0.198 C 
BRANCH  33  34
HETATM   34  O7  UNL     1     -11.566   9.072  18.088  1.00  0.00    -0.398 OA
HETATM   35  H49 UNL     1     -12.518   8.913  17.927  1.00  0.00     0.209 HD
ENDBRANCH  33  34
ENDBRANCH  29  33
BRANCH  30  36
HETATM   36  O8  UNL     1     -13.648   8.205  16.352  1.00  0.00    -0.390 OA
HETATM   37  H51 UNL     1     -13.573   7.224  16.316  1.00  0.00     0.210 HD
ENDBRANCH  30  36
BRANCH  31  38
HETATM   38  O9  UNL     1     -12.143   6.408  15.014  1.00  0.00    -0.390 OA
HETATM   39  H53 UNL     1     -11.192   6.264  14.804  1.00  0.00     0.210 HD
ENDBRANCH  31  38
BRANCH  32  40
HETATM   40  O10 UNL     1     -12.354   8.885  12.258  1.00  0.00    -0.388 OA
HETATM   41  H55 UNL     1     -12.265   9.781  12.637  1.00  0.00     0.210 HD
ENDBRANCH  32  40
ENDBRANCH  26  27
ENDBRANCH  21  26
BRANCH   1  42
HETATM   42  C2  UNL     1       1.844   7.057  13.833  1.00  0.00    -0.014 C 
HETATM   43  C1  UNL     1       2.025   7.900  15.103  1.00  0.00     0.010 C 
BRANCH  42  44
HETATM   44  C3  UNL     1       2.931   7.435  12.791  1.00  0.00     0.007 C 
BRANCH  44  45
HETATM   45  C4  UNL     1       2.773   6.717  11.436  1.00  0.00     0.038 C 
BRANCH  45  46
HETATM   46  C5  UNL     1       3.593   7.329  10.259  1.00  0.00     0.061 C 
HETATM   47  C6  UNL     1       4.354   8.589  10.719  1.00  0.00     0.046 C 
BRANCH  46  48
HETATM   48  O1  UNL     1       4.576   6.350   9.874  1.00  0.00    -0.389 OA
HETATM   49  H12 UNL     1       5.266   6.317  10.559  1.00  0.00     0.210 HD
ENDBRANCH  46  48
BRANCH  46  50
HETATM   50  C7  UNL     1       2.696   7.602   8.974  1.00  0.00    -0.021 C 
HETATM   51  C8  UNL     1       1.275   8.073   9.375  1.00  0.00     0.017 C 
HETATM   52  C9  UNL     1       3.293   8.723   8.089  1.00  0.00     0.017 C 
HETATM   53  C10 UNL     1       2.538   6.343   8.097  1.00  0.00     0.017 C 
ENDBRANCH  46  50
ENDBRANCH  45  46
ENDBRANCH  44  45
ENDBRANCH  42  44
ENDBRANCH   1  42
TORSDOF 13
ENDMDL
MODEL 2
REMARK minimizedAffinity -8.44391441
REMARK CNNscore 0.248492971
REMARK CNNaffinity 6.80245781
REMARK  13 active torsions:
REMARK  status: ('A' for Active; 'I' for Inactive)
REMARK    1  A    between atoms: C2_2  and  C3_3 
REMARK    2  A    between atoms: C2_2  and  C11_12 
REMARK    3  A    between atoms: C3_3  and  C4_4 
REMARK    4  A    between atoms: C4_4  and  C5_5 
REMARK    5  A    between atoms: C5_5  and  O1_7 
REMARK    6  A    between atoms: C5_5  and  C7_8 
REMARK    7  A    between atoms: C28_32  and  O5_33 
REMARK    8  A    between atoms: O5_33  and  C29_34 
REMARK    9  A    between atoms: C30_36  and  C31_37 
REMARK   10  A    between atoms: C31_37  and  O7_38 
REMARK   11  A    between atoms: C32_39  and  O8_40 
REMARK   12  A    between atoms: C33_41  and  O9_42 
REMARK   13  A    between atoms: C34_43  and  O10_44 
ROOT
HETATM    1  C11 UNL     1       2.921   8.633  12.681  1.00  0.00    -0.001 C 
HETATM    2  C12 UNL     1       2.369  10.025  13.102  1.00  0.00     0.007 C 
HETATM    3  C13 UNL     1       3.493  10.766  13.837  1.00  0.00     0.024 C 
HETATM    4  C14 UNL     1       4.700   9.851  13.738  1.00  0.00     0.092 C 
HETATM    5  C15 UNL     1       5.582  10.159  12.482  1.00  0.00     0.272 C 
HETATM    6  O2  UNL     1       5.215  10.569  11.395  1.00  0.00    -0.264 OA
HETATM    7  O3  UNL     1       6.902   9.852  12.784  1.00  0.00    -0.305 OA
HETATM    8  C16 UNL     1       6.940   9.252  14.095  1.00  0.00     0.113 C 
HETATM    9  C17 UNL     1       6.554   7.739  13.881  1.00  0.00     0.043 C 
HETATM   10  C18 UNL     1       5.216   7.477  13.159  1.00  0.00     0.014 C 
HETATM   11  C19 UNL     1       4.109   8.418  13.669  1.00  0.00    -0.020 C 
HETATM   12  C20 UNL     1       3.616   7.935  15.059  1.00  0.00     0.017 C 
HETATM   13  C21 UNL     1       5.784   9.961  14.769  1.00  0.00     0.137 A 
HETATM   14  O4  UNL     1       5.931  11.403  14.974  1.00  0.00    -0.364 OA
HETATM   15  C22 UNL     1       5.953  10.612  16.138  1.00  0.00     0.162 A 
HETATM   16  C23 UNL     1       7.309  10.713  16.783  1.00  0.00     0.041 C 
HETATM   17  C24 UNL     1       8.438  10.719  15.702  1.00  0.00     0.009 C 
HETATM   18  C25 UNL     1       9.859  11.162  16.239  1.00  0.00    -0.017 C 
HETATM   19  C26 UNL     1      10.344  10.420  17.506  1.00  0.00     0.018 C 
HETATM   20  C27 UNL     1       9.782  12.664  16.646  1.00  0.00     0.018 C 
HETATM   21  C28 UNL     1      10.914  11.062  15.083  1.00  0.00     0.133 C 
HETATM   22  C35 UNL     1      10.868   9.720  14.351  1.00  0.00     0.034 C 
HETATM   23  C36 UNL     1       9.487   9.441  13.772  1.00  0.00     0.015 C 
HETATM   24  C37 UNL     1       8.363   9.397  14.839  1.00  0.00    -0.004 C 
HETATM   25  C38 UNL     1       8.607   8.161  15.754  1.00  0.00     0.019 C 
ENDROOT
BRANCH  21  26
HETATM   26  O5  UNL     1      12.228  11.298  15.623  1.00  0.00    -0.352 OA
BRANCH  26  27
HETATM   27  C29 UNL     1      13.281  11.153  14.669  1.00  0.00     0.292 C 
HETATM   28  O6  UNL     1      14.542  10.837  15.264  1.00  0.00    -0.348 OA
HETATM   29  C30 UNL     1      15.130  11.856  16.093  1.00  0.00     0.179 C 
HETATM   30  C32 UNL     1      15.208  13.230  15.394  1.00  0.00     0.180 C 
HETATM   31  C33 UNL     1      13.901  13.602  14.678  1.00  0.00     0.183 C 
HETATM   32  C34 UNL     1      13.389  12.438  13.825  1.00  0.00     0.204 C 
BRANCH  29  33
HETATM   33  C31 UNL     1      14.537  11.887  17.512  1.00  0.00     0.198 C 
BRANCH  33  34
HETATM   34  O7  UNL     1      14.046  10.607  17.910  1.00  0.00    -0.398 OA
HETATM   35  H49 UNL     1      14.732   9.956  17.659  1.00  0.00     0.209 HD
ENDBRANCH  33  34
ENDBRANCH  29  33
BRANCH  30  36
HETATM   36  O8  UNL     1      15.573  14.269  16.316  1.00  0.00    -0.390 OA
HETATM   37  H51 UNL     1      14.769  14.829  16.410  1.00  0.00     0.210 HD
ENDBRANCH  30  36
BRANCH  31  38
HETATM   38  O9  UNL     1      12.963  14.064  15.661  1.00  0.00    -0.390 OA
HETATM   39  H53 UNL     1      12.239  13.402  15.744  1.00  0.00     0.210 HD
ENDBRANCH  31  38
BRANCH  32  40
HETATM   40  O10 UNL     1      14.263  12.236  12.704  1.00  0.00    -0.388 OA
HETATM   41  H55 UNL     1      14.996  11.657  12.992  1.00  0.00     0.210 HD
ENDBRANCH  32  40
ENDBRANCH  26  27
ENDBRANCH  21  26
BRANCH   1  42
HETATM   42  C2  UNL     1       1.795   7.557  12.582  1.00  0.00    -0.014 C 
HETATM   43  C1  UNL     1       1.326   7.096  13.969  1.00  0.00     0.010 C 
BRANCH  42  44
HETATM   44  C3  UNL     1       2.294   6.336  11.763  1.00  0.00     0.007 C 
BRANCH  44  45
HETATM   45  C4  UNL     1       1.693   6.248  10.345  1.00  0.00     0.038 C 
BRANCH  45  46
HETATM   46  C5  UNL     1       2.691   6.538   9.181  1.00  0.00     0.061 C 
HETATM   47  C6  UNL     1       4.088   6.887   9.732  1.00  0.00     0.046 C 
BRANCH  46  48
HETATM   48  O1  UNL     1       2.819   5.322   8.421  1.00  0.00    -0.389 OA
HETATM   49  H12 UNL     1       3.344   4.687   8.938  1.00  0.00     0.210 HD
ENDBRANCH  46  48
BRANCH  46  50
HETATM   50  C7  UNL     1       2.144   7.646   8.178  1.00  0.00    -0.021 C 
HETATM   51  C8  UNL     1       1.872   7.044   6.776  1.00  0.00     0.017 C 
HETATM   52  C9  UNL     1       0.800   8.241   8.664  1.00  0.00     0.017 C 
HETATM   53  C10 UNL     1       3.140   8.810   8.000  1.00  0.00     0.017 C 
ENDBRANCH  46  50
ENDBRANCH  45  46
ENDBRANCH  44  45
ENDBRANCH  42  44
ENDBRANCH   1  42
TORSDOF 13
ENDMDL
MODEL 3
REMARK minimizedAffinity -8.02766514
REMARK CNNscore 0.156691879
REMARK CNNaffinity 6.76671648
REMARK  13 active torsions:
REMARK  status: ('A' for Active; 'I' for Inactive)
REMARK    1  A    between atoms: C2_2  and  C3_3 
REMARK    2  A    between atoms: C2_2  and  C11_12 
REMARK    3  A    between atoms: C3_3  and  C4_4 
REMARK    4  A    between atoms: C4_4  and  C5_5 
REMARK    5  A    between atoms: C5_5  and  O1_7 
REMARK    6  A    between atoms: C5_5  and  C7_8 
REMARK    7  A    between atoms: C28_32  and  O5_33 
REMARK    8  A    between atoms: O5_33  and  C29_34 
REMARK    9  A    between atoms: C30_36  and  C31_37 
REMARK   10  A    between atoms: C31_37  and  O7_38 
REMARK   11  A    between atoms: C32_39  and  O8_40 
REMARK   12  A    between atoms: C33_41  and  O9_42 
REMARK   13  A    between atoms: C34_43  and  O10_44 
ROOT
HETATM    1  C11 UNL     1      -1.138   6.893  13.433  1.00  0.00    -0.001 C 
HETATM    2  C12 UNL     1      -1.709   7.736  12.257  1.00  0.00     0.007 C 
HETATM    3  C13 UNL     1      -2.173   9.079  12.833  1.00  0.00     0.024 C 
HETATM    4  C14 UNL     1      -1.769   9.043  14.295  1.00  0.00     0.092 C 
HETATM    5  C15 UNL     1      -0.347   9.651  14.538  1.00  0.00     0.272 C 
HETATM    6  O2  UNL     1       0.612   9.628  13.787  1.00  0.00    -0.264 OA
HETATM    7  O3  UNL     1      -0.320  10.218  15.805  1.00  0.00    -0.305 OA
HETATM    8  C16 UNL     1      -1.571   9.924  16.461  1.00  0.00     0.113 C 
HETATM    9  C17 UNL     1      -1.420   8.460  17.026  1.00  0.00     0.043 C 
HETATM   10  C18 UNL     1      -1.029   7.375  16.001  1.00  0.00     0.014 C 
HETATM   11  C19 UNL     1      -1.810   7.541  14.683  1.00  0.00    -0.020 C 
HETATM   12  C20 UNL     1      -3.266   7.038  14.874  1.00  0.00     0.017 C 
HETATM   13  C21 UNL     1      -2.516   9.896  15.279  1.00  0.00     0.137 A 
HETATM   14  O4  UNL     1      -2.713  11.161  14.568  1.00  0.00    -0.364 OA
HETATM   15  C22 UNL     1      -3.820  10.686  15.297  1.00  0.00     0.162 A 
HETATM   16  C23 UNL     1      -4.127  11.644  16.417  1.00  0.00     0.041 C 
HETATM   17  C24 UNL     1      -2.809  12.176  17.067  1.00  0.00     0.009 C 
HETATM   18  C25 UNL     1      -3.004  13.432  18.010  1.00  0.00    -0.017 C 
HETATM   19  C26 UNL     1      -4.102  13.280  19.089  1.00  0.00     0.018 C 
HETATM   20  C27 UNL     1      -3.452  14.639  17.133  1.00  0.00     0.018 C 
HETATM   21  C28 UNL     1      -1.629  13.828  18.652  1.00  0.00     0.133 C 
HETATM   22  C35 UNL     1      -0.898  12.635  19.272  1.00  0.00     0.034 C 
HETATM   23  C36 UNL     1      -0.657  11.530  18.253  1.00  0.00     0.015 C 
HETATM   24  C37 UNL     1      -1.958  10.967  17.627  1.00  0.00    -0.004 C 
HETATM   25  C38 UNL     1      -2.761  10.236  18.743  1.00  0.00     0.019 C 
ENDROOT
BRANCH  21  26
HETATM   26  O5  UNL     1      -1.847  14.855  19.637  1.00  0.00    -0.352 OA
BRANCH  26  27
HETATM   27  C29 UNL     1      -0.648  15.484  20.092  1.00  0.00     0.292 C 
HETATM   28  O6  UNL     1      -0.714  15.899  21.459  1.00  0.00    -0.348 OA
HETATM   29  C30 UNL     1      -1.648  16.950  21.764  1.00  0.00     0.179 C 
HETATM   30  C32 UNL     1      -1.488  18.182  20.848  1.00  0.00     0.180 C 
HETATM   31  C33 UNL     1      -1.347  17.801  19.366  1.00  0.00     0.183 C 
HETATM   32  C34 UNL     1      -0.319  16.681  19.180  1.00  0.00     0.204 C 
BRANCH  29  33
HETATM   33  C31 UNL     1      -3.092  16.441  21.914  1.00  0.00     0.198 C 
BRANCH  33  34
HETATM   34  O7  UNL     1      -3.222  15.530  23.005  1.00  0.00    -0.398 OA
HETATM   35  H49 UNL     1      -2.742  15.929  23.758  1.00  0.00     0.209 HD
ENDBRANCH  33  34
ENDBRANCH  29  33
BRANCH  30  36
HETATM   36  O8  UNL     1      -2.574  19.106  21.014  1.00  0.00    -0.390 OA
HETATM   37  H51 UNL     1      -3.082  19.065  20.171  1.00  0.00     0.210 HD
ENDBRANCH  30  36
BRANCH  31  38
HETATM   38  O9  UNL     1      -2.651  17.488  18.855  1.00  0.00    -0.390 OA
HETATM   39  H53 UNL     1      -2.696  16.522  18.667  1.00  0.00     0.210 HD
ENDBRANCH  31  38
BRANCH  32  40
HETATM   40  O10 UNL     1       0.998  17.182  19.456  1.00  0.00    -0.388 OA
HETATM   41  H55 UNL     1       1.152  17.115  20.419  1.00  0.00     0.210 HD
ENDBRANCH  32  40
ENDBRANCH  26  27
ENDBRANCH  21  26
BRANCH   1  42
HETATM   42  C2  UNL     1      -1.283   5.359  13.187  1.00  0.00    -0.014 C 
HETATM   43  C1  UNL     1      -0.006   4.756  12.586  1.00  0.00     0.010 C 
BRANCH  42  44
HETATM   44  C3  UNL     1      -2.489   5.081  12.249  1.00  0.00     0.007 C 
BRANCH  44  45
HETATM   45  C4  UNL     1      -3.229   3.764  12.558  1.00  0.00     0.038 C 
BRANCH  45  46
HETATM   46  C5  UNL     1      -3.607   2.905  11.311  1.00  0.00     0.061 C 
HETATM   47  C6  UNL     1      -2.889   3.426  10.050  1.00  0.00     0.046 C 
BRANCH  46  48
HETATM   48  O1  UNL     1      -3.129   1.569  11.557  1.00  0.00    -0.389 OA
HETATM   49  H12 UNL     1      -2.161   1.566  11.475  1.00  0.00     0.210 HD
ENDBRANCH  46  48
BRANCH  46  50
HETATM   50  C7  UNL     1      -5.181   2.795  11.108  1.00  0.00    -0.021 C 
HETATM   51  C8  UNL     1      -5.938   3.716  12.099  1.00  0.00     0.017 C 
HETATM   52  C9  UNL     1      -5.605   3.242   9.688  1.00  0.00     0.017 C 
HETATM   53  C10 UNL     1      -5.696   1.357  11.324  1.00  0.00     0.017 C 
ENDBRANCH  46  50
ENDBRANCH  45  46
ENDBRANCH  44  45
ENDBRANCH  42  44
ENDBRANCH   1  42
TORSDOF 13
ENDMDL
MODEL 4
REMARK minimizedAffinity -9.43257046
REMARK CNNscore 0.148639962
REMARK CNNaffinity 7.10144758
REMARK  13 active torsions:
REMARK  status: ('A' for Active; 'I' for Inactive)
REMARK    1  A    between atoms: C2_2  and  C3_3 
REMARK    2  A    between atoms: C2_2  and  C11_12 
REMARK    3  A    between atoms: C3_3  and  C4_4 
REMARK    4  A    between atoms: C4_4  and  C5_5 
REMARK    5  A    between atoms: C5_5  and  O1_7 
REMARK    6  A    between atoms: C5_5  and  C7_8 
REMARK    7  A    between atoms: C28_32  and  O5_33 
REMARK    8  A    between atoms: O5_33  and  C29_34 
REMARK    9  A    between atoms: C30_36  and  C31_37 
REMARK   10  A    between atoms: C31_37  and  O7_38 
REMARK   11  A    between atoms: C32_39  and  O8_40 
REMARK   12  A    between atoms: C33_41  and  O9_42 
REMARK   13  A    between atoms: C34_43  and  O10_44 
ROOT
HETATM    1  C11 UNL     1      -0.007   7.442  13.392  1.00  0.00    -0.001 C 
HETATM    2  C12 UNL     1      -0.153   6.746  12.008  1.00  0.00     0.007 C 
HETATM    3  C13 UNL     1      -1.623   6.344  11.844  1.00  0.00     0.024 C 
HETATM    4  C14 UNL     1      -2.325   6.904  13.068  1.00  0.00     0.092 C 
HETATM    5  C15 UNL     1      -2.893   8.342  12.827  1.00  0.00     0.272 C 
HETATM    6  O2  UNL     1      -2.434   9.215  12.111  1.00  0.00    -0.264 OA
HETATM    7  O3  UNL     1      -4.029   8.505  13.608  1.00  0.00    -0.305 OA
HETATM    8  C16 UNL     1      -4.184   7.333  14.434  1.00  0.00     0.113 C 
HETATM    9  C17 UNL     1      -3.215   7.546  15.659  1.00  0.00     0.043 C 
HETATM   10  C18 UNL     1      -1.738   7.826  15.314  1.00  0.00     0.014 C 
HETATM   11  C19 UNL     1      -1.243   6.908  14.180  1.00  0.00    -0.020 C 
HETATM   12  C20 UNL     1      -0.990   5.482  14.739  1.00  0.00     0.017 C 
HETATM   13  C21 UNL     1      -3.602   6.266  13.531  1.00  0.00     0.137 A 
HETATM   14  O4  UNL     1      -4.328   5.991  12.290  1.00  0.00    -0.364 OA
HETATM   15  C22 UNL     1      -4.358   4.970  13.259  1.00  0.00     0.162 A 
HETATM   16  C23 UNL     1      -5.771   4.784  13.743  1.00  0.00     0.041 C 
HETATM   17  C24 UNL     1      -6.490   6.163  13.897  1.00  0.00     0.009 C 
HETATM   18  C25 UNL     1      -8.061   6.069  14.066  1.00  0.00    -0.017 C 
HETATM   19  C26 UNL     1      -8.547   5.094  15.164  1.00  0.00     0.018 C 
HETATM   20  C27 UNL     1      -8.665   5.527  12.736  1.00  0.00     0.018 C 
HETATM   21  C28 UNL     1      -8.655   7.505  14.278  1.00  0.00     0.133 C 
HETATM   22  C35 UNL     1      -7.915   8.300  15.355  1.00  0.00     0.034 C 
HETATM   23  C36 UNL     1      -6.431   8.432  15.040  1.00  0.00     0.015 C 
HETATM   24  C37 UNL     1      -5.698   7.071  14.920  1.00  0.00    -0.004 C 
HETATM   25  C38 UNL     1      -5.692   6.395  16.323  1.00  0.00     0.019 C 
ENDROOT
BRANCH  21  26
HETATM   26  O5  UNL     1     -10.053   7.392  14.603  1.00  0.00    -0.352 OA
BRANCH  26  27
HETATM   27  C29 UNL     1     -10.660   8.628  14.983  1.00  0.00     0.292 C 
HETATM   28  O6  UNL     1     -11.955   8.464  15.568  1.00  0.00    -0.348 OA
HETATM   29  C30 UNL     1     -12.988   7.963  14.702  1.00  0.00     0.179 C 
HETATM   30  C32 UNL     1     -13.105   8.756  13.382  1.00  0.00     0.180 C 
HETATM   31  C33 UNL     1     -11.739   9.023  12.732  1.00  0.00     0.183 C 
HETATM   32  C34 UNL     1     -10.736   9.559  13.758  1.00  0.00     0.204 C 
BRANCH  29  33
HETATM   33  C31 UNL     1     -12.939   6.435  14.533  1.00  0.00     0.198 C 
BRANCH  33  34
HETATM   34  O7  UNL     1     -14.245   5.874  14.402  1.00  0.00    -0.398 OA
HETATM   35  H49 UNL     1     -14.728   6.441  13.767  1.00  0.00     0.209 HD
ENDBRANCH  33  34
ENDBRANCH  29  33
BRANCH  30  36
HETATM   36  O8  UNL     1     -13.971   8.096  12.445  1.00  0.00    -0.390 OA
HETATM   37  H51 UNL     1     -13.381   7.784  11.721  1.00  0.00     0.210 HD
ENDBRANCH  30  36
BRANCH  31  38
HETATM   38  O9  UNL     1     -11.312   7.824  12.069  1.00  0.00    -0.390 OA
HETATM   39  H53 UNL     1     -10.540   7.451  12.554  1.00  0.00     0.210 HD
ENDBRANCH  31  38
BRANCH  32  40
HETATM   40  O10 UNL     1     -11.111  10.888  14.154  1.00  0.00    -0.388 OA
HETATM   41  H55 UNL     1     -11.761  10.815  14.880  1.00  0.00     0.210 HD
ENDBRANCH  32  40
ENDBRANCH  26  27
ENDBRANCH  21  26
BRANCH   1  42
HETATM   42  C2  UNL     1       1.423   7.274  13.991  1.00  0.00    -0.014 C 
HETATM   43  C1  UNL     1       1.701   8.304  15.094  1.00  0.00     0.010 C 
BRANCH  42  44
HETATM   44  C3  UNL     1       2.490   7.402  12.870  1.00  0.00     0.007 C 
BRANCH  44  45
HETATM   45  C4  UNL     1       2.360   6.339  11.761  1.00  0.00     0.038 C 
BRANCH  45  46
HETATM   46  C5  UNL     1       3.420   6.435  10.620  1.00  0.00     0.061 C 
HETATM   47  C6  UNL     1       4.625   7.289  11.064  1.00  0.00     0.046 C 
BRANCH  46  48
HETATM   48  O1  UNL     1       3.904   5.100  10.380  1.00  0.00    -0.389 OA
HETATM   49  H12 UNL     1       4.478   4.840  11.121  1.00  0.00     0.210 HD
ENDBRANCH  46  48
BRANCH  46  50
HETATM   50  C7  UNL     1       2.791   6.943   9.251  1.00  0.00    -0.021 C 
HETATM   51  C8  UNL     1       1.285   7.271   9.415  1.00  0.00     0.017 C 
HETATM   52  C9  UNL     1       3.468   8.246   8.761  1.00  0.00     0.017 C 
HETATM   53  C10 UNL     1       2.918   5.894   8.127  1.00  0.00     0.017 C 
ENDBRANCH  46  50
ENDBRANCH  45  46
ENDBRANCH  44  45
ENDBRANCH  42  44
ENDBRANCH   1  42
TORSDOF 13
ENDMDL
MODEL 5
REMARK minimizedAffinity -10.1157808
REMARK CNNscore 0.14042674
REMARK CNNaffinity 7.08322668
REMARK  13 active torsions:
REMARK  status: ('A' for Active; 'I' for Inactive)
REMARK    1  A    between atoms: C2_2  and  C3_3 
REMARK    2  A    between atoms: C2_2  and  C11_12 
REMARK    3  A    between atoms: C3_3  and  C4_4 
REMARK    4  A    between atoms: C4_4  and  C5_5 
REMARK    5  A    between atoms: C5_5  and  O1_7 
REMARK    6  A    between atoms: C5_5  and  C7_8 
REMARK    7  A    between atoms: C28_32  and  O5_33 
REMARK    8  A    between atoms: O5_33  and  C29_34 
REMARK    9  A    between atoms: C30_36  and  C31_37 
REMARK   10  A    between atoms: C31_37  and  O7_38 
REMARK   11  A    between atoms: C32_39  and  O8_40 
REMARK   12  A    between atoms: C33_41  and  O9_42 
REMARK   13  A    between atoms: C34_43  and  O10_44 
ROOT
HETATM    1  C11 UNL     1       3.432   8.128  10.463  1.00  0.00    -0.001 C 
HETATM    2  C12 UNL     1       3.246   6.855   9.590  1.00  0.00     0.007 C 
HETATM    3  C13 UNL     1       1.886   6.244   9.946  1.00  0.00     0.024 C 
HETATM    4  C14 UNL     1       1.259   7.219  10.926  1.00  0.00     0.092 C 
HETATM    5  C15 UNL     1       0.373   8.295  10.215  1.00  0.00     0.272 C 
HETATM    6  O2  UNL     1       0.533   8.781   9.109  1.00  0.00    -0.264 OA
HETATM    7  O3  UNL     1      -0.653   8.662  11.077  1.00  0.00    -0.305 OA
HETATM    8  C16 UNL     1      -0.440   8.002  12.342  1.00  0.00     0.113 C 
HETATM    9  C17 UNL     1       0.623   8.882  13.105  1.00  0.00     0.043 C 
HETATM   10  C18 UNL     1       1.945   9.148  12.356  1.00  0.00     0.014 C 
HETATM   11  C19 UNL     1       2.460   7.875  11.656  1.00  0.00    -0.020 C 
HETATM   12  C20 UNL     1       3.083   6.920  12.708  1.00  0.00     0.017 C 
HETATM   13  C21 UNL     1       0.223   6.719  11.889  1.00  0.00     0.137 A 
HETATM   14  O4  UNL     1      -0.595   5.808  11.085  1.00  0.00    -0.364 OA
HETATM   15  C22 UNL     1      -0.273   5.363  12.381  1.00  0.00     0.162 A 
HETATM   16  C23 UNL     1      -1.533   5.251  13.196  1.00  0.00     0.041 C 
HETATM   17  C24 UNL     1      -2.499   6.442  12.890  1.00  0.00     0.009 C 
HETATM   18  C25 UNL     1      -3.976   6.244  13.424  1.00  0.00    -0.017 C 
HETATM   19  C26 UNL     1      -4.087   5.843  14.913  1.00  0.00     0.018 C 
HETATM   20  C27 UNL     1      -4.630   5.073  12.632  1.00  0.00     0.018 C 
HETATM   21  C28 UNL     1      -4.824   7.526  13.116  1.00  0.00     0.133 C 
HETATM   22  C35 UNL     1      -4.126   8.817  13.548  1.00  0.00     0.034 C 
HETATM   23  C36 UNL     1      -2.762   8.969  12.888  1.00  0.00     0.015 C 
HETATM   24  C37 UNL     1      -1.783   7.813  13.213  1.00  0.00    -0.004 C 
HETATM   25  C38 UNL     1      -1.439   7.877  14.731  1.00  0.00     0.019 C 
ENDROOT
BRANCH  21  26
HETATM   26  O5  UNL     1      -6.108   7.406  13.757  1.00  0.00    -0.352 OA
BRANCH  26  27
HETATM   27  C29 UNL     1      -6.205   6.300  14.654  1.00  0.00     0.292 C 
HETATM   28  O6  UNL     1      -7.113   5.290  14.207  1.00  0.00    -0.348 OA
HETATM   29  C30 UNL     1      -8.503   5.658  14.154  1.00  0.00     0.179 C 
HETATM   30  C32 UNL     1      -9.013   6.276  15.474  1.00  0.00     0.180 C 
HETATM   31  C33 UNL     1      -8.048   7.327  16.044  1.00  0.00     0.183 C 
HETATM   32  C34 UNL     1      -6.608   6.807  16.052  1.00  0.00     0.204 C 
BRANCH  29  33
HETATM   33  C31 UNL     1      -8.862   6.455  12.888  1.00  0.00     0.198 C 
BRANCH  33  34
HETATM   34  O7  UNL     1     -10.275   6.575  12.721  1.00  0.00    -0.398 OA
HETATM   35  H49 UNL     1     -10.638   6.819  13.597  1.00  0.00     0.209 HD
ENDBRANCH  33  34
ENDBRANCH  29  33
BRANCH  30  36
HETATM   36  O8  UNL     1     -10.321   6.848  15.317  1.00  0.00    -0.390 OA
HETATM   37  H51 UNL     1     -10.192   7.820  15.397  1.00  0.00     0.210 HD
ENDBRANCH  30  36
BRANCH  31  38
HETATM   38  O9  UNL     1      -8.225   8.548  15.309  1.00  0.00    -0.390 OA
HETATM   39  H53 UNL     1      -7.419   8.711  14.767  1.00  0.00     0.210 HD
ENDBRANCH  31  38
BRANCH  32  40
HETATM   40  O10 UNL     1      -6.475   5.761  17.028  1.00  0.00    -0.388 OA
HETATM   41  H55 UNL     1      -6.740   4.920  16.608  1.00  0.00     0.210 HD
ENDBRANCH  32  40
ENDBRANCH  26  27
ENDBRANCH  21  26
BRANCH   1  42
HETATM   42  C2  UNL     1       4.936   8.438  10.745  1.00  0.00    -0.014 C 
HETATM   43  C1  UNL     1       5.809   7.182  10.611  1.00  0.00     0.010 C 
BRANCH  42  44
HETATM   44  C3  UNL     1       5.099   9.043  12.166  1.00  0.00     0.007 C 
BRANCH  44  45
HETATM   45  C4  UNL     1       6.319   8.502  12.937  1.00  0.00     0.038 C 
BRANCH  45  46
HETATM   46  C5  UNL     1       6.182   8.513  14.491  1.00  0.00     0.061 C 
HETATM   47  C6  UNL     1       4.912   9.273  14.922  1.00  0.00     0.046 C 
BRANCH  46  48
HETATM   48  O1  UNL     1       6.028   7.145  14.912  1.00  0.00    -0.389 OA
HETATM   49  H12 UNL     1       5.137   6.843  14.667  1.00  0.00     0.210 HD
ENDBRANCH  46  48
BRANCH  46  50
HETATM   50  C7  UNL     1       7.489   9.066  15.210  1.00  0.00    -0.021 C 
HETATM   51  C8  UNL     1       7.135   9.793  16.532  1.00  0.00     0.017 C 
HETATM   52  C9  UNL     1       8.459   7.920  15.590  1.00  0.00     0.017 C 
HETATM   53  C10 UNL     1       8.262  10.063  14.323  1.00  0.00     0.017 C 
ENDBRANCH  46  50
ENDBRANCH  45  46
ENDBRANCH  44  45
ENDBRANCH  42  44
ENDBRANCH   1  42
TORSDOF 13
ENDMDL
MODEL 6
REMARK minimizedAffinity -7.98265123
REMARK CNNscore 0.132418588
REMARK CNNaffinity 7.31240654
REMARK  13 active torsions:
REMARK  status: ('A' for Active; 'I' for Inactive)
REMARK    1  A    between atoms: C2_2  and  C3_3 
REMARK    2  A    between atoms: C2_2  and  C11_12 
REMARK    3  A    between atoms: C3_3  and  C4_4 
REMARK    4  A    between atoms: C4_4  and  C5_5 
REMARK    5  A    between atoms: C5_5  and  O1_7 
REMARK    6  A    between atoms: C5_5  and  C7_8 
REMARK    7  A    between atoms: C28_32  and  O5_33 
REMARK    8  A    between atoms: O5_33  and  C29_34 
REMARK    9  A    between atoms: C30_36  and  C31_37 
REMARK   10  A    between atoms: C31_37  and  O7_38 
REMARK   11  A    between atoms: C32_39  and  O8_40 
REMARK   12  A    between atoms: C33_41  and  O9_42 
REMARK   13  A    between atoms: C34_43  and  O10_44 
ROOT
HETATM    1  C11 UNL     1       0.050   7.866  13.271  1.00  0.00    -0.001 C 
HETATM    2  C12 UNL     1      -0.024   7.050  11.948  1.00  0.00     0.007 C 
HETATM    3  C13 UNL     1      -1.456   6.519  11.811  1.00  0.00     0.024 C 
HETATM    4  C14 UNL     1      -2.213   7.118  12.982  1.00  0.00     0.092 C 
HETATM    5  C15 UNL     1      -2.891   8.482  12.622  1.00  0.00     0.272 C 
HETATM    6  O2  UNL     1      -2.496   9.327  11.839  1.00  0.00    -0.264 OA
HETATM    7  O3  UNL     1      -4.046   8.615  13.382  1.00  0.00    -0.305 OA
HETATM    8  C16 UNL     1      -4.115   7.506  14.301  1.00  0.00     0.113 C 
HETATM    9  C17 UNL     1      -3.180   7.895  15.509  1.00  0.00     0.043 C 
HETATM   10  C18 UNL     1      -1.726   8.264  15.147  1.00  0.00     0.014 C 
HETATM   11  C19 UNL     1      -1.147   7.300  14.095  1.00  0.00    -0.020 C 
HETATM   12  C20 UNL     1      -0.787   5.949  14.770  1.00  0.00     0.017 C 
HETATM   13  C21 UNL     1      -3.440   6.419  13.491  1.00  0.00     0.137 A 
HETATM   14  O4  UNL     1      -4.128   5.986  12.273  1.00  0.00    -0.364 OA
HETATM   15  C22 UNL     1      -4.086   5.048  13.322  1.00  0.00     0.162 A 
HETATM   16  C23 UNL     1      -5.485   4.789  13.814  1.00  0.00     0.041 C 
HETATM   17  C24 UNL     1      -6.314   6.114  13.852  1.00  0.00     0.009 C 
HETATM   18  C25 UNL     1      -7.874   5.907  14.021  1.00  0.00    -0.017 C 
HETATM   19  C26 UNL     1      -8.292   4.989  15.193  1.00  0.00     0.018 C 
HETATM   20  C27 UNL     1      -8.418   5.212  12.738  1.00  0.00     0.018 C 
HETATM   21  C28 UNL     1      -8.584   7.303  14.112  1.00  0.00     0.133 C 
HETATM   22  C35 UNL     1      -7.922   8.240  15.124  1.00  0.00     0.034 C 
HETATM   23  C36 UNL     1      -6.450   8.465  14.805  1.00  0.00     0.015 C 
HETATM   24  C37 UNL     1      -5.609   7.163  14.800  1.00  0.00    -0.004 C 
HETATM   25  C38 UNL     1      -5.564   6.606  16.253  1.00  0.00     0.019 C 
ENDROOT
BRANCH  21  26
HETATM   26  O5  UNL     1      -9.972   7.105  14.439  1.00  0.00    -0.352 OA
BRANCH  26  27
HETATM   27  C29 UNL     1     -10.618   8.272  14.949  1.00  0.00     0.292 C 
HETATM   28  O6  UNL     1     -11.886   7.997  15.550  1.00  0.00    -0.348 OA
HETATM   29  C30 UNL     1     -12.924   7.532  14.669  1.00  0.00     0.179 C 
HETATM   30  C32 UNL     1     -13.114   8.437  13.433  1.00  0.00     0.180 C 
HETATM   31  C33 UNL     1     -11.781   8.824  12.775  1.00  0.00     0.183 C 
HETATM   32  C34 UNL     1     -10.771   9.308  13.819  1.00  0.00     0.204 C 
BRANCH  29  33
HETATM   33  C31 UNL     1     -12.815   6.030  14.357  1.00  0.00     0.198 C 
BRANCH  33  34
HETATM   34  O7  UNL     1     -14.096   5.401  14.329  1.00  0.00    -0.398 OA
HETATM   35  H49 UNL     1     -14.682   5.987  13.810  1.00  0.00     0.209 HD
ENDBRANCH  33  34
ENDBRANCH  29  33
BRANCH  30  36
HETATM   36  O8  UNL     1     -13.980   7.828  12.462  1.00  0.00    -0.390 OA
HETATM   37  H51 UNL     1     -13.401   7.611  11.696  1.00  0.00     0.210 HD
ENDBRANCH  30  36
BRANCH  31  38
HETATM   38  O9  UNL     1     -11.325   7.711  11.991  1.00  0.00    -0.390 OA
HETATM   39  H53 UNL     1     -10.523   7.330  12.418  1.00  0.00     0.210 HD
ENDBRANCH  31  38
BRANCH  32  40
HETATM   40  O10 UNL     1     -11.189  10.576  14.347  1.00  0.00    -0.388 OA
HETATM   41  H55 UNL     1     -11.813  10.408  15.080  1.00  0.00     0.210 HD
ENDBRANCH  32  40
ENDBRANCH  26  27
ENDBRANCH  21  26
BRANCH   1  42
HETATM   42  C2  UNL     1       1.483   7.863  13.888  1.00  0.00    -0.014 C 
HETATM   43  C1  UNL     1       2.349   6.736  13.308  1.00  0.00     0.010 C 
BRANCH  42  44
HETATM   44  C3  UNL     1       1.399   7.719  15.432  1.00  0.00     0.007 C 
BRANCH  44  45
HETATM   45  C4  UNL     1       2.578   8.369  16.184  1.00  0.00     0.038 C 
BRANCH  45  46
HETATM   46  C5  UNL     1       2.257   9.732  16.872  1.00  0.00     0.061 C 
HETATM   47  C6  UNL     1       0.802  10.158  16.590  1.00  0.00     0.046 C 
BRANCH  46  48
HETATM   48  O1  UNL     1       2.377   9.527  18.293  1.00  0.00    -0.389 OA
HETATM   49  H12 UNL     1       1.616   9.003  18.596  1.00  0.00     0.210 HD
ENDBRANCH  46  48
BRANCH  46  50
HETATM   50  C7  UNL     1       3.304  10.866  16.487  1.00  0.00    -0.021 C 
HETATM   51  C8  UNL     1       2.602  12.062  15.795  1.00  0.00     0.017 C 
HETATM   52  C9  UNL     1       4.010  11.440  17.738  1.00  0.00     0.017 C 
HETATM   53  C10 UNL     1       4.394  10.347  15.526  1.00  0.00     0.017 C 
ENDBRANCH  46  50
ENDBRANCH  45  46
ENDBRANCH  44  45
ENDBRANCH  42  44
ENDBRANCH   1  42
TORSDOF 13
ENDMDL
MODEL 7
REMARK minimizedAffinity -8.2128849
REMARK CNNscore 0.128745005
REMARK CNNaffinity 6.90731764
REMARK  13 active torsions:
REMARK  status: ('A' for Active; 'I' for Inactive)
REMARK    1  A    between atoms: C2_2  and  C3_3 
REMARK    2  A    between atoms: C2_2  and  C11_12 
REMARK    3  A    between atoms: C3_3  and  C4_4 
REMARK    4  A    between atoms: C4_4  and  C5_5 
REMARK    5  A    between atoms: C5_5  and  O1_7 
REMARK    6  A    between atoms: C5_5  and  C7_8 
REMARK    7  A    between atoms: C28_32  and  O5_33 
REMARK    8  A    between atoms: O5_33  and  C29_34 
REMARK    9  A    between atoms: C30_36  and  C31_37 
REMARK   10  A    between atoms: C31_37  and  O7_38 
REMARK   11  A    between atoms: C32_39  and  O8_40 
REMARK   12  A    between atoms: C33_41  and  O9_42 
REMARK   13  A    between atoms: C34_43  and  O10_44 
ROOT
HETATM    1  C11 UNL     1      -1.911   5.670  12.264  1.00  0.00    -0.001 C 
HETATM    2  C12 UNL     1      -2.519   4.761  13.371  1.00  0.00     0.007 C 
HETATM    3  C13 UNL     1      -2.814   5.647  14.587  1.00  0.00     0.024 C 
HETATM    4  C14 UNL     1      -2.484   7.058  14.137  1.00  0.00     0.092 C 
HETATM    5  C15 UNL     1      -3.724   7.802  13.537  1.00  0.00     0.272 C 
HETATM    6  O2  UNL     1      -4.654   7.319  12.916  1.00  0.00    -0.264 OA
HETATM    7  O3  UNL     1      -3.592   9.160  13.796  1.00  0.00    -0.305 OA
HETATM    8  C16 UNL     1      -2.306   9.382  14.410  1.00  0.00     0.113 C 
HETATM    9  C17 UNL     1      -1.270   9.427  13.222  1.00  0.00     0.043 C 
HETATM   10  C18 UNL     1      -1.265   8.203  12.282  1.00  0.00     0.014 C 
HETATM   11  C19 UNL     1      -1.366   6.886  13.075  1.00  0.00    -0.020 C 
HETATM   12  C20 UNL     1       0.004   6.567  13.731  1.00  0.00     0.017 C 
HETATM   13  C21 UNL     1      -2.122   8.086  15.169  1.00  0.00     0.137 A 
HETATM   14  O4  UNL     1      -3.060   7.830  16.265  1.00  0.00    -0.364 OA
HETATM   15  C22 UNL     1      -1.729   8.088  16.643  1.00  0.00     0.162 A 
HETATM   16  C23 UNL     1      -1.674   9.373  17.425  1.00  0.00     0.041 C 
HETATM   17  C24 UNL     1      -2.635  10.439  16.807  1.00  0.00     0.009 C 
HETATM   18  C25 UNL     1      -2.913  11.690  17.737  1.00  0.00    -0.017 C 
HETATM   19  C26 UNL     1      -1.650  12.381  18.303  1.00  0.00     0.018 C 
HETATM   20  C27 UNL     1      -3.711  11.206  18.983  1.00  0.00     0.018 C 
HETATM   21  C28 UNL     1      -3.831  12.714  16.983  1.00  0.00     0.133 C 
HETATM   22  C35 UNL     1      -3.333  13.030  15.571  1.00  0.00     0.034 C 
HETATM   23  C36 UNL     1      -3.211  11.772  14.722  1.00  0.00     0.015 C 
HETATM   24  C37 UNL     1      -2.232  10.721  15.305  1.00  0.00    -0.004 C 
HETATM   25  C38 UNL     1      -0.793  11.311  15.252  1.00  0.00     0.019 C 
ENDROOT
BRANCH  21  26
HETATM   26  O5  UNL     1      -3.933  13.919  17.764  1.00  0.00    -0.352 OA
BRANCH  26  27
HETATM   27  C29 UNL     1      -5.273  14.375  17.951  1.00  0.00     0.292 C 
HETATM   28  O6  UNL     1      -5.539  15.623  17.305  1.00  0.00    -0.348 OA
HETATM   29  C30 UNL     1      -4.838  16.770  17.817  1.00  0.00     0.179 C 
HETATM   30  C32 UNL     1      -4.981  16.930  19.346  1.00  0.00     0.180 C 
HETATM   31  C33 UNL     1      -4.770  15.608  20.099  1.00  0.00     0.183 C 
HETATM   32  C34 UNL     1      -5.575  14.474  19.459  1.00  0.00     0.204 C 
BRANCH  29  33
HETATM   33  C31 UNL     1      -3.397  16.874  17.290  1.00  0.00     0.198 C 
BRANCH  33  34
HETATM   34  O7  UNL     1      -3.235  17.984  16.407  1.00  0.00    -0.398 OA
HETATM   35  H49 UNL     1      -3.677  18.745  16.834  1.00  0.00     0.209 HD
ENDBRANCH  33  34
ENDBRANCH  29  33
BRANCH  30  36
HETATM   36  O8  UNL     1      -4.087  17.931  19.857  1.00  0.00    -0.390 OA
HETATM   37  H51 UNL     1      -3.421  17.439  20.389  1.00  0.00     0.210 HD
ENDBRANCH  30  36
BRANCH  31  38
HETATM   38  O9  UNL     1      -3.359  15.352  20.175  1.00  0.00    -0.390 OA
HETATM   39  H53 UNL     1      -3.146  14.577  19.606  1.00  0.00     0.210 HD
ENDBRANCH  31  38
BRANCH  32  40
HETATM   40  O10 UNL     1      -6.978  14.690  19.681  1.00  0.00    -0.388 OA
HETATM   41  H55 UNL     1      -7.309  15.278  18.974  1.00  0.00     0.210 HD
ENDBRANCH  32  40
ENDBRANCH  26  27
ENDBRANCH  21  26
BRANCH   1  42
HETATM   42  C2  UNL     1      -0.954   4.885  11.313  1.00  0.00    -0.014 C 
HETATM   43  C1  UNL     1      -0.778   3.428  11.762  1.00  0.00     0.010 C 
BRANCH  42  44
HETATM   44  C3  UNL     1       0.430   5.587  11.251  1.00  0.00     0.007 C 
BRANCH  44  45
HETATM   45  C4  UNL     1       0.570   6.586  10.084  1.00  0.00     0.038 C 
BRANCH  45  46
HETATM   46  C5  UNL     1       1.994   6.675   9.453  1.00  0.00     0.061 C 
HETATM   47  C6  UNL     1       2.995   7.296  10.447  1.00  0.00     0.046 C 
BRANCH  46  48
HETATM   48  O1  UNL     1       2.426   5.327   9.192  1.00  0.00    -0.389 OA
HETATM   49  H12 UNL     1       2.645   4.902  10.039  1.00  0.00     0.210 HD
ENDBRANCH  46  48
BRANCH  46  50
HETATM   50  C7  UNL     1       1.987   7.429   8.052  1.00  0.00    -0.021 C 
HETATM   51  C8  UNL     1       3.065   8.543   8.012  1.00  0.00     0.017 C 
HETATM   52  C9  UNL     1       2.314   6.467   6.885  1.00  0.00     0.017 C 
HETATM   53  C10 UNL     1       0.625   8.089   7.753  1.00  0.00     0.017 C 
ENDBRANCH  46  50
ENDBRANCH  45  46
ENDBRANCH  44  45
ENDBRANCH  42  44
ENDBRANCH   1  42
TORSDOF 13
ENDMDL
MODEL 8
REMARK minimizedAffinity -7.99637699
REMARK CNNscore 0.128332868
REMARK CNNaffinity 7.17555952
REMARK  13 active torsions:
REMARK  status: ('A' for Active; 'I' for Inactive)
REMARK    1  A    between atoms: C2_2  and  C3_3 
REMARK    2  A    between atoms: C2_2  and  C11_12 
REMARK    3  A    between atoms: C3_3  and  C4_4 
REMARK    4  A    between atoms: C4_4  and  C5_5 
REMARK    5  A    between atoms: C5_5  and  O1_7 
REMARK    6  A    between atoms: C5_5  and  C7_8 
REMARK    7  A    between atoms: C28_32  and  O5_33 
REMARK    8  A    between atoms: O5_33  and  C29_34 
REMARK    9  A    between atoms: C30_36  and  C31_37 
REMARK   10  A    between atoms: C31_37  and  O7_38 
REMARK   11  A    between atoms: C32_39  and  O8_40 
REMARK   12  A    between atoms: C33_41  and  O9_42 
REMARK   13  A    between atoms: C34_43  and  O10_44 
ROOT
HETATM    1  C11 UNL     1       0.239   7.544  13.568  1.00  0.00    -0.001 C 
HETATM    2  C12 UNL     1       0.167   6.827  12.190  1.00  0.00     0.007 C 
HETATM    3  C13 UNL     1      -1.292   6.414  11.958  1.00  0.00     0.024 C 
HETATM    4  C14 UNL     1      -2.057   6.987  13.137  1.00  0.00     0.092 C 
HETATM    5  C15 UNL     1      -2.619   8.418  12.848  1.00  0.00     0.272 C 
HETATM    6  O2  UNL     1      -2.130   9.283  12.143  1.00  0.00    -0.264 OA
HETATM    7  O3  UNL     1      -3.794   8.585  13.568  1.00  0.00    -0.305 OA
HETATM    8  C16 UNL     1      -3.984   7.424  14.402  1.00  0.00     0.113 C 
HETATM    9  C17 UNL     1      -3.078   7.660  15.671  1.00  0.00     0.043 C 
HETATM   10  C18 UNL     1      -1.587   7.944  15.396  1.00  0.00     0.014 C 
HETATM   11  C19 UNL     1      -1.032   7.013  14.302  1.00  0.00    -0.020 C 
HETATM   12  C20 UNL     1      -0.799   5.596  14.893  1.00  0.00     0.017 C 
HETATM   13  C21 UNL     1      -3.351   6.348  13.545  1.00  0.00     0.137 A 
HETATM   14  O4  UNL     1      -4.014   6.051  12.273  1.00  0.00    -0.364 OA
HETATM   15  C22 UNL     1      -4.086   5.043  13.254  1.00  0.00     0.162 A 
HETATM   16  C23 UNL     1      -5.520   4.855  13.669  1.00  0.00     0.041 C 
HETATM   17  C24 UNL     1      -6.254   6.232  13.768  1.00  0.00     0.009 C 
HETATM   18  C25 UNL     1      -7.830   6.131  13.859  1.00  0.00    -0.017 C 
HETATM   19  C26 UNL     1      -8.365   5.168  14.945  1.00  0.00     0.018 C 
HETATM   20  C27 UNL     1      -8.364   5.567  12.509  1.00  0.00     0.018 C 
HETATM   21  C28 UNL     1      -8.442   7.566  14.021  1.00  0.00     0.133 C 
HETATM   22  C35 UNL     1      -7.762   8.381  15.122  1.00  0.00     0.034 C 
HETATM   23  C36 UNL     1      -6.265   8.517  14.879  1.00  0.00     0.015 C 
HETATM   24  C37 UNL     1      -5.519   7.159  14.816  1.00  0.00    -0.004 C 
HETATM   25  C38 UNL     1      -5.580   6.503  16.226  1.00  0.00     0.019 C 
ENDROOT
BRANCH  21  26
HETATM   26  O5  UNL     1      -9.855   7.449  14.277  1.00  0.00    -0.352 OA
BRANCH  26  27
HETATM   27  C29 UNL     1     -10.649   8.416  13.589  1.00  0.00     0.292 C 
HETATM   28  O6  UNL     1     -11.019   9.528  14.409  1.00  0.00    -0.348 OA
HETATM   29  C30 UNL     1     -11.908   9.246  15.504  1.00  0.00     0.179 C 
HETATM   30  C32 UNL     1     -13.171   8.469  15.071  1.00  0.00     0.180 C 
HETATM   31  C33 UNL     1     -12.847   7.296  14.133  1.00  0.00     0.183 C 
HETATM   32  C34 UNL     1     -11.902   7.731  13.010  1.00  0.00     0.204 C 
BRANCH  29  33
HETATM   33  C31 UNL     1     -11.182   8.664  16.729  1.00  0.00     0.198 C 
BRANCH  33  34
HETATM   34  O7  UNL     1     -10.360   9.639  17.370  1.00  0.00    -0.398 OA
HETATM   35  H49 UNL     1     -10.897  10.454  17.436  1.00  0.00     0.209 HD
ENDBRANCH  33  34
ENDBRANCH  29  33
BRANCH  30  36
HETATM   36  O8  UNL     1     -13.914   7.997  16.205  1.00  0.00    -0.390 OA
HETATM   37  H51 UNL     1     -13.815   7.018  16.193  1.00  0.00     0.210 HD
ENDBRANCH  30  36
BRANCH  31  38
HETATM   38  O9  UNL     1     -12.350   6.208  14.926  1.00  0.00    -0.390 OA
HETATM   39  H53 UNL     1     -11.393   6.082  14.729  1.00  0.00     0.210 HD
ENDBRANCH  31  38
BRANCH  32  40
HETATM   40  O10 UNL     1     -12.591   8.614  12.110  1.00  0.00    -0.388 OA
HETATM   41  H55 UNL     1     -12.528   9.520  12.469  1.00  0.00     0.210 HD
ENDBRANCH  32  40
ENDBRANCH  26  27
ENDBRANCH  21  26
BRANCH   1  42
HETATM   42  C2  UNL     1       1.639   7.392  14.241  1.00  0.00    -0.014 C 
HETATM   43  C1  UNL     1       1.632   7.906  15.688  1.00  0.00     0.010 C 
BRANCH  42  44
HETATM   44  C3  UNL     1       2.712   8.154  13.417  1.00  0.00     0.007 C 
BRANCH  44  45
HETATM   45  C4  UNL     1       4.041   7.387  13.265  1.00  0.00     0.038 C 
BRANCH  45  46
HETATM   46  C5  UNL     1       5.317   8.280  13.163  1.00  0.00     0.061 C 
HETATM   47  C6  UNL     1       4.941   9.775  13.192  1.00  0.00     0.046 C 
BRANCH  46  48
HETATM   48  O1  UNL     1       6.114   8.014  14.333  1.00  0.00    -0.389 OA
HETATM   49  H12 UNL     1       5.683   8.425  15.102  1.00  0.00     0.210 HD
ENDBRANCH  46  48
BRANCH  46  50
HETATM   50  C7  UNL     1       6.216   7.908  11.906  1.00  0.00    -0.021 C 
HETATM   51  C8  UNL     1       6.453   9.145  11.002  1.00  0.00     0.017 C 
HETATM   52  C9  UNL     1       7.617   7.408  12.334  1.00  0.00     0.017 C 
HETATM   53  C10 UNL     1       5.571   6.811  11.033  1.00  0.00     0.017 C 
ENDBRANCH  46  50
ENDBRANCH  45  46
ENDBRANCH  44  45
ENDBRANCH  42  44
ENDBRANCH   1  42
TORSDOF 13
ENDMDL
MODEL 9
REMARK minimizedAffinity -8.51606178
REMARK CNNscore 0.123916417
REMARK CNNaffinity 6.98623896
REMARK  13 active torsions:
REMARK  status: ('A' for Active; 'I' for Inactive)
REMARK    1  A    between atoms: C2_2  and  C3_3 
REMARK    2  A    between atoms: C2_2  and  C11_12 
REMARK    3  A    between atoms: C3_3  and  C4_4 
REMARK    4  A    between atoms: C4_4  and  C5_5 
REMARK    5  A    between atoms: C5_5  and  O1_7 
REMARK    6  A    between atoms: C5_5  and  C7_8 
REMARK    7  A    between atoms: C28_32  and  O5_33 
REMARK    8  A    between atoms: O5_33  and  C29_34 
REMARK    9  A    between atoms: C30_36  and  C31_37 
REMARK   10  A    between atoms: C31_37  and  O7_38 
REMARK   11  A    between atoms: C32_39  and  O8_40 
REMARK   12  A    between atoms: C33_41  and  O9_42 
REMARK   13  A    between atoms: C34_43  and  O10_44 
ROOT
HETATM    1  C11 UNL     1      -1.129   6.772  13.789  1.00  0.00    -0.001 C 
HETATM    2  C12 UNL     1      -1.370   5.985  12.469  1.00  0.00     0.007 C 
HETATM    3  C13 UNL     1      -2.886   5.857  12.276  1.00  0.00     0.024 C 
HETATM    4  C14 UNL     1      -3.498   6.657  13.412  1.00  0.00     0.092 C 
HETATM    5  C15 UNL     1      -3.768   8.147  13.016  1.00  0.00     0.272 C 
HETATM    6  O2  UNL     1      -3.130   8.842  12.245  1.00  0.00    -0.264 OA
HETATM    7  O3  UNL     1      -4.872   8.599  13.727  1.00  0.00    -0.305 OA
HETATM    8  C16 UNL     1      -5.274   7.564  14.648  1.00  0.00     0.113 C 
HETATM    9  C17 UNL     1      -4.314   7.707  15.891  1.00  0.00     0.043 C 
HETATM   10  C18 UNL     1      -2.802   7.665  15.588  1.00  0.00     0.014 C 
HETATM   11  C19 UNL     1      -2.465   6.563  14.566  1.00  0.00    -0.020 C 
HETATM   12  C20 UNL     1      -2.509   5.177  15.263  1.00  0.00     0.017 C 
HETATM   13  C21 UNL     1      -4.886   6.323  13.873  1.00  0.00     0.137 A 
HETATM   14  O4  UNL     1      -5.619   6.071  12.631  1.00  0.00    -0.364 OA
HETATM   15  C22 UNL     1      -5.872   5.174  13.686  1.00  0.00     0.162 A 
HETATM   16  C23 UNL     1      -7.306   5.309  14.121  1.00  0.00     0.041 C 
HETATM   17  C24 UNL     1      -7.747   6.809  14.117  1.00  0.00     0.009 C 
HETATM   18  C25 UNL     1      -9.311   7.033  14.223  1.00  0.00    -0.017 C 
HETATM   19  C26 UNL     1     -10.006   6.281  15.382  1.00  0.00     0.018 C 
HETATM   20  C27 UNL     1      -9.973   6.489  12.922  1.00  0.00     0.018 C 
HETATM   21  C28 UNL     1      -9.620   8.570  14.277  1.00  0.00     0.133 C 
HETATM   22  C35 UNL     1      -8.769   9.311  15.310  1.00  0.00     0.034 C 
HETATM   23  C36 UNL     1      -7.280   9.125  15.051  1.00  0.00     0.015 C 
HETATM   24  C37 UNL     1      -6.822   7.645  15.088  1.00  0.00    -0.004 C 
HETATM   25  C38 UNL     1      -6.985   7.120  16.545  1.00  0.00     0.019 C 
ENDROOT
BRANCH  21  26
HETATM   26  O5  UNL     1     -11.022   8.758  14.548  1.00  0.00    -0.352 OA
BRANCH  26  27
HETATM   27  C29 UNL     1     -11.633   9.777  13.755  1.00  0.00     0.292 C 
HETATM   28  O6  UNL     1     -12.579  10.565  14.481  1.00  0.00    -0.348 OA
HETATM   29  C30 UNL     1     -13.766   9.887  14.928  1.00  0.00     0.179 C 
HETATM   30  C32 UNL     1     -14.482   9.117  13.797  1.00  0.00     0.180 C 
HETATM   31  C33 UNL     1     -13.510   8.297  12.936  1.00  0.00     0.183 C 
HETATM   32  C34 UNL     1     -12.297   9.136  12.521  1.00  0.00     0.204 C 
BRANCH  29  33
HETATM   33  C31 UNL     1     -13.544   9.078  16.217  1.00  0.00     0.198 C 
BRANCH  33  34
HETATM   34  O7  UNL     1     -12.214   8.565  16.297  1.00  0.00    -0.398 OA
HETATM   35  H49 UNL     1     -11.618   9.299  16.047  1.00  0.00     0.209 HD
ENDBRANCH  33  34
ENDBRANCH  29  33
BRANCH  30  36
HETATM   36  O8  UNL     1     -15.516   8.265  14.313  1.00  0.00    -0.390 OA
HETATM   37  H51 UNL     1     -15.193   7.346  14.167  1.00  0.00     0.210 HD
ENDBRANCH  30  36
BRANCH  31  38
HETATM   38  O9  UNL     1     -13.174   7.099  13.650  1.00  0.00    -0.390 OA
HETATM   39  H53 UNL     1     -12.230   7.147  13.926  1.00  0.00     0.210 HD
ENDBRANCH  31  38
BRANCH  32  40
HETATM   40  O10 UNL     1     -12.704  10.146  11.583  1.00  0.00    -0.388 OA
HETATM   41  H55 UNL     1     -13.022  10.918  12.089  1.00  0.00     0.210 HD
ENDBRANCH  32  40
ENDBRANCH  26  27
ENDBRANCH  21  26
BRANCH   1  42
HETATM   42  C2  UNL     1       0.225   6.393  14.465  1.00  0.00    -0.014 C 
HETATM   43  C1  UNL     1       0.664   7.450  15.488  1.00  0.00     0.010 C 
BRANCH  42  44
HETATM   44  C3  UNL     1       1.329   6.215  13.387  1.00  0.00     0.007 C 
BRANCH  44  45
HETATM   45  C4  UNL     1       2.365   7.357  13.361  1.00  0.00     0.038 C 
BRANCH  45  46
HETATM   46  C5  UNL     1       2.557   8.050  11.976  1.00  0.00     0.061 C 
HETATM   47  C6  UNL     1       1.194   8.340  11.316  1.00  0.00     0.046 C 
BRANCH  46  48
HETATM   48  O1  UNL     1       3.194   9.317  12.222  1.00  0.00    -0.389 OA
HETATM   49  H12 UNL     1       2.543   9.919  12.621  1.00  0.00     0.210 HD
ENDBRANCH  46  48
BRANCH  46  50
HETATM   50  C7  UNL     1       3.528   7.230  11.020  1.00  0.00    -0.021 C 
HETATM   51  C8  UNL     1       3.968   8.085   9.804  1.00  0.00     0.017 C 
HETATM   52  C9  UNL     1       4.827   6.811  11.750  1.00  0.00     0.017 C 
HETATM   53  C10 UNL     1       2.862   5.951  10.472  1.00  0.00     0.017 C 
ENDBRANCH  46  50
ENDBRANCH  45  46
ENDBRANCH  44  45
ENDBRANCH  42  44
ENDBRANCH   1  42
TORSDOF 13
ENDMDL
