MODEL 1
REMARK minimizedAffinity -9.86257458
REMARK  7 active torsions:
REMARK  status: ('A' for Active; 'I' for Inactive)
REMARK    1  A    between atoms: C16_17  and  O2_18 
REMARK    2  A    between atoms: O2_18  and  C17_19 
REMARK    3  A    between atoms: C17_19  and  C18_21 
REMARK    4  A    between atoms: C18_21  and  C19_22 
REMARK    5  A    between atoms: C19_22  and  C20_23 
REMARK       I    between atoms: C20_23  and  N1_25 
REMARK    6  A    between atoms: N1_25  and  C21_26 
REMARK    7  A    between atoms: C21_26  and  C22_27 
ROOT
HETATM    1  C1  UNL     1      -2.153  51.871 -18.735  1.00  0.00     0.020 C 
HETATM    2  C2  UNL     1      -0.747  51.354 -19.107  1.00  0.00    -0.016 C 
HETATM    3  C3  UNL     1      -0.440  50.079 -18.267  1.00  0.00     0.022 C 
HETATM    4  C4  UNL     1      -0.101  50.368 -16.811  1.00  0.00     0.084 C 
HETATM    5  C5  UNL     1       1.048  51.335 -16.730  1.00  0.00     0.149 C 
HETATM    6  O1  UNL     1       1.876  51.301 -15.825  1.00  0.00    -0.293 OA
HETATM    7  C6  UNL     1       1.115  52.416 -17.740  1.00  0.00     0.053 C 
HETATM    8  C7  UNL     1       0.275  52.456 -18.788  1.00  0.00    -0.068 C 
HETATM    9  C8  UNL     1       0.307  53.640 -19.726  1.00  0.00     0.035 C 
HETATM   10  C9  UNL     1       0.436  53.210 -21.181  1.00  0.00     0.010 C 
HETATM   11  C10 UNL     1      -0.670  52.222 -21.574  1.00  0.00    -0.004 C 
HETATM   12  C11 UNL     1      -0.639  50.978 -20.636  1.00  0.00     0.002 C 
HETATM   13  C12 UNL     1      -1.647  49.889 -21.088  1.00  0.00     0.007 C 
HETATM   14  C13 UNL     1      -1.549  49.538 -22.582  1.00  0.00     0.012 C 
HETATM   15  C14 UNL     1      -1.621  50.786 -23.474  1.00  0.00    -0.013 C 
HETATM   16  C15 UNL     1      -3.049  51.383 -23.412  1.00  0.00     0.018 C 
HETATM   17  C16 UNL     1      -1.188  50.569 -24.945  1.00  0.00     0.140 C 
HETATM   18  C27 UNL     1      -0.744  51.976 -25.408  1.00  0.00     0.034 C 
HETATM   19  C28 UNL     1      -0.448  52.786 -24.136  1.00  0.00     0.008 C 
HETATM   20  C29 UNL     1      -0.503  51.747 -23.021  1.00  0.00     0.001 C 
ENDROOT
BRANCH  17  21
HETATM   21  O2  UNL     1      -2.233  50.111 -25.810  1.00  0.00    -0.315 OA
BRANCH  21  22
HETATM   22  C17 UNL     1      -2.461  50.860 -26.925  1.00  0.00     0.259 C 
HETATM   23  O3  UNL     1      -1.988  51.966 -27.145  1.00  0.00    -0.265 OA
BRANCH  22  24
HETATM   24  C18 UNL     1      -3.325  50.096 -27.899  1.00  0.00     0.120 C 
BRANCH  24  25
HETATM   25  C19 UNL     1      -3.832  48.783 -27.317  1.00  0.00     0.112 C 
BRANCH  25  26
HETATM   26  C20 UNL     1      -5.077  48.290 -28.027  1.00  0.00     0.218 C 
HETATM   27  O4  UNL     1      -5.944  47.617 -27.486  1.00  0.00    -0.274 OA
HETATM   28  N1  UNL     1      -5.135  48.680 -29.347  1.00  0.00    -0.357 N 
HETATM   29  H27 UNL     1      -4.323  49.101 -29.775  1.00  0.00     0.162 HD
BRANCH  28  30
HETATM   30  C21 UNL     1      -6.202  48.231 -30.218  1.00  0.00     0.162 C 
BRANCH  30  31
HETATM   31  C22 UNL     1      -5.832  46.955 -30.914  1.00  0.00    -0.025 A 
HETATM   32  C23 UNL     1      -4.785  46.897 -31.839  1.00  0.00     0.011 A 
HETATM   33  C24 UNL     1      -4.472  45.688 -32.453  1.00  0.00     0.018 A 
HETATM   34  C25 UNL     1      -5.215  44.569 -32.116  1.00  0.00     0.087 A 
HETATM   35  N2  UNL     1      -6.227  44.581 -31.223  1.00  0.00    -0.375 N 
HETATM   36  C26 UNL     1      -6.514  45.770 -30.644  1.00  0.00     0.096 A 
ATOM     37  H2  UNL     1      -6.749  43.735 -30.995  1.00  0.00     0.164 HD
ENDBRANCH  30  31
ENDBRANCH  28  30
ENDBRANCH  25  26
ENDBRANCH  24  25
ENDBRANCH  22  24
ENDBRANCH  21  22
ENDBRANCH  17  21
TORSDOF 7
ENDMDL
MODEL 2
REMARK minimizedAffinity -9.82374573
REMARK  7 active torsions:
REMARK  status: ('A' for Active; 'I' for Inactive)
REMARK    1  A    between atoms: C16_17  and  O2_18 
REMARK    2  A    between atoms: O2_18  and  C17_19 
REMARK    3  A    between atoms: C17_19  and  C18_21 
REMARK    4  A    between atoms: C18_21  and  C19_22 
REMARK    5  A    between atoms: C19_22  and  C20_23 
REMARK       I    between atoms: C20_23  and  N1_25 
REMARK    6  A    between atoms: N1_25  and  C21_26 
REMARK    7  A    between atoms: C21_26  and  C22_27 
ROOT
HETATM    1  C1  UNL     1      -2.269  51.394 -18.572  1.00  0.00     0.020 C 
HETATM    2  C2  UNL     1      -0.883  50.770 -18.842  1.00  0.00    -0.016 C 
HETATM    3  C3  UNL     1      -0.933  49.257 -18.477  1.00  0.00     0.022 C 
HETATM    4  C4  UNL     1      -0.920  48.983 -16.979  1.00  0.00     0.084 C 
HETATM    5  C5  UNL     1       0.279  49.633 -16.346  1.00  0.00     0.149 C 
HETATM    6  O1  UNL     1       0.858  49.148 -15.378  1.00  0.00    -0.293 OA
HETATM    7  C6  UNL     1       0.708  50.951 -16.867  1.00  0.00     0.053 C 
HETATM    8  C7  UNL     1       0.151  51.492 -17.964  1.00  0.00    -0.068 C 
HETATM    9  C8  UNL     1       0.541  52.888 -18.388  1.00  0.00     0.035 C 
HETATM   10  C9  UNL     1       0.963  52.942 -19.850  1.00  0.00     0.010 C 
HETATM   11  C10 UNL     1      -0.122  52.367 -20.769  1.00  0.00    -0.004 C 
HETATM   12  C11 UNL     1      -0.458  50.902 -20.355  1.00  0.00     0.002 C 
HETATM   13  C12 UNL     1      -1.446  50.234 -21.346  1.00  0.00     0.007 C 
HETATM   14  C13 UNL     1      -1.036  50.380 -22.821  1.00  0.00     0.012 C 
HETATM   15  C14 UNL     1      -0.750  51.840 -23.200  1.00  0.00    -0.013 C 
HETATM   16  C15 UNL     1      -2.074  52.644 -23.189  1.00  0.00     0.018 C 
HETATM   17  C16 UNL     1      -0.007  52.039 -24.543  1.00  0.00     0.140 C 
HETATM   18  C27 UNL     1       0.692  53.408 -24.377  1.00  0.00     0.034 C 
HETATM   19  C28 UNL     1       0.766  53.685 -22.867  1.00  0.00     0.008 C 
HETATM   20  C29 UNL     1       0.330  52.369 -22.233  1.00  0.00     0.001 C 
ENDROOT
BRANCH  17  21
HETATM   21  O2  UNL     1      -0.861  52.097 -25.691  1.00  0.00    -0.315 OA
BRANCH  21  22
HETATM   22  C17 UNL     1      -0.997  50.940 -26.398  1.00  0.00     0.259 C 
HETATM   23  O3  UNL     1      -0.113  50.396 -27.044  1.00  0.00    -0.265 OA
BRANCH  22  24
HETATM   24  C18 UNL     1      -2.383  50.373 -26.207  1.00  0.00     0.120 C 
BRANCH  24  25
HETATM   25  C19 UNL     1      -3.137  50.231 -27.522  1.00  0.00     0.112 C 
BRANCH  25  26
HETATM   26  C20 UNL     1      -4.009  48.991 -27.547  1.00  0.00     0.218 C 
HETATM   27  O4  UNL     1      -4.016  48.149 -26.660  1.00  0.00    -0.274 OA
HETATM   28  N1  UNL     1      -4.798  48.910 -28.673  1.00  0.00    -0.357 N 
HETATM   29  H27 UNL     1      -4.639  49.552 -29.437  1.00  0.00     0.162 HD
BRANCH  28  30
HETATM   30  C21 UNL     1      -5.633  47.754 -28.925  1.00  0.00     0.162 C 
BRANCH  30  31
HETATM   31  C22 UNL     1      -6.948  48.155 -29.526  1.00  0.00    -0.025 A 
HETATM   32  C23 UNL     1      -7.074  48.455 -30.886  1.00  0.00     0.011 A 
HETATM   33  C24 UNL     1      -8.317  48.813 -31.401  1.00  0.00     0.018 A 
HETATM   34  C25 UNL     1      -9.399  48.853 -30.537  1.00  0.00     0.087 A 
HETATM   35  N2  UNL     1      -9.319  48.562 -29.222  1.00  0.00    -0.375 N 
HETATM   36  C26 UNL     1      -8.099  48.222 -28.745  1.00  0.00     0.096 A 
ATOM     37  H2  UNL     1     -10.140  48.597 -28.616  1.00  0.00     0.164 HD
ENDBRANCH  30  31
ENDBRANCH  28  30
ENDBRANCH  25  26
ENDBRANCH  24  25
ENDBRANCH  22  24
ENDBRANCH  21  22
ENDBRANCH  17  21
TORSDOF 7
ENDMDL
MODEL 3
REMARK minimizedAffinity -9.78053951
REMARK  7 active torsions:
REMARK  status: ('A' for Active; 'I' for Inactive)
REMARK    1  A    between atoms: C16_17  and  O2_18 
REMARK    2  A    between atoms: O2_18  and  C17_19 
REMARK    3  A    between atoms: C17_19  and  C18_21 
REMARK    4  A    between atoms: C18_21  and  C19_22 
REMARK    5  A    between atoms: C19_22  and  C20_23 
REMARK       I    between atoms: C20_23  and  N1_25 
REMARK    6  A    between atoms: N1_25  and  C21_26 
REMARK    7  A    between atoms: C21_26  and  C22_27 
ROOT
HETATM    1  C1  UNL     1      -2.082  51.941 -19.107  1.00  0.00     0.020 C 
HETATM    2  C2  UNL     1      -0.645  51.409 -19.294  1.00  0.00    -0.016 C 
HETATM    3  C3  UNL     1      -0.533  50.011 -18.618  1.00  0.00     0.022 C 
HETATM    4  C4  UNL     1      -0.465  50.065 -17.097  1.00  0.00     0.084 C 
HETATM    5  C5  UNL     1       0.673  50.948 -16.663  1.00  0.00     0.149 C 
HETATM    6  O1  UNL     1       1.316  50.737 -15.639  1.00  0.00    -0.293 OA
HETATM    7  C6  UNL     1       0.956  52.159 -17.466  1.00  0.00     0.053 C 
HETATM    8  C7  UNL     1       0.327  52.397 -18.630  1.00  0.00    -0.068 C 
HETATM    9  C8  UNL     1       0.564  53.701 -19.353  1.00  0.00     0.035 C 
HETATM   10  C9  UNL     1       0.952  53.483 -20.809  1.00  0.00     0.010 C 
HETATM   11  C10 UNL     1      -0.086  52.623 -21.543  1.00  0.00    -0.004 C 
HETATM   12  C11 UNL     1      -0.263  51.256 -20.817  1.00  0.00     0.002 C 
HETATM   13  C12 UNL     1      -1.196  50.300 -21.605  1.00  0.00     0.007 C 
HETATM   14  C13 UNL     1      -0.830  50.166 -23.093  1.00  0.00     0.012 C 
HETATM   15  C14 UNL     1      -0.702  51.533 -23.781  1.00  0.00    -0.013 C 
HETATM   16  C15 UNL     1      -2.100  52.190 -23.888  1.00  0.00     0.018 C 
HETATM   17  C16 UNL     1      -0.007  51.510 -25.165  1.00  0.00     0.140 C 
HETATM   18  C27 UNL     1       0.551  52.944 -25.319  1.00  0.00     0.034 C 
HETATM   19  C28 UNL     1       0.625  53.543 -23.905  1.00  0.00     0.008 C 
HETATM   20  C29 UNL     1       0.336  52.357 -22.992  1.00  0.00     0.001 C 
ENDROOT
BRANCH  17  21
HETATM   21  O2  UNL     1      -0.884  51.241 -26.264  1.00  0.00    -0.315 OA
BRANCH  21  22
HETATM   22  C17 UNL     1      -1.566  52.309 -26.765  1.00  0.00     0.259 C 
HETATM   23  O3  UNL     1      -1.084  53.406 -27.008  1.00  0.00    -0.265 OA
BRANCH  22  24
HETATM   24  C18 UNL     1      -2.996  51.924 -27.057  1.00  0.00     0.120 C 
BRANCH  24  25
HETATM   25  C19 UNL     1      -3.098  50.617 -27.831  1.00  0.00     0.112 C 
BRANCH  25  26
HETATM   26  C20 UNL     1      -3.489  49.457 -26.939  1.00  0.00     0.218 C 
HETATM   27  O4  UNL     1      -3.139  48.301 -27.137  1.00  0.00    -0.274 OA
HETATM   28  N1  UNL     1      -4.280  49.836 -25.876  1.00  0.00    -0.357 N 
HETATM   29  H27 UNL     1      -4.659  50.772 -25.851  1.00  0.00     0.162 HD
BRANCH  28  30
HETATM   30  C21 UNL     1      -4.831  48.858 -24.962  1.00  0.00     0.162 C 
BRANCH  30  31
HETATM   31  C22 UNL     1      -4.912  49.405 -23.567  1.00  0.00    -0.025 A 
HETATM   32  C23 UNL     1      -4.477  48.669 -22.461  1.00  0.00     0.011 A 
HETATM   33  C24 UNL     1      -4.564  49.223 -21.187  1.00  0.00     0.018 A 
HETATM   34  C25 UNL     1      -5.077  50.502 -21.060  1.00  0.00     0.087 A 
HETATM   35  N2  UNL     1      -5.499  51.248 -22.103  1.00  0.00    -0.375 N 
HETATM   36  C26 UNL     1      -5.410  50.685 -23.330  1.00  0.00     0.096 A 
ATOM     37  H2  UNL     1      -5.867  52.190 -21.972  1.00  0.00     0.164 HD
ENDBRANCH  30  31
ENDBRANCH  28  30
ENDBRANCH  25  26
ENDBRANCH  24  25
ENDBRANCH  22  24
ENDBRANCH  21  22
ENDBRANCH  17  21
TORSDOF 7
ENDMDL
MODEL 4
REMARK minimizedAffinity -9.47210979
REMARK  7 active torsions:
REMARK  status: ('A' for Active; 'I' for Inactive)
REMARK    1  A    between atoms: C16_17  and  O2_18 
REMARK    2  A    between atoms: O2_18  and  C17_19 
REMARK    3  A    between atoms: C17_19  and  C18_21 
REMARK    4  A    between atoms: C18_21  and  C19_22 
REMARK    5  A    between atoms: C19_22  and  C20_23 
REMARK       I    between atoms: C20_23  and  N1_25 
REMARK    6  A    between atoms: N1_25  and  C21_26 
REMARK    7  A    between atoms: C21_26  and  C22_27 
ROOT
HETATM    1  C1  UNL     1      -0.118  49.741 -20.634  1.00  0.00     0.020 C 
HETATM    2  C2  UNL     1      -0.774  51.060 -21.099  1.00  0.00    -0.016 C 
HETATM    3  C3  UNL     1       0.162  51.749 -22.135  1.00  0.00     0.022 C 
HETATM    4  C4  UNL     1       1.385  52.413 -21.515  1.00  0.00     0.084 C 
HETATM    5  C5  UNL     1       0.959  53.396 -20.459  1.00  0.00     0.149 C 
HETATM    6  O1  UNL     1       1.583  54.428 -20.230  1.00  0.00    -0.293 OA
HETATM    7  C6  UNL     1      -0.208  53.047 -19.618  1.00  0.00     0.053 C 
HETATM    8  C7  UNL     1      -0.963  51.965 -19.872  1.00  0.00    -0.068 C 
HETATM    9  C8  UNL     1      -2.070  51.586 -18.917  1.00  0.00     0.035 C 
HETATM   10  C9  UNL     1      -3.399  51.390 -19.634  1.00  0.00     0.010 C 
HETATM   11  C10 UNL     1      -3.276  50.368 -20.773  1.00  0.00    -0.004 C 
HETATM   12  C11 UNL     1      -2.175  50.816 -21.781  1.00  0.00     0.002 C 
HETATM   13  C12 UNL     1      -2.117  49.887 -23.022  1.00  0.00     0.007 C 
HETATM   14  C13 UNL     1      -3.488  49.640 -23.674  1.00  0.00     0.012 C 
HETATM   15  C14 UNL     1      -4.534  49.165 -22.656  1.00  0.00    -0.013 C 
HETATM   16  C15 UNL     1      -4.180  47.734 -22.181  1.00  0.00     0.018 C 
HETATM   17  C16 UNL     1      -6.003  49.225 -23.144  1.00  0.00     0.140 C 
HETATM   18  C27 UNL     1      -6.820  49.332 -21.836  1.00  0.00     0.034 C 
HETATM   19  C28 UNL     1      -5.853  49.834 -20.751  1.00  0.00     0.008 C 
HETATM   20  C29 UNL     1      -4.600  50.217 -21.529  1.00  0.00     0.001 C 
ENDROOT
BRANCH  17  21
HETATM   21  O2  UNL     1      -6.437  48.065 -23.861  1.00  0.00    -0.315 OA
BRANCH  21  22
HETATM   22  C17 UNL     1      -7.255  48.289 -24.928  1.00  0.00     0.259 C 
HETATM   23  O3  UNL     1      -8.373  48.781 -24.872  1.00  0.00    -0.265 OA
BRANCH  22  24
HETATM   24  C18 UNL     1      -6.553  47.917 -26.211  1.00  0.00     0.120 C 
BRANCH  24  25
HETATM   25  C19 UNL     1      -5.037  47.932 -26.069  1.00  0.00     0.112 C 
BRANCH  25  26
HETATM   26  C20 UNL     1      -4.362  48.599 -27.250  1.00  0.00     0.218 C 
HETATM   27  O4  UNL     1      -4.328  48.115 -28.374  1.00  0.00    -0.274 OA
HETATM   28  N1  UNL     1      -3.790  49.811 -26.931  1.00  0.00    -0.357 N 
HETATM   29  H27 UNL     1      -3.718  50.084 -25.961  1.00  0.00     0.162 HD
BRANCH  28  30
HETATM   30  C21 UNL     1      -3.019  50.558 -27.903  1.00  0.00     0.162 C 
BRANCH  30  31
HETATM   31  C22 UNL     1      -1.882  51.286 -27.249  1.00  0.00    -0.025 A 
HETATM   32  C23 UNL     1      -0.925  50.618 -26.480  1.00  0.00     0.011 A 
HETATM   33  C24 UNL     1       0.118  51.335 -25.901  1.00  0.00     0.018 A 
HETATM   34  C25 UNL     1       0.174  52.702 -26.115  1.00  0.00     0.087 A 
HETATM   35  N2  UNL     1      -0.725  53.382 -26.858  1.00  0.00    -0.375 N 
HETATM   36  C26 UNL     1      -1.732  52.663 -27.406  1.00  0.00     0.096 A 
ATOM     37  H2  UNL     1      -0.649  54.389 -26.999  1.00  0.00     0.164 HD
ENDBRANCH  30  31
ENDBRANCH  28  30
ENDBRANCH  25  26
ENDBRANCH  24  25
ENDBRANCH  22  24
ENDBRANCH  21  22
ENDBRANCH  17  21
TORSDOF 7
ENDMDL
MODEL 5
REMARK minimizedAffinity -9.31975079
REMARK  7 active torsions:
REMARK  status: ('A' for Active; 'I' for Inactive)
REMARK    1  A    between atoms: C16_17  and  O2_18 
REMARK    2  A    between atoms: O2_18  and  C17_19 
REMARK    3  A    between atoms: C17_19  and  C18_21 
REMARK    4  A    between atoms: C18_21  and  C19_22 
REMARK    5  A    between atoms: C19_22  and  C20_23 
REMARK       I    between atoms: C20_23  and  N1_25 
REMARK    6  A    between atoms: N1_25  and  C21_26 
REMARK    7  A    between atoms: C21_26  and  C22_27 
ROOT
HETATM    1  C1  UNL     1      -2.565  50.929 -17.168  1.00  0.00     0.020 C 
HETATM    2  C2  UNL     1      -1.362  50.149 -17.741  1.00  0.00    -0.016 C 
HETATM    3  C3  UNL     1      -1.316  48.739 -17.081  1.00  0.00     0.022 C 
HETATM    4  C4  UNL     1      -0.806  48.747 -15.646  1.00  0.00     0.084 C 
HETATM    5  C5  UNL     1       0.548  49.398 -15.583  1.00  0.00     0.149 C 
HETATM    6  O1  UNL     1       1.409  49.052 -14.779  1.00  0.00    -0.293 OA
HETATM    7  C6  UNL     1       0.802  50.555 -16.471  1.00  0.00     0.053 C 
HETATM    8  C7  UNL     1      -0.080  50.929 -17.413  1.00  0.00    -0.068 C 
HETATM    9  C8  UNL     1       0.171  52.184 -18.215  1.00  0.00     0.035 C 
HETATM   10  C9  UNL     1       0.079  51.931 -19.714  1.00  0.00     0.010 C 
HETATM   11  C10 UNL     1      -1.263  51.291 -20.092  1.00  0.00    -0.004 C 
HETATM   12  C11 UNL     1      -1.468  49.962 -19.304  1.00  0.00     0.002 C 
HETATM   13  C12 UNL     1      -2.744  49.209 -19.762  1.00  0.00     0.007 C 
HETATM   14  C13 UNL     1      -2.850  49.044 -21.288  1.00  0.00     0.012 C 
HETATM   15  C14 UNL     1      -2.680  50.379 -22.026  1.00  0.00    -0.013 C 
HETATM   16  C15 UNL     1      -3.908  51.282 -21.749  1.00  0.00     0.018 C 
HETATM   17  C16 UNL     1      -2.427  50.262 -23.550  1.00  0.00     0.140 C 
HETATM   18  C27 UNL     1      -1.687  51.573 -23.901  1.00  0.00     0.034 C 
HETATM   19  C28 UNL     1      -1.105  52.117 -22.587  1.00  0.00     0.008 C 
HETATM   20  C29 UNL     1      -1.329  50.984 -21.593  1.00  0.00     0.001 C 
ENDROOT
BRANCH  17  21
HETATM   21  O2  UNL     1      -3.616  50.180 -24.343  1.00  0.00    -0.315 OA
BRANCH  21  22
HETATM   22  C17 UNL     1      -3.896  48.960 -24.883  1.00  0.00     0.259 C 
HETATM   23  O3  UNL     1      -4.793  48.213 -24.519  1.00  0.00    -0.265 OA
BRANCH  22  24
HETATM   24  C18 UNL     1      -2.986  48.687 -26.056  1.00  0.00     0.120 C 
BRANCH  24  25
HETATM   25  C19 UNL     1      -3.126  49.732 -27.154  1.00  0.00     0.112 C 
BRANCH  25  26
HETATM   26  C20 UNL     1      -1.972  50.715 -27.157  1.00  0.00     0.218 C 
HETATM   27  O4  UNL     1      -0.857  50.451 -26.729  1.00  0.00    -0.274 OA
HETATM   28  N1  UNL     1      -2.307  51.938 -27.695  1.00  0.00    -0.357 N 
HETATM   29  H27 UNL     1      -3.276  52.145 -27.890  1.00  0.00     0.162 HD
BRANCH  28  30
HETATM   30  C21 UNL     1      -1.366  53.039 -27.703  1.00  0.00     0.162 C 
BRANCH  30  31
HETATM   31  C22 UNL     1       0.037  52.555 -27.480  1.00  0.00    -0.025 A 
HETATM   32  C23 UNL     1       0.802  52.012 -28.516  1.00  0.00     0.011 A 
HETATM   33  C24 UNL     1       2.102  51.586 -28.263  1.00  0.00     0.018 A 
HETATM   34  C25 UNL     1       2.601  51.723 -26.979  1.00  0.00     0.087 A 
HETATM   35  N2  UNL     1       1.897  52.249 -25.954  1.00  0.00    -0.375 N 
HETATM   36  C26 UNL     1       0.634  52.651 -26.224  1.00  0.00     0.096 A 
ATOM     37  H2  UNL     1       2.299  52.340 -25.021  1.00  0.00     0.164 HD
ENDBRANCH  30  31
ENDBRANCH  28  30
ENDBRANCH  25  26
ENDBRANCH  24  25
ENDBRANCH  22  24
ENDBRANCH  21  22
ENDBRANCH  17  21
TORSDOF 7
ENDMDL
MODEL 6
REMARK minimizedAffinity -9.29969692
REMARK  7 active torsions:
REMARK  status: ('A' for Active; 'I' for Inactive)
REMARK    1  A    between atoms: C16_17  and  O2_18 
REMARK    2  A    between atoms: O2_18  and  C17_19 
REMARK    3  A    between atoms: C17_19  and  C18_21 
REMARK    4  A    between atoms: C18_21  and  C19_22 
REMARK    5  A    between atoms: C19_22  and  C20_23 
REMARK       I    between atoms: C20_23  and  N1_25 
REMARK    6  A    between atoms: N1_25  and  C21_26 
REMARK    7  A    between atoms: C21_26  and  C22_27 
ROOT
HETATM    1  C1  UNL     1      -0.450  50.916 -14.666  1.00  0.00     0.020 C 
HETATM    2  C2  UNL     1       0.724  50.355 -15.498  1.00  0.00    -0.016 C 
HETATM    3  C3  UNL     1       1.122  48.961 -14.930  1.00  0.00     0.022 C 
HETATM    4  C4  UNL     1       1.898  49.028 -13.621  1.00  0.00     0.084 C 
HETATM    5  C5  UNL     1       3.118  49.893 -13.788  1.00  0.00     0.149 C 
HETATM    6  O1  UNL     1       4.164  49.679 -13.183  1.00  0.00    -0.293 OA
HETATM    7  C6  UNL     1       3.005  51.091 -14.650  1.00  0.00     0.053 C 
HETATM    8  C7  UNL     1       1.906  51.330 -15.385  1.00  0.00    -0.068 C 
HETATM    9  C8  UNL     1       1.792  52.623 -16.157  1.00  0.00     0.035 C 
HETATM   10  C9  UNL     1       1.446  52.384 -17.621  1.00  0.00     0.010 C 
HETATM   11  C10 UNL     1       0.174  51.538 -17.765  1.00  0.00    -0.004 C 
HETATM   12  C11 UNL     1       0.342  50.181 -17.018  1.00  0.00     0.002 C 
HETATM   13  C12 UNL     1      -0.864  49.236 -17.259  1.00  0.00     0.007 C 
HETATM   14  C13 UNL     1      -1.243  49.082 -18.742  1.00  0.00     0.012 C 
HETATM   15  C14 UNL     1      -1.436  50.439 -19.433  1.00  0.00    -0.013 C 
HETATM   16  C15 UNL     1      -2.712  51.123 -18.881  1.00  0.00     0.018 C 
HETATM   17  C16 UNL     1      -1.474  50.391 -20.980  1.00  0.00     0.140 C 
HETATM   18  C27 UNL     1      -1.035  51.812 -21.403  1.00  0.00     0.034 C 
HETATM   19  C28 UNL     1      -0.298  52.422 -20.200  1.00  0.00     0.008 C 
HETATM   20  C29 UNL     1      -0.138  51.250 -19.238  1.00  0.00     0.001 C 
ENDROOT
BRANCH  17  21
HETATM   21  O2  UNL     1      -2.768  50.128 -21.533  1.00  0.00    -0.315 OA
BRANCH  21  22
HETATM   22  C17 UNL     1      -2.903  50.339 -22.873  1.00  0.00     0.259 C 
HETATM   23  O3  UNL     1      -3.159  51.413 -23.399  1.00  0.00    -0.265 OA
BRANCH  22  24
HETATM   24  C18 UNL     1      -2.612  49.068 -23.633  1.00  0.00     0.120 C 
BRANCH  24  25
HETATM   25  C19 UNL     1      -3.630  48.804 -24.734  1.00  0.00     0.112 C 
BRANCH  25  26
HETATM   26  C20 UNL     1      -3.080  49.132 -26.108  1.00  0.00     0.218 C 
HETATM   27  O4  UNL     1      -3.025  48.325 -27.026  1.00  0.00    -0.274 OA
HETATM   28  N1  UNL     1      -2.650  50.436 -26.219  1.00  0.00    -0.357 N 
HETATM   29  H27 UNL     1      -2.580  51.007 -25.389  1.00  0.00     0.162 HD
BRANCH  28  30
HETATM   30  C21 UNL     1      -2.008  50.916 -27.425  1.00  0.00     0.162 C 
BRANCH  30  31
HETATM   31  C22 UNL     1      -0.571  51.265 -27.173  1.00  0.00    -0.025 A 
HETATM   32  C23 UNL     1      -0.033  51.279 -25.882  1.00  0.00     0.011 A 
HETATM   33  C24 UNL     1       1.309  51.600 -25.698  1.00  0.00     0.018 A 
HETATM   34  C25 UNL     1       2.075  51.890 -26.815  1.00  0.00     0.087 A 
HETATM   35  N2  UNL     1       1.595  51.879 -28.076  1.00  0.00    -0.375 N 
HETATM   36  C26 UNL     1       0.286  51.570 -28.228  1.00  0.00     0.096 A 
ATOM     37  H2  UNL     1       2.190  52.093 -28.877  1.00  0.00     0.164 HD
ENDBRANCH  30  31
ENDBRANCH  28  30
ENDBRANCH  25  26
ENDBRANCH  24  25
ENDBRANCH  22  24
ENDBRANCH  21  22
ENDBRANCH  17  21
TORSDOF 7
ENDMDL
MODEL 7
REMARK minimizedAffinity -9.23471832
REMARK  7 active torsions:
REMARK  status: ('A' for Active; 'I' for Inactive)
REMARK    1  A    between atoms: C16_17  and  O2_18 
REMARK    2  A    between atoms: O2_18  and  C17_19 
REMARK    3  A    between atoms: C17_19  and  C18_21 
REMARK    4  A    between atoms: C18_21  and  C19_22 
REMARK    5  A    between atoms: C19_22  and  C20_23 
REMARK       I    between atoms: C20_23  and  N1_25 
REMARK    6  A    between atoms: N1_25  and  C21_26 
REMARK    7  A    between atoms: C21_26  and  C22_27 
ROOT
HETATM    1  C1  UNL     1      -2.555  52.659 -23.509  1.00  0.00     0.020 C 
HETATM    2  C2  UNL     1      -1.261  51.828 -23.641  1.00  0.00    -0.016 C 
HETATM    3  C3  UNL     1      -0.184  52.686 -24.368  1.00  0.00     0.022 C 
HETATM    4  C4  UNL     1      -0.414  52.823 -25.867  1.00  0.00     0.084 C 
HETATM    5  C5  UNL     1      -0.514  51.463 -26.501  1.00  0.00     0.149 C 
HETATM    6  O1  UNL     1      -0.122  51.238 -27.642  1.00  0.00    -0.293 OA
HETATM    7  C6  UNL     1      -1.191  50.391 -25.737  1.00  0.00     0.053 C 
HETATM    8  C7  UNL     1      -1.576  50.568 -24.462  1.00  0.00    -0.068 C 
HETATM    9  C8  UNL     1      -2.367  49.487 -23.764  1.00  0.00     0.035 C 
HETATM   10  C9  UNL     1      -1.748  49.102 -22.427  1.00  0.00     0.010 C 
HETATM   11  C10 UNL     1      -1.564  50.326 -21.521  1.00  0.00    -0.004 C 
HETATM   12  C11 UNL     1      -0.688  51.398 -22.236  1.00  0.00     0.002 C 
HETATM   13  C12 UNL     1      -0.356  52.591 -21.301  1.00  0.00     0.007 C 
HETATM   14  C13 UNL     1       0.187  52.166 -19.926  1.00  0.00     0.012 C 
HETATM   15  C14 UNL     1      -0.722  51.138 -19.238  1.00  0.00    -0.013 C 
HETATM   16  C15 UNL     1      -2.050  51.819 -18.824  1.00  0.00     0.018 C 
HETATM   17  C16 UNL     1      -0.090  50.404 -18.029  1.00  0.00     0.140 C 
HETATM   18  C27 UNL     1      -0.881  49.078 -17.951  1.00  0.00     0.034 C 
HETATM   19  C28 UNL     1      -1.525  48.866 -19.331  1.00  0.00     0.008 C 
HETATM   20  C29 UNL     1      -0.887  49.943 -20.200  1.00  0.00     0.001 C 
ENDROOT
BRANCH  17  21
HETATM   21  O2  UNL     1      -0.226  51.092 -16.781  1.00  0.00    -0.315 OA
BRANCH  21  22
HETATM   22  C17 UNL     1       0.930  51.531 -16.209  1.00  0.00     0.259 C 
HETATM   23  O3  UNL     1       1.729  52.300 -16.725  1.00  0.00    -0.265 OA
BRANCH  22  24
HETATM   24  C18 UNL     1       1.052  50.996 -14.803  1.00  0.00     0.120 C 
BRANCH  24  25
HETATM   25  C19 UNL     1       2.161  51.680 -14.016  1.00  0.00     0.112 C 
BRANCH  25  26
HETATM   26  C20 UNL     1       1.747  51.977 -12.588  1.00  0.00     0.218 C 
HETATM   27  O4  UNL     1       2.213  51.404 -11.614  1.00  0.00    -0.274 OA
HETATM   28  N1  UNL     1       0.790  52.965 -12.499  1.00  0.00    -0.357 N 
HETATM   29  H27 UNL     1       0.337  53.292 -13.341  1.00  0.00     0.162 HD
BRANCH  28  30
HETATM   30  C21 UNL     1       0.199  53.327 -11.228  1.00  0.00     0.162 C 
BRANCH  30  31
HETATM   31  C22 UNL     1      -1.296  53.224 -11.276  1.00  0.00    -0.025 A 
HETATM   32  C23 UNL     1      -2.118  54.086 -10.544  1.00  0.00     0.011 A 
HETATM   33  C24 UNL     1      -3.502  53.958 -10.628  1.00  0.00     0.018 A 
HETATM   34  C25 UNL     1      -4.021  52.974 -11.452  1.00  0.00     0.087 A 
HETATM   35  N2  UNL     1      -3.263  52.129 -12.181  1.00  0.00    -0.375 N 
HETATM   36  C26 UNL     1      -1.921  52.270 -12.078  1.00  0.00     0.096 A 
ATOM     37  H2  UNL     1      -3.681  51.419 -12.782  1.00  0.00     0.164 HD
ENDBRANCH  30  31
ENDBRANCH  28  30
ENDBRANCH  25  26
ENDBRANCH  24  25
ENDBRANCH  22  24
ENDBRANCH  21  22
ENDBRANCH  17  21
TORSDOF 7
ENDMDL
MODEL 8
REMARK minimizedAffinity -9.15706062
REMARK  7 active torsions:
REMARK  status: ('A' for Active; 'I' for Inactive)
REMARK    1  A    between atoms: C16_17  and  O2_18 
REMARK    2  A    between atoms: O2_18  and  C17_19 
REMARK    3  A    between atoms: C17_19  and  C18_21 
REMARK    4  A    between atoms: C18_21  and  C19_22 
REMARK    5  A    between atoms: C19_22  and  C20_23 
REMARK       I    between atoms: C20_23  and  N1_25 
REMARK    6  A    between atoms: N1_25  and  C21_26 
REMARK    7  A    between atoms: C21_26  and  C22_27 
ROOT
HETATM    1  C1  UNL     1      -0.825  50.410 -25.310  1.00  0.00     0.020 C 
HETATM    2  C2  UNL     1      -1.275  51.858 -25.020  1.00  0.00    -0.016 C 
HETATM    3  C3  UNL     1      -2.691  52.076 -25.631  1.00  0.00     0.022 C 
HETATM    4  C4  UNL     1      -2.691  52.231 -27.146  1.00  0.00     0.084 C 
HETATM    5  C5  UNL     1      -1.769  53.348 -27.551  1.00  0.00     0.149 C 
HETATM    6  O1  UNL     1      -1.985  54.060 -28.528  1.00  0.00    -0.293 OA
HETATM    7  C6  UNL     1      -0.515  53.524 -26.783  1.00  0.00     0.053 C 
HETATM    8  C7  UNL     1      -0.265  52.817 -25.668  1.00  0.00    -0.068 C 
HETATM    9  C8  UNL     1       1.076  52.948 -24.987  1.00  0.00     0.035 C 
HETATM   10  C9  UNL     1       0.933  53.260 -23.503  1.00  0.00     0.010 C 
HETATM   11  C10 UNL     1       0.051  52.223 -22.795  1.00  0.00    -0.004 C 
HETATM   12  C11 UNL     1      -1.351  52.156 -23.474  1.00  0.00     0.002 C 
HETATM   13  C12 UNL     1      -2.322  51.226 -22.701  1.00  0.00     0.007 C 
HETATM   14  C13 UNL     1      -2.380  51.510 -21.190  1.00  0.00     0.012 C 
HETATM   15  C14 UNL     1      -0.984  51.531 -20.552  1.00  0.00    -0.013 C 
HETATM   16  C15 UNL     1      -0.395  50.099 -20.552  1.00  0.00     0.018 C 
HETATM   17  C16 UNL     1      -0.918  52.144 -19.131  1.00  0.00     0.140 C 
HETATM   18  C27 UNL     1       0.547  52.622 -19.005  1.00  0.00     0.034 C 
HETATM   19  C28 UNL     1       1.094  52.749 -20.436  1.00  0.00     0.008 C 
HETATM   20  C29 UNL     1      -0.139  52.573 -21.315  1.00  0.00     0.001 C 
ENDROOT
BRANCH  17  21
HETATM   21  O2  UNL     1      -1.190  51.218 -18.074  1.00  0.00    -0.315 OA
BRANCH  21  22
HETATM   22  C17 UNL     1      -0.212  51.073 -17.136  1.00  0.00     0.259 C 
HETATM   23  O3  UNL     1       0.426  51.985 -16.630  1.00  0.00    -0.265 OA
BRANCH  22  24
HETATM   24  C18 UNL     1      -0.076  49.621 -16.746  1.00  0.00     0.120 C 
BRANCH  24  25
HETATM   25  C19 UNL     1      -0.214  49.409 -15.244  1.00  0.00     0.112 C 
BRANCH  25  26
HETATM   26  C20 UNL     1      -1.636  49.622 -14.768  1.00  0.00     0.218 C 
HETATM   27  O4  UNL     1      -2.601  49.025 -15.225  1.00  0.00    -0.274 OA
HETATM   28  N1  UNL     1      -1.734  50.558 -13.761  1.00  0.00    -0.357 N 
HETATM   29  H27 UNL     1      -0.929  51.124 -13.532  1.00  0.00     0.162 HD
BRANCH  28  30
HETATM   30  C21 UNL     1      -3.020  50.967 -13.236  1.00  0.00     0.162 C 
BRANCH  30  31
HETATM   31  C22 UNL     1      -2.873  52.104 -12.268  1.00  0.00    -0.025 A 
HETATM   32  C23 UNL     1      -3.977  52.665 -11.618  1.00  0.00     0.011 A 
HETATM   33  C24 UNL     1      -3.790  53.713 -10.721  1.00  0.00     0.018 A 
HETATM   34  C25 UNL     1      -2.500  54.163 -10.496  1.00  0.00     0.087 A 
HETATM   35  N2  UNL     1      -1.409  53.642 -11.097  1.00  0.00    -0.375 N 
HETATM   36  C26 UNL     1      -1.617  52.629 -11.968  1.00  0.00     0.096 A 
ATOM     37  H2  UNL     1      -0.472  53.996 -10.902  1.00  0.00     0.164 HD
ENDBRANCH  30  31
ENDBRANCH  28  30
ENDBRANCH  25  26
ENDBRANCH  24  25
ENDBRANCH  22  24
ENDBRANCH  21  22
ENDBRANCH  17  21
TORSDOF 7
ENDMDL
MODEL 9
REMARK minimizedAffinity -9.15082073
REMARK  7 active torsions:
REMARK  status: ('A' for Active; 'I' for Inactive)
REMARK    1  A    between atoms: C16_17  and  O2_18 
REMARK    2  A    between atoms: O2_18  and  C17_19 
REMARK    3  A    between atoms: C17_19  and  C18_21 
REMARK    4  A    between atoms: C18_21  and  C19_22 
REMARK    5  A    between atoms: C19_22  and  C20_23 
REMARK       I    between atoms: C20_23  and  N1_25 
REMARK    6  A    between atoms: N1_25  and  C21_26 
REMARK    7  A    between atoms: C21_26  and  C22_27 
ROOT
HETATM    1  C1  UNL     1      -1.739  52.886 -25.035  1.00  0.00     0.020 C 
HETATM    2  C2  UNL     1      -1.166  51.503 -25.415  1.00  0.00    -0.016 C 
HETATM    3  C3  UNL     1       0.361  51.491 -25.111  1.00  0.00     0.022 C 
HETATM    4  C4  UNL     1       1.196  52.269 -26.120  1.00  0.00     0.084 C 
HETATM    5  C5  UNL     1       0.936  51.758 -27.510  1.00  0.00     0.149 C 
HETATM    6  O1  UNL     1       1.802  51.745 -28.380  1.00  0.00    -0.293 OA
HETATM    7  C6  UNL     1      -0.444  51.342 -27.848  1.00  0.00     0.053 C 
HETATM    8  C7  UNL     1      -1.409  51.274 -26.915  1.00  0.00    -0.068 C 
HETATM    9  C8  UNL     1      -2.827  50.957 -27.329  1.00  0.00     0.035 C 
HETATM   10  C9  UNL     1      -3.413  49.808 -26.520  1.00  0.00     0.010 C 
HETATM   11  C10 UNL     1      -3.324  50.081 -25.013  1.00  0.00    -0.004 C 
HETATM   12  C11 UNL     1      -1.844  50.337 -24.598  1.00  0.00     0.002 C 
HETATM   13  C12 UNL     1      -1.691  50.474 -23.061  1.00  0.00     0.007 C 
HETATM   14  C13 UNL     1      -2.367  49.343 -22.268  1.00  0.00     0.012 C 
HETATM   15  C14 UNL     1      -3.833  49.147 -22.679  1.00  0.00    -0.013 C 
HETATM   16  C15 UNL     1      -4.668  50.364 -22.210  1.00  0.00     0.018 C 
HETATM   17  C16 UNL     1      -4.482  47.827 -22.194  1.00  0.00     0.140 C 
HETATM   18  C27 UNL     1      -5.622  47.583 -23.210  1.00  0.00     0.034 C 
HETATM   19  C28 UNL     1      -5.283  48.411 -24.460  1.00  0.00     0.008 C 
HETATM   20  C29 UNL     1      -3.862  48.897 -24.201  1.00  0.00     0.001 C 
ENDROOT
BRANCH  17  21
HETATM   21  O2  UNL     1      -5.046  47.891 -20.880  1.00  0.00    -0.315 OA
BRANCH  21  22
HETATM   22  C17 UNL     1      -4.222  47.537 -19.854  1.00  0.00     0.259 C 
HETATM   23  O3  UNL     1      -3.396  46.636 -19.888  1.00  0.00    -0.265 OA
BRANCH  22  24
HETATM   24  C18 UNL     1      -4.415  48.470 -18.684  1.00  0.00     0.120 C 
BRANCH  24  25
HETATM   25  C19 UNL     1      -4.139  49.922 -19.049  1.00  0.00     0.112 C 
BRANCH  25  26
HETATM   26  C20 UNL     1      -2.922  50.469 -18.330  1.00  0.00     0.218 C 
HETATM   27  O4  UNL     1      -2.981  51.112 -17.291  1.00  0.00    -0.274 OA
HETATM   28  N1  UNL     1      -1.739  50.166 -18.966  1.00  0.00    -0.357 N 
HETATM   29  H27 UNL     1      -1.764  49.767 -19.894  1.00  0.00     0.162 HD
BRANCH  28  30
HETATM   30  C21 UNL     1      -0.473  50.677 -18.484  1.00  0.00     0.162 C 
BRANCH  30  31
HETATM   31  C22 UNL     1       0.041  51.774 -19.369  1.00  0.00    -0.025 A 
HETATM   32  C23 UNL     1       0.444  51.530 -20.686  1.00  0.00     0.011 A 
HETATM   33  C24 UNL     1       0.905  52.582 -21.472  1.00  0.00     0.018 A 
HETATM   34  C25 UNL     1       0.942  53.850 -20.917  1.00  0.00     0.087 A 
HETATM   35  N2  UNL     1       0.553  54.127 -19.655  1.00  0.00    -0.375 N 
HETATM   36  C26 UNL     1       0.115  53.087 -18.909  1.00  0.00     0.096 A 
ATOM     37  H2  UNL     1       0.589  55.076 -19.281  1.00  0.00     0.164 HD
ENDBRANCH  30  31
ENDBRANCH  28  30
ENDBRANCH  25  26
ENDBRANCH  24  25
ENDBRANCH  22  24
ENDBRANCH  21  22
ENDBRANCH  17  21
TORSDOF 7
ENDMDL
