MODEL 1
REMARK minimizedAffinity -9.36079025
REMARK CNNscore 0.146004349
REMARK CNNaffinity 7.52412558
REMARK  12 active torsions:
REMARK  status: ('A' for Active; 'I' for Inactive)
REMARK    1  A    between atoms: C2_2  and  C3_3 
REMARK    2  A    between atoms: C6_6  and  C7_7 
REMARK    3  A    between atoms: C7_7  and  C8_8 
REMARK    4  A    between atoms: C15_19  and  C16_20 
REMARK    5  A    between atoms: C16_20  and  C17_21 
REMARK    6  A    between atoms: C18_22  and  C19_23 
REMARK    7  A    between atoms: C21_25  and  C22_26 
REMARK    8  A    between atoms: C23_28  and  C24_29 
REMARK    9  A    between atoms: C27_34  and  C28_35 
REMARK   10  A    between atoms: C28_35  and  C29_36 
REMARK   11  A    between atoms: C29_36  and  C30_37 
REMARK   12  A    between atoms: C30_37  and  O5_39 
ROOT
HETATM    1  C8  UNL     1      -0.918  51.428 -18.119  1.00  0.00     0.016 C 
HETATM    2  N1  UNL     1      -2.023  51.487 -18.801  1.00  0.00    -0.362 N 
ATOM      3  H1  UNL     1      -2.207  52.084 -19.607  1.00  0.00     0.165 HD
HETATM    4  C9  UNL     1      -2.898  50.591 -18.231  1.00  0.00     0.023 C 
HETATM    5  C10 UNL     1      -4.007  50.140 -18.838  1.00  0.00    -0.000 A 
HETATM    6  C11 UNL     1      -4.966  49.047 -18.313  1.00  0.00     0.127 A 
HETATM    7  C12 UNL     1      -5.935  48.895 -19.531  1.00  0.00     0.166 A 
HETATM    8  O1  UNL     1      -6.876  48.114 -19.593  1.00  0.00    -0.292 OA
HETATM    9  C13 UNL     1      -5.544  49.846 -20.553  1.00  0.00     0.045 A 
HETATM   10  C14 UNL     1      -4.459  50.538 -20.112  1.00  0.00     0.055 A 
HETATM   11  N2  UNL     1      -4.110  51.485 -21.005  1.00  0.00    -0.357 N 
HETATM   12  C15 UNL     1      -4.966  51.368 -22.097  1.00  0.00     0.022 A 
HETATM   13  C25 UNL     1      -5.876  50.332 -21.830  1.00  0.00    -0.023 A 
HETATM   14  C26 UNL     1      -6.984  49.845 -22.691  1.00  0.00     0.051 C 
HETATM   15  C27 UNL     1      -2.403  50.112 -16.879  1.00  0.00     0.046 C 
HETATM   16  C31 UNL     1      -0.905  50.442 -16.975  1.00  0.00     0.041 C 
HETATM   17  C32 UNL     1      -0.062  49.222 -17.336  1.00  0.00     0.017 C 
HETATM   18  H10 UNL     1      -3.400  52.188 -20.875  1.00  0.00     0.166 HD
ENDROOT
BRANCH  15  19
HETATM   19  C28 UNL     1      -3.113  50.873 -15.743  1.00  0.00     0.022 C 
BRANCH  19  20
HETATM   20  C29 UNL     1      -2.260  51.038 -14.484  1.00  0.00     0.110 C 
BRANCH  20  21
HETATM   21  C30 UNL     1      -3.002  50.813 -13.195  1.00  0.00     0.139 C 
HETATM   22  O4  UNL     1      -3.406  49.734 -12.793  1.00  0.00    -0.650 OA
BRANCH  21  23
HETATM   23  O5  UNL     1      -3.141  51.919 -12.444  1.00  0.00    -0.776 OA
HETATM   24  H29 UNL     1      -3.563  51.599 -11.615  1.00  0.00     0.167 HD
ENDBRANCH  21  23
ENDBRANCH  20  21
ENDBRANCH  19  20
ENDBRANCH  15  19
BRANCH   1  25
HETATM   25  C7  UNL     1       0.299  52.232 -18.415  1.00  0.00     0.055 C 
BRANCH  25  26
HETATM   26  C6  UNL     1       0.563  52.633 -19.662  1.00  0.00     0.043 A 
HETATM   27  C4  UNL     1       0.433  51.931 -20.923  1.00  0.00    -0.019 A 
HETATM   28  C3  UNL     1       0.851  52.712 -21.949  1.00  0.00     0.039 A 
HETATM   29  C5  UNL     1      -0.083  50.528 -20.979  1.00  0.00     0.052 C 
HETATM   30  C33 UNL     1       1.256  54.017 -21.319  1.00  0.00     0.256 A 
HETATM   31  N4  UNL     1       1.034  53.865 -19.979  1.00  0.00    -0.322 N 
HETATM   32  O6  UNL     1       1.691  55.024 -21.855  1.00  0.00    -0.267 OA
HETATM   33  H34 UNL     1       1.231  54.566 -19.275  1.00  0.00     0.169 HD
BRANCH  28  34
HETATM   34  C2  UNL     1       0.858  52.412 -23.360  1.00  0.00     0.007 C 
HETATM   35  C1  UNL     1      -0.170  52.581 -24.203  1.00  0.00     0.012 C 
ENDBRANCH  28  34
ENDBRANCH  25  26
ENDBRANCH   1  25
BRANCH  12  36
HETATM   36  C16 UNL     1      -4.857  52.307 -23.267  1.00  0.00     0.115 C 
BRANCH  36  37
HETATM   37  C17 UNL     1      -4.021  51.757 -24.383  1.00  0.00     0.022 A 
HETATM   38  C18 UNL     1      -3.644  50.455 -24.692  1.00  0.00    -0.020 A 
HETATM   39  C21 UNL     1      -2.824  50.518 -25.875  1.00  0.00     0.040 A 
HETATM   40  C23 UNL     1      -2.774  51.849 -26.268  1.00  0.00     0.084 A 
HETATM   41  N3  UNL     1      -3.524  52.572 -25.368  1.00  0.00    -0.356 N 
HETATM   42  H20 UNL     1      -3.714  53.566 -25.455  1.00  0.00     0.166 HD
BRANCH  38  43
HETATM   43  C19 UNL     1      -4.018  49.209 -23.940  1.00  0.00     0.037 C 
HETATM   44  C20 UNL     1      -4.948  48.312 -24.744  1.00  0.00     0.010 C 
ENDBRANCH  38  43
BRANCH  39  45
HETATM   45  C22 UNL     1      -2.176  49.411 -26.579  1.00  0.00     0.273 C 
HETATM   46  O2  UNL     1      -2.776  48.605 -27.286  1.00  0.00    -0.301 OA
ENDBRANCH  39  45
BRANCH  40  47
HETATM   47  C24 UNL     1      -2.123  52.465 -27.401  1.00  0.00     0.288 C 
HETATM   48  O3  UNL     1      -2.139  53.663 -27.666  1.00  0.00    -0.300 OA
ENDBRANCH  40  47
ENDBRANCH  36  37
ENDBRANCH  12  36
TORSDOF 12
ENDMDL
MODEL 2
REMARK minimizedAffinity -8.99689102
REMARK CNNscore 0.122798927
REMARK CNNaffinity 7.28904295
REMARK  12 active torsions:
REMARK  status: ('A' for Active; 'I' for Inactive)
REMARK    1  A    between atoms: C2_2  and  C3_3 
REMARK    2  A    between atoms: C6_6  and  C7_7 
REMARK    3  A    between atoms: C7_7  and  C8_8 
REMARK    4  A    between atoms: C15_19  and  C16_20 
REMARK    5  A    between atoms: C16_20  and  C17_21 
REMARK    6  A    between atoms: C18_22  and  C19_23 
REMARK    7  A    between atoms: C21_25  and  C22_26 
REMARK    8  A    between atoms: C23_28  and  C24_29 
REMARK    9  A    between atoms: C27_34  and  C28_35 
REMARK   10  A    between atoms: C28_35  and  C29_36 
REMARK   11  A    between atoms: C29_36  and  C30_37 
REMARK   12  A    between atoms: C30_37  and  O5_39 
ROOT
HETATM    1  C8  UNL     1      -0.661  50.864 -25.590  1.00  0.00     0.016 C 
HETATM    2  N1  UNL     1      -0.891  51.090 -24.330  1.00  0.00    -0.362 N 
ATOM      3  H1  UNL     1      -1.539  50.579 -23.731  1.00  0.00     0.165 HD
HETATM    4  C9  UNL     1      -0.094  52.148 -23.957  1.00  0.00     0.023 C 
HETATM    5  C10 UNL     1       0.184  52.462 -22.682  1.00  0.00    -0.000 A 
HETATM    6  C11 UNL     1       1.163  53.554 -22.194  1.00  0.00     0.127 A 
HETATM    7  C12 UNL     1       1.138  53.302 -20.650  1.00  0.00     0.166 A 
HETATM    8  O1  UNL     1       1.787  53.927 -19.821  1.00  0.00    -0.292 OA
HETATM    9  C13 UNL     1       0.205  52.227 -20.372  1.00  0.00     0.045 A 
HETATM   10  C14 UNL     1      -0.320  51.792 -21.549  1.00  0.00     0.055 A 
HETATM   11  N2  UNL     1      -1.249  50.842 -21.327  1.00  0.00    -0.357 N 
HETATM   12  C15 UNL     1      -1.289  50.607 -19.955  1.00  0.00     0.022 A 
HETATM   13  C25 UNL     1      -0.370  51.471 -19.336  1.00  0.00    -0.023 A 
HETATM   14  C26 UNL     1      -0.066  51.597 -17.888  1.00  0.00     0.051 C 
HETATM   15  C27 UNL     1       0.500  52.851 -25.164  1.00  0.00     0.046 C 
HETATM   16  C31 UNL     1       0.364  51.763 -26.241  1.00  0.00     0.041 C 
HETATM   17  C32 UNL     1       1.667  51.003 -26.469  1.00  0.00     0.017 C 
HETATM   18  H10 UNL     1      -1.848  50.425 -22.022  1.00  0.00     0.166 HD
ENDROOT
BRANCH  15  19
HETATM   19  C28 UNL     1      -0.302  54.126 -25.495  1.00  0.00     0.022 C 
BRANCH  19  20
HETATM   20  C29 UNL     1       0.039  54.731 -26.858  1.00  0.00     0.110 C 
BRANCH  20  21
HETATM   21  C30 UNL     1      -0.557  53.999 -28.030  1.00  0.00     0.139 C 
HETATM   22  O4  UNL     1       0.070  53.336 -28.841  1.00  0.00    -0.650 OA
BRANCH  21  23
HETATM   23  O5  UNL     1      -1.898  54.070 -28.094  1.00  0.00    -0.776 OA
HETATM   24  H29 UNL     1      -2.137  53.487 -28.849  1.00  0.00     0.167 HD
ENDBRANCH  21  23
ENDBRANCH  20  21
ENDBRANCH  19  20
ENDBRANCH  15  19
BRANCH   1  25
HETATM   25  C7  UNL     1      -1.311  49.787 -26.386  1.00  0.00     0.055 C 
BRANCH  25  26
HETATM   26  C6  UNL     1      -2.460  49.240 -25.977  1.00  0.00     0.043 A 
HETATM   27  C4  UNL     1      -3.683  48.966 -26.704  1.00  0.00    -0.019 A 
HETATM   28  C3  UNL     1      -4.618  48.431 -25.882  1.00  0.00     0.039 A 
HETATM   29  C5  UNL     1      -3.806  49.286 -28.160  1.00  0.00     0.052 C 
HETATM   30  C33 UNL     1      -3.953  48.326 -24.536  1.00  0.00     0.256 A 
HETATM   31  N4  UNL     1      -2.688  48.815 -24.709  1.00  0.00    -0.322 N 
HETATM   32  O6  UNL     1      -4.409  47.896 -23.488  1.00  0.00    -0.267 OA
HETATM   33  H34 UNL     1      -1.994  48.900 -23.976  1.00  0.00     0.169 HD
BRANCH  28  34
HETATM   34  C2  UNL     1      -5.950  47.987 -26.208  1.00  0.00     0.007 C 
HETATM   35  C1  UNL     1      -6.382  47.627 -27.425  1.00  0.00     0.012 C 
ENDBRANCH  28  34
ENDBRANCH  25  26
ENDBRANCH   1  25
BRANCH  12  36
HETATM   36  C16 UNL     1      -2.252  49.610 -19.370  1.00  0.00     0.115 C 
BRANCH  36  37
HETATM   37  C17 UNL     1      -3.567  49.575 -20.087  1.00  0.00     0.022 A 
HETATM   38  C18 UNL     1      -4.636  48.691 -20.001  1.00  0.00    -0.020 A 
HETATM   39  C21 UNL     1      -5.637  49.139 -20.936  1.00  0.00     0.040 A 
HETATM   40  C23 UNL     1      -5.158  50.304 -21.519  1.00  0.00     0.084 A 
HETATM   41  N3  UNL     1      -3.920  50.560 -20.973  1.00  0.00    -0.356 N 
HETATM   42  H20 UNL     1      -3.371  51.392 -21.172  1.00  0.00     0.166 HD
BRANCH  38  43
HETATM   43  C19 UNL     1      -4.740  47.492 -19.101  1.00  0.00     0.037 C 
HETATM   44  C20 UNL     1      -5.152  47.871 -17.686  1.00  0.00     0.010 C 
ENDBRANCH  38  43
BRANCH  39  45
HETATM   45  C22 UNL     1      -6.935  48.530 -21.222  1.00  0.00     0.273 C 
HETATM   46  O2  UNL     1      -8.011  49.103 -21.062  1.00  0.00    -0.301 OA
ENDBRANCH  39  45
BRANCH  40  47
HETATM   47  C24 UNL     1      -5.767  51.180 -22.495  1.00  0.00     0.288 C 
HETATM   48  O3  UNL     1      -5.339  51.392 -23.625  1.00  0.00    -0.300 OA
ENDBRANCH  40  47
ENDBRANCH  36  37
ENDBRANCH  12  36
TORSDOF 12
ENDMDL
MODEL 3
REMARK minimizedAffinity -8.53456211
REMARK CNNscore 0.10482166
REMARK CNNaffinity 5.49951601
REMARK  12 active torsions:
REMARK  status: ('A' for Active; 'I' for Inactive)
REMARK    1  A    between atoms: C2_2  and  C3_3 
REMARK    2  A    between atoms: C6_6  and  C7_7 
REMARK    3  A    between atoms: C7_7  and  C8_8 
REMARK    4  A    between atoms: C15_19  and  C16_20 
REMARK    5  A    between atoms: C16_20  and  C17_21 
REMARK    6  A    between atoms: C18_22  and  C19_23 
REMARK    7  A    between atoms: C21_25  and  C22_26 
REMARK    8  A    between atoms: C23_28  and  C24_29 
REMARK    9  A    between atoms: C27_34  and  C28_35 
REMARK   10  A    between atoms: C28_35  and  C29_36 
REMARK   11  A    between atoms: C29_36  and  C30_37 
REMARK   12  A    between atoms: C30_37  and  O5_39 
ROOT
HETATM    1  C8  UNL     1      -5.851  48.210 -21.566  1.00  0.00     0.016 C 
HETATM    2  N1  UNL     1      -5.167  48.942 -22.395  1.00  0.00    -0.362 N 
ATOM      3  H1  UNL     1      -4.514  49.686 -22.150  1.00  0.00     0.165 HD
HETATM    4  C9  UNL     1      -5.491  48.525 -23.666  1.00  0.00     0.023 C 
HETATM    5  C10 UNL     1      -4.764  48.815 -24.756  1.00  0.00    -0.000 A 
HETATM    6  C11 UNL     1      -4.996  48.282 -26.188  1.00  0.00     0.127 A 
HETATM    7  C12 UNL     1      -3.746  48.865 -26.926  1.00  0.00     0.166 A 
HETATM    8  O1  UNL     1      -3.479  48.693 -28.108  1.00  0.00    -0.292 OA
HETATM    9  C13 UNL     1      -2.981  49.656 -25.983  1.00  0.00     0.045 A 
HETATM   10  C14 UNL     1      -3.601  49.611 -24.773  1.00  0.00     0.055 A 
HETATM   11  N2  UNL     1      -2.959  50.396 -23.885  1.00  0.00    -0.357 N 
HETATM   12  C15 UNL     1      -1.844  50.930 -24.527  1.00  0.00     0.022 A 
HETATM   13  C25 UNL     1      -1.839  50.466 -25.853  1.00  0.00    -0.023 A 
HETATM   14  C26 UNL     1      -0.856  50.771 -26.924  1.00  0.00     0.051 C 
HETATM   15  C27 UNL     1      -6.712  47.624 -23.662  1.00  0.00     0.046 C 
HETATM   16  C31 UNL     1      -6.740  47.163 -22.197  1.00  0.00     0.041 C 
HETATM   17  C32 UNL     1      -6.136  45.774 -22.011  1.00  0.00     0.017 C 
HETATM   18  H10 UNL     1      -3.267  50.607 -22.949  1.00  0.00     0.166 HD
ENDROOT
BRANCH  15  19
HETATM   19  C28 UNL     1      -7.970  48.418 -24.065  1.00  0.00     0.022 C 
BRANCH  19  20
HETATM   20  C29 UNL     1      -8.742  47.800 -25.231  1.00  0.00     0.110 C 
BRANCH  20  21
HETATM   21  C30 UNL     1      -9.110  48.772 -26.319  1.00  0.00     0.139 C 
HETATM   22  O4  UNL     1      -9.122  48.523 -27.514  1.00  0.00    -0.650 OA
BRANCH  21  23
HETATM   23  O5  UNL     1      -9.508  49.974 -25.867  1.00  0.00    -0.776 OA
HETATM   24  H29 UNL     1      -9.788  50.458 -26.675  1.00  0.00     0.167 HD
ENDBRANCH  21  23
ENDBRANCH  20  21
ENDBRANCH  19  20
ENDBRANCH  15  19
BRANCH   1  25
HETATM   25  C7  UNL     1      -5.784  48.327 -20.084  1.00  0.00     0.055 C 
BRANCH  25  26
HETATM   26  C6  UNL     1      -6.883  48.175 -19.340  1.00  0.00     0.043 A 
HETATM   27  C4  UNL     1      -7.090  47.446 -18.105  1.00  0.00    -0.019 A 
HETATM   28  C3  UNL     1      -8.385  47.529 -17.713  1.00  0.00     0.039 A 
HETATM   29  C5  UNL     1      -5.968  46.714 -17.442  1.00  0.00     0.052 C 
HETATM   30  C33 UNL     1      -9.061  48.389 -18.746  1.00  0.00     0.256 A 
HETATM   31  N4  UNL     1      -8.087  48.722 -19.645  1.00  0.00    -0.322 N 
HETATM   32  O6  UNL     1     -10.229  48.742 -18.803  1.00  0.00    -0.267 OA
HETATM   33  H34 UNL     1      -8.232  49.281 -20.478  1.00  0.00     0.169 HD
BRANCH  28  34
HETATM   34  C2  UNL     1      -9.001  46.978 -16.531  1.00  0.00     0.007 C 
HETATM   35  C1  UNL     1      -9.499  45.740 -16.409  1.00  0.00     0.012 C 
ENDBRANCH  28  34
ENDBRANCH  25  26
ENDBRANCH   1  25
BRANCH  12  36
HETATM   36  C16 UNL     1      -0.922  51.879 -23.811  1.00  0.00     0.115 C 
BRANCH  36  37
HETATM   37  C17 UNL     1      -1.015  51.773 -22.320  1.00  0.00     0.022 A 
HETATM   38  C18 UNL     1      -0.064  51.971 -21.324  1.00  0.00    -0.020 A 
HETATM   39  C21 UNL     1      -0.710  51.718 -20.061  1.00  0.00     0.040 A 
HETATM   40  C23 UNL     1      -2.040  51.424 -20.334  1.00  0.00     0.084 A 
HETATM   41  N3  UNL     1      -2.205  51.488 -21.699  1.00  0.00    -0.356 N 
HETATM   42  H20 UNL     1      -3.098  51.381 -22.170  1.00  0.00     0.166 HD
BRANCH  38  43
HETATM   43  C19 UNL     1       1.369  52.376 -21.519  1.00  0.00     0.037 C 
HETATM   44  C20 UNL     1       1.566  53.878 -21.368  1.00  0.00     0.010 C 
ENDBRANCH  38  43
BRANCH  39  45
HETATM   45  C22 UNL     1      -0.122  51.781 -18.724  1.00  0.00     0.273 C 
HETATM   46  O2  UNL     1       0.339  52.806 -18.225  1.00  0.00    -0.301 OA
ENDBRANCH  39  45
BRANCH  40  47
HETATM   47  C24 UNL     1      -3.134  51.126 -19.438  1.00  0.00     0.288 C 
HETATM   48  O3  UNL     1      -4.286  50.878 -19.780  1.00  0.00    -0.300 OA
ENDBRANCH  40  47
ENDBRANCH  36  37
ENDBRANCH  12  36
TORSDOF 12
ENDMDL
MODEL 4
REMARK minimizedAffinity -7.92421055
REMARK CNNscore 0.0997610614
REMARK CNNaffinity 5.73176336
REMARK  12 active torsions:
REMARK  status: ('A' for Active; 'I' for Inactive)
REMARK    1  A    between atoms: C2_2  and  C3_3 
REMARK    2  A    between atoms: C6_6  and  C7_7 
REMARK    3  A    between atoms: C7_7  and  C8_8 
REMARK    4  A    between atoms: C15_19  and  C16_20 
REMARK    5  A    between atoms: C16_20  and  C17_21 
REMARK    6  A    between atoms: C18_22  and  C19_23 
REMARK    7  A    between atoms: C21_25  and  C22_26 
REMARK    8  A    between atoms: C23_28  and  C24_29 
REMARK    9  A    between atoms: C27_34  and  C28_35 
REMARK   10  A    between atoms: C28_35  and  C29_36 
REMARK   11  A    between atoms: C29_36  and  C30_37 
REMARK   12  A    between atoms: C30_37  and  O5_39 
ROOT
HETATM    1  C8  UNL     1      -3.879  50.033 -22.703  1.00  0.00     0.016 C 
HETATM    2  N1  UNL     1      -4.563  48.932 -22.599  1.00  0.00    -0.362 N 
ATOM      3  H1  UNL     1      -4.673  48.364 -21.759  1.00  0.00     0.165 HD
HETATM    4  C9  UNL     1      -5.110  48.677 -23.835  1.00  0.00     0.023 C 
HETATM    5  C10 UNL     1      -6.124  47.821 -24.041  1.00  0.00    -0.000 A 
HETATM    6  C11 UNL     1      -6.867  47.577 -25.374  1.00  0.00     0.127 A 
HETATM    7  C12 UNL     1      -8.001  46.606 -24.906  1.00  0.00     0.166 A 
HETATM    8  O1  UNL     1      -8.873  46.138 -25.626  1.00  0.00    -0.292 OA
HETATM    9  C13 UNL     1      -7.826  46.341 -23.491  1.00  0.00     0.045 A 
HETATM   10  C14 UNL     1      -6.745  47.038 -23.048  1.00  0.00     0.055 A 
HETATM   11  N2  UNL     1      -6.504  46.758 -21.752  1.00  0.00    -0.357 N 
HETATM   12  C15 UNL     1      -7.502  45.890 -21.318  1.00  0.00     0.022 A 
HETATM   13  C25 UNL     1      -8.351  45.620 -22.404  1.00  0.00    -0.023 A 
HETATM   14  C26 UNL     1      -9.548  44.742 -22.432  1.00  0.00     0.051 C 
HETATM   15  C27 UNL     1      -4.489  49.549 -24.911  1.00  0.00     0.046 C 
HETATM   16  C31 UNL     1      -3.892  50.685 -24.066  1.00  0.00     0.041 C 
HETATM   17  C32 UNL     1      -4.779  51.927 -24.050  1.00  0.00     0.017 C 
HETATM   18  H10 UNL     1      -5.711  47.073 -21.216  1.00  0.00     0.166 HD
ENDROOT
BRANCH  15  19
HETATM   19  C28 UNL     1      -3.422  48.760 -25.695  1.00  0.00     0.022 C 
BRANCH  19  20
HETATM   20  C29 UNL     1      -3.601  48.824 -27.213  1.00  0.00     0.110 C 
BRANCH  20  21
HETATM   21  C30 UNL     1      -3.177  50.127 -27.835  1.00  0.00     0.139 C 
HETATM   22  O4  UNL     1      -2.408  50.931 -27.334  1.00  0.00    -0.650 OA
BRANCH  21  23
HETATM   23  O5  UNL     1      -3.669  50.329 -29.070  1.00  0.00    -0.776 OA
HETATM   24  H29 UNL     1      -3.244  51.164 -29.368  1.00  0.00     0.167 HD
ENDBRANCH  21  23
ENDBRANCH  20  21
ENDBRANCH  19  20
ENDBRANCH  15  19
BRANCH   1  25
HETATM   25  C7  UNL     1      -3.134  50.673 -21.585  1.00  0.00     0.055 C 
BRANCH  25  26
HETATM   26  C6  UNL     1      -1.938  51.230 -21.797  1.00  0.00     0.043 A 
HETATM   27  C4  UNL     1      -1.002  51.829 -20.868  1.00  0.00    -0.019 A 
HETATM   28  C3  UNL     1       0.083  52.308 -21.525  1.00  0.00     0.039 A 
HETATM   29  C5  UNL     1      -1.293  51.883 -19.401  1.00  0.00     0.052 C 
HETATM   30  C33 UNL     1      -0.150  51.978 -22.974  1.00  0.00     0.256 A 
HETATM   31  N4  UNL     1      -1.357  51.336 -23.018  1.00  0.00    -0.322 N 
HETATM   32  O6  UNL     1       0.564  52.211 -23.937  1.00  0.00    -0.267 OA
HETATM   33  H34 UNL     1      -1.807  51.004 -23.862  1.00  0.00     0.169 HD
BRANCH  28  34
HETATM   34  C2  UNL     1       1.255  52.944 -20.976  1.00  0.00     0.007 C 
HETATM   35  C1  UNL     1       1.615  54.222 -21.164  1.00  0.00     0.012 C 
ENDBRANCH  28  34
ENDBRANCH  25  26
ENDBRANCH   1  25
BRANCH  12  36
HETATM   36  C16 UNL     1      -7.507  45.361 -19.909  1.00  0.00     0.115 C 
BRANCH  36  37
HETATM   37  C17 UNL     1      -8.786  45.642 -19.182  1.00  0.00     0.022 A 
HETATM   38  C18 UNL     1      -9.476  46.829 -18.962  1.00  0.00    -0.020 A 
HETATM   39  C21 UNL     1     -10.646  46.505 -18.186  1.00  0.00     0.040 A 
HETATM   40  C23 UNL     1     -10.649  45.128 -18.006  1.00  0.00     0.084 A 
HETATM   41  N3  UNL     1      -9.532  44.628 -18.636  1.00  0.00    -0.356 N 
HETATM   42  H20 UNL     1      -9.321  43.638 -18.719  1.00  0.00     0.166 HD
BRANCH  38  43
HETATM   43  C19 UNL     1      -9.084  48.197 -19.443  1.00  0.00     0.037 C 
HETATM   44  C20 UNL     1      -8.315  48.978 -18.386  1.00  0.00     0.010 C 
ENDBRANCH  38  43
BRANCH  39  45
HETATM   45  C22 UNL     1     -11.677  47.418 -17.692  1.00  0.00     0.273 C 
HETATM   46  O2  UNL     1     -12.748  47.613 -18.261  1.00  0.00    -0.301 OA
ENDBRANCH  39  45
BRANCH  40  47
HETATM   47  C24 UNL     1     -11.603  44.275 -17.334  1.00  0.00     0.288 C 
HETATM   48  O3  UNL     1     -12.733  44.017 -17.737  1.00  0.00    -0.300 OA
ENDBRANCH  40  47
ENDBRANCH  36  37
ENDBRANCH  12  36
TORSDOF 12
ENDMDL
MODEL 5
REMARK minimizedAffinity -8.25302315
REMARK CNNscore 0.0884465277
REMARK CNNaffinity 6.34129858
REMARK  12 active torsions:
REMARK  status: ('A' for Active; 'I' for Inactive)
REMARK    1  A    between atoms: C2_2  and  C3_3 
REMARK    2  A    between atoms: C6_6  and  C7_7 
REMARK    3  A    between atoms: C7_7  and  C8_8 
REMARK    4  A    between atoms: C15_19  and  C16_20 
REMARK    5  A    between atoms: C16_20  and  C17_21 
REMARK    6  A    between atoms: C18_22  and  C19_23 
REMARK    7  A    between atoms: C21_25  and  C22_26 
REMARK    8  A    between atoms: C23_28  and  C24_29 
REMARK    9  A    between atoms: C27_34  and  C28_35 
REMARK   10  A    between atoms: C28_35  and  C29_36 
REMARK   11  A    between atoms: C29_36  and  C30_37 
REMARK   12  A    between atoms: C30_37  and  O5_39 
ROOT
HETATM    1  C8  UNL     1      -4.225  51.286 -24.233  1.00  0.00     0.016 C 
HETATM    2  N1  UNL     1      -5.433  50.806 -24.200  1.00  0.00    -0.362 N 
ATOM      3  H1  UNL     1      -6.184  51.009 -24.859  1.00  0.00     0.165 HD
HETATM    4  C9  UNL     1      -5.507  49.972 -23.108  1.00  0.00     0.023 C 
HETATM    5  C10 UNL     1      -6.476  49.061 -22.928  1.00  0.00    -0.000 A 
HETATM    6  C11 UNL     1      -6.556  48.012 -21.795  1.00  0.00     0.127 A 
HETATM    7  C12 UNL     1      -7.808  47.189 -22.243  1.00  0.00     0.166 A 
HETATM    8  O1  UNL     1      -8.265  46.218 -21.654  1.00  0.00    -0.292 OA
HETATM    9  C13 UNL     1      -8.344  47.786 -23.452  1.00  0.00     0.045 A 
HETATM   10  C14 UNL     1      -7.567  48.848 -23.794  1.00  0.00     0.055 A 
HETATM   11  N2  UNL     1      -8.076  49.476 -24.873  1.00  0.00    -0.357 N 
HETATM   12  C15 UNL     1      -9.197  48.759 -25.284  1.00  0.00     0.022 A 
HETATM   13  C25 UNL     1      -9.377  47.683 -24.400  1.00  0.00    -0.023 A 
HETATM   14  C26 UNL     1     -10.443  46.649 -24.424  1.00  0.00     0.051 C 
HETATM   15  C27 UNL     1      -4.313  50.150 -22.188  1.00  0.00     0.046 C 
HETATM   16  C31 UNL     1      -3.300  50.808 -23.138  1.00  0.00     0.041 C 
HETATM   17  C32 UNL     1      -2.290  49.809 -23.696  1.00  0.00     0.017 C 
HETATM   18  H10 UNL     1      -7.741  50.340 -25.268  1.00  0.00     0.166 HD
ENDROOT
BRANCH  15  19
HETATM   19  C28 UNL     1      -4.682  51.047 -20.991  1.00  0.00     0.022 C 
BRANCH  19  20
HETATM   20  C29 UNL     1      -4.115  50.559 -19.657  1.00  0.00     0.110 C 
BRANCH  20  21
HETATM   21  C30 UNL     1      -2.859  51.263 -19.219  1.00  0.00     0.139 C 
HETATM   22  O4  UNL     1      -1.936  51.580 -19.952  1.00  0.00    -0.650 OA
BRANCH  21  23
HETATM   23  O5  UNL     1      -2.846  51.600 -17.918  1.00  0.00    -0.776 OA
HETATM   24  H29 UNL     1      -2.016  52.114 -17.808  1.00  0.00     0.167 HD
ENDBRANCH  21  23
ENDBRANCH  20  21
ENDBRANCH  19  20
ENDBRANCH  15  19
BRANCH   1  25
HETATM   25  C7  UNL     1      -3.718  52.224 -25.271  1.00  0.00     0.055 C 
BRANCH  25  26
HETATM   26  C6  UNL     1      -2.412  52.291 -25.547  1.00  0.00     0.043 A 
HETATM   27  C4  UNL     1      -1.603  51.514 -26.465  1.00  0.00    -0.019 A 
HETATM   28  C3  UNL     1      -0.305  51.897 -26.398  1.00  0.00     0.039 A 
HETATM   29  C5  UNL     1      -2.210  50.442 -27.313  1.00  0.00     0.052 C 
HETATM   30  C33 UNL     1      -0.268  53.013 -25.390  1.00  0.00     0.256 A 
HETATM   31  N4  UNL     1      -1.558  53.169 -24.964  1.00  0.00    -0.322 N 
HETATM   32  O6  UNL     1       0.688  53.669 -25.008  1.00  0.00    -0.267 OA
HETATM   33  H34 UNL     1      -1.860  53.833 -24.262  1.00  0.00     0.169 HD
BRANCH  28  34
HETATM   34  C2  UNL     1       0.815  51.406 -27.163  1.00  0.00     0.007 C 
HETATM   35  C1  UNL     1       1.190  51.842 -28.374  1.00  0.00     0.012 C 
ENDBRANCH  28  34
ENDBRANCH  25  26
ENDBRANCH   1  25
BRANCH  12  36
HETATM   36  C16 UNL     1     -10.017  49.217 -26.459  1.00  0.00     0.115 C 
BRANCH  36  37
HETATM   37  C17 UNL     1     -10.623  48.083 -27.228  1.00  0.00     0.022 A 
HETATM   38  C18 UNL     1     -10.039  47.057 -27.963  1.00  0.00    -0.020 A 
HETATM   39  C21 UNL     1     -11.109  46.255 -28.500  1.00  0.00     0.040 A 
HETATM   40  C23 UNL     1     -12.299  46.794 -28.031  1.00  0.00     0.084 A 
HETATM   41  N3  UNL     1     -11.980  47.880 -27.247  1.00  0.00    -0.356 N 
HETATM   42  H20 UNL     1     -12.659  48.422 -26.722  1.00  0.00     0.166 HD
BRANCH  38  43
HETATM   43  C19 UNL     1      -8.569  46.819 -28.163  1.00  0.00     0.037 C 
HETATM   44  C20 UNL     1      -8.034  45.732 -27.242  1.00  0.00     0.010 C 
ENDBRANCH  38  43
BRANCH  39  45
HETATM   45  C22 UNL     1     -11.003  45.071 -29.352  1.00  0.00     0.273 C 
HETATM   46  O2  UNL     1     -11.775  44.115 -29.297  1.00  0.00    -0.301 OA
ENDBRANCH  39  45
BRANCH  40  47
HETATM   47  C24 UNL     1     -13.665  46.365 -28.235  1.00  0.00     0.288 C 
HETATM   48  O3  UNL     1     -14.374  45.826 -27.391  1.00  0.00    -0.300 OA
ENDBRANCH  40  47
ENDBRANCH  36  37
ENDBRANCH  12  36
TORSDOF 12
ENDMDL
MODEL 6
REMARK minimizedAffinity -8.36067963
REMARK CNNscore 0.08618889
REMARK CNNaffinity 5.36795473
REMARK  12 active torsions:
REMARK  status: ('A' for Active; 'I' for Inactive)
REMARK    1  A    between atoms: C2_2  and  C3_3 
REMARK    2  A    between atoms: C6_6  and  C7_7 
REMARK    3  A    between atoms: C7_7  and  C8_8 
REMARK    4  A    between atoms: C15_19  and  C16_20 
REMARK    5  A    between atoms: C16_20  and  C17_21 
REMARK    6  A    between atoms: C18_22  and  C19_23 
REMARK    7  A    between atoms: C21_25  and  C22_26 
REMARK    8  A    between atoms: C23_28  and  C24_29 
REMARK    9  A    between atoms: C27_34  and  C28_35 
REMARK   10  A    between atoms: C28_35  and  C29_36 
REMARK   11  A    between atoms: C29_36  and  C30_37 
REMARK   12  A    between atoms: C30_37  and  O5_39 
ROOT
HETATM    1  C8  UNL     1      -6.155  48.475 -21.455  1.00  0.00     0.016 C 
HETATM    2  N1  UNL     1      -5.385  49.126 -22.276  1.00  0.00    -0.362 N 
ATOM      3  H1  UNL     1      -4.701  49.841 -22.028  1.00  0.00     0.165 HD
HETATM    4  C9  UNL     1      -5.667  48.669 -23.543  1.00  0.00     0.023 C 
HETATM    5  C10 UNL     1      -4.867  48.865 -24.603  1.00  0.00    -0.000 A 
HETATM    6  C11 UNL     1      -5.056  48.279 -26.022  1.00  0.00     0.127 A 
HETATM    7  C12 UNL     1      -3.735  48.752 -26.714  1.00  0.00     0.166 A 
HETATM    8  O1  UNL     1      -3.417  48.509 -27.871  1.00  0.00    -0.292 OA
HETATM    9  C13 UNL     1      -2.973  49.540 -25.765  1.00  0.00     0.045 A 
HETATM   10  C14 UNL     1      -3.658  49.588 -24.590  1.00  0.00     0.055 A 
HETATM   11  N2  UNL     1      -3.016  50.376 -23.704  1.00  0.00    -0.357 N 
HETATM   12  C15 UNL     1      -1.838  50.811 -24.306  1.00  0.00     0.022 A 
HETATM   13  C25 UNL     1      -1.792  50.287 -25.608  1.00  0.00    -0.023 A 
HETATM   14  C26 UNL     1      -0.738  50.483 -26.635  1.00  0.00     0.051 C 
HETATM   15  C27 UNL     1      -6.940  47.843 -23.568  1.00  0.00     0.046 C 
HETATM   16  C31 UNL     1      -7.072  47.454 -22.087  1.00  0.00     0.041 C 
HETATM   17  C32 UNL     1      -6.565  46.042 -21.808  1.00  0.00     0.017 C 
HETATM   18  H10 UNL     1      -3.360  50.648 -22.797  1.00  0.00     0.166 HD
ENDROOT
BRANCH  15  19
HETATM   19  C28 UNL     1      -8.123  48.690 -24.074  1.00  0.00     0.022 C 
BRANCH  19  20
HETATM   20  C29 UNL     1      -8.993  47.977 -25.111  1.00  0.00     0.110 C 
BRANCH  20  21
HETATM   21  C30 UNL     1      -9.358  48.821 -26.302  1.00  0.00     0.139 C 
HETATM   22  O4  UNL     1      -9.431  48.422 -27.454  1.00  0.00    -0.650 OA
BRANCH  21  23
HETATM   23  O5  UNL     1      -9.682  50.089 -25.995  1.00  0.00    -0.776 OA
HETATM   24  H29 UNL     1      -9.971  50.480 -26.849  1.00  0.00     0.167 HD
ENDBRANCH  21  23
ENDBRANCH  20  21
ENDBRANCH  19  20
ENDBRANCH  15  19
BRANCH   1  25
HETATM   25  C7  UNL     1      -6.159  48.658 -19.979  1.00  0.00     0.055 C 
BRANCH  25  26
HETATM   26  C6  UNL     1      -5.687  47.701 -19.174  1.00  0.00     0.043 A 
HETATM   27  C4  UNL     1      -6.372  46.843 -18.228  1.00  0.00    -0.019 A 
HETATM   28  C3  UNL     1      -5.491  46.033 -17.593  1.00  0.00     0.039 A 
HETATM   29  C5  UNL     1      -7.853  46.933 -18.035  1.00  0.00     0.052 C 
HETATM   30  C33 UNL     1      -4.147  46.365 -18.181  1.00  0.00     0.256 A 
HETATM   31  N4  UNL     1      -4.379  47.345 -19.106  1.00  0.00    -0.322 N 
HETATM   32  O6  UNL     1      -3.056  45.882 -17.920  1.00  0.00    -0.267 OA
HETATM   33  H34 UNL     1      -3.665  47.800 -19.662  1.00  0.00     0.169 HD
BRANCH  28  34
HETATM   34  C2  UNL     1      -5.759  45.014 -16.608  1.00  0.00     0.007 C 
HETATM   35  C1  UNL     1      -5.624  45.150 -15.282  1.00  0.00     0.012 C 
ENDBRANCH  28  34
ENDBRANCH  25  26
ENDBRANCH   1  25
BRANCH  12  36
HETATM   36  C16 UNL     1      -0.899  51.738 -23.583  1.00  0.00     0.115 C 
BRANCH  36  37
HETATM   37  C17 UNL     1      -1.067  51.697 -22.094  1.00  0.00     0.022 A 
HETATM   38  C18 UNL     1      -0.189  52.009 -21.063  1.00  0.00    -0.020 A 
HETATM   39  C21 UNL     1      -0.885  51.773 -19.824  1.00  0.00     0.040 A 
HETATM   40  C23 UNL     1      -2.174  51.372 -20.149  1.00  0.00     0.084 A 
HETATM   41  N3  UNL     1      -2.267  51.359 -21.523  1.00  0.00    -0.356 N 
HETATM   42  H20 UNL     1      -3.124  51.166 -22.033  1.00  0.00     0.166 HD
BRANCH  38  43
HETATM   43  C19 UNL     1       1.222  52.506 -21.204  1.00  0.00     0.037 C 
HETATM   44  C20 UNL     1       1.311  54.021 -21.095  1.00  0.00     0.010 C 
ENDBRANCH  38  43
BRANCH  39  45
HETATM   45  C22 UNL     1      -0.378  51.941 -18.462  1.00  0.00     0.273 C 
HETATM   46  O2  UNL     1       0.299  51.100 -17.874  1.00  0.00    -0.301 OA
ENDBRANCH  39  45
BRANCH  40  47
HETATM   47  C24 UNL     1      -3.293  51.041 -19.297  1.00  0.00     0.288 C 
HETATM   48  O3  UNL     1      -3.296  50.170 -18.432  1.00  0.00    -0.300 OA
ENDBRANCH  40  47
ENDBRANCH  36  37
ENDBRANCH  12  36
TORSDOF 12
ENDMDL
MODEL 7
REMARK minimizedAffinity -9.0076313
REMARK CNNscore 0.0798255429
REMARK CNNaffinity 7.08459711
REMARK  12 active torsions:
REMARK  status: ('A' for Active; 'I' for Inactive)
REMARK    1  A    between atoms: C2_2  and  C3_3 
REMARK    2  A    between atoms: C6_6  and  C7_7 
REMARK    3  A    between atoms: C7_7  and  C8_8 
REMARK    4  A    between atoms: C15_19  and  C16_20 
REMARK    5  A    between atoms: C16_20  and  C17_21 
REMARK    6  A    between atoms: C18_22  and  C19_23 
REMARK    7  A    between atoms: C21_25  and  C22_26 
REMARK    8  A    between atoms: C23_28  and  C24_29 
REMARK    9  A    between atoms: C27_34  and  C28_35 
REMARK   10  A    between atoms: C28_35  and  C29_36 
REMARK   11  A    between atoms: C29_36  and  C30_37 
REMARK   12  A    between atoms: C30_37  and  O5_39 
ROOT
HETATM    1  C8  UNL     1      -2.304  49.080 -17.429  1.00  0.00     0.016 C 
HETATM    2  N1  UNL     1      -1.686  49.462 -18.507  1.00  0.00    -0.362 N 
ATOM      3  H1  UNL     1      -1.803  49.074 -19.443  1.00  0.00     0.165 HD
HETATM    4  C9  UNL     1      -0.843  50.489 -18.148  1.00  0.00     0.023 C 
HETATM    5  C10 UNL     1      -0.288  51.341 -19.024  1.00  0.00    -0.000 A 
HETATM    6  C11 UNL     1       0.565  52.586 -18.685  1.00  0.00     0.127 A 
HETATM    7  C12 UNL     1       0.762  53.203 -20.109  1.00  0.00     0.166 A 
HETATM    8  O1  UNL     1       1.376  54.234 -20.354  1.00  0.00    -0.292 OA
HETATM    9  C13 UNL     1       0.122  52.338 -21.080  1.00  0.00     0.045 A 
HETATM   10  C14 UNL     1      -0.447  51.291 -20.423  1.00  0.00     0.055 A 
HETATM   11  N2  UNL     1      -0.989  50.424 -21.300  1.00  0.00    -0.357 N 
HETATM   12  C15 UNL     1      -0.818  50.955 -22.576  1.00  0.00     0.022 A 
HETATM   13  C25 UNL     1      -0.123  52.169 -22.455  1.00  0.00    -0.023 A 
HETATM   14  C26 UNL     1       0.301  53.092 -23.538  1.00  0.00     0.051 C 
HETATM   15  C27 UNL     1      -0.700  50.591 -16.640  1.00  0.00     0.046 C 
HETATM   16  C31 UNL     1      -1.953  49.837 -16.169  1.00  0.00     0.041 C 
HETATM   17  C32 UNL     1      -3.089  50.779 -15.783  1.00  0.00     0.017 C 
HETATM   18  H10 UNL     1      -1.389  49.527 -21.075  1.00  0.00     0.166 HD
ENDROOT
BRANCH  15  19
HETATM   19  C28 UNL     1       0.611  49.925 -16.177  1.00  0.00     0.022 C 
BRANCH  19  20
HETATM   20  C29 UNL     1       1.630  50.908 -15.598  1.00  0.00     0.110 C 
BRANCH  20  21
HETATM   21  C30 UNL     1       1.026  52.143 -14.986  1.00  0.00     0.139 C 
HETATM   22  O4  UNL     1       0.382  52.174 -13.949  1.00  0.00    -0.650 OA
BRANCH  21  23
HETATM   23  O5  UNL     1       1.310  53.277 -15.649  1.00  0.00    -0.776 OA
HETATM   24  H29 UNL     1       0.923  53.989 -15.092  1.00  0.00     0.167 HD
ENDBRANCH  21  23
ENDBRANCH  20  21
ENDBRANCH  19  20
ENDBRANCH  15  19
BRANCH   1  25
HETATM   25  C7  UNL     1      -3.321  47.995 -17.379  1.00  0.00     0.055 C 
BRANCH  25  26
HETATM   26  C6  UNL     1      -4.389  48.028 -18.183  1.00  0.00     0.043 A 
HETATM   27  C4  UNL     1      -4.589  47.468 -19.504  1.00  0.00    -0.019 A 
HETATM   28  C3  UNL     1      -5.824  47.774 -19.970  1.00  0.00     0.039 A 
HETATM   29  C5  UNL     1      -3.509  46.690 -20.187  1.00  0.00     0.052 C 
HETATM   30  C33 UNL     1      -6.482  48.564 -18.871  1.00  0.00     0.256 A 
HETATM   31  N4  UNL     1      -5.557  48.642 -17.867  1.00  0.00    -0.322 N 
HETATM   32  O6  UNL     1      -7.603  49.047 -18.840  1.00  0.00    -0.267 OA
HETATM   33  H34 UNL     1      -5.690  49.133 -16.992  1.00  0.00     0.169 HD
BRANCH  28  34
HETATM   34  C2  UNL     1      -6.434  47.387 -21.219  1.00  0.00     0.007 C 
HETATM   35  C1  UNL     1      -5.948  47.643 -22.441  1.00  0.00     0.012 C 
ENDBRANCH  28  34
ENDBRANCH  25  26
ENDBRANCH   1  25
BRANCH  12  36
HETATM   36  C16 UNL     1      -1.295  50.210 -23.793  1.00  0.00     0.115 C 
BRANCH  36  37
HETATM   37  C17 UNL     1      -1.114  50.985 -25.062  1.00  0.00     0.022 A 
HETATM   38  C18 UNL     1      -1.978  51.821 -25.759  1.00  0.00    -0.020 A 
HETATM   39  C21 UNL     1      -1.273  52.288 -26.926  1.00  0.00     0.040 A 
HETATM   40  C23 UNL     1       0.009  51.756 -26.868  1.00  0.00     0.084 A 
HETATM   41  N3  UNL     1       0.089  50.995 -25.723  1.00  0.00    -0.356 N 
HETATM   42  H20 UNL     1       0.938  50.544 -25.398  1.00  0.00     0.166 HD
BRANCH  38  43
HETATM   43  C19 UNL     1      -3.385  52.180 -25.374  1.00  0.00     0.037 C 
HETATM   44  C20 UNL     1      -3.475  52.693 -23.944  1.00  0.00     0.010 C 
ENDBRANCH  38  43
BRANCH  39  45
HETATM   45  C22 UNL     1      -1.765  53.178 -27.977  1.00  0.00     0.273 C 
HETATM   46  O2  UNL     1      -1.532  54.384 -28.018  1.00  0.00    -0.301 OA
ENDBRANCH  39  45
BRANCH  40  47
HETATM   47  C24 UNL     1       1.133  51.927 -27.761  1.00  0.00     0.288 C 
HETATM   48  O3  UNL     1       2.299  52.084 -27.413  1.00  0.00    -0.300 OA
ENDBRANCH  40  47
ENDBRANCH  36  37
ENDBRANCH  12  36
TORSDOF 12
ENDMDL
MODEL 8
REMARK minimizedAffinity -8.47595978
REMARK CNNscore 0.0759018511
REMARK CNNaffinity 6.60720587
REMARK  12 active torsions:
REMARK  status: ('A' for Active; 'I' for Inactive)
REMARK    1  A    between atoms: C2_2  and  C3_3 
REMARK    2  A    between atoms: C6_6  and  C7_7 
REMARK    3  A    between atoms: C7_7  and  C8_8 
REMARK    4  A    between atoms: C15_19  and  C16_20 
REMARK    5  A    between atoms: C16_20  and  C17_21 
REMARK    6  A    between atoms: C18_22  and  C19_23 
REMARK    7  A    between atoms: C21_25  and  C22_26 
REMARK    8  A    between atoms: C23_28  and  C24_29 
REMARK    9  A    between atoms: C27_34  and  C28_35 
REMARK   10  A    between atoms: C28_35  and  C29_36 
REMARK   11  A    between atoms: C29_36  and  C30_37 
REMARK   12  A    between atoms: C30_37  and  O5_39 
ROOT
HETATM    1  C8  UNL     1      -2.604  51.213 -23.100  1.00  0.00     0.016 C 
HETATM    2  N1  UNL     1      -2.281  50.453 -22.096  1.00  0.00    -0.362 N 
ATOM      3  H1  UNL     1      -1.476  50.571 -21.481  1.00  0.00     0.165 HD
HETATM    4  C9  UNL     1      -3.229  49.458 -22.020  1.00  0.00     0.023 C 
HETATM    5  C10 UNL     1      -3.414  48.684 -20.939  1.00  0.00    -0.000 A 
HETATM    6  C11 UNL     1      -4.532  47.636 -20.737  1.00  0.00     0.127 A 
HETATM    7  C12 UNL     1      -4.277  47.216 -19.252  1.00  0.00     0.166 A 
HETATM    8  O1  UNL     1      -4.939  46.399 -18.624  1.00  0.00    -0.292 OA
HETATM    9  C13 UNL     1      -3.118  47.935 -18.761  1.00  0.00     0.045 A 
HETATM   10  C14 UNL     1      -2.655  48.743 -19.754  1.00  0.00     0.055 A 
HETATM   11  N2  UNL     1      -1.531  49.374 -19.360  1.00  0.00    -0.357 N 
HETATM   12  C15 UNL     1      -1.284  49.008 -18.040  1.00  0.00     0.022 A 
HETATM   13  C25 UNL     1      -2.282  48.103 -17.643  1.00  0.00    -0.023 A 
HETATM   14  C26 UNL     1      -2.434  47.429 -16.328  1.00  0.00     0.051 C 
HETATM   15  C27 UNL     1      -4.091  49.412 -23.268  1.00  0.00     0.046 C 
HETATM   16  C31 UNL     1      -3.861  50.819 -23.842  1.00  0.00     0.041 C 
HETATM   17  C32 UNL     1      -4.998  51.779 -23.504  1.00  0.00     0.017 C 
HETATM   18  H10 UNL     1      -0.945  49.955 -19.939  1.00  0.00     0.166 HD
ENDROOT
BRANCH  15  19
HETATM   19  C28 UNL     1      -3.612  48.293 -24.214  1.00  0.00     0.022 C 
BRANCH  19  20
HETATM   20  C29 UNL     1      -3.059  48.807 -25.545  1.00  0.00     0.110 C 
BRANCH  20  21
HETATM   21  C30 UNL     1      -3.909  48.474 -26.742  1.00  0.00     0.139 C 
HETATM   22  O4  UNL     1      -3.487  48.224 -27.859  1.00  0.00    -0.650 OA
BRANCH  21  23
HETATM   23  O5  UNL     1      -5.224  48.399 -26.474  1.00  0.00    -0.776 OA
HETATM   24  H29 UNL     1      -5.628  48.098 -27.318  1.00  0.00     0.167 HD
ENDBRANCH  21  23
ENDBRANCH  20  21
ENDBRANCH  19  20
ENDBRANCH  15  19
BRANCH   1  25
HETATM   25  C7  UNL     1      -1.845  52.421 -23.523  1.00  0.00     0.055 C 
BRANCH  25  26
HETATM   26  C6  UNL     1      -1.444  52.562 -24.790  1.00  0.00     0.043 A 
HETATM   27  C4  UNL     1      -0.157  52.305 -25.404  1.00  0.00    -0.019 A 
HETATM   28  C3  UNL     1      -0.184  52.625 -26.721  1.00  0.00     0.039 A 
HETATM   29  C5  UNL     1       0.992  51.780 -24.602  1.00  0.00     0.052 C 
HETATM   30  C33 UNL     1      -1.587  53.096 -26.989  1.00  0.00     0.256 A 
HETATM   31  N4  UNL     1      -2.243  53.006 -25.793  1.00  0.00    -0.322 N 
HETATM   32  O6  UNL     1      -2.078  53.481 -28.039  1.00  0.00    -0.267 OA
HETATM   33  H34 UNL     1      -3.207  53.275 -25.638  1.00  0.00     0.169 HD
BRANCH  28  34
HETATM   34  C2  UNL     1       0.869  52.491 -27.698  1.00  0.00     0.007 C 
HETATM   35  C1  UNL     1       1.978  51.751 -27.560  1.00  0.00     0.012 C 
ENDBRANCH  28  34
ENDBRANCH  25  26
ENDBRANCH   1  25
BRANCH  12  36
HETATM   36  C16 UNL     1      -0.076  49.525 -17.308  1.00  0.00     0.115 C 
BRANCH  36  37
HETATM   37  C17 UNL     1      -0.427  50.326 -16.091  1.00  0.00     0.022 A 
HETATM   38  C18 UNL     1       0.371  51.000 -15.174  1.00  0.00    -0.020 A 
HETATM   39  C21 UNL     1      -0.507  51.589 -14.195  1.00  0.00     0.040 A 
HETATM   40  C23 UNL     1      -1.807  51.291 -14.581  1.00  0.00     0.084 A 
HETATM   41  N3  UNL     1      -1.734  50.551 -15.740  1.00  0.00    -0.356 N 
HETATM   42  H20 UNL     1      -2.543  50.255 -16.278  1.00  0.00     0.166 HD
BRANCH  38  43
HETATM   43  C19 UNL     1       1.870  51.104 -15.193  1.00  0.00     0.037 C 
HETATM   44  C20 UNL     1       2.360  52.149 -16.186  1.00  0.00     0.010 C 
ENDBRANCH  38  43
BRANCH  39  45
HETATM   45  C22 UNL     1      -0.142  52.383 -13.023  1.00  0.00     0.273 C 
HETATM   46  O2  UNL     1       0.023  51.911 -11.900  1.00  0.00    -0.301 OA
ENDBRANCH  39  45
BRANCH  40  47
HETATM   47  C24 UNL     1      -3.069  51.661 -13.981  1.00  0.00     0.288 C 
HETATM   48  O3  UNL     1      -3.839  52.513 -14.412  1.00  0.00    -0.300 OA
ENDBRANCH  40  47
ENDBRANCH  36  37
ENDBRANCH  12  36
TORSDOF 12
ENDMDL
MODEL 9
REMARK minimizedAffinity -8.17460728
REMARK CNNscore 0.0731450766
REMARK CNNaffinity 5.79470301
REMARK  12 active torsions:
REMARK  status: ('A' for Active; 'I' for Inactive)
REMARK    1  A    between atoms: C2_2  and  C3_3 
REMARK    2  A    between atoms: C6_6  and  C7_7 
REMARK    3  A    between atoms: C7_7  and  C8_8 
REMARK    4  A    between atoms: C15_19  and  C16_20 
REMARK    5  A    between atoms: C16_20  and  C17_21 
REMARK    6  A    between atoms: C18_22  and  C19_23 
REMARK    7  A    between atoms: C21_25  and  C22_26 
REMARK    8  A    between atoms: C23_28  and  C24_29 
REMARK    9  A    between atoms: C27_34  and  C28_35 
REMARK   10  A    between atoms: C28_35  and  C29_36 
REMARK   11  A    between atoms: C29_36  and  C30_37 
REMARK   12  A    between atoms: C30_37  and  O5_39 
ROOT
HETATM    1  C8  UNL     1      -8.357  46.042 -27.433  1.00  0.00     0.016 C 
HETATM    2  N1  UNL     1      -7.643  46.845 -26.701  1.00  0.00    -0.362 N 
ATOM      3  H1  UNL     1      -7.793  47.061 -25.716  1.00  0.00     0.165 HD
HETATM    4  C9  UNL     1      -6.646  47.347 -27.505  1.00  0.00     0.023 C 
HETATM    5  C10 UNL     1      -5.540  47.946 -27.038  1.00  0.00    -0.000 A 
HETATM    6  C11 UNL     1      -4.327  48.422 -27.870  1.00  0.00     0.127 A 
HETATM    7  C12 UNL     1      -3.351  48.877 -26.736  1.00  0.00     0.166 A 
HETATM    8  O1  UNL     1      -2.225  49.326 -26.909  1.00  0.00    -0.292 OA
HETATM    9  C13 UNL     1      -4.014  48.701 -25.458  1.00  0.00     0.045 A 
HETATM   10  C14 UNL     1      -5.253  48.185 -25.679  1.00  0.00     0.055 A 
HETATM   11  N2  UNL     1      -5.930  48.076 -24.519  1.00  0.00    -0.357 N 
HETATM   12  C15 UNL     1      -5.078  48.482 -23.495  1.00  0.00     0.022 A 
HETATM   13  C25 UNL     1      -3.858  48.875 -24.072  1.00  0.00    -0.023 A 
HETATM   14  C26 UNL     1      -2.648  49.392 -23.385  1.00  0.00     0.051 C 
HETATM   15  C27 UNL     1      -6.911  47.054 -28.970  1.00  0.00     0.046 C 
HETATM   16  C31 UNL     1      -7.906  45.888 -28.867  1.00  0.00     0.041 C 
HETATM   17  C32 UNL     1      -7.236  44.531 -29.069  1.00  0.00     0.017 C 
HETATM   18  H10 UNL     1      -6.897  47.809 -24.420  1.00  0.00     0.166 HD
ENDROOT
BRANCH  15  19
HETATM   19  C28 UNL     1      -7.509  48.292 -29.668  1.00  0.00     0.022 C 
BRANCH  19  20
HETATM   20  C29 UNL     1      -7.229  48.346 -31.171  1.00  0.00     0.110 C 
BRANCH  20  21
HETATM   21  C30 UNL     1      -5.805  48.042 -31.550  1.00  0.00     0.139 C 
HETATM   22  O4  UNL     1      -4.843  48.753 -31.309  1.00  0.00    -0.650 OA
BRANCH  21  23
HETATM   23  O5  UNL     1      -5.641  46.846 -32.142  1.00  0.00    -0.776 OA
HETATM   24  H29 UNL     1      -4.668  46.759 -32.251  1.00  0.00     0.167 HD
ENDBRANCH  21  23
ENDBRANCH  20  21
ENDBRANCH  19  20
ENDBRANCH  15  19
BRANCH   1  25
HETATM   25  C7  UNL     1      -9.534  45.275 -26.943  1.00  0.00     0.055 C 
BRANCH  25  26
HETATM   26  C6  UNL     1     -10.775  45.717 -27.168  1.00  0.00     0.043 A 
HETATM   27  C4  UNL     1     -11.766  45.288 -28.134  1.00  0.00    -0.019 A 
HETATM   28  C3  UNL     1     -12.886  46.044 -28.036  1.00  0.00     0.039 A 
HETATM   29  C5  UNL     1     -11.486  44.166 -29.083  1.00  0.00     0.052 C 
HETATM   30  C33 UNL     1     -12.619  47.013 -26.917  1.00  0.00     0.256 A 
HETATM   31  N4  UNL     1     -11.358  46.725 -26.472  1.00  0.00    -0.322 N 
HETATM   32  O6  UNL     1     -13.347  47.884 -26.467  1.00  0.00    -0.267 OA
HETATM   33  H34 UNL     1     -10.877  47.221 -25.732  1.00  0.00     0.169 HD
BRANCH  28  34
HETATM   34  C2  UNL     1     -14.114  45.929 -28.784  1.00  0.00     0.007 C 
HETATM   35  C1  UNL     1     -15.160  45.155 -28.462  1.00  0.00     0.012 C 
ENDBRANCH  28  34
ENDBRANCH  25  26
ENDBRANCH   1  25
BRANCH  12  36
HETATM   36  C16 UNL     1      -5.543  48.504 -22.065  1.00  0.00     0.115 C 
BRANCH  36  37
HETATM   37  C17 UNL     1      -4.445  48.819 -21.096  1.00  0.00     0.022 A 
HETATM   38  C18 UNL     1      -3.466  48.014 -20.524  1.00  0.00    -0.020 A 
HETATM   39  C21 UNL     1      -2.682  48.850 -19.652  1.00  0.00     0.040 A 
HETATM   40  C23 UNL     1      -3.182  50.140 -19.764  1.00  0.00     0.084 A 
HETATM   41  N3  UNL     1      -4.228  50.101 -20.659  1.00  0.00    -0.356 N 
HETATM   42  H20 UNL     1      -4.734  50.921 -20.979  1.00  0.00     0.166 HD
BRANCH  38  43
HETATM   43  C19 UNL     1      -3.256  46.546 -20.767  1.00  0.00     0.037 C 
HETATM   44  C20 UNL     1      -4.029  45.684 -19.779  1.00  0.00     0.010 C 
ENDBRANCH  38  43
BRANCH  39  45
HETATM   45  C22 UNL     1      -1.546  48.461 -18.817  1.00  0.00     0.273 C 
HETATM   46  O2  UNL     1      -1.566  48.466 -17.587  1.00  0.00    -0.301 OA
ENDBRANCH  39  45
BRANCH  40  47
HETATM   47  C24 UNL     1      -2.749  51.369 -19.137  1.00  0.00     0.288 C 
HETATM   48  O3  UNL     1      -2.866  51.640 -17.946  1.00  0.00    -0.300 OA
ENDBRANCH  40  47
ENDBRANCH  36  37
ENDBRANCH  12  36
TORSDOF 12
ENDMDL
