MODEL 1
REMARK minimizedAffinity -9.16064835
REMARK  4 active torsions:
REMARK  status: ('A' for Active; 'I' for Inactive)
REMARK    1  A    between atoms: C4_4  and  C5_5 
REMARK    2  A    between atoms: C5_5  and  C6_6 
REMARK    3  A    between atoms: C6_6  and  C7_7 
REMARK    4  A    between atoms: C9_9  and  O1_10 
ROOT
HETATM    1  C7  UNL     1      -1.853  52.212 -23.069  1.00  0.00    -0.007 C 
HETATM    2  C8  UNL     1      -3.097  52.215 -23.960  1.00  0.00     0.038 C 
HETATM    3  C9  UNL     1      -4.339  51.548 -23.353  1.00  0.00     0.131 C 
HETATM    4  C10 UNL     1      -4.070  50.094 -22.788  1.00  0.00     0.013 C 
HETATM    5  C11 UNL     1      -3.780  49.175 -24.016  1.00  0.00     0.023 C 
HETATM    6  C12 UNL     1      -5.294  49.443 -22.057  1.00  0.00    -0.067 C 
HETATM    7  C13 UNL     1      -6.577  49.741 -22.354  1.00  0.00    -0.022 C 
HETATM    8  C14 UNL     1      -7.795  49.109 -21.744  1.00  0.00     0.034 C 
HETATM    9  C15 UNL     1      -7.499  48.182 -20.550  1.00  0.00     0.013 C 
HETATM   10  C16 UNL     1      -8.766  47.433 -20.004  1.00  0.00     0.018 C 
HETATM   11  C17 UNL     1      -9.718  48.468 -19.353  1.00  0.00     0.023 C 
HETATM   12  C18 UNL     1      -9.592  46.663 -21.047  1.00  0.00     0.023 C 
HETATM   13  C19 UNL     1      -8.343  46.434 -18.920  1.00  0.00     0.135 C 
HETATM   14  O2  UNL     1      -9.007  46.249 -17.897  1.00  0.00    -0.297 OA
HETATM   15  C20 UNL     1      -7.133  45.575 -19.192  1.00  0.00     0.080 C 
HETATM   16  C21 UNL     1      -5.942  46.432 -19.584  1.00  0.00     0.017 C 
HETATM   17  C22 UNL     1      -6.204  47.332 -20.819  1.00  0.00    -0.031 C 
HETATM   18  C23 UNL     1      -6.294  46.441 -22.082  1.00  0.00     0.016 C 
HETATM   19  C24 UNL     1      -5.019  48.382 -20.980  1.00  0.00     0.024 C 
HETATM   20  C25 UNL     1      -3.632  47.745 -21.120  1.00  0.00     0.010 C 
HETATM   21  C26 UNL     1      -2.477  48.742 -21.266  1.00  0.00     0.011 C 
HETATM   22  C27 UNL     1      -2.839  50.172 -21.779  1.00  0.00    -0.027 C 
HETATM   23  C28 UNL     1      -3.178  51.054 -20.531  1.00  0.00     0.016 C 
HETATM   24  C29 UNL     1      -1.564  50.797 -22.492  1.00  0.00    -0.005 C 
HETATM   25  C30 UNL     1      -0.311  50.830 -21.595  1.00  0.00     0.011 C 
ENDROOT
BRANCH   1  26
HETATM   26  C6  UNL     1      -0.658  52.874 -23.804  1.00  0.00     0.009 C 
BRANCH  26  27
HETATM   27  C5  UNL     1       0.314  51.912 -24.498  1.00  0.00     0.028 C 
BRANCH  27  28
HETATM   28  C4  UNL     1       0.159  51.983 -25.996  1.00  0.00    -0.025 C 
HETATM   29  C2  UNL     1       1.107  51.777 -26.931  1.00  0.00    -0.091 C 
HETATM   30  C1  UNL     1       0.766  51.843 -28.397  1.00  0.00     0.042 C 
HETATM   31  C3  UNL     1       2.552  51.468 -26.646  1.00  0.00     0.042 C 
ENDBRANCH  27  28
ENDBRANCH  26  27
ENDBRANCH   1  26
BRANCH   3  32
HETATM   32  O1  UNL     1      -5.309  51.546 -24.412  1.00  0.00    -0.394 OA
HETATM   33  H16 UNL     1      -5.502  52.474 -24.630  1.00  0.00     0.210 HD
ENDBRANCH   3  32
TORSDOF 4
ENDMDL
MODEL 2
REMARK minimizedAffinity -9.14114189
REMARK  4 active torsions:
REMARK  status: ('A' for Active; 'I' for Inactive)
REMARK    1  A    between atoms: C4_4  and  C5_5 
REMARK    2  A    between atoms: C5_5  and  C6_6 
REMARK    3  A    between atoms: C6_6  and  C7_7 
REMARK    4  A    between atoms: C9_9  and  O1_10 
ROOT
HETATM    1  C7  UNL     1      -5.756  46.840 -21.789  1.00  0.00    -0.007 C 
HETATM    2  C8  UNL     1      -6.307  47.409 -23.098  1.00  0.00     0.038 C 
HETATM    3  C9  UNL     1      -5.282  48.137 -23.978  1.00  0.00     0.131 C 
HETATM    4  C10 UNL     1      -4.449  49.239 -23.207  1.00  0.00     0.013 C 
HETATM    5  C11 UNL     1      -5.440  50.392 -22.849  1.00  0.00     0.023 C 
HETATM    6  C12 UNL     1      -3.316  49.912 -24.056  1.00  0.00    -0.067 C 
HETATM    7  C13 UNL     1      -3.373  50.036 -25.399  1.00  0.00    -0.022 C 
HETATM    8  C14 UNL     1      -2.360  50.726 -26.267  1.00  0.00     0.034 C 
HETATM    9  C15 UNL     1      -1.073  51.145 -25.530  1.00  0.00     0.013 C 
HETATM   10  C16 UNL     1      -0.079  51.973 -26.419  1.00  0.00     0.018 C 
HETATM   11  C17 UNL     1       0.493  51.050 -27.524  1.00  0.00     0.023 C 
HETATM   12  C18 UNL     1      -0.676  53.200 -27.128  1.00  0.00     0.023 C 
HETATM   13  C19 UNL     1       1.092  52.462 -25.558  1.00  0.00     0.135 C 
HETATM   14  O2  UNL     1       2.254  52.480 -25.973  1.00  0.00    -0.297 OA
HETATM   15  C20 UNL     1       0.771  53.045 -24.204  1.00  0.00     0.080 C 
HETATM   16  C21 UNL     1      -0.086  52.088 -23.395  1.00  0.00     0.017 C 
HETATM   17  C22 UNL     1      -1.413  51.698 -24.098  1.00  0.00    -0.031 C 
HETATM   18  C23 UNL     1      -2.356  52.926 -24.112  1.00  0.00     0.016 C 
HETATM   19  C24 UNL     1      -2.101  50.494 -23.317  1.00  0.00     0.024 C 
HETATM   20  C25 UNL     1      -2.393  50.791 -21.843  1.00  0.00     0.010 C 
HETATM   21  C26 UNL     1      -3.048  49.638 -21.072  1.00  0.00     0.011 C 
HETATM   22  C27 UNL     1      -3.805  48.564 -21.915  1.00  0.00    -0.027 C 
HETATM   23  C28 UNL     1      -2.774  47.452 -22.306  1.00  0.00     0.016 C 
HETATM   24  C29 UNL     1      -4.927  47.899 -21.008  1.00  0.00    -0.005 C 
HETATM   25  C30 UNL     1      -4.381  47.293 -19.699  1.00  0.00     0.011 C 
ENDROOT
BRANCH   1  26
HETATM   26  C6  UNL     1      -6.890  46.166 -20.971  1.00  0.00     0.009 C 
BRANCH  26  27
HETATM   27  C5  UNL     1      -8.210  46.943 -20.895  1.00  0.00     0.028 C 
BRANCH  27  28
HETATM   28  C4  UNL     1      -8.175  47.949 -19.774  1.00  0.00    -0.025 C 
HETATM   29  C2  UNL     1      -9.220  48.455 -19.090  1.00  0.00    -0.091 C 
HETATM   30  C1  UNL     1      -9.000  49.425 -17.958  1.00  0.00     0.042 C 
HETATM   31  C3  UNL     1     -10.666  48.132 -19.354  1.00  0.00     0.042 C 
ENDBRANCH  27  28
ENDBRANCH  26  27
ENDBRANCH   1  26
BRANCH   3  32
HETATM   32  O1  UNL     1      -6.053  48.695 -25.054  1.00  0.00    -0.394 OA
HETATM   33  H16 UNL     1      -6.446  47.953 -25.545  1.00  0.00     0.210 HD
ENDBRANCH   3  32
TORSDOF 4
ENDMDL
MODEL 3
REMARK minimizedAffinity -9.12189484
REMARK  4 active torsions:
REMARK  status: ('A' for Active; 'I' for Inactive)
REMARK    1  A    between atoms: C4_4  and  C5_5 
REMARK    2  A    between atoms: C5_5  and  C6_6 
REMARK    3  A    between atoms: C6_6  and  C7_7 
REMARK    4  A    between atoms: C9_9  and  O1_10 
ROOT
HETATM    1  C7  UNL     1      -1.216  50.468 -22.959  1.00  0.00    -0.007 C 
HETATM    2  C8  UNL     1      -0.675  51.620 -22.110  1.00  0.00     0.038 C 
HETATM    3  C9  UNL     1      -0.251  51.240 -20.685  1.00  0.00     0.131 C 
HETATM    4  C10 UNL     1      -1.356  50.439 -19.884  1.00  0.00     0.013 C 
HETATM    5  C11 UNL     1      -2.533  51.429 -19.615  1.00  0.00     0.023 C 
HETATM    6  C12 UNL     1      -0.900  49.938 -18.469  1.00  0.00    -0.067 C 
HETATM    7  C13 UNL     1       0.038  50.567 -17.729  1.00  0.00    -0.022 C 
HETATM    8  C14 UNL     1       0.474  50.183 -16.344  1.00  0.00     0.034 C 
HETATM    9  C15 UNL     1      -0.095  48.840 -15.848  1.00  0.00     0.013 C 
HETATM   10  C16 UNL     1       0.268  48.514 -14.357  1.00  0.00     0.018 C 
HETATM   11  C17 UNL     1       1.792  48.252 -14.257  1.00  0.00     0.023 C 
HETATM   12  C18 UNL     1      -0.063  49.610 -13.331  1.00  0.00     0.023 C 
HETATM   13  C19 UNL     1      -0.461  47.237 -13.919  1.00  0.00     0.135 C 
HETATM   14  O2  UNL     1       0.072  46.384 -13.204  1.00  0.00    -0.297 OA
HETATM   15  C20 UNL     1      -1.916  47.098 -14.293  1.00  0.00     0.080 C 
HETATM   16  C21 UNL     1      -2.112  47.308 -15.784  1.00  0.00     0.017 C 
HETATM   17  C22 UNL     1      -1.595  48.679 -16.291  1.00  0.00    -0.031 C 
HETATM   18  C23 UNL     1      -2.525  49.796 -15.759  1.00  0.00     0.016 C 
HETATM   19  C24 UNL     1      -1.585  48.694 -17.882  1.00  0.00     0.024 C 
HETATM   20  C25 UNL     1      -2.950  48.415 -18.520  1.00  0.00     0.010 C 
HETATM   21  C26 UNL     1      -2.956  48.417 -20.053  1.00  0.00     0.011 C 
HETATM   22  C27 UNL     1      -1.799  49.187 -20.765  1.00  0.00    -0.027 C 
HETATM   23  C28 UNL     1      -0.615  48.184 -20.969  1.00  0.00     0.016 C 
HETATM   24  C29 UNL     1      -2.302  49.656 -22.197  1.00  0.00    -0.005 C 
HETATM   25  C30 UNL     1      -2.821  48.500 -23.076  1.00  0.00     0.011 C 
ENDROOT
BRANCH   1  26
HETATM   26  C6  UNL     1      -1.648  50.982 -24.358  1.00  0.00     0.009 C 
BRANCH  26  27
HETATM   27  C5  UNL     1      -0.855  52.175 -24.904  1.00  0.00     0.028 C 
BRANCH  27  28
HETATM   28  C4  UNL     1       0.552  51.768 -25.257  1.00  0.00    -0.025 C 
HETATM   29  C2  UNL     1       1.120  51.745 -26.478  1.00  0.00    -0.091 C 
HETATM   30  C1  UNL     1       2.565  51.351 -26.646  1.00  0.00     0.042 C 
HETATM   31  C3  UNL     1       0.422  52.094 -27.764  1.00  0.00     0.042 C 
ENDBRANCH  27  28
ENDBRANCH  26  27
ENDBRANCH   1  26
BRANCH   3  32
HETATM   32  O1  UNL     1       0.075  52.489 -20.054  1.00  0.00    -0.394 OA
HETATM   33  H16 UNL     1       0.830  52.869 -20.536  1.00  0.00     0.210 HD
ENDBRANCH   3  32
TORSDOF 4
ENDMDL
MODEL 4
REMARK minimizedAffinity -8.93290234
REMARK  4 active torsions:
REMARK  status: ('A' for Active; 'I' for Inactive)
REMARK    1  A    between atoms: C4_4  and  C5_5 
REMARK    2  A    between atoms: C5_5  and  C6_6 
REMARK    3  A    between atoms: C6_6  and  C7_7 
REMARK    4  A    between atoms: C9_9  and  O1_10 
ROOT
HETATM    1  C7  UNL     1      -1.423  51.063 -23.103  1.00  0.00    -0.007 C 
HETATM    2  C8  UNL     1      -1.253  50.207 -21.846  1.00  0.00     0.038 C 
HETATM    3  C9  UNL     1      -2.178  48.985 -21.757  1.00  0.00     0.131 C 
HETATM    4  C10 UNL     1      -3.706  49.324 -21.990  1.00  0.00     0.013 C 
HETATM    5  C11 UNL     1      -4.176  50.172 -20.766  1.00  0.00     0.023 C 
HETATM    6  C12 UNL     1      -4.653  48.074 -22.021  1.00  0.00    -0.067 C 
HETATM    7  C13 UNL     1      -4.388  46.929 -21.356  1.00  0.00    -0.022 C 
HETATM    8  C14 UNL     1      -5.279  45.722 -21.287  1.00  0.00     0.034 C 
HETATM    9  C15 UNL     1      -6.499  45.778 -22.225  1.00  0.00     0.013 C 
HETATM   10  C16 UNL     1      -7.484  44.569 -22.051  1.00  0.00     0.018 C 
HETATM   11  C17 UNL     1      -6.784  43.277 -22.543  1.00  0.00     0.023 C 
HETATM   12  C18 UNL     1      -7.965  44.296 -20.617  1.00  0.00     0.023 C 
HETATM   13  C19 UNL     1      -8.728  44.792 -22.921  1.00  0.00     0.135 C 
HETATM   14  O2  UNL     1      -9.274  43.875 -23.541  1.00  0.00    -0.297 OA
HETATM   15  C20 UNL     1      -9.355  46.164 -22.908  1.00  0.00     0.080 C 
HETATM   16  C21 UNL     1      -8.321  47.232 -23.220  1.00  0.00     0.017 C 
HETATM   17  C22 UNL     1      -7.111  47.226 -22.249  1.00  0.00    -0.031 C 
HETATM   18  C23 UNL     1      -7.575  47.729 -20.861  1.00  0.00     0.016 C 
HETATM   19  C24 UNL     1      -5.965  48.175 -22.814  1.00  0.00     0.024 C 
HETATM   20  C25 UNL     1      -6.408  49.624 -23.041  1.00  0.00     0.010 C 
HETATM   21  C26 UNL     1      -5.318  50.551 -23.594  1.00  0.00     0.011 C 
HETATM   22  C27 UNL     1      -3.836  50.114 -23.368  1.00  0.00    -0.027 C 
HETATM   23  C28 UNL     1      -3.412  49.221 -24.581  1.00  0.00     0.016 C 
HETATM   24  C29 UNL     1      -2.916  51.409 -23.363  1.00  0.00    -0.005 C 
HETATM   25  C30 UNL     1      -3.053  52.265 -24.639  1.00  0.00     0.011 C 
ENDROOT
BRANCH   1  26
HETATM   26  C6  UNL     1      -0.467  52.285 -23.059  1.00  0.00     0.009 C 
BRANCH  26  27
HETATM   27  C5  UNL     1      -0.267  53.022 -24.389  1.00  0.00     0.028 C 
BRANCH  27  28
HETATM   28  C4  UNL     1       1.005  52.576 -25.063  1.00  0.00    -0.025 C 
HETATM   29  C2  UNL     1       1.149  51.613 -25.994  1.00  0.00    -0.091 C 
HETATM   30  C1  UNL     1       2.499  51.327 -26.600  1.00  0.00     0.042 C 
HETATM   31  C3  UNL     1       0.039  50.746 -26.522  1.00  0.00     0.042 C 
ENDBRANCH  27  28
ENDBRANCH  26  27
ENDBRANCH   1  26
BRANCH   3  32
HETATM   32  O1  UNL     1      -1.938  48.438 -20.451  1.00  0.00    -0.394 OA
HETATM   33  H16 UNL     1      -1.007  48.155 -20.421  1.00  0.00     0.210 HD
ENDBRANCH   3  32
TORSDOF 4
ENDMDL
MODEL 5
REMARK minimizedAffinity -8.84656811
REMARK  4 active torsions:
REMARK  status: ('A' for Active; 'I' for Inactive)
REMARK    1  A    between atoms: C4_4  and  C5_5 
REMARK    2  A    between atoms: C5_5  and  C6_6 
REMARK    3  A    between atoms: C6_6  and  C7_7 
REMARK    4  A    between atoms: C9_9  and  O1_10 
ROOT
HETATM    1  C7  UNL     1      -1.763  51.420 -23.785  1.00  0.00    -0.007 C 
HETATM    2  C8  UNL     1      -2.735  52.077 -22.802  1.00  0.00     0.038 C 
HETATM    3  C9  UNL     1      -3.790  51.139 -22.200  1.00  0.00     0.131 C 
HETATM    4  C10 UNL     1      -4.585  50.298 -23.280  1.00  0.00     0.013 C 
HETATM    5  C11 UNL     1      -5.469  51.304 -24.082  1.00  0.00     0.023 C 
HETATM    6  C12 UNL     1      -5.584  49.249 -22.681  1.00  0.00    -0.067 C 
HETATM    7  C13 UNL     1      -6.183  49.399 -21.480  1.00  0.00    -0.022 C 
HETATM    8  C14 UNL     1      -7.198  48.471 -20.877  1.00  0.00     0.034 C 
HETATM    9  C15 UNL     1      -7.396  47.155 -21.652  1.00  0.00     0.013 C 
HETATM   10  C16 UNL     1      -8.546  46.253 -21.080  1.00  0.00     0.018 C 
HETATM   11  C17 UNL     1      -8.121  45.722 -19.688  1.00  0.00     0.023 C 
HETATM   12  C18 UNL     1      -9.909  46.939 -20.898  1.00  0.00     0.023 C 
HETATM   13  C19 UNL     1      -8.756  45.045 -22.003  1.00  0.00     0.135 C 
HETATM   14  O2  UNL     1      -8.991  43.915 -21.567  1.00  0.00    -0.297 OA
HETATM   15  C20 UNL     1      -8.789  45.296 -23.490  1.00  0.00     0.080 C 
HETATM   16  C21 UNL     1      -7.556  46.063 -23.934  1.00  0.00     0.017 C 
HETATM   17  C22 UNL     1      -7.371  47.418 -23.202  1.00  0.00    -0.031 C 
HETATM   18  C23 UNL     1      -8.464  48.404 -23.683  1.00  0.00     0.016 C 
HETATM   19  C24 UNL     1      -5.929  48.009 -23.522  1.00  0.00     0.024 C 
HETATM   20  C25 UNL     1      -5.653  48.214 -25.015  1.00  0.00     0.010 C 
HETATM   21  C26 UNL     1      -4.264  48.774 -25.342  1.00  0.00     0.011 C 
HETATM   22  C27 UNL     1      -3.526  49.545 -24.202  1.00  0.00    -0.027 C 
HETATM   23  C28 UNL     1      -2.693  48.503 -23.383  1.00  0.00     0.016 C 
HETATM   24  C29 UNL     1      -2.513  50.580 -24.857  1.00  0.00    -0.005 C 
HETATM   25  C30 UNL     1      -1.507  49.927 -25.826  1.00  0.00     0.011 C 
ENDROOT
BRANCH   1  26
HETATM   26  C6  UNL     1      -0.774  52.472 -24.354  1.00  0.00     0.009 C 
BRANCH  26  27
HETATM   27  C5  UNL     1       0.634  52.459 -23.748  1.00  0.00     0.028 C 
BRANCH  27  28
HETATM   28  C4  UNL     1       0.573  52.268 -22.254  1.00  0.00    -0.025 C 
HETATM   29  C2  UNL     1       0.969  53.130 -21.298  1.00  0.00    -0.091 C 
HETATM   30  C1  UNL     1       0.790  52.793 -19.839  1.00  0.00     0.042 C 
HETATM   31  C3  UNL     1       1.604  54.470 -21.549  1.00  0.00     0.042 C 
ENDBRANCH  27  28
ENDBRANCH  26  27
ENDBRANCH   1  26
BRANCH   3  32
HETATM   32  O1  UNL     1      -4.655  52.000 -21.442  1.00  0.00    -0.394 OA
HETATM   33  H16 UNL     1      -4.120  52.397 -20.733  1.00  0.00     0.210 HD
ENDBRANCH   3  32
TORSDOF 4
ENDMDL
MODEL 6
REMARK minimizedAffinity -8.83564472
REMARK  4 active torsions:
REMARK  status: ('A' for Active; 'I' for Inactive)
REMARK    1  A    between atoms: C4_4  and  C5_5 
REMARK    2  A    between atoms: C5_5  and  C6_6 
REMARK    3  A    between atoms: C6_6  and  C7_7 
REMARK    4  A    between atoms: C9_9  and  O1_10 
ROOT
HETATM    1  C7  UNL     1      -1.625  51.183 -23.232  1.00  0.00    -0.007 C 
HETATM    2  C8  UNL     1      -2.660  51.843 -22.320  1.00  0.00     0.038 C 
HETATM    3  C9  UNL     1      -3.826  50.941 -21.893  1.00  0.00     0.131 C 
HETATM    4  C10 UNL     1      -4.543  50.212 -23.100  1.00  0.00     0.013 C 
HETATM    5  C11 UNL     1      -5.277  51.314 -23.928  1.00  0.00     0.023 C 
HETATM    6  C12 UNL     1      -5.659  49.195 -22.677  1.00  0.00    -0.067 C 
HETATM    7  C13 UNL     1      -6.377  49.315 -21.540  1.00  0.00    -0.022 C 
HETATM    8  C14 UNL     1      -7.502  48.420 -21.106  1.00  0.00     0.034 C 
HETATM    9  C15 UNL     1      -7.687  47.164 -21.978  1.00  0.00     0.013 C 
HETATM   10  C16 UNL     1      -8.941  46.305 -21.589  1.00  0.00     0.018 C 
HETATM   11  C17 UNL     1      -8.702  45.672 -20.195  1.00  0.00     0.023 C 
HETATM   12  C18 UNL     1     -10.275  47.063 -21.510  1.00  0.00     0.023 C 
HETATM   13  C19 UNL     1      -9.116  45.165 -22.601  1.00  0.00     0.135 C 
HETATM   14  O2  UNL     1      -9.459  44.029 -22.264  1.00  0.00    -0.297 OA
HETATM   15  C20 UNL     1      -8.971  45.501 -24.065  1.00  0.00     0.080 C 
HETATM   16  C21 UNL     1      -7.657  46.213 -24.327  1.00  0.00     0.017 C 
HETATM   17  C22 UNL     1      -7.478  47.511 -23.498  1.00  0.00    -0.031 C 
HETATM   18  C23 UNL     1      -8.454  48.588 -24.030  1.00  0.00     0.016 C 
HETATM   19  C24 UNL     1      -5.978  48.028 -23.625  1.00  0.00     0.024 C 
HETATM   20  C25 UNL     1      -5.529  48.298 -25.065  1.00  0.00     0.010 C 
HETATM   21  C26 UNL     1      -4.083  48.788 -25.207  1.00  0.00     0.011 C 
HETATM   22  C27 UNL     1      -3.433  49.447 -23.950  1.00  0.00    -0.027 C 
HETATM   23  C28 UNL     1      -2.755  48.311 -23.114  1.00  0.00     0.016 C 
HETATM   24  C29 UNL     1      -2.299  50.451 -24.428  1.00  0.00    -0.005 C 
HETATM   25  C30 UNL     1      -1.230  49.792 -25.324  1.00  0.00     0.011 C 
ENDROOT
BRANCH   1  26
HETATM   26  C6  UNL     1      -0.522  52.201 -23.627  1.00  0.00     0.009 C 
BRANCH  26  27
HETATM   27  C5  UNL     1      -0.472  52.588 -25.110  1.00  0.00     0.028 C 
BRANCH  27  28
HETATM   28  C4  UNL     1       0.890  52.309 -25.691  1.00  0.00    -0.025 C 
HETATM   29  C2  UNL     1       1.192  51.994 -26.966  1.00  0.00    -0.091 C 
HETATM   30  C1  UNL     1       2.625  51.793 -27.388  1.00  0.00     0.042 C 
HETATM   31  C3  UNL     1       0.191  51.816 -28.074  1.00  0.00     0.042 C 
ENDBRANCH  27  28
ENDBRANCH  26  27
ENDBRANCH   1  26
BRANCH   3  32
HETATM   32  O1  UNL     1      -4.719  51.810 -21.178  1.00  0.00    -0.394 OA
HETATM   33  H16 UNL     1      -4.244  52.133 -20.393  1.00  0.00     0.210 HD
ENDBRANCH   3  32
TORSDOF 4
ENDMDL
MODEL 7
REMARK minimizedAffinity -8.77090645
REMARK  4 active torsions:
REMARK  status: ('A' for Active; 'I' for Inactive)
REMARK    1  A    between atoms: C4_4  and  C5_5 
REMARK    2  A    between atoms: C5_5  and  C6_6 
REMARK    3  A    between atoms: C6_6  and  C7_7 
REMARK    4  A    between atoms: C9_9  and  O1_10 
ROOT
HETATM    1  C7  UNL     1      -5.704  48.992 -20.184  1.00  0.00    -0.007 C 
HETATM    2  C8  UNL     1      -4.241  48.643 -19.907  1.00  0.00     0.038 C 
HETATM    3  C9  UNL     1      -3.211  49.478 -20.679  1.00  0.00     0.131 C 
HETATM    4  C10 UNL     1      -3.476  49.535 -22.238  1.00  0.00     0.013 C 
HETATM    5  C11 UNL     1      -3.212  48.102 -22.798  1.00  0.00     0.023 C 
HETATM    6  C12 UNL     1      -2.506  50.479 -23.030  1.00  0.00    -0.067 C 
HETATM    7  C13 UNL     1      -1.246  50.751 -22.627  1.00  0.00    -0.022 C 
HETATM    8  C14 UNL     1      -0.244  51.588 -23.367  1.00  0.00     0.034 C 
HETATM    9  C15 UNL     1      -0.814  52.329 -24.591  1.00  0.00     0.013 C 
HETATM   10  C16 UNL     1       0.270  53.099 -25.425  1.00  0.00     0.018 C 
HETATM   11  C17 UNL     1       0.807  54.281 -24.579  1.00  0.00     0.023 C 
HETATM   12  C18 UNL     1       1.491  52.274 -25.861  1.00  0.00     0.023 C 
HETATM   13  C19 UNL     1      -0.373  53.678 -26.692  1.00  0.00     0.135 C 
HETATM   14  O2  UNL     1      -0.083  54.794 -27.128  1.00  0.00    -0.297 OA
HETATM   15  C20 UNL     1      -1.301  52.784 -27.477  1.00  0.00     0.080 C 
HETATM   16  C21 UNL     1      -2.381  52.208 -26.579  1.00  0.00     0.017 C 
HETATM   17  C22 UNL     1      -1.825  51.410 -25.371  1.00  0.00    -0.031 C 
HETATM   18  C23 UNL     1      -1.198  50.091 -25.884  1.00  0.00     0.016 C 
HETATM   19  C24 UNL     1      -3.002  51.091 -24.349  1.00  0.00     0.024 C 
HETATM   20  C25 UNL     1      -4.167  50.306 -24.962  1.00  0.00     0.010 C 
HETATM   21  C26 UNL     1      -5.315  49.997 -23.994  1.00  0.00     0.011 C 
HETATM   22  C27 UNL     1      -4.978  50.015 -22.470  1.00  0.00    -0.027 C 
HETATM   23  C28 UNL     1      -5.199  51.474 -21.950  1.00  0.00     0.016 C 
HETATM   24  C29 UNL     1      -5.997  49.062 -21.710  1.00  0.00    -0.005 C 
HETATM   25  C30 UNL     1      -7.477  49.422 -21.955  1.00  0.00     0.011 C 
ENDROOT
BRANCH   1  26
HETATM   26  C6  UNL     1      -6.647  48.058 -19.380  1.00  0.00     0.009 C 
BRANCH  26  27
HETATM   27  C5  UNL     1      -7.703  48.758 -18.517  1.00  0.00     0.028 C 
BRANCH  27  28
HETATM   28  C4  UNL     1      -9.088  48.501 -19.051  1.00  0.00    -0.025 C 
HETATM   29  C2  UNL     1     -10.162  48.053 -18.371  1.00  0.00    -0.091 C 
HETATM   30  C1  UNL     1     -11.494  47.896 -19.058  1.00  0.00     0.042 C 
HETATM   31  C3  UNL     1     -10.168  47.673 -16.915  1.00  0.00     0.042 C 
ENDBRANCH  27  28
ENDBRANCH  26  27
ENDBRANCH   1  26
BRANCH   3  32
HETATM   32  O1  UNL     1      -1.944  48.877 -20.367  1.00  0.00    -0.394 OA
HETATM   33  H16 UNL     1      -1.803  48.977 -19.410  1.00  0.00     0.210 HD
ENDBRANCH   3  32
TORSDOF 4
ENDMDL
MODEL 8
REMARK minimizedAffinity -8.61115837
REMARK  4 active torsions:
REMARK  status: ('A' for Active; 'I' for Inactive)
REMARK    1  A    between atoms: C4_4  and  C5_5 
REMARK    2  A    between atoms: C5_5  and  C6_6 
REMARK    3  A    between atoms: C6_6  and  C7_7 
REMARK    4  A    between atoms: C9_9  and  O1_10 
ROOT
HETATM    1  C7  UNL     1      -6.204  47.893 -29.063  1.00  0.00    -0.007 C 
HETATM    2  C8  UNL     1      -5.290  47.845 -30.289  1.00  0.00     0.038 C 
HETATM    3  C9  UNL     1      -6.012  47.838 -31.644  1.00  0.00     0.131 C 
HETATM    4  C10 UNL     1      -7.143  46.736 -31.757  1.00  0.00     0.013 C 
HETATM    5  C11 UNL     1      -6.428  45.348 -31.767  1.00  0.00     0.023 C 
HETATM    6  C12 UNL     1      -7.972  46.789 -33.087  1.00  0.00    -0.067 C 
HETATM    7  C13 UNL     1      -7.474  47.257 -34.251  1.00  0.00    -0.022 C 
HETATM    8  C14 UNL     1      -8.186  47.275 -35.573  1.00  0.00     0.034 C 
HETATM    9  C15 UNL     1      -9.674  46.887 -35.499  1.00  0.00     0.013 C 
HETATM   10  C16 UNL     1     -10.372  46.790 -36.901  1.00  0.00     0.018 C 
HETATM   11  C17 UNL     1     -10.460  48.209 -37.517  1.00  0.00     0.023 C 
HETATM   12  C18 UNL     1      -9.672  45.897 -37.938  1.00  0.00     0.023 C 
HETATM   13  C19 UNL     1     -11.802  46.261 -36.727  1.00  0.00     0.135 C 
HETATM   14  O2  UNL     1     -12.752  46.698 -37.381  1.00  0.00    -0.297 OA
HETATM   15  C20 UNL     1     -12.006  45.086 -35.802  1.00  0.00     0.080 C 
HETATM   16  C21 UNL     1     -11.399  45.362 -34.438  1.00  0.00     0.017 C 
HETATM   17  C22 UNL     1      -9.886  45.700 -34.489  1.00  0.00    -0.031 C 
HETATM   18  C23 UNL     1      -9.096  44.421 -34.858  1.00  0.00     0.016 C 
HETATM   19  C24 UNL     1      -9.408  46.243 -33.071  1.00  0.00     0.024 C 
HETATM   20  C25 UNL     1      -9.657  45.270 -31.913  1.00  0.00     0.010 C 
HETATM   21  C26 UNL     1      -9.211  45.781 -30.538  1.00  0.00     0.011 C 
HETATM   22  C27 UNL     1      -8.130  46.907 -30.517  1.00  0.00    -0.027 C 
HETATM   23  C28 UNL     1      -8.874  48.283 -30.565  1.00  0.00     0.016 C 
HETATM   24  C29 UNL     1      -7.332  46.825 -29.146  1.00  0.00    -0.005 C 
HETATM   25  C30 UNL     1      -8.238  46.904 -27.901  1.00  0.00     0.011 C 
ENDROOT
BRANCH   1  26
HETATM   26  C6  UNL     1      -5.365  47.855 -27.759  1.00  0.00     0.009 C 
BRANCH  26  27
HETATM   27  C5  UNL     1      -4.088  48.705 -27.763  1.00  0.00     0.028 C 
BRANCH  27  28
HETATM   28  C4  UNL     1      -3.395  48.637 -26.427  1.00  0.00    -0.025 C 
HETATM   29  C2  UNL     1      -3.964  48.545 -25.209  1.00  0.00    -0.091 C 
HETATM   30  C1  UNL     1      -3.112  48.440 -23.970  1.00  0.00     0.042 C 
HETATM   31  C3  UNL     1      -5.444  48.535 -24.944  1.00  0.00     0.042 C 
ENDBRANCH  27  28
ENDBRANCH  26  27
ENDBRANCH   1  26
BRANCH   3  32
HETATM   32  O1  UNL     1      -4.970  47.645 -32.613  1.00  0.00    -0.394 OA
HETATM   33  H16 UNL     1      -4.376  48.413 -32.557  1.00  0.00     0.210 HD
ENDBRANCH   3  32
TORSDOF 4
ENDMDL
MODEL 9
REMARK minimizedAffinity -8.54641628
REMARK  4 active torsions:
REMARK  status: ('A' for Active; 'I' for Inactive)
REMARK    1  A    between atoms: C4_4  and  C5_5 
REMARK    2  A    between atoms: C5_5  and  C6_6 
REMARK    3  A    between atoms: C6_6  and  C7_7 
REMARK    4  A    between atoms: C9_9  and  O1_10 
ROOT
HETATM    1  C7  UNL     1      -1.735  50.965 -23.965  1.00  0.00    -0.007 C 
HETATM    2  C8  UNL     1      -1.372  50.166 -22.712  1.00  0.00     0.038 C 
HETATM    3  C9  UNL     1      -2.261  48.947 -22.431  1.00  0.00     0.131 C 
HETATM    4  C10 UNL     1      -3.810  49.272 -22.447  1.00  0.00     0.013 C 
HETATM    5  C11 UNL     1      -4.100  50.172 -21.205  1.00  0.00     0.023 C 
HETATM    6  C12 UNL     1      -4.739  48.020 -22.281  1.00  0.00    -0.067 C 
HETATM    7  C13 UNL     1      -4.368  46.906 -21.614  1.00  0.00    -0.022 C 
HETATM    8  C14 UNL     1      -5.227  45.701 -21.359  1.00  0.00     0.034 C 
HETATM    9  C15 UNL     1      -6.574  45.712 -22.105  1.00  0.00     0.013 C 
HETATM   10  C16 UNL     1      -7.511  44.509 -21.733  1.00  0.00     0.018 C 
HETATM   11  C17 UNL     1      -6.881  43.198 -22.267  1.00  0.00     0.023 C 
HETATM   12  C18 UNL     1      -7.769  44.300 -20.232  1.00  0.00     0.023 C 
HETATM   13  C19 UNL     1      -8.873  44.690 -22.415  1.00  0.00     0.135 C 
HETATM   14  O2  UNL     1      -9.497  43.746 -22.905  1.00  0.00    -0.297 OA
HETATM   15  C20 UNL     1      -9.503  46.060 -22.368  1.00  0.00     0.080 C 
HETATM   16  C21 UNL     1      -8.538  47.115 -22.878  1.00  0.00     0.017 C 
HETATM   17  C22 UNL     1      -7.196  47.156 -22.101  1.00  0.00    -0.031 C 
HETATM   18  C23 UNL     1      -7.452  47.719 -20.682  1.00  0.00     0.016 C 
HETATM   19  C24 UNL     1      -6.156  48.081 -22.872  1.00  0.00     0.024 C 
HETATM   20  C25 UNL     1      -6.641  49.518 -23.094  1.00  0.00     0.010 C 
HETATM   21  C26 UNL     1      -5.656  50.421 -23.844  1.00  0.00     0.011 C 
HETATM   22  C27 UNL     1      -4.153  49.999 -23.823  1.00  0.00    -0.027 C 
HETATM   23  C28 UNL     1      -3.907  49.053 -25.046  1.00  0.00     0.016 C 
HETATM   24  C29 UNL     1      -3.254  51.295 -24.014  1.00  0.00    -0.005 C 
HETATM   25  C30 UNL     1      -3.588  52.093 -25.290  1.00  0.00     0.011 C 
ENDROOT
BRANCH   1  26
HETATM   26  C6  UNL     1      -0.795  52.190 -24.119  1.00  0.00     0.009 C 
BRANCH  26  27
HETATM   27  C5  UNL     1       0.502  52.142 -23.302  1.00  0.00     0.028 C 
BRANCH  27  28
HETATM   28  C4  UNL     1       0.246  52.530 -21.869  1.00  0.00    -0.025 C 
HETATM   29  C2  UNL     1       0.776  53.565 -21.190  1.00  0.00    -0.091 C 
HETATM   30  C1  UNL     1       0.372  53.836 -19.763  1.00  0.00     0.042 C 
HETATM   31  C3  UNL     1       1.786  54.535 -21.740  1.00  0.00     0.042 C 
ENDBRANCH  27  28
ENDBRANCH  26  27
ENDBRANCH   1  26
BRANCH   3  32
HETATM   32  O1  UNL     1      -1.823  48.460 -21.153  1.00  0.00    -0.394 OA
HETATM   33  H16 UNL     1      -0.897  48.181 -21.251  1.00  0.00     0.210 HD
ENDBRANCH   3  32
TORSDOF 4
ENDMDL
