MODEL 1
REMARK minimizedAffinity -9.16117477
REMARK CNNscore 0.781052887
REMARK CNNaffinity 7.15833426
REMARK  8 active torsions:
REMARK  status: ('A' for Active; 'I' for Inactive)
REMARK    1  A    between atoms: C5_5  and  O1_6 
REMARK    2  A    between atoms: C9_10  and  C10_11 
REMARK    3  A    between atoms: C10_11  and  C11_12 
REMARK    4  A    between atoms: C11_12  and  C12_13 
REMARK    5  A    between atoms: C14_15  and  C15_16 
REMARK    6  A    between atoms: C15_16  and  C16_17 
REMARK    7  A    between atoms: C16_17  and  C17_18 
REMARK    8  A    between atoms: C23_24  and  O2_25 
ROOT
HETATM    1  C12 UNL     1      -3.220   8.715  13.578  1.00  0.00    -0.087 C 
HETATM    2  C13 UNL     1      -2.255   8.780  14.731  1.00  0.00     0.043 C 
HETATM    3  C14 UNL     1      -4.561   8.632  13.688  1.00  0.00    -0.024 C 
ENDROOT
BRANCH   3   4
HETATM    4  C15 UNL     1      -5.393   8.600  14.938  1.00  0.00     0.030 C 
BRANCH   4   5
HETATM    5  C16 UNL     1      -6.776   7.944  14.770  1.00  0.00     0.042 C 
BRANCH   5   6
HETATM    6  C17 UNL     1      -6.830   6.407  14.536  1.00  0.00     0.065 C 
HETATM    7  C18 UNL     1      -7.005   5.661  15.869  1.00  0.00     0.046 C 
HETATM    8  C19 UNL     1      -8.000   6.140  13.568  1.00  0.00     0.043 C 
HETATM    9  C20 UNL     1      -8.063   4.682  13.148  1.00  0.00     0.044 C 
HETATM   10  C21 UNL     1      -6.697   4.173  12.801  1.00  0.00    -0.021 A 
HETATM   11  C22 UNL     1      -6.571   2.979  12.076  1.00  0.00     0.046 A 
HETATM   12  C27 UNL     1      -5.545   4.856  13.214  1.00  0.00     0.082 A 
HETATM   13  C23 UNL     1      -5.307   2.494  11.755  1.00  0.00     0.066 A 
HETATM   14  C24 UNL     1      -4.164   3.178  12.145  1.00  0.00     0.046 A 
HETATM   15  C25 UNL     1      -4.271   4.371  12.872  1.00  0.00    -0.025 A 
HETATM   16  C26 UNL     1      -3.026   5.090  13.308  1.00  0.00     0.051 C 
HETATM   17  O3  UNL     1      -5.582   6.020  13.938  1.00  0.00    -0.340 OA
BRANCH  13  18
HETATM   18  O2  UNL     1      -5.148   1.338  11.050  1.00  0.00    -0.361 OA
HETATM   19  H36 UNL     1      -6.026   0.979  10.843  1.00  0.00     0.217 HD
ENDBRANCH  13  18
ENDBRANCH   5   6
ENDBRANCH   4   5
ENDBRANCH   3   4
BRANCH   1  20
HETATM   20  C11 UNL     1      -2.573   8.717  12.200  1.00  0.00     0.034 C 
BRANCH  20  21
HETATM   21  C10 UNL     1      -1.063   9.004  12.253  1.00  0.00     0.014 C 
BRANCH  21  22
HETATM   22  C9  UNL     1      -0.150   7.839  11.769  1.00  0.00     0.024 C 
HETATM   23  C2  UNL     1       0.113   7.854  10.247  1.00  0.00    -0.084 C 
HETATM   24  C1  UNL     1      -0.355   8.756   9.366  1.00  0.00     0.015 C 
HETATM   25  C3  UNL     1       1.046   6.778   9.725  1.00  0.00     0.036 C 
HETATM   26  C4  UNL     1       1.338   5.699  10.756  1.00  0.00     0.037 C 
HETATM   27  C5  UNL     1       1.840   6.268  12.090  1.00  0.00     0.127 C 
HETATM   28  C6  UNL     1       1.241   7.665  12.493  1.00  0.00    -0.014 C 
HETATM   29  C7  UNL     1       2.208   8.828  12.141  1.00  0.00     0.018 C 
HETATM   30  C8  UNL     1       1.134   7.662  14.033  1.00  0.00     0.018 C 
BRANCH  27  31
HETATM   31  O1  UNL     1       3.268   6.313  12.086  1.00  0.00    -0.395 OA
HETATM   32  H8  UNL     1       3.592   5.409  11.935  1.00  0.00     0.210 HD
ENDBRANCH  27  31
ENDBRANCH  21  22
ENDBRANCH  20  21
ENDBRANCH   1  20
TORSDOF 8
ENDMDL
MODEL 2
REMARK minimizedAffinity -9.44161415
REMARK CNNscore 0.751113772
REMARK CNNaffinity 6.75906897
REMARK  8 active torsions:
REMARK  status: ('A' for Active; 'I' for Inactive)
REMARK    1  A    between atoms: C5_5  and  O1_6 
REMARK    2  A    between atoms: C9_10  and  C10_11 
REMARK    3  A    between atoms: C10_11  and  C11_12 
REMARK    4  A    between atoms: C11_12  and  C12_13 
REMARK    5  A    between atoms: C14_15  and  C15_16 
REMARK    6  A    between atoms: C15_16  and  C16_17 
REMARK    7  A    between atoms: C16_17  and  C17_18 
REMARK    8  A    between atoms: C23_24  and  O2_25 
ROOT
HETATM    1  C12 UNL     1      -1.047   7.866  11.767  1.00  0.00    -0.087 C 
HETATM    2  C13 UNL     1      -0.691   6.454  12.149  1.00  0.00     0.043 C 
HETATM    3  C14 UNL     1      -1.929   8.650  12.418  1.00  0.00    -0.024 C 
ENDROOT
BRANCH   3   4
HETATM    4  C15 UNL     1      -2.734   8.328  13.645  1.00  0.00     0.030 C 
BRANCH   4   5
HETATM    5  C16 UNL     1      -4.225   8.053  13.379  1.00  0.00     0.042 C 
BRANCH   5   6
HETATM    6  C17 UNL     1      -4.777   6.638  13.717  1.00  0.00     0.065 C 
HETATM    7  C18 UNL     1      -4.250   6.162  15.079  1.00  0.00     0.046 C 
HETATM    8  C19 UNL     1      -6.316   6.740  13.697  1.00  0.00     0.043 C 
HETATM    9  C20 UNL     1      -6.972   5.381  13.872  1.00  0.00     0.044 C 
HETATM   10  C21 UNL     1      -6.297   4.355  13.015  1.00  0.00    -0.021 A 
HETATM   11  C22 UNL     1      -6.941   3.134  12.765  1.00  0.00     0.046 A 
HETATM   12  C27 UNL     1      -5.021   4.583  12.483  1.00  0.00     0.082 A 
HETATM   13  C23 UNL     1      -6.320   2.171  11.977  1.00  0.00     0.066 A 
HETATM   14  C24 UNL     1      -5.064   2.402  11.432  1.00  0.00     0.046 A 
HETATM   15  C25 UNL     1      -4.404   3.615  11.672  1.00  0.00    -0.025 A 
HETATM   16  C26 UNL     1      -3.036   3.844  11.096  1.00  0.00     0.051 C 
HETATM   17  O3  UNL     1      -4.318   5.742  12.692  1.00  0.00    -0.340 OA
BRANCH  13  18
HETATM   18  O2  UNL     1      -6.918   0.975  11.713  1.00  0.00    -0.361 OA
HETATM   19  H36 UNL     1      -7.785   0.960  12.150  1.00  0.00     0.217 HD
ENDBRANCH  13  18
ENDBRANCH   5   6
ENDBRANCH   4   5
ENDBRANCH   3   4
BRANCH   1  20
HETATM   20  C11 UNL     1      -0.346   8.388  10.522  1.00  0.00     0.034 C 
BRANCH  20  21
HETATM   21  C10 UNL     1       1.173   8.539  10.714  1.00  0.00     0.014 C 
BRANCH  21  22
HETATM   22  C9  UNL     1       2.022   7.314  10.262  1.00  0.00     0.024 C 
HETATM   23  C2  UNL     1       2.040   7.107   8.731  1.00  0.00    -0.084 C 
HETATM   24  C1  UNL     1       1.418   7.873   7.816  1.00  0.00     0.015 C 
HETATM   25  C3  UNL     1       2.901   5.965   8.226  1.00  0.00     0.036 C 
HETATM   26  C4  UNL     1       3.377   5.048   9.342  1.00  0.00     0.037 C 
HETATM   27  C5  UNL     1       4.071   5.803  10.482  1.00  0.00     0.127 C 
HETATM   28  C6  UNL     1       3.514   7.245  10.770  1.00  0.00    -0.014 C 
HETATM   29  C7  UNL     1       4.387   8.343  10.105  1.00  0.00     0.018 C 
HETATM   30  C8  UNL     1       3.653   7.466  12.292  1.00  0.00     0.018 C 
BRANCH  27  31
HETATM   31  O1  UNL     1       5.479   5.845  10.243  1.00  0.00    -0.395 OA
HETATM   32  H8  UNL     1       5.794   4.928  10.172  1.00  0.00     0.210 HD
ENDBRANCH  27  31
ENDBRANCH  21  22
ENDBRANCH  20  21
ENDBRANCH   1  20
TORSDOF 8
ENDMDL
MODEL 3
REMARK minimizedAffinity -8.529953
REMARK CNNscore 0.743338823
REMARK CNNaffinity 7.16244555
REMARK  8 active torsions:
REMARK  status: ('A' for Active; 'I' for Inactive)
REMARK    1  A    between atoms: C5_5  and  O1_6 
REMARK    2  A    between atoms: C9_10  and  C10_11 
REMARK    3  A    between atoms: C10_11  and  C11_12 
REMARK    4  A    between atoms: C11_12  and  C12_13 
REMARK    5  A    between atoms: C14_15  and  C15_16 
REMARK    6  A    between atoms: C15_16  and  C16_17 
REMARK    7  A    between atoms: C16_17  and  C17_18 
REMARK    8  A    between atoms: C23_24  and  O2_25 
ROOT
HETATM    1  C12 UNL     1      -0.227   7.839  14.364  1.00  0.00    -0.087 C 
HETATM    2  C13 UNL     1       0.026   7.269  15.734  1.00  0.00     0.043 C 
HETATM    3  C14 UNL     1      -1.324   8.533  14.000  1.00  0.00    -0.024 C 
ENDROOT
BRANCH   3   4
HETATM    4  C15 UNL     1      -2.512   8.907  14.839  1.00  0.00     0.030 C 
BRANCH   4   5
HETATM    5  C16 UNL     1      -3.384   7.717  15.279  1.00  0.00     0.042 C 
BRANCH   5   6
HETATM    6  C17 UNL     1      -4.218   6.982  14.190  1.00  0.00     0.065 C 
HETATM    7  C18 UNL     1      -4.729   7.977  13.135  1.00  0.00     0.046 C 
HETATM    8  C19 UNL     1      -3.303   5.906  13.573  1.00  0.00     0.043 C 
HETATM    9  C20 UNL     1      -4.054   5.022  12.592  1.00  0.00     0.044 C 
HETATM   10  C21 UNL     1      -5.381   4.616  13.158  1.00  0.00    -0.021 A 
HETATM   11  C22 UNL     1      -6.077   3.545  12.578  1.00  0.00     0.046 A 
HETATM   12  C27 UNL     1      -5.949   5.307  14.236  1.00  0.00     0.082 A 
HETATM   13  C23 UNL     1      -7.313   3.165  13.090  1.00  0.00     0.066 A 
HETATM   14  C24 UNL     1      -7.871   3.835  14.171  1.00  0.00     0.046 A 
HETATM   15  C25 UNL     1      -7.190   4.908  14.762  1.00  0.00    -0.025 A 
HETATM   16  C26 UNL     1      -7.814   5.640  15.915  1.00  0.00     0.051 C 
HETATM   17  O3  UNL     1      -5.341   6.373  14.848  1.00  0.00    -0.340 OA
BRANCH  13  18
HETATM   18  O2  UNL     1      -8.016   2.128  12.553  1.00  0.00    -0.361 OA
HETATM   19  H36 UNL     1      -7.504   1.756  11.816  1.00  0.00     0.217 HD
ENDBRANCH  13  18
ENDBRANCH   5   6
ENDBRANCH   4   5
ENDBRANCH   3   4
BRANCH   1  20
HETATM   20  C11 UNL     1       0.863   7.555  13.341  1.00  0.00     0.034 C 
BRANCH  20  21
HETATM   21  C10 UNL     1       0.404   6.585  12.238  1.00  0.00     0.014 C 
BRANCH  21  22
HETATM   22  C9  UNL     1       0.831   6.977  10.793  1.00  0.00     0.024 C 
HETATM   23  C2  UNL     1      -0.003   8.131  10.194  1.00  0.00    -0.084 C 
HETATM   24  C1  UNL     1      -1.006   8.789  10.805  1.00  0.00     0.015 C 
HETATM   25  C3  UNL     1       0.406   8.597   8.811  1.00  0.00     0.036 C 
HETATM   26  C4  UNL     1       1.393   7.656   8.139  1.00  0.00     0.037 C 
HETATM   27  C5  UNL     1       2.621   7.357   9.009  1.00  0.00     0.127 C 
HETATM   28  C6  UNL     1       2.354   7.317  10.558  1.00  0.00    -0.014 C 
HETATM   29  C7  UNL     1       2.745   8.653  11.244  1.00  0.00     0.018 C 
HETATM   30  C8  UNL     1       3.314   6.255  11.135  1.00  0.00     0.018 C 
BRANCH  27  31
HETATM   31  O1  UNL     1       3.665   8.283   8.701  1.00  0.00    -0.395 OA
HETATM   32  H8  UNL     1       3.864   8.199   7.754  1.00  0.00     0.210 HD
ENDBRANCH  27  31
ENDBRANCH  21  22
ENDBRANCH  20  21
ENDBRANCH   1  20
TORSDOF 8
ENDMDL
MODEL 4
REMARK minimizedAffinity -8.26250744
REMARK CNNscore 0.731058717
REMARK CNNaffinity 7.39687014
REMARK  8 active torsions:
REMARK  status: ('A' for Active; 'I' for Inactive)
REMARK    1  A    between atoms: C5_5  and  O1_6 
REMARK    2  A    between atoms: C9_10  and  C10_11 
REMARK    3  A    between atoms: C10_11  and  C11_12 
REMARK    4  A    between atoms: C11_12  and  C12_13 
REMARK    5  A    between atoms: C14_15  and  C15_16 
REMARK    6  A    between atoms: C15_16  and  C16_17 
REMARK    7  A    between atoms: C16_17  and  C17_18 
REMARK    8  A    between atoms: C23_24  and  O2_25 
ROOT
HETATM    1  C12 UNL     1      -4.167   8.890  14.124  1.00  0.00    -0.087 C 
HETATM    2  C13 UNL     1      -4.414   8.340  12.744  1.00  0.00     0.043 C 
HETATM    3  C14 UNL     1      -5.108   9.063  15.073  1.00  0.00    -0.024 C 
ENDROOT
BRANCH   3   4
HETATM    4  C15 UNL     1      -6.575   8.750  14.999  1.00  0.00     0.030 C 
BRANCH   4   5
HETATM    5  C16 UNL     1      -7.011   7.523  15.820  1.00  0.00     0.042 C 
BRANCH   5   6
HETATM    6  C17 UNL     1      -7.069   6.146  15.097  1.00  0.00     0.065 C 
HETATM    7  C18 UNL     1      -7.469   5.034  16.080  1.00  0.00     0.046 C 
HETATM    8  C19 UNL     1      -8.081   6.287  13.942  1.00  0.00     0.043 C 
HETATM    9  C20 UNL     1      -8.118   5.043  13.071  1.00  0.00     0.044 C 
HETATM   10  C21 UNL     1      -6.729   4.569  12.771  1.00  0.00    -0.021 A 
HETATM   11  C22 UNL     1      -6.523   3.658  11.724  1.00  0.00     0.046 A 
HETATM   12  C27 UNL     1      -5.637   4.998  13.537  1.00  0.00     0.082 A 
HETATM   13  C23 UNL     1      -5.239   3.205  11.442  1.00  0.00     0.066 A 
HETATM   14  C24 UNL     1      -4.152   3.643  12.186  1.00  0.00     0.046 A 
HETATM   15  C25 UNL     1      -4.338   4.552  13.237  1.00  0.00    -0.025 A 
HETATM   16  C26 UNL     1      -3.158   5.001  14.050  1.00  0.00     0.051 C 
HETATM   17  O3  UNL     1      -5.754   5.874  14.585  1.00  0.00    -0.340 OA
BRANCH  13  18
HETATM   18  O2  UNL     1      -5.004   2.321  10.432  1.00  0.00    -0.361 OA
HETATM   19  H36 UNL     1      -5.848   2.112  10.000  1.00  0.00     0.217 HD
ENDBRANCH  13  18
ENDBRANCH   5   6
ENDBRANCH   4   5
ENDBRANCH   3   4
BRANCH   1  20
HETATM   20  C11 UNL     1      -2.726   9.293  14.404  1.00  0.00     0.034 C 
BRANCH  20  21
HETATM   21  C10 UNL     1      -1.860   9.325  13.134  1.00  0.00     0.014 C 
BRANCH  21  22
HETATM   22  C9  UNL     1      -0.438   8.709  13.286  1.00  0.00     0.024 C 
HETATM   23  C2  UNL     1      -0.256   7.891  14.584  1.00  0.00    -0.084 C 
HETATM   24  C1  UNL     1      -1.190   7.679  15.530  1.00  0.00     0.015 C 
HETATM   25  C3  UNL     1       1.090   7.216  14.759  1.00  0.00     0.036 C 
HETATM   26  C4  UNL     1       2.125   7.693  13.752  1.00  0.00     0.037 C 
HETATM   27  C5  UNL     1       1.638   7.592  12.301  1.00  0.00     0.127 C 
HETATM   28  C6  UNL     1       0.098   7.831  12.090  1.00  0.00    -0.014 C 
HETATM   29  C7  UNL     1      -0.681   6.494  11.978  1.00  0.00     0.018 C 
HETATM   30  C8  UNL     1      -0.048   8.516  10.714  1.00  0.00     0.018 C 
BRANCH  27  31
HETATM   31  O1  UNL     1       2.034   6.335  11.749  1.00  0.00    -0.395 OA
HETATM   32  H8  UNL     1       3.002   6.277  11.810  1.00  0.00     0.210 HD
ENDBRANCH  27  31
ENDBRANCH  21  22
ENDBRANCH  20  21
ENDBRANCH   1  20
TORSDOF 8
ENDMDL
MODEL 5
REMARK minimizedAffinity -9.15635109
REMARK CNNscore 0.684200644
REMARK CNNaffinity 6.69679785
REMARK  8 active torsions:
REMARK  status: ('A' for Active; 'I' for Inactive)
REMARK    1  A    between atoms: C5_5  and  O1_6 
REMARK    2  A    between atoms: C9_10  and  C10_11 
REMARK    3  A    between atoms: C10_11  and  C11_12 
REMARK    4  A    between atoms: C11_12  and  C12_13 
REMARK    5  A    between atoms: C14_15  and  C15_16 
REMARK    6  A    between atoms: C15_16  and  C16_17 
REMARK    7  A    between atoms: C16_17  and  C17_18 
REMARK    8  A    between atoms: C23_24  and  O2_25 
ROOT
HETATM    1  C12 UNL     1      -0.960   7.017  12.023  1.00  0.00    -0.087 C 
HETATM    2  C13 UNL     1      -1.093   5.617  12.560  1.00  0.00     0.043 C 
HETATM    3  C14 UNL     1      -1.534   8.114  12.557  1.00  0.00    -0.024 C 
ENDROOT
BRANCH   3   4
HETATM    4  C15 UNL     1      -2.403   8.209  13.778  1.00  0.00     0.030 C 
BRANCH   4   5
HETATM    5  C16 UNL     1      -3.913   8.103  13.500  1.00  0.00     0.042 C 
BRANCH   5   6
HETATM    6  C17 UNL     1      -4.659   6.832  13.999  1.00  0.00     0.065 C 
HETATM    7  C18 UNL     1      -4.009   6.290  15.282  1.00  0.00     0.046 C 
HETATM    8  C19 UNL     1      -6.131   7.234  14.224  1.00  0.00     0.043 C 
HETATM    9  C20 UNL     1      -6.995   6.035  14.576  1.00  0.00     0.044 C 
HETATM   10  C21 UNL     1      -6.683   4.878  13.677  1.00  0.00    -0.021 A 
HETATM   11  C22 UNL     1      -7.580   3.802  13.603  1.00  0.00     0.046 A 
HETATM   12  C27 UNL     1      -5.495   4.839  12.934  1.00  0.00     0.082 A 
HETATM   13  C23 UNL     1      -7.297   2.719  12.777  1.00  0.00     0.066 A 
HETATM   14  C24 UNL     1      -6.131   2.687  12.024  1.00  0.00     0.046 A 
HETATM   15  C25 UNL     1      -5.221   3.751  12.088  1.00  0.00    -0.025 A 
HETATM   16  C26 UNL     1      -3.953   3.694  11.286  1.00  0.00     0.051 C 
HETATM   17  O3  UNL     1      -4.559   5.841  12.963  1.00  0.00    -0.340 OA
BRANCH  13  18
HETATM   18  O2  UNL     1      -8.147   1.659  12.679  1.00  0.00    -0.361 OA
HETATM   19  H36 UNL     1      -8.915   1.824  13.251  1.00  0.00     0.217 HD
ENDBRANCH  13  18
ENDBRANCH   5   6
ENDBRANCH   4   5
ENDBRANCH   3   4
BRANCH   1  20
HETATM   20  C11 UNL     1      -0.122   7.142  10.759  1.00  0.00     0.034 C 
BRANCH  20  21
HETATM   21  C10 UNL     1       0.803   8.371  10.777  1.00  0.00     0.014 C 
BRANCH  21  22
HETATM   22  C9  UNL     1       2.320   8.056  10.931  1.00  0.00     0.024 C 
HETATM   23  C2  UNL     1       2.804   8.055  12.398  1.00  0.00    -0.084 C 
HETATM   24  C1  UNL     1       2.047   8.283  13.488  1.00  0.00     0.015 C 
HETATM   25  C3  UNL     1       4.260   7.695  12.616  1.00  0.00     0.036 C 
HETATM   26  C4  UNL     1       5.061   7.670  11.324  1.00  0.00     0.037 C 
HETATM   27  C5  UNL     1       4.426   6.783  10.244  1.00  0.00     0.127 C 
HETATM   28  C6  UNL     1       2.854   6.737  10.251  1.00  0.00    -0.014 C 
HETATM   29  C7  UNL     1       2.320   5.473  10.977  1.00  0.00     0.018 C 
HETATM   30  C8  UNL     1       2.420   6.588   8.778  1.00  0.00     0.018 C 
BRANCH  27  31
HETATM   31  O1  UNL     1       4.970   5.465  10.325  1.00  0.00    -0.395 OA
HETATM   32  H8  UNL     1       5.933   5.535  10.214  1.00  0.00     0.210 HD
ENDBRANCH  27  31
ENDBRANCH  21  22
ENDBRANCH  20  21
ENDBRANCH   1  20
TORSDOF 8
ENDMDL
MODEL 6
REMARK minimizedAffinity -8.99322987
REMARK CNNscore 0.67815268
REMARK CNNaffinity 6.84279442
REMARK  8 active torsions:
REMARK  status: ('A' for Active; 'I' for Inactive)
REMARK    1  A    between atoms: C5_5  and  O1_6 
REMARK    2  A    between atoms: C9_10  and  C10_11 
REMARK    3  A    between atoms: C10_11  and  C11_12 
REMARK    4  A    between atoms: C11_12  and  C12_13 
REMARK    5  A    between atoms: C14_15  and  C15_16 
REMARK    6  A    between atoms: C15_16  and  C16_17 
REMARK    7  A    between atoms: C16_17  and  C17_18 
REMARK    8  A    between atoms: C23_24  and  O2_25 
ROOT
HETATM    1  C12 UNL     1      -0.878   8.062  13.161  1.00  0.00    -0.087 C 
HETATM    2  C13 UNL     1      -0.619   9.270  14.022  1.00  0.00     0.043 C 
HETATM    3  C14 UNL     1      -2.079   7.703  12.664  1.00  0.00    -0.024 C 
ENDROOT
BRANCH   3   4
HETATM    4  C15 UNL     1      -3.401   8.396  12.828  1.00  0.00     0.030 C 
BRANCH   4   5
HETATM    5  C16 UNL     1      -4.032   8.250  14.225  1.00  0.00     0.042 C 
BRANCH   5   6
HETATM    6  C17 UNL     1      -4.754   6.913  14.561  1.00  0.00     0.065 C 
HETATM    7  C18 UNL     1      -4.136   6.262  15.809  1.00  0.00     0.046 C 
HETATM    8  C19 UNL     1      -6.246   7.247  14.764  1.00  0.00     0.043 C 
HETATM    9  C20 UNL     1      -7.082   5.993  14.957  1.00  0.00     0.044 C 
HETATM   10  C21 UNL     1      -6.698   4.944  13.959  1.00  0.00    -0.021 A 
HETATM   11  C22 UNL     1      -7.555   3.856  13.739  1.00  0.00     0.046 A 
HETATM   12  C27 UNL     1      -5.481   5.016  13.266  1.00  0.00     0.082 A 
HETATM   13  C23 UNL     1      -7.204   2.872  12.821  1.00  0.00     0.066 A 
HETATM   14  C24 UNL     1      -6.010   2.951  12.118  1.00  0.00     0.046 A 
HETATM   15  C25 UNL     1      -5.139   4.029  12.326  1.00  0.00    -0.025 A 
HETATM   16  C26 UNL     1      -3.839   4.091  11.577  1.00  0.00     0.051 C 
HETATM   17  O3  UNL     1      -4.581   6.036  13.435  1.00  0.00    -0.340 OA
BRANCH  13  18
HETATM   18  O2  UNL     1      -8.015   1.803  12.580  1.00  0.00    -0.361 OA
HETATM   19  H36 UNL     1      -8.809   1.887  13.134  1.00  0.00     0.217 HD
ENDBRANCH  13  18
ENDBRANCH   5   6
ENDBRANCH   4   5
ENDBRANCH   3   4
BRANCH   1  20
HETATM   20  C11 UNL     1       0.344   7.199  12.884  1.00  0.00     0.034 C 
BRANCH  20  21
HETATM   21  C10 UNL     1       1.597   8.030  12.560  1.00  0.00     0.014 C 
BRANCH  21  22
HETATM   22  C9  UNL     1       2.053   7.989  11.072  1.00  0.00     0.024 C 
HETATM   23  C2  UNL     1       3.532   8.384  10.868  1.00  0.00    -0.084 C 
HETATM   24  C1  UNL     1       4.405   8.729  11.832  1.00  0.00     0.015 C 
HETATM   25  C3  UNL     1       4.050   8.305   9.445  1.00  0.00     0.036 C 
HETATM   26  C4  UNL     1       2.940   8.117   8.423  1.00  0.00     0.037 C 
HETATM   27  C5  UNL     1       2.024   6.929   8.747  1.00  0.00     0.127 C 
HETATM   28  C6  UNL     1       1.802   6.649  10.278  1.00  0.00    -0.014 C 
HETATM   29  C7  UNL     1       2.722   5.509  10.793  1.00  0.00     0.018 C 
HETATM   30  C8  UNL     1       0.360   6.116  10.416  1.00  0.00     0.018 C 
BRANCH  27  31
HETATM   31  O1  UNL     1       2.503   5.758   8.084  1.00  0.00    -0.395 OA
HETATM   32  H8  UNL     1       2.527   5.947   7.130  1.00  0.00     0.210 HD
ENDBRANCH  27  31
ENDBRANCH  21  22
ENDBRANCH  20  21
ENDBRANCH   1  20
TORSDOF 8
ENDMDL
MODEL 7
REMARK minimizedAffinity -7.73368692
REMARK CNNscore 0.668850064
REMARK CNNaffinity 6.4012332
REMARK  8 active torsions:
REMARK  status: ('A' for Active; 'I' for Inactive)
REMARK    1  A    between atoms: C5_5  and  O1_6 
REMARK    2  A    between atoms: C9_10  and  C10_11 
REMARK    3  A    between atoms: C10_11  and  C11_12 
REMARK    4  A    between atoms: C11_12  and  C12_13 
REMARK    5  A    between atoms: C14_15  and  C15_16 
REMARK    6  A    between atoms: C15_16  and  C16_17 
REMARK    7  A    between atoms: C16_17  and  C17_18 
REMARK    8  A    between atoms: C23_24  and  O2_25 
ROOT
HETATM    1  C12 UNL     1      -3.877   9.867  15.688  1.00  0.00    -0.087 C 
HETATM    2  C13 UNL     1      -2.777   9.825  14.661  1.00  0.00     0.043 C 
HETATM    3  C14 UNL     1      -5.096   9.310  15.548  1.00  0.00    -0.024 C 
ENDROOT
BRANCH   3   4
HETATM    4  C15 UNL     1      -5.634   8.527  14.384  1.00  0.00     0.030 C 
BRANCH   4   5
HETATM    5  C16 UNL     1      -6.942   7.768  14.673  1.00  0.00     0.042 C 
BRANCH   5   6
HETATM    6  C17 UNL     1      -6.957   6.229  14.447  1.00  0.00     0.065 C 
HETATM    7  C18 UNL     1      -7.151   5.487  15.779  1.00  0.00     0.046 C 
HETATM    8  C19 UNL     1      -8.094   5.931  13.450  1.00  0.00     0.043 C 
HETATM    9  C20 UNL     1      -8.115   4.469  13.038  1.00  0.00     0.044 C 
HETATM   10  C21 UNL     1      -6.730   3.989  12.730  1.00  0.00    -0.021 A 
HETATM   11  C22 UNL     1      -6.558   2.793  12.016  1.00  0.00     0.046 A 
HETATM   12  C27 UNL     1      -5.604   4.698  13.169  1.00  0.00     0.082 A 
HETATM   13  C23 UNL     1      -5.277   2.334  11.732  1.00  0.00     0.066 A 
HETATM   14  C24 UNL     1      -4.159   3.045  12.148  1.00  0.00     0.046 A 
HETATM   15  C25 UNL     1      -4.311   4.240  12.864  1.00  0.00    -0.025 A 
HETATM   16  C26 UNL     1      -3.094   4.988  13.328  1.00  0.00     0.051 C 
HETATM   17  O3  UNL     1      -5.685   5.865  13.884  1.00  0.00    -0.340 OA
BRANCH  13  18
HETATM   18  O2  UNL     1      -5.074   1.178  11.039  1.00  0.00    -0.361 OA
HETATM   19  H36 UNL     1      -5.938   0.799  10.811  1.00  0.00     0.217 HD
ENDBRANCH  13  18
ENDBRANCH   5   6
ENDBRANCH   4   5
ENDBRANCH   3   4
BRANCH   1  20
HETATM   20  C11 UNL     1      -3.540  10.640  16.956  1.00  0.00     0.034 C 
BRANCH  20  21
HETATM   21  C10 UNL     1      -3.775  12.153  16.809  1.00  0.00     0.014 C 
BRANCH  21  22
HETATM   22  C9  UNL     1      -4.542  12.821  17.988  1.00  0.00     0.024 C 
HETATM   23  C2  UNL     1      -3.613  13.427  19.064  1.00  0.00    -0.084 C 
HETATM   24  C1  UNL     1      -2.268  13.426  19.047  1.00  0.00     0.015 C 
HETATM   25  C3  UNL     1      -4.303  14.145  20.208  1.00  0.00     0.036 C 
HETATM   26  C4  UNL     1      -5.804  13.900  20.239  1.00  0.00     0.037 C 
HETATM   27  C5  UNL     1      -6.487  14.206  18.900  1.00  0.00     0.127 C 
HETATM   28  C6  UNL     1      -5.621  13.911  17.620  1.00  0.00    -0.014 C 
HETATM   29  C7  UNL     1      -4.954  15.200  17.068  1.00  0.00     0.018 C 
HETATM   30  C8  UNL     1      -6.608  13.451  16.526  1.00  0.00     0.018 C 
BRANCH  27  31
HETATM   31  O1  UNL     1      -6.951  15.557  18.895  1.00  0.00    -0.395 OA
HETATM   32  H8  UNL     1      -7.561  15.663  19.644  1.00  0.00     0.210 HD
ENDBRANCH  27  31
ENDBRANCH  21  22
ENDBRANCH  20  21
ENDBRANCH   1  20
TORSDOF 8
ENDMDL
MODEL 8
REMARK minimizedAffinity -8.72049904
REMARK CNNscore 0.633129358
REMARK CNNaffinity 6.63153791
REMARK  8 active torsions:
REMARK  status: ('A' for Active; 'I' for Inactive)
REMARK    1  A    between atoms: C5_5  and  O1_6 
REMARK    2  A    between atoms: C9_10  and  C10_11 
REMARK    3  A    between atoms: C10_11  and  C11_12 
REMARK    4  A    between atoms: C11_12  and  C12_13 
REMARK    5  A    between atoms: C14_15  and  C15_16 
REMARK    6  A    between atoms: C15_16  and  C16_17 
REMARK    7  A    between atoms: C16_17  and  C17_18 
REMARK    8  A    between atoms: C23_24  and  O2_25 
ROOT
HETATM    1  C12 UNL     1       0.905   8.333  11.369  1.00  0.00    -0.087 C 
HETATM    2  C13 UNL     1       0.554   8.168   9.914  1.00  0.00     0.043 C 
HETATM    3  C14 UNL     1       0.053   8.161  12.400  1.00  0.00    -0.024 C 
ENDROOT
BRANCH   3   4
HETATM    4  C15 UNL     1      -1.395   7.764  12.356  1.00  0.00     0.030 C 
BRANCH   4   5
HETATM    5  C16 UNL     1      -1.652   6.256  12.528  1.00  0.00     0.042 C 
BRANCH   5   6
HETATM    6  C17 UNL     1      -2.937   5.817  13.287  1.00  0.00     0.065 C 
HETATM    7  C18 UNL     1      -2.594   5.353  14.711  1.00  0.00     0.046 C 
HETATM    8  C19 UNL     1      -3.893   7.027  13.289  1.00  0.00     0.043 C 
HETATM    9  C20 UNL     1      -5.248   6.673  13.879  1.00  0.00     0.044 C 
HETATM   10  C21 UNL     1      -5.731   5.361  13.342  1.00  0.00    -0.021 A 
HETATM   11  C22 UNL     1      -7.082   5.014  13.486  1.00  0.00     0.046 A 
HETATM   12  C27 UNL     1      -4.849   4.464  12.724  1.00  0.00     0.082 A 
HETATM   13  C23 UNL     1      -7.540   3.795  12.997  1.00  0.00     0.066 A 
HETATM   14  C24 UNL     1      -6.674   2.912  12.367  1.00  0.00     0.046 A 
HETATM   15  C25 UNL     1      -5.320   3.241  12.216  1.00  0.00    -0.025 A 
HETATM   16  C26 UNL     1      -4.387   2.268  11.553  1.00  0.00     0.051 C 
HETATM   17  O3  UNL     1      -3.513   4.720  12.558  1.00  0.00    -0.340 OA
BRANCH  13  18
HETATM   18  O2  UNL     1      -8.847   3.426  13.118  1.00  0.00    -0.361 OA
HETATM   19  H36 UNL     1      -9.328   4.139  13.569  1.00  0.00     0.217 HD
ENDBRANCH  13  18
ENDBRANCH   5   6
ENDBRANCH   4   5
ENDBRANCH   3   4
BRANCH   1  20
HETATM   20  C11 UNL     1       2.341   8.757  11.638  1.00  0.00     0.034 C 
BRANCH  20  21
HETATM   21  C10 UNL     1       2.978   7.990  12.810  1.00  0.00     0.014 C 
BRANCH  21  22
HETATM   22  C9  UNL     1       4.500   7.700  12.662  1.00  0.00     0.024 C 
HETATM   23  C2  UNL     1       4.844   6.806  11.450  1.00  0.00    -0.084 C 
HETATM   24  C1  UNL     1       3.970   6.300  10.560  1.00  0.00     0.015 C 
HETATM   25  C3  UNL     1       6.318   6.538  11.219  1.00  0.00     0.036 C 
HETATM   26  C4  UNL     1       7.187   6.971  12.390  1.00  0.00     0.037 C 
HETATM   27  C5  UNL     1       6.946   8.428  12.807  1.00  0.00     0.127 C 
HETATM   28  C6  UNL     1       5.471   8.943  12.628  1.00  0.00    -0.014 C 
HETATM   29  C7  UNL     1       5.300   9.755  11.316  1.00  0.00     0.018 C 
HETATM   30  C8  UNL     1       5.222   9.946  13.775  1.00  0.00     0.018 C 
BRANCH  27  31
HETATM   31  O1  UNL     1       7.865   9.281  12.122  1.00  0.00    -0.395 OA
HETATM   32  H8  UNL     1       8.764   8.986  12.344  1.00  0.00     0.210 HD
ENDBRANCH  27  31
ENDBRANCH  21  22
ENDBRANCH  20  21
ENDBRANCH   1  20
TORSDOF 8
ENDMDL
MODEL 9
REMARK minimizedAffinity -9.62816906
REMARK CNNscore 0.578828633
REMARK CNNaffinity 6.60712242
REMARK  8 active torsions:
REMARK  status: ('A' for Active; 'I' for Inactive)
REMARK    1  A    between atoms: C5_5  and  O1_6 
REMARK    2  A    between atoms: C9_10  and  C10_11 
REMARK    3  A    between atoms: C10_11  and  C11_12 
REMARK    4  A    between atoms: C11_12  and  C12_13 
REMARK    5  A    between atoms: C14_15  and  C15_16 
REMARK    6  A    between atoms: C15_16  and  C16_17 
REMARK    7  A    between atoms: C16_17  and  C17_18 
REMARK    8  A    between atoms: C23_24  and  O2_25 
ROOT
HETATM    1  C12 UNL     1      -0.653   7.011  12.212  1.00  0.00    -0.087 C 
HETATM    2  C13 UNL     1      -0.823   7.379  13.662  1.00  0.00     0.043 C 
HETATM    3  C14 UNL     1      -0.616   5.754  11.726  1.00  0.00    -0.024 C 
ENDROOT
BRANCH   3   4
HETATM    4  C15 UNL     1      -0.743   4.460  12.478  1.00  0.00     0.030 C 
BRANCH   4   5
HETATM    5  C16 UNL     1      -1.286   3.286  11.644  1.00  0.00     0.042 C 
BRANCH   5   6
HETATM    6  C17 UNL     1      -2.809   3.259  11.328  1.00  0.00     0.065 C 
HETATM    7  C18 UNL     1      -3.066   3.653   9.864  1.00  0.00     0.046 C 
HETATM    8  C19 UNL     1      -3.308   1.833  11.638  1.00  0.00     0.043 C 
HETATM    9  C20 UNL     1      -4.817   1.723  11.504  1.00  0.00     0.044 C 
HETATM   10  C21 UNL     1      -5.491   2.891  12.157  1.00  0.00    -0.021 A 
HETATM   11  C22 UNL     1      -6.862   2.821  12.446  1.00  0.00     0.046 A 
HETATM   12  C27 UNL     1      -4.781   4.061  12.457  1.00  0.00     0.082 A 
HETATM   13  C23 UNL     1      -7.500   3.903  13.045  1.00  0.00     0.066 A 
HETATM   14  C24 UNL     1      -6.795   5.056  13.362  1.00  0.00     0.046 A 
HETATM   15  C25 UNL     1      -5.425   5.144  13.079  1.00  0.00    -0.025 A 
HETATM   16  C26 UNL     1      -4.678   6.406  13.405  1.00  0.00     0.051 C 
HETATM   17  O3  UNL     1      -3.444   4.215  12.193  1.00  0.00    -0.340 OA
BRANCH  13  18
HETATM   18  O2  UNL     1      -8.830   3.868  13.341  1.00  0.00    -0.361 OA
HETATM   19  H36 UNL     1      -9.184   3.005  13.071  1.00  0.00     0.217 HD
ENDBRANCH  13  18
ENDBRANCH   5   6
ENDBRANCH   4   5
ENDBRANCH   3   4
BRANCH   1  20
HETATM   20  C11 UNL     1      -0.486   8.193  11.267  1.00  0.00     0.034 C 
BRANCH  20  21
HETATM   21  C10 UNL     1       0.989   8.544  11.010  1.00  0.00     0.014 C 
BRANCH  21  22
HETATM   22  C9  UNL     1       1.859   7.381  10.451  1.00  0.00     0.024 C 
HETATM   23  C2  UNL     1       1.829   7.273   8.910  1.00  0.00    -0.084 C 
HETATM   24  C1  UNL     1       1.151   8.076   8.069  1.00  0.00     0.015 C 
HETATM   25  C3  UNL     1       2.706   6.196   8.303  1.00  0.00     0.036 C 
HETATM   26  C4  UNL     1       3.250   5.224   9.338  1.00  0.00     0.037 C 
HETATM   27  C5  UNL     1       3.961   5.928  10.502  1.00  0.00     0.127 C 
HETATM   28  C6  UNL     1       3.370   7.329  10.903  1.00  0.00    -0.014 C 
HETATM   29  C7  UNL     1       4.184   8.495  10.282  1.00  0.00     0.018 C 
HETATM   30  C8  UNL     1       3.557   7.455  12.430  1.00  0.00     0.018 C 
BRANCH  27  31
HETATM   31  O1  UNL     1       5.357   6.032  10.219  1.00  0.00    -0.395 OA
HETATM   32  H8  UNL     1       5.698   5.132  10.078  1.00  0.00     0.210 HD
ENDBRANCH  27  31
ENDBRANCH  21  22
ENDBRANCH  20  21
ENDBRANCH   1  20
TORSDOF 8
ENDMDL
