MODEL 1
REMARK minimizedAffinity -10.6896524
REMARK  3 active torsions:
REMARK  status: ('A' for Active; 'I' for Inactive)
REMARK    1  A    between atoms: C7_7  and  C8_8 
REMARK    2  A    between atoms: C8_8  and  O2_10 
REMARK    3  A    between atoms: C21_23  and  O3_24 
ROOT
HETATM    1  C1  UNL     1      -2.009  52.393 -27.412  1.00  0.00     0.011 C 
HETATM    2  C2  UNL     1      -0.879  51.809 -26.539  1.00  0.00    -0.005 C 
HETATM    3  C3  UNL     1       0.501  52.268 -27.070  1.00  0.00    -0.014 C 
HETATM    4  C4  UNL     1       0.762  51.834 -28.519  1.00  0.00     0.010 C 
HETATM    5  C5  UNL     1       1.641  51.749 -26.184  1.00  0.00     0.006 C 
HETATM    6  C6  UNL     1       1.334  51.747 -24.688  1.00  0.00     0.021 C 
HETATM    7  C7  UNL     1       0.148  52.644 -24.277  1.00  0.00     0.053 C 
HETATM    8  C9  UNL     1       0.022  52.679 -22.730  1.00  0.00     0.022 C 
HETATM    9  C10 UNL     1      -1.398  52.428 -22.226  1.00  0.00     0.016 C 
HETATM   10  C11 UNL     1      -1.993  51.088 -22.730  1.00  0.00    -0.013 C 
HETATM   11  C12 UNL     1      -1.037  49.943 -22.261  1.00  0.00     0.021 C 
HETATM   12  C13 UNL     1      -1.986  51.071 -24.268  1.00  0.00    -0.069 C 
HETATM   13  C14 UNL     1      -2.824  50.222 -24.903  1.00  0.00    -0.022 C 
HETATM   14  C15 UNL     1      -3.867  49.348 -24.263  1.00  0.00     0.033 C 
HETATM   15  C16 UNL     1      -4.016  49.471 -22.729  1.00  0.00     0.007 C 
HETATM   16  C17 UNL     1      -5.394  48.935 -22.145  1.00  0.00    -0.035 C 
HETATM   17  C18 UNL     1      -6.602  49.760 -22.652  1.00  0.00     0.016 C 
HETATM   18  C19 UNL     1      -5.592  47.462 -22.613  1.00  0.00     0.012 C 
HETATM   19  C20 UNL     1      -6.712  46.721 -21.886  1.00  0.00     0.033 C 
HETATM   20  C21 UNL     1      -6.540  46.754 -20.370  1.00  0.00     0.126 C 
HETATM   21  C22 UNL     1      -6.391  48.190 -19.785  1.00  0.00    -0.017 C 
HETATM   22  C23 UNL     1      -7.739  48.937 -19.780  1.00  0.00     0.018 C 
HETATM   23  C24 UNL     1      -5.981  48.036 -18.294  1.00  0.00     0.018 C 
HETATM   24  C25 UNL     1      -5.251  48.931 -20.576  1.00  0.00     0.004 C 
HETATM   25  C26 UNL     1      -4.892  50.335 -20.047  1.00  0.00     0.007 C 
HETATM   26  C27 UNL     1      -3.567  50.841 -20.636  1.00  0.00     0.011 C 
HETATM   27  C28 UNL     1      -3.508  50.862 -22.189  1.00  0.00    -0.028 C 
HETATM   28  C29 UNL     1      -4.409  52.039 -22.667  1.00  0.00     0.016 C 
HETATM   29  C30 UNL     1      -1.148  52.153 -25.016  1.00  0.00     0.038 C 
ENDROOT
BRANCH   7  30
HETATM   30  C8  UNL     1       0.419  54.111 -24.654  1.00  0.00     0.149 C 
HETATM   31  O1  UNL     1      -0.270  54.824 -25.365  1.00  0.00    -0.649 OA
BRANCH  30  32
HETATM   32  O2  UNL     1       1.511  54.633 -24.060  1.00  0.00    -0.776 OA
HETATM   33  H13 UNL     1       1.523  55.564 -24.369  1.00  0.00     0.167 HD
ENDBRANCH  30  32
ENDBRANCH   7  30
BRANCH  20  34
HETATM   34  O3  UNL     1      -7.646  46.081 -19.769  1.00  0.00    -0.395 OA
HETATM   35  H33 UNL     1      -7.675  45.178 -20.131  1.00  0.00     0.210 HD
ENDBRANCH  20  34
TORSDOF 3
ENDMDL
MODEL 2
REMARK minimizedAffinity -10.213315
REMARK  3 active torsions:
REMARK  status: ('A' for Active; 'I' for Inactive)
REMARK    1  A    between atoms: C7_7  and  C8_8 
REMARK    2  A    between atoms: C8_8  and  O2_10 
REMARK    3  A    between atoms: C21_23  and  O3_24 
ROOT
HETATM    1  C1  UNL     1       0.970  52.017 -21.797  1.00  0.00     0.011 C 
HETATM    2  C2  UNL     1       0.131  52.760 -22.857  1.00  0.00    -0.005 C 
HETATM    3  C3  UNL     1       1.018  53.766 -23.632  1.00  0.00    -0.014 C 
HETATM    4  C4  UNL     1       1.662  54.823 -22.725  1.00  0.00     0.010 C 
HETATM    5  C5  UNL     1       0.222  54.478 -24.734  1.00  0.00     0.006 C 
HETATM    6  C6  UNL     1      -0.787  53.592 -25.463  1.00  0.00     0.021 C 
HETATM    7  C7  UNL     1      -0.548  52.078 -25.295  1.00  0.00     0.053 C 
HETATM    8  C9  UNL     1      -1.536  51.283 -26.191  1.00  0.00     0.022 C 
HETATM    9  C10 UNL     1      -2.254  50.152 -25.457  1.00  0.00     0.016 C 
HETATM   10  C11 UNL     1      -3.023  50.635 -24.201  1.00  0.00    -0.013 C 
HETATM   11  C12 UNL     1      -4.048  51.722 -24.665  1.00  0.00     0.021 C 
HETATM   12  C13 UNL     1      -2.044  51.330 -23.238  1.00  0.00    -0.069 C 
HETATM   13  C14 UNL     1      -2.395  51.439 -21.937  1.00  0.00    -0.022 C 
HETATM   14  C15 UNL     1      -3.614  50.846 -21.286  1.00  0.00     0.033 C 
HETATM   15  C16 UNL     1      -4.530  49.995 -22.195  1.00  0.00     0.007 C 
HETATM   16  C17 UNL     1      -5.508  49.008 -21.423  1.00  0.00    -0.035 C 
HETATM   17  C18 UNL     1      -4.736  47.920 -20.637  1.00  0.00     0.016 C 
HETATM   18  C19 UNL     1      -6.343  49.834 -20.399  1.00  0.00     0.012 C 
HETATM   19  C20 UNL     1      -7.529  49.078 -19.805  1.00  0.00     0.033 C 
HETATM   20  C21 UNL     1      -8.456  48.517 -20.880  1.00  0.00     0.126 C 
HETATM   21  C22 UNL     1      -7.731  47.622 -21.929  1.00  0.00    -0.017 C 
HETATM   22  C23 UNL     1      -7.367  46.245 -21.338  1.00  0.00     0.018 C 
HETATM   23  C24 UNL     1      -8.747  47.341 -23.072  1.00  0.00     0.018 C 
HETATM   24  C25 UNL     1      -6.501  48.420 -22.497  1.00  0.00     0.004 C 
HETATM   25  C26 UNL     1      -5.734  47.720 -23.638  1.00  0.00     0.007 C 
HETATM   26  C27 UNL     1      -4.783  48.687 -24.359  1.00  0.00     0.011 C 
HETATM   27  C28 UNL     1      -3.760  49.406 -23.436  1.00  0.00    -0.028 C 
HETATM   28  C29 UNL     1      -2.697  48.348 -23.016  1.00  0.00     0.016 C 
HETATM   29  C30 UNL     1      -0.629  51.711 -23.769  1.00  0.00     0.038 C 
ENDROOT
BRANCH   7  30
HETATM   30  C8  UNL     1       0.836  51.681 -25.836  1.00  0.00     0.149 C 
HETATM   31  O1  UNL     1       1.841  52.373 -25.857  1.00  0.00    -0.649 OA
BRANCH  30  32
HETATM   32  O2  UNL     1       0.908  50.404 -26.263  1.00  0.00    -0.776 OA
HETATM   33  H13 UNL     1       1.844  50.301 -26.537  1.00  0.00     0.167 HD
ENDBRANCH  30  32
ENDBRANCH   7  30
BRANCH  20  34
HETATM   34  O3  UNL     1      -9.508  47.791 -20.245  1.00  0.00    -0.395 OA
HETATM   35  H33 UNL     1      -9.958  48.399 -19.632  1.00  0.00     0.210 HD
ENDBRANCH  20  34
TORSDOF 3
ENDMDL
MODEL 3
REMARK minimizedAffinity -9.94086266
REMARK  3 active torsions:
REMARK  status: ('A' for Active; 'I' for Inactive)
REMARK    1  A    between atoms: C7_7  and  C8_8 
REMARK    2  A    between atoms: C8_8  and  O2_10 
REMARK    3  A    between atoms: C21_23  and  O3_24 
ROOT
HETATM    1  C1  UNL     1       0.475  51.791 -21.978  1.00  0.00     0.011 C 
HETATM    2  C2  UNL     1       0.026  52.655 -23.174  1.00  0.00    -0.005 C 
HETATM    3  C3  UNL     1       1.117  53.698 -23.522  1.00  0.00    -0.014 C 
HETATM    4  C4  UNL     1       1.435  54.646 -22.358  1.00  0.00     0.010 C 
HETATM    5  C5  UNL     1       0.721  54.532 -24.747  1.00  0.00     0.006 C 
HETATM    6  C6  UNL     1      -0.000  53.751 -25.843  1.00  0.00     0.021 C 
HETATM    7  C7  UNL     1       0.169  52.220 -25.755  1.00  0.00     0.053 C 
HETATM    8  C9  UNL     1      -0.478  51.543 -26.994  1.00  0.00     0.022 C 
HETATM    9  C10 UNL     1      -1.396  50.374 -26.642  1.00  0.00     0.016 C 
HETATM   10  C11 UNL     1      -2.529  50.766 -25.659  1.00  0.00    -0.013 C 
HETATM   11  C12 UNL     1      -3.347  51.923 -26.320  1.00  0.00     0.021 C 
HETATM   12  C13 UNL     1      -1.913  51.337 -24.370  1.00  0.00    -0.069 C 
HETATM   13  C14 UNL     1      -2.664  51.339 -23.247  1.00  0.00    -0.022 C 
HETATM   14  C15 UNL     1      -4.030  50.730 -23.083  1.00  0.00     0.033 C 
HETATM   15  C16 UNL     1      -4.605  49.996 -24.316  1.00  0.00     0.007 C 
HETATM   16  C17 UNL     1      -5.781  48.975 -23.999  1.00  0.00    -0.035 C 
HETATM   17  C18 UNL     1      -5.307  47.796 -23.115  1.00  0.00     0.016 C 
HETATM   18  C19 UNL     1      -6.901  49.732 -23.222  1.00  0.00     0.012 C 
HETATM   19  C20 UNL     1      -8.216  48.965 -23.117  1.00  0.00     0.033 C 
HETATM   20  C21 UNL     1      -8.747  48.535 -24.482  1.00  0.00     0.126 C 
HETATM   21  C22 UNL     1      -7.724  47.715 -25.324  1.00  0.00    -0.017 C 
HETATM   22  C23 UNL     1      -7.573  46.279 -24.784  1.00  0.00     0.018 C 
HETATM   23  C24 UNL     1      -8.317  47.573 -26.754  1.00  0.00     0.018 C 
HETATM   24  C25 UNL     1      -6.375  48.521 -25.386  1.00  0.00     0.004 C 
HETATM   25  C26 UNL     1      -5.282  47.902 -26.283  1.00  0.00     0.007 C 
HETATM   26  C27 UNL     1      -4.147  48.899 -26.562  1.00  0.00     0.011 C 
HETATM   27  C28 UNL     1      -3.476  49.497 -25.295  1.00  0.00    -0.028 C 
HETATM   28  C29 UNL     1      -2.607  48.371 -24.660  1.00  0.00     0.016 C 
HETATM   29  C30 UNL     1      -0.401  51.719 -24.379  1.00  0.00     0.038 C 
ENDROOT
BRANCH   7  30
HETATM   30  C8  UNL     1       1.653  51.829 -25.858  1.00  0.00     0.149 C 
HETATM   31  O1  UNL     1       2.229  50.962 -25.221  1.00  0.00    -0.649 OA
BRANCH  30  32
HETATM   32  O2  UNL     1       2.328  52.503 -26.812  1.00  0.00    -0.776 OA
HETATM   33  H13 UNL     1       3.230  52.119 -26.775  1.00  0.00     0.167 HD
ENDBRANCH  30  32
ENDBRANCH   7  30
BRANCH  20  34
HETATM   34  O3  UNL     1      -9.949  47.789 -24.292  1.00  0.00    -0.395 OA
HETATM   35  H33 UNL     1     -10.572  48.353 -23.801  1.00  0.00     0.210 HD
ENDBRANCH  20  34
TORSDOF 3
ENDMDL
MODEL 4
REMARK minimizedAffinity -9.59384155
REMARK  3 active torsions:
REMARK  status: ('A' for Active; 'I' for Inactive)
REMARK    1  A    between atoms: C7_7  and  C8_8 
REMARK    2  A    between atoms: C8_8  and  O2_10 
REMARK    3  A    between atoms: C21_23  and  O3_24 
ROOT
HETATM    1  C1  UNL     1      -3.045  50.890 -24.020  1.00  0.00     0.011 C 
HETATM    2  C2  UNL     1      -1.523  50.814 -24.260  1.00  0.00    -0.005 C 
HETATM    3  C3  UNL     1      -1.212  50.956 -25.771  1.00  0.00    -0.014 C 
HETATM    4  C4  UNL     1      -1.872  49.866 -26.625  1.00  0.00     0.010 C 
HETATM    5  C5  UNL     1       0.300  50.944 -26.033  1.00  0.00     0.006 C 
HETATM    6  C6  UNL     1       1.133  51.677 -24.984  1.00  0.00     0.021 C 
HETATM    7  C7  UNL     1       0.333  52.657 -24.101  1.00  0.00     0.053 C 
HETATM    8  C9  UNL     1       1.299  53.449 -23.179  1.00  0.00     0.022 C 
HETATM    9  C10 UNL     1       0.863  53.474 -21.715  1.00  0.00     0.016 C 
HETATM   10  C11 UNL     1       0.672  52.058 -21.114  1.00  0.00    -0.013 C 
HETATM   11  C12 UNL     1       2.028  51.295 -21.266  1.00  0.00     0.021 C 
HETATM   12  C13 UNL     1      -0.369  51.286 -21.944  1.00  0.00    -0.069 C 
HETATM   13  C14 UNL     1      -0.991  50.232 -21.371  1.00  0.00    -0.022 C 
HETATM   14  C15 UNL     1      -0.858  49.784 -19.940  1.00  0.00     0.033 C 
HETATM   15  C16 UNL     1       0.050  50.645 -19.034  1.00  0.00     0.007 C 
HETATM   16  C17 UNL     1      -0.194  50.462 -17.474  1.00  0.00    -0.035 C 
HETATM   17  C18 UNL     1      -1.607  50.927 -17.047  1.00  0.00     0.016 C 
HETATM   18  C19 UNL     1      -0.064  48.949 -17.125  1.00  0.00     0.012 C 
HETATM   19  C20 UNL     1       0.028  48.659 -15.629  1.00  0.00     0.033 C 
HETATM   20  C21 UNL     1       1.159  49.434 -14.957  1.00  0.00     0.126 C 
HETATM   21  C22 UNL     1       1.093  50.972 -15.193  1.00  0.00    -0.017 C 
HETATM   22  C23 UNL     1      -0.027  51.622 -14.356  1.00  0.00     0.018 C 
HETATM   23  C24 UNL     1       2.425  51.574 -14.665  1.00  0.00     0.018 C 
HETATM   24  C25 UNL     1       0.969  51.232 -16.740  1.00  0.00     0.004 C 
HETATM   25  C26 UNL     1       1.007  52.716 -17.161  1.00  0.00     0.007 C 
HETATM   26  C27 UNL     1       1.226  52.870 -18.673  1.00  0.00     0.011 C 
HETATM   27  C28 UNL     1       0.193  52.123 -19.562  1.00  0.00    -0.028 C 
HETATM   28  C29 UNL     1      -1.148  52.910 -19.468  1.00  0.00     0.016 C 
HETATM   29  C30 UNL     1      -0.782  51.863 -23.332  1.00  0.00     0.038 C 
ENDROOT
BRANCH   7  30
HETATM   30  C8  UNL     1      -0.327  53.749 -24.961  1.00  0.00     0.149 C 
HETATM   31  O1  UNL     1       0.232  54.520 -25.724  1.00  0.00    -0.649 OA
BRANCH  30  32
HETATM   32  O2  UNL     1      -1.673  53.772 -24.872  1.00  0.00    -0.776 OA
HETATM   33  H13 UNL     1      -1.936  54.483 -25.494  1.00  0.00     0.167 HD
ENDBRANCH  30  32
ENDBRANCH   7  30
BRANCH  20  34
HETATM   34  O3  UNL     1       1.147  49.141 -13.560  1.00  0.00    -0.395 OA
HETATM   35  H33 UNL     1       1.233  48.177 -13.459  1.00  0.00     0.210 HD
ENDBRANCH  20  34
TORSDOF 3
ENDMDL
MODEL 5
REMARK minimizedAffinity -9.38191795
REMARK  3 active torsions:
REMARK  status: ('A' for Active; 'I' for Inactive)
REMARK    1  A    between atoms: C7_7  and  C8_8 
REMARK    2  A    between atoms: C8_8  and  O2_10 
REMARK    3  A    between atoms: C21_23  and  O3_24 
ROOT
HETATM    1  C1  UNL     1      -6.981  45.895 -22.159  1.00  0.00     0.011 C 
HETATM    2  C2  UNL     1      -7.251  47.262 -21.498  1.00  0.00    -0.005 C 
HETATM    3  C3  UNL     1      -8.271  47.107 -20.344  1.00  0.00    -0.014 C 
HETATM    4  C4  UNL     1      -9.620  46.540 -20.806  1.00  0.00     0.010 C 
HETATM    5  C5  UNL     1      -8.514  48.444 -19.630  1.00  0.00     0.006 C 
HETATM    6  C6  UNL     1      -7.269  49.315 -19.470  1.00  0.00     0.021 C 
HETATM    7  C7  UNL     1      -5.934  48.561 -19.641  1.00  0.00     0.053 C 
HETATM    8  C9  UNL     1      -4.747  49.506 -19.313  1.00  0.00     0.022 C 
HETATM    9  C10 UNL     1      -3.643  49.489 -20.369  1.00  0.00     0.016 C 
HETATM   10  C11 UNL     1      -4.158  49.834 -21.790  1.00  0.00    -0.013 C 
HETATM   11  C12 UNL     1      -4.825  51.247 -21.720  1.00  0.00     0.021 C 
HETATM   12  C13 UNL     1      -5.262  48.840 -22.190  1.00  0.00    -0.069 C 
HETATM   13  C14 UNL     1      -5.540  48.685 -23.503  1.00  0.00    -0.022 C 
HETATM   14  C15 UNL     1      -4.798  49.308 -24.654  1.00  0.00     0.033 C 
HETATM   15  C16 UNL     1      -3.573  50.178 -24.290  1.00  0.00     0.007 C 
HETATM   16  C17 UNL     1      -2.546  50.419 -25.479  1.00  0.00    -0.035 C 
HETATM   17  C18 UNL     1      -1.878  49.104 -25.947  1.00  0.00     0.016 C 
HETATM   18  C19 UNL     1      -3.320  51.018 -26.691  1.00  0.00     0.012 C 
HETATM   19  C20 UNL     1      -2.422  51.582 -27.789  1.00  0.00     0.033 C 
HETATM   20  C21 UNL     1      -1.434  52.616 -27.256  1.00  0.00     0.126 C 
HETATM   21  C22 UNL     1      -0.561  52.100 -26.073  1.00  0.00    -0.017 C 
HETATM   22  C23 UNL     1       0.525  51.121 -26.561  1.00  0.00     0.018 C 
HETATM   23  C24 UNL     1       0.198  53.327 -25.495  1.00  0.00     0.018 C 
HETATM   24  C25 UNL     1      -1.517  51.502 -24.976  1.00  0.00     0.004 C 
HETATM   25  C26 UNL     1      -0.820  51.046 -23.677  1.00  0.00     0.007 C 
HETATM   26  C27 UNL     1      -1.831  50.802 -22.548  1.00  0.00     0.011 C 
HETATM   27  C28 UNL     1      -2.962  49.792 -22.890  1.00  0.00    -0.028 C 
HETATM   28  C29 UNL     1      -2.322  48.373 -22.902  1.00  0.00     0.016 C 
HETATM   29  C30 UNL     1      -5.879  47.934 -21.080  1.00  0.00     0.038 C 
ENDROOT
BRANCH   7  30
HETATM   30  C8  UNL     1      -5.806  47.438 -18.597  1.00  0.00     0.149 C 
HETATM   31  O1  UNL     1      -5.439  46.291 -18.795  1.00  0.00    -0.649 OA
BRANCH  30  32
HETATM   32  O2  UNL     1      -6.080  47.832 -17.337  1.00  0.00    -0.776 OA
HETATM   33  H13 UNL     1      -5.920  47.027 -16.800  1.00  0.00     0.167 HD
ENDBRANCH  30  32
ENDBRANCH   7  30
BRANCH  20  34
HETATM   34  O3  UNL     1      -0.607  53.057 -28.333  1.00  0.00    -0.395 OA
HETATM   35  H33 UNL     1      -1.190  53.409 -29.028  1.00  0.00     0.210 HD
ENDBRANCH  20  34
TORSDOF 3
ENDMDL
MODEL 6
REMARK minimizedAffinity -9.22511292
REMARK  3 active torsions:
REMARK  status: ('A' for Active; 'I' for Inactive)
REMARK    1  A    between atoms: C7_7  and  C8_8 
REMARK    2  A    between atoms: C8_8  and  O2_10 
REMARK    3  A    between atoms: C21_23  and  O3_24 
ROOT
HETATM    1  C1  UNL     1      -6.301  49.872 -22.259  1.00  0.00     0.011 C 
HETATM    2  C2  UNL     1      -5.014  49.250 -22.837  1.00  0.00    -0.005 C 
HETATM    3  C3  UNL     1      -5.162  49.032 -24.363  1.00  0.00    -0.014 C 
HETATM    4  C4  UNL     1      -6.330  48.105 -24.727  1.00  0.00     0.010 C 
HETATM    5  C5  UNL     1      -3.873  48.468 -24.975  1.00  0.00     0.006 C 
HETATM    6  C6  UNL     1      -2.586  49.037 -24.381  1.00  0.00     0.021 C 
HETATM    7  C7  UNL     1      -2.768  50.359 -23.607  1.00  0.00     0.053 C 
HETATM    8  C9  UNL     1      -1.383  50.917 -23.180  1.00  0.00     0.022 C 
HETATM    9  C10 UNL     1      -1.317  51.325 -21.709  1.00  0.00     0.016 C 
HETATM   10  C11 UNL     1      -1.693  50.174 -20.742  1.00  0.00    -0.013 C 
HETATM   11  C12 UNL     1      -0.719  48.984 -21.023  1.00  0.00     0.021 C 
HETATM   12  C13 UNL     1      -3.111  49.674 -21.069  1.00  0.00    -0.069 C 
HETATM   13  C14 UNL     1      -3.789  48.999 -20.115  1.00  0.00    -0.022 C 
HETATM   14  C15 UNL     1      -3.347  48.771 -18.695  1.00  0.00     0.033 C 
HETATM   15  C16 UNL     1      -2.001  49.411 -18.286  1.00  0.00     0.007 C 
HETATM   16  C17 UNL     1      -1.787  49.576 -16.720  1.00  0.00    -0.035 C 
HETATM   17  C18 UNL     1      -2.810  50.553 -16.092  1.00  0.00     0.016 C 
HETATM   18  C19 UNL     1      -1.978  48.185 -16.042  1.00  0.00     0.012 C 
HETATM   19  C20 UNL     1      -1.507  48.128 -14.591  1.00  0.00     0.033 C 
HETATM   20  C21 UNL     1      -0.056  48.574 -14.434  1.00  0.00     0.126 C 
HETATM   21  C22 UNL     1       0.235  49.985 -15.027  1.00  0.00    -0.017 C 
HETATM   22  C23 UNL     1      -0.343  51.101 -14.134  1.00  0.00     0.018 C 
HETATM   23  C24 UNL     1       1.777  50.180 -15.010  1.00  0.00     0.018 C 
HETATM   24  C25 UNL     1      -0.288  50.017 -16.510  1.00  0.00     0.004 C 
HETATM   25  C26 UNL     1       0.025  51.312 -17.289  1.00  0.00     0.007 C 
HETATM   26  C27 UNL     1      -0.205  51.135 -18.797  1.00  0.00     0.011 C 
HETATM   27  C28 UNL     1      -1.628  50.647 -19.189  1.00  0.00    -0.028 C 
HETATM   28  C29 UNL     1      -2.600  51.844 -18.972  1.00  0.00     0.016 C 
HETATM   29  C30 UNL     1      -3.762  50.123 -22.414  1.00  0.00     0.038 C 
ENDROOT
BRANCH   7  30
HETATM   30  C8  UNL     1      -3.335  51.455 -24.527  1.00  0.00     0.149 C 
HETATM   31  O1  UNL     1      -2.763  52.466 -24.901  1.00  0.00    -0.649 OA
BRANCH  30  32
HETATM   32  O2  UNL     1      -4.574  51.190 -24.988  1.00  0.00    -0.776 OA
HETATM   33  H13 UNL     1      -4.772  51.951 -25.575  1.00  0.00     0.167 HD
ENDBRANCH  30  32
ENDBRANCH   7  30
BRANCH  20  34
HETATM   34  O3  UNL     1       0.288  48.533 -13.049  1.00  0.00    -0.395 OA
HETATM   35  H33 UNL     1       0.131  47.627 -12.733  1.00  0.00     0.210 HD
ENDBRANCH  20  34
TORSDOF 3
ENDMDL
MODEL 7
REMARK minimizedAffinity -9.13429737
REMARK  3 active torsions:
REMARK  status: ('A' for Active; 'I' for Inactive)
REMARK    1  A    between atoms: C7_7  and  C8_8 
REMARK    2  A    between atoms: C8_8  and  O2_10 
REMARK    3  A    between atoms: C21_23  and  O3_24 
ROOT
HETATM    1  C1  UNL     1      -5.320  48.843 -24.811  1.00  0.00     0.011 C 
HETATM    2  C2  UNL     1      -3.805  49.091 -24.955  1.00  0.00    -0.005 C 
HETATM    3  C3  UNL     1      -3.443  49.357 -26.437  1.00  0.00    -0.014 C 
HETATM    4  C4  UNL     1      -3.813  48.191 -27.364  1.00  0.00     0.010 C 
HETATM    5  C5  UNL     1      -1.950  49.667 -26.601  1.00  0.00     0.006 C 
HETATM    6  C6  UNL     1      -1.348  50.511 -25.479  1.00  0.00     0.021 C 
HETATM    7  C7  UNL     1      -2.384  51.268 -24.623  1.00  0.00     0.053 C 
HETATM    8  C9  UNL     1      -1.658  52.202 -23.617  1.00  0.00     0.022 C 
HETATM    9  C10 UNL     1      -2.173  52.076 -22.184  1.00  0.00     0.016 C 
HETATM   10  C11 UNL     1      -2.100  50.628 -21.638  1.00  0.00    -0.013 C 
HETATM   11  C12 UNL     1      -0.609  50.166 -21.724  1.00  0.00     0.021 C 
HETATM   12  C13 UNL     1      -2.909  49.694 -22.555  1.00  0.00    -0.069 C 
HETATM   13  C14 UNL     1      -3.330  48.511 -22.055  1.00  0.00    -0.022 C 
HETATM   14  C15 UNL     1      -3.190  48.041 -20.632  1.00  0.00     0.033 C 
HETATM   15  C16 UNL     1      -2.534  49.032 -19.645  1.00  0.00     0.007 C 
HETATM   16  C17 UNL     1      -2.823  48.737 -18.110  1.00  0.00    -0.035 C 
HETATM   17  C18 UNL     1      -4.325  48.884 -17.762  1.00  0.00     0.016 C 
HETATM   18  C19 UNL     1      -2.403  47.270 -17.797  1.00  0.00     0.012 C 
HETATM   19  C20 UNL     1      -2.338  46.943 -16.307  1.00  0.00     0.033 C 
HETATM   20  C21 UNL     1      -1.434  47.905 -15.541  1.00  0.00     0.126 C 
HETATM   21  C22 UNL     1      -1.804  49.405 -15.736  1.00  0.00    -0.017 C 
HETATM   22  C23 UNL     1      -3.081  49.776 -14.956  1.00  0.00     0.018 C 
HETATM   23  C24 UNL     1      -0.659  50.245 -15.105  1.00  0.00     0.018 C 
HETATM   24  C25 UNL     1      -1.890  49.698 -17.279  1.00  0.00     0.004 C 
HETATM   25  C26 UNL     1      -2.137  51.174 -17.654  1.00  0.00     0.007 C 
HETATM   26  C27 UNL     1      -1.868  51.433 -19.144  1.00  0.00     0.011 C 
HETATM   27  C28 UNL     1      -2.671  50.528 -20.120  1.00  0.00    -0.028 C 
HETATM   28  C29 UNL     1      -4.148  51.018 -20.090  1.00  0.00     0.016 C 
HETATM   29  C30 UNL     1      -3.352  50.230 -23.951  1.00  0.00     0.038 C 
ENDROOT
BRANCH   7  30
HETATM   30  C8  UNL     1      -3.206  52.236 -25.491  1.00  0.00     0.149 C 
HETATM   31  O1  UNL     1      -2.810  52.873 -26.454  1.00  0.00    -0.649 OA
BRANCH  30  32
HETATM   32  O2  UNL     1      -4.509  52.302 -25.149  1.00  0.00    -0.776 OA
HETATM   33  H13 UNL     1      -4.892  52.920 -25.807  1.00  0.00     0.167 HD
ENDBRANCH  30  32
ENDBRANCH   7  30
BRANCH  20  34
HETATM   34  O3  UNL     1      -1.464  47.558 -14.157  1.00  0.00    -0.395 OA
HETATM   35  H33 UNL     1      -1.187  46.629 -14.079  1.00  0.00     0.210 HD
ENDBRANCH  20  34
TORSDOF 3
ENDMDL
MODEL 8
REMARK minimizedAffinity -8.90767479
REMARK  3 active torsions:
REMARK  status: ('A' for Active; 'I' for Inactive)
REMARK    1  A    between atoms: C7_7  and  C8_8 
REMARK    2  A    between atoms: C8_8  and  O2_10 
REMARK    3  A    between atoms: C21_23  and  O3_24 
ROOT
HETATM    1  C1  UNL     1      -5.659  48.233 -25.093  1.00  0.00     0.011 C 
HETATM    2  C2  UNL     1      -4.178  48.656 -25.014  1.00  0.00    -0.005 C 
HETATM    3  C3  UNL     1      -3.727  49.285 -26.355  1.00  0.00    -0.014 C 
HETATM    4  C4  UNL     1      -3.874  48.329 -27.546  1.00  0.00     0.010 C 
HETATM    5  C5  UNL     1      -2.273  49.770 -26.284  1.00  0.00     0.006 C 
HETATM    6  C6  UNL     1      -1.875  50.394 -24.948  1.00  0.00     0.021 C 
HETATM    7  C7  UNL     1      -3.063  50.831 -24.067  1.00  0.00     0.053 C 
HETATM    8  C9  UNL     1      -2.543  51.580 -22.810  1.00  0.00     0.022 C 
HETATM    9  C10 UNL     1      -3.158  51.083 -21.503  1.00  0.00     0.016 C 
HETATM   10  C11 UNL     1      -2.958  49.563 -21.277  1.00  0.00    -0.013 C 
HETATM   11  C12 UNL     1      -1.419  49.282 -21.298  1.00  0.00     0.021 C 
HETATM   12  C13 UNL     1      -3.567  48.785 -22.457  1.00  0.00    -0.069 C 
HETATM   13  C14 UNL     1      -3.883  47.484 -22.273  1.00  0.00    -0.022 C 
HETATM   14  C15 UNL     1      -3.808  46.720 -20.979  1.00  0.00     0.033 C 
HETATM   15  C16 UNL     1      -3.362  47.522 -19.735  1.00  0.00     0.007 C 
HETATM   16  C17 UNL     1      -3.743  46.860 -18.341  1.00  0.00    -0.035 C 
HETATM   17  C18 UNL     1      -5.275  46.775 -18.135  1.00  0.00     0.016 C 
HETATM   18  C19 UNL     1      -3.176  45.409 -18.308  1.00  0.00     0.012 C 
HETATM   19  C20 UNL     1      -3.198  44.761 -16.925  1.00  0.00     0.033 C 
HETATM   20  C21 UNL     1      -2.485  45.609 -15.876  1.00  0.00     0.126 C 
HETATM   21  C22 UNL     1      -3.016  47.071 -15.782  1.00  0.00    -0.017 C 
HETATM   22  C23 UNL     1      -4.389  47.127 -15.084  1.00  0.00     0.018 C 
HETATM   23  C24 UNL     1      -2.037  47.855 -14.864  1.00  0.00     0.018 C 
HETATM   24  C25 UNL     1      -3.006  47.696 -17.226  1.00  0.00     0.004 C 
HETATM   25  C26 UNL     1      -3.396  49.186 -17.298  1.00  0.00     0.007 C 
HETATM   26  C27 UNL     1      -3.036  49.801 -18.659  1.00  0.00     0.011 C 
HETATM   27  C28 UNL     1      -3.638  49.066 -19.888  1.00  0.00    -0.028 C 
HETATM   28  C29 UNL     1      -5.161  49.387 -19.915  1.00  0.00     0.016 C 
HETATM   29  C30 UNL     1      -3.953  49.577 -23.745  1.00  0.00     0.038 C 
ENDROOT
BRANCH   7  30
HETATM   30  C8  UNL     1      -3.920  51.884 -24.791  1.00  0.00     0.149 C 
HETATM   31  O1  UNL     1      -3.536  52.708 -25.605  1.00  0.00    -0.649 OA
BRANCH  30  32
HETATM   32  O2  UNL     1      -5.236  51.804 -24.506  1.00  0.00    -0.776 OA
HETATM   33  H13 UNL     1      -5.638  52.504 -25.063  1.00  0.00     0.167 HD
ENDBRANCH  30  32
ENDBRANCH   7  30
BRANCH  20  34
HETATM   34  O3  UNL     1      -2.590  44.956 -14.611  1.00  0.00    -0.395 OA
HETATM   35  H33 UNL     1      -2.210  44.066 -14.705  1.00  0.00     0.210 HD
ENDBRANCH  20  34
TORSDOF 3
ENDMDL
MODEL 9
REMARK minimizedAffinity -8.89861774
REMARK  3 active torsions:
REMARK  status: ('A' for Active; 'I' for Inactive)
REMARK    1  A    between atoms: C7_7  and  C8_8 
REMARK    2  A    between atoms: C8_8  and  O2_10 
REMARK    3  A    between atoms: C21_23  and  O3_24 
ROOT
HETATM    1  C1  UNL     1      -2.955  46.766 -16.421  1.00  0.00     0.011 C 
HETATM    2  C2  UNL     1      -2.786  48.225 -15.952  1.00  0.00    -0.005 C 
HETATM    3  C3  UNL     1      -2.686  48.284 -14.408  1.00  0.00    -0.014 C 
HETATM    4  C4  UNL     1      -3.923  47.711 -13.704  1.00  0.00     0.010 C 
HETATM    5  C5  UNL     1      -2.457  49.719 -13.917  1.00  0.00     0.006 C 
HETATM    6  C6  UNL     1      -1.530  50.553 -14.799  1.00  0.00     0.021 C 
HETATM    7  C7  UNL     1      -0.647  49.728 -15.758  1.00  0.00     0.053 C 
HETATM    8  C9  UNL     1       0.353  50.662 -16.493  1.00  0.00     0.022 C 
HETATM    9  C10 UNL     1       0.394  50.445 -18.004  1.00  0.00     0.016 C 
HETATM   10  C11 UNL     1      -0.993  50.598 -18.678  1.00  0.00    -0.013 C 
HETATM   11  C12 UNL     1      -1.523  52.032 -18.346  1.00  0.00     0.021 C 
HETATM   12  C13 UNL     1      -1.981  49.602 -18.046  1.00  0.00    -0.069 C 
HETATM   13  C14 UNL     1      -3.088  49.267 -18.745  1.00  0.00    -0.022 C 
HETATM   14  C15 UNL     1      -3.418  49.683 -20.153  1.00  0.00     0.033 C 
HETATM   15  C16 UNL     1      -2.360  50.546 -20.877  1.00  0.00     0.007 C 
HETATM   16  C17 UNL     1      -2.485  50.567 -22.461  1.00  0.00    -0.035 C 
HETATM   17  C18 UNL     1      -2.242  49.171 -23.084  1.00  0.00     0.016 C 
HETATM   18  C19 UNL     1      -3.930  51.013 -22.840  1.00  0.00     0.012 C 
HETATM   19  C20 UNL     1      -4.107  51.372 -24.314  1.00  0.00     0.033 C 
HETATM   20  C21 UNL     1      -3.111  52.432 -24.776  1.00  0.00     0.126 C 
HETATM   21  C22 UNL     1      -1.623  52.060 -24.498  1.00  0.00    -0.017 C 
HETATM   22  C23 UNL     1      -1.123  50.976 -25.473  1.00  0.00     0.018 C 
HETATM   23  C24 UNL     1      -0.772  53.327 -24.794  1.00  0.00     0.018 C 
HETATM   24  C25 UNL     1      -1.485  51.669 -22.981  1.00  0.00     0.004 C 
HETATM   25  C26 UNL     1      -0.045  51.381 -22.506  1.00  0.00     0.007 C 
HETATM   26  C27 UNL     1       0.050  51.348 -20.974  1.00  0.00     0.011 C 
HETATM   27  C28 UNL     1      -0.915  50.346 -20.281  1.00  0.00    -0.028 C 
HETATM   28  C29 UNL     1      -0.364  48.915 -20.552  1.00  0.00     0.016 C 
HETATM   29  C30 UNL     1      -1.571  48.895 -16.717  1.00  0.00     0.038 C 
ENDROOT
BRANCH   7  30
HETATM   30  C8  UNL     1       0.261  48.767 -14.972  1.00  0.00     0.149 C 
HETATM   31  O1  UNL     1       0.676  48.916 -13.834  1.00  0.00    -0.649 OA
BRANCH  30  32
HETATM   32  O2  UNL     1       0.547  47.626 -15.633  1.00  0.00    -0.776 OA
HETATM   33  H13 UNL     1       1.092  47.118 -14.995  1.00  0.00     0.167 HD
ENDBRANCH  30  32
ENDBRANCH   7  30
BRANCH  20  34
HETATM   34  O3  UNL     1      -3.314  52.676 -26.167  1.00  0.00    -0.395 OA
HETATM   35  H33 UNL     1      -4.241  52.945 -26.288  1.00  0.00     0.210 HD
ENDBRANCH  20  34
TORSDOF 3
ENDMDL
