MODEL 1
REMARK minimizedAffinity -9.14509487
REMARK CNNscore 0.582592964
REMARK CNNaffinity 7.10416079
REMARK  9 active torsions:
REMARK  status: ('A' for Active; 'I' for Inactive)
REMARK    1  A    between atoms: C11_11  and  C13_13 
REMARK    2  A    between atoms: C13_13  and  O2_15 
REMARK    3  A    between atoms: C15_17  and  C16_18 
REMARK    4  A    between atoms: C16_18  and  C17_19 
REMARK    5  A    between atoms: C17_19  and  C18_20 
REMARK    6  A    between atoms: C19_21  and  C20_22 
REMARK    7  A    between atoms: C20_22  and  O3_23 
REMARK    8  A    between atoms: O3_23  and  C21_24 
REMARK    9  A    between atoms: C21_24  and  C22_26 
ROOT
HETATM    1  C16 UNL     1      -1.738  50.403 -24.059  1.00  0.00     0.014 C 
ENDROOT
BRANCH   1   2
HETATM    2  C15 UNL     1      -3.184  49.850 -23.934  1.00  0.00     0.022 C 
HETATM    3  C2  UNL     1      -3.651  48.978 -25.098  1.00  0.00    -0.084 C 
HETATM    4  C1  UNL     1      -2.886  48.458 -26.073  1.00  0.00     0.014 C 
HETATM    5  C3  UNL     1      -5.125  48.671 -25.043  1.00  0.00     0.034 C 
HETATM    6  C4  UNL     1      -5.429  47.891 -23.772  1.00  0.00     0.011 C 
HETATM    7  C5  UNL     1      -4.975  48.599 -22.470  1.00  0.00     0.012 C 
HETATM    8  C6  UNL     1      -3.471  49.101 -22.567  1.00  0.00    -0.032 C 
HETATM    9  C11 UNL     1      -5.997  49.650 -21.850  1.00  0.00     0.049 C 
HETATM   10  C7  UNL     1      -2.527  47.872 -22.436  1.00  0.00     0.016 C 
HETATM   11  C8  UNL     1      -3.199  49.996 -21.335  1.00  0.00     0.010 C 
HETATM   12  C9  UNL     1      -4.025  51.274 -21.326  1.00  0.00     0.002 C 
HETATM   13  C10 UNL     1      -5.449  51.098 -21.854  1.00  0.00     0.020 C 
HETATM   14  C12 UNL     1      -7.375  49.709 -22.553  1.00  0.00     0.026 C 
BRANCH   9  15
HETATM   15  C13 UNL     1      -6.346  49.158 -20.423  1.00  0.00     0.267 C 
HETATM   16  O1  UNL     1      -5.502  48.793 -19.609  1.00  0.00    -0.264 OA
BRANCH  15  17
HETATM   17  O2  UNL     1      -7.681  49.196 -20.163  1.00  0.00    -0.326 OA
HETATM   18  C14 UNL     1      -8.025  49.048 -18.785  1.00  0.00     0.213 C 
ENDBRANCH  15  17
ENDBRANCH   9  15
ENDBRANCH   1   2
BRANCH   1  19
HETATM   19  C17 UNL     1      -1.673  51.689 -24.901  1.00  0.00     0.042 C 
BRANCH  19  20
HETATM   20  C18 UNL     1      -0.340  51.870 -25.554  1.00  0.00    -0.024 A 
HETATM   21  C19 UNL     1       0.700  52.696 -25.152  1.00  0.00     0.083 A 
HETATM   22  O5  UNL     1       1.753  52.575 -26.014  1.00  0.00    -0.324 OA
HETATM   23  C28 UNL     1       1.397  51.673 -26.960  1.00  0.00     0.143 A 
HETATM   24  C29 UNL     1       0.125  51.210 -26.727  1.00  0.00     0.034 A 
BRANCH  21  25
HETATM   25  C20 UNL     1       0.886  53.661 -24.035  1.00  0.00     0.244 C 
BRANCH  25  26
HETATM   26  O3  UNL     1       0.852  52.906 -22.815  1.00  0.00    -0.311 OA
BRANCH  26  27
HETATM   27  C21 UNL     1       1.130  53.585 -21.678  1.00  0.00     0.293 C 
HETATM   28  O4  UNL     1       1.598  54.710 -21.598  1.00  0.00    -0.259 OA
BRANCH  27  29
HETATM   29  C22 UNL     1       0.758  52.766 -20.489  1.00  0.00     0.039 A 
HETATM   30  C23 UNL     1       1.158  53.216 -19.222  1.00  0.00     0.019 A 
HETATM   31  C24 UNL     1       0.819  52.490 -18.076  1.00  0.00     0.025 A 
HETATM   32  C25 UNL     1       0.083  51.311 -18.192  1.00  0.00     0.034 A 
HETATM   33 CL1  UNL     1      -0.328  50.413 -16.784  1.00  0.00    -0.084 Cl
HETATM   34  C26 UNL     1      -0.317  50.850 -19.446  1.00  0.00     0.025 A 
HETATM   35  C27 UNL     1       0.018  51.577 -20.593  1.00  0.00     0.019 A 
ENDBRANCH  27  29
ENDBRANCH  26  27
ENDBRANCH  25  26
ENDBRANCH  21  25
ENDBRANCH  19  20
ENDBRANCH   1  19
TORSDOF 9
ENDMDL
MODEL 2
REMARK minimizedAffinity -7.62574339
REMARK CNNscore 0.479179561
REMARK CNNaffinity 6.65173197
REMARK  9 active torsions:
REMARK  status: ('A' for Active; 'I' for Inactive)
REMARK    1  A    between atoms: C11_11  and  C13_13 
REMARK    2  A    between atoms: C13_13  and  O2_15 
REMARK    3  A    between atoms: C15_17  and  C16_18 
REMARK    4  A    between atoms: C16_18  and  C17_19 
REMARK    5  A    between atoms: C17_19  and  C18_20 
REMARK    6  A    between atoms: C19_21  and  C20_22 
REMARK    7  A    between atoms: C20_22  and  O3_23 
REMARK    8  A    between atoms: O3_23  and  C21_24 
REMARK    9  A    between atoms: C21_24  and  C22_26 
ROOT
HETATM    1  C16 UNL     1      -0.088  50.692 -14.065  1.00  0.00     0.014 C 
ENDROOT
BRANCH   1   2
HETATM    2  C15 UNL     1      -1.059  51.528 -13.187  1.00  0.00     0.022 C 
HETATM    3  C2  UNL     1      -2.509  51.559 -13.668  1.00  0.00    -0.084 C 
HETATM    4  C1  UNL     1      -3.064  50.770 -14.604  1.00  0.00     0.014 C 
HETATM    5  C3  UNL     1      -3.348  52.568 -12.929  1.00  0.00     0.034 C 
HETATM    6  C4  UNL     1      -3.391  52.200 -11.453  1.00  0.00     0.011 C 
HETATM    7  C5  UNL     1      -1.996  52.068 -10.791  1.00  0.00     0.012 C 
HETATM    8  C6  UNL     1      -1.023  51.152 -11.648  1.00  0.00    -0.032 C 
HETATM    9  C11 UNL     1      -1.348  53.416 -10.247  1.00  0.00     0.049 C 
HETATM   10  C7  UNL     1      -1.446  49.667 -11.463  1.00  0.00     0.016 C 
HETATM   11  C8  UNL     1       0.394  51.284 -11.042  1.00  0.00     0.010 C 
HETATM   12  C9  UNL     1       0.976  52.683 -11.173  1.00  0.00     0.002 C 
HETATM   13  C10 UNL     1      -0.048  53.802 -10.993  1.00  0.00     0.020 C 
HETATM   14  C12 UNL     1      -2.271  54.657 -10.318  1.00  0.00     0.026 C 
BRANCH   9  15
HETATM   15  C13 UNL     1      -1.118  53.229  -8.726  1.00  0.00     0.267 C 
HETATM   16  O1  UNL     1      -1.331  52.174  -8.135  1.00  0.00    -0.264 OA
BRANCH  15  17
HETATM   17  O2  UNL     1      -0.638  54.350  -8.123  1.00  0.00    -0.326 OA
HETATM   18  C14 UNL     1      -0.154  55.349  -9.020  1.00  0.00     0.213 C 
ENDBRANCH  15  17
ENDBRANCH   9  15
ENDBRANCH   1   2
BRANCH   1  19
HETATM   19  C17 UNL     1      -0.181  51.059 -15.556  1.00  0.00     0.042 C 
BRANCH  19  20
HETATM   20  C18 UNL     1       1.070  51.704 -16.059  1.00  0.00    -0.024 A 
HETATM   21  C19 UNL     1       1.254  52.391 -17.251  1.00  0.00     0.083 A 
HETATM   22  O5  UNL     1       2.543  52.834 -17.341  1.00  0.00    -0.324 OA
HETATM   23  C28 UNL     1       3.183  52.441 -16.213  1.00  0.00     0.143 A 
HETATM   24  C29 UNL     1       2.329  51.745 -15.394  1.00  0.00     0.034 A 
BRANCH  21  25
HETATM   25  C20 UNL     1       0.377  52.712 -18.409  1.00  0.00     0.244 C 
BRANCH  25  26
HETATM   26  O3  UNL     1       1.130  52.431 -19.598  1.00  0.00    -0.311 OA
BRANCH  26  27
HETATM   27  C21 UNL     1       1.001  53.315 -20.615  1.00  0.00     0.293 C 
HETATM   28  O4  UNL     1       1.330  54.491 -20.603  1.00  0.00    -0.259 OA
BRANCH  27  29
HETATM   29  C22 UNL     1       0.408  52.642 -21.806  1.00  0.00     0.039 A 
HETATM   30  C23 UNL     1      -0.490  51.585 -21.593  1.00  0.00     0.019 A 
HETATM   31  C24 UNL     1      -1.084  50.934 -22.679  1.00  0.00     0.025 A 
HETATM   32  C25 UNL     1      -0.780  51.335 -23.980  1.00  0.00     0.034 A 
HETATM   33 CL1  UNL     1      -1.504  50.530 -25.316  1.00  0.00    -0.084 Cl
HETATM   34  C26 UNL     1       0.115  52.380 -24.206  1.00  0.00     0.025 A 
HETATM   35  C27 UNL     1       0.706  53.034 -23.121  1.00  0.00     0.019 A 
ENDBRANCH  27  29
ENDBRANCH  26  27
ENDBRANCH  25  26
ENDBRANCH  21  25
ENDBRANCH  19  20
ENDBRANCH   1  19
TORSDOF 9
ENDMDL
MODEL 3
REMARK minimizedAffinity -8.85832405
REMARK CNNscore 0.46673283
REMARK CNNaffinity 7.00754356
REMARK  9 active torsions:
REMARK  status: ('A' for Active; 'I' for Inactive)
REMARK    1  A    between atoms: C11_11  and  C13_13 
REMARK    2  A    between atoms: C13_13  and  O2_15 
REMARK    3  A    between atoms: C15_17  and  C16_18 
REMARK    4  A    between atoms: C16_18  and  C17_19 
REMARK    5  A    between atoms: C17_19  and  C18_20 
REMARK    6  A    between atoms: C19_21  and  C20_22 
REMARK    7  A    between atoms: C20_22  and  O3_23 
REMARK    8  A    between atoms: O3_23  and  C21_24 
REMARK    9  A    between atoms: C21_24  and  C22_26 
ROOT
HETATM    1  C16 UNL     1      -1.450  50.428 -24.111  1.00  0.00     0.014 C 
ENDROOT
BRANCH   1   2
HETATM    2  C15 UNL     1      -2.886  50.434 -23.520  1.00  0.00     0.022 C 
HETATM    3  C2  UNL     1      -3.823  51.495 -24.096  1.00  0.00    -0.084 C 
HETATM    4  C1  UNL     1      -3.615  52.243 -25.193  1.00  0.00     0.014 C 
HETATM    5  C3  UNL     1      -5.112  51.615 -23.326  1.00  0.00     0.034 C 
HETATM    6  C4  UNL     1      -5.863  50.293 -23.396  1.00  0.00     0.011 C 
HETATM    7  C5  UNL     1      -5.048  49.073 -22.899  1.00  0.00     0.012 C 
HETATM    8  C6  UNL     1      -3.604  49.022 -23.558  1.00  0.00    -0.032 C 
HETATM    9  C11 UNL     1      -5.083  48.798 -21.331  1.00  0.00     0.049 C 
HETATM   10  C7  UNL     1      -3.747  48.548 -25.032  1.00  0.00     0.016 C 
HETATM   11  C8  UNL     1      -2.795  47.928 -22.822  1.00  0.00     0.010 C 
HETATM   12  C9  UNL     1      -2.532  48.257 -21.360  1.00  0.00     0.002 C 
HETATM   13  C10 UNL     1      -3.697  48.958 -20.661  1.00  0.00     0.020 C 
HETATM   14  C12 UNL     1      -6.054  49.703 -20.534  1.00  0.00     0.026 C 
BRANCH   9  15
HETATM   15  C13 UNL     1      -5.672  47.379 -21.131  1.00  0.00     0.267 C 
HETATM   16  O1  UNL     1      -6.415  46.835 -21.943  1.00  0.00    -0.264 OA
BRANCH  15  17
HETATM   17  O2  UNL     1      -5.261  46.796 -19.973  1.00  0.00    -0.326 OA
HETATM   18  C14 UNL     1      -5.391  45.374 -19.942  1.00  0.00     0.213 C 
ENDBRANCH  15  17
ENDBRANCH   9  15
ENDBRANCH   1   2
BRANCH   1  19
HETATM   19  C17 UNL     1      -1.410  50.936 -25.563  1.00  0.00     0.042 C 
BRANCH  19  20
HETATM   20  C18 UNL     1      -0.071  51.488 -25.933  1.00  0.00    -0.024 A 
HETATM   21  C19 UNL     1       0.648  52.485 -25.287  1.00  0.00     0.083 A 
HETATM   22  O5  UNL     1       1.830  52.703 -25.934  1.00  0.00    -0.324 OA
HETATM   23  C28 UNL     1       1.878  51.848 -26.985  1.00  0.00     0.143 A 
HETATM   24  C29 UNL     1       0.739  51.082 -27.032  1.00  0.00     0.034 A 
BRANCH  21  25
HETATM   25  C20 UNL     1       0.393  53.342 -24.098  1.00  0.00     0.244 C 
BRANCH  25  26
HETATM   26  O3  UNL     1       1.012  52.700 -22.974  1.00  0.00    -0.311 OA
BRANCH  26  27
HETATM   27  C21 UNL     1       1.145  53.445 -21.852  1.00  0.00     0.293 C 
HETATM   28  O4  UNL     1       1.546  54.596 -21.787  1.00  0.00    -0.259 OA
BRANCH  27  29
HETATM   29  C22 UNL     1       0.703  52.663 -20.663  1.00  0.00     0.039 A 
HETATM   30  C23 UNL     1       0.088  51.420 -20.877  1.00  0.00     0.019 A 
HETATM   31  C24 UNL     1      -0.330  50.643 -19.792  1.00  0.00     0.025 A 
HETATM   32  C25 UNL     1      -0.139  51.107 -18.490  1.00  0.00     0.034 A 
HETATM   33 CL1  UNL     1      -0.660  50.156 -17.156  1.00  0.00    -0.084 Cl
HETATM   34  C26 UNL     1       0.466  52.342 -18.264  1.00  0.00     0.025 A 
HETATM   35  C27 UNL     1       0.888  53.119 -19.348  1.00  0.00     0.019 A 
ENDBRANCH  27  29
ENDBRANCH  26  27
ENDBRANCH  25  26
ENDBRANCH  21  25
ENDBRANCH  19  20
ENDBRANCH   1  19
TORSDOF 9
ENDMDL
MODEL 4
REMARK minimizedAffinity -7.14542723
REMARK CNNscore 0.43163839
REMARK CNNaffinity 6.81220245
REMARK  9 active torsions:
REMARK  status: ('A' for Active; 'I' for Inactive)
REMARK    1  A    between atoms: C11_11  and  C13_13 
REMARK    2  A    between atoms: C13_13  and  O2_15 
REMARK    3  A    between atoms: C15_17  and  C16_18 
REMARK    4  A    between atoms: C16_18  and  C17_19 
REMARK    5  A    between atoms: C17_19  and  C18_20 
REMARK    6  A    between atoms: C19_21  and  C20_22 
REMARK    7  A    between atoms: C20_22  and  O3_23 
REMARK    8  A    between atoms: O3_23  and  C21_24 
REMARK    9  A    between atoms: C21_24  and  C22_26 
ROOT
HETATM    1  C16 UNL     1       0.452  54.187 -11.251  1.00  0.00     0.014 C 
ENDROOT
BRANCH   1   2
HETATM    2  C15 UNL     1       1.038  54.952 -10.032  1.00  0.00     0.022 C 
HETATM    3  C2  UNL     1       0.028  55.315  -8.945  1.00  0.00    -0.084 C 
HETATM    4  C1  UNL     1      -1.227  54.849  -8.823  1.00  0.00     0.014 C 
HETATM    5  C3  UNL     1       0.593  56.256  -7.914  1.00  0.00     0.034 C 
HETATM    6  C4  UNL     1       1.762  55.584  -7.208  1.00  0.00     0.011 C 
HETATM    7  C5  UNL     1       2.880  55.091  -8.162  1.00  0.00     0.012 C 
HETATM    8  C6  UNL     1       2.292  54.245  -9.370  1.00  0.00    -0.032 C 
HETATM    9  C11 UNL     1       3.982  56.166  -8.566  1.00  0.00     0.049 C 
HETATM   10  C7  UNL     1       1.881  52.841  -8.840  1.00  0.00     0.016 C 
HETATM   11  C8  UNL     1       3.441  54.014 -10.380  1.00  0.00     0.010 C 
HETATM   12  C9  UNL     1       3.941  55.299 -11.024  1.00  0.00     0.002 C 
HETATM   13  C10 UNL     1       3.973  56.498 -10.078  1.00  0.00     0.020 C 
HETATM   14  C12 UNL     1       3.869  57.522  -7.826  1.00  0.00     0.026 C 
BRANCH   9  15
HETATM   15  C13 UNL     1       5.351  55.615  -8.093  1.00  0.00     0.267 C 
HETATM   16  O1  UNL     1       6.256  56.329  -7.669  1.00  0.00    -0.264 OA
BRANCH  15  17
HETATM   17  O2  UNL     1       5.433  54.260  -8.179  1.00  0.00    -0.326 OA
HETATM   18  C14 UNL     1       6.652  53.771  -8.738  1.00  0.00     0.213 C 
ENDBRANCH  15  17
ENDBRANCH   9  15
ENDBRANCH   1   2
BRANCH   1  19
HETATM   19  C17 UNL     1      -0.070  52.791 -10.872  1.00  0.00     0.042 C 
BRANCH  19  20
HETATM   20  C18 UNL     1      -1.274  52.402 -11.668  1.00  0.00    -0.024 A 
HETATM   21  C19 UNL     1      -1.333  52.051 -13.009  1.00  0.00     0.083 A 
HETATM   22  O5  UNL     1      -2.619  51.759 -13.361  1.00  0.00    -0.324 OA
HETATM   23  C28 UNL     1      -3.384  51.912 -12.253  1.00  0.00     0.143 A 
HETATM   24  C29 UNL     1      -2.612  52.306 -11.188  1.00  0.00     0.034 A 
BRANCH  21  25
HETATM   25  C20 UNL     1      -0.326  51.954 -14.100  1.00  0.00     0.244 C 
BRANCH  25  26
HETATM   26  O3  UNL     1       0.651  50.987 -13.689  1.00  0.00    -0.311 OA
BRANCH  26  27
HETATM   27  C21 UNL     1       1.575  50.633 -14.611  1.00  0.00     0.293 C 
HETATM   28  O4  UNL     1       2.665  50.128 -14.393  1.00  0.00    -0.259 OA
BRANCH  27  29
HETATM   29  C22 UNL     1       1.068  50.924 -15.982  1.00  0.00     0.039 A 
HETATM   30  C23 UNL     1       0.283  49.952 -16.621  1.00  0.00     0.019 A 
HETATM   31  C24 UNL     1      -0.229  50.187 -17.901  1.00  0.00     0.025 A 
HETATM   32  C25 UNL     1       0.045  51.392 -18.549  1.00  0.00     0.034 A 
HETATM   33 CL1  UNL     1      -0.576  51.678 -20.126  1.00  0.00    -0.084 Cl
HETATM   34  C26 UNL     1       0.828  52.364 -17.928  1.00  0.00     0.025 A 
HETATM   35  C27 UNL     1       1.337  52.132 -16.646  1.00  0.00     0.019 A 
ENDBRANCH  27  29
ENDBRANCH  26  27
ENDBRANCH  25  26
ENDBRANCH  21  25
ENDBRANCH  19  20
ENDBRANCH   1  19
TORSDOF 9
ENDMDL
MODEL 5
REMARK minimizedAffinity -8.67218399
REMARK CNNscore 0.359578848
REMARK CNNaffinity 6.70794344
REMARK  9 active torsions:
REMARK  status: ('A' for Active; 'I' for Inactive)
REMARK    1  A    between atoms: C11_11  and  C13_13 
REMARK    2  A    between atoms: C13_13  and  O2_15 
REMARK    3  A    between atoms: C15_17  and  C16_18 
REMARK    4  A    between atoms: C16_18  and  C17_19 
REMARK    5  A    between atoms: C17_19  and  C18_20 
REMARK    6  A    between atoms: C19_21  and  C20_22 
REMARK    7  A    between atoms: C20_22  and  O3_23 
REMARK    8  A    between atoms: O3_23  and  C21_24 
REMARK    9  A    between atoms: C21_24  and  C22_26 
ROOT
HETATM    1  C16 UNL     1      -1.085  50.798 -21.825  1.00  0.00     0.014 C 
ENDROOT
BRANCH   1   2
HETATM    2  C15 UNL     1      -2.638  50.775 -21.803  1.00  0.00     0.022 C 
HETATM    3  C2  UNL     1      -3.318  51.811 -22.696  1.00  0.00    -0.084 C 
HETATM    4  C1  UNL     1      -2.735  52.557 -23.652  1.00  0.00     0.014 C 
HETATM    5  C3  UNL     1      -4.801  51.907 -22.456  1.00  0.00     0.034 C 
HETATM    6  C4  UNL     1      -5.450  50.569 -22.779  1.00  0.00     0.011 C 
HETATM    7  C5  UNL     1      -4.852  49.370 -21.999  1.00  0.00     0.012 C 
HETATM    8  C6  UNL     1      -3.265  49.347 -22.082  1.00  0.00    -0.032 C 
HETATM    9  C11 UNL     1      -5.454  49.104 -20.551  1.00  0.00     0.049 C 
HETATM   10  C7  UNL     1      -2.848  48.861 -23.499  1.00  0.00     0.016 C 
HETATM   11  C8  UNL     1      -2.763  48.276 -21.085  1.00  0.00     0.010 C 
HETATM   12  C9  UNL     1      -3.063  48.619 -19.633  1.00  0.00     0.002 C 
HETATM   13  C10 UNL     1      -4.415  49.299 -19.421  1.00  0.00     0.020 C 
HETATM   14  C12 UNL     1      -6.667  49.991 -20.178  1.00  0.00     0.026 C 
BRANCH   9  15
HETATM   15  C13 UNL     1      -6.049  47.673 -20.561  1.00  0.00     0.267 C 
HETATM   16  O1  UNL     1      -5.950  46.894 -19.617  1.00  0.00    -0.264 OA
BRANCH  15  17
HETATM   17  O2  UNL     1      -6.709  47.384 -21.714  1.00  0.00    -0.326 OA
HETATM   18  C14 UNL     1      -6.588  46.028 -22.147  1.00  0.00     0.213 C 
ENDBRANCH  15  17
ENDBRANCH   9  15
ENDBRANCH   1   2
BRANCH   1  19
HETATM   19  C17 UNL     1      -0.527  51.819 -22.831  1.00  0.00     0.042 C 
BRANCH  19  20
HETATM   20  C18 UNL     1       0.401  52.798 -22.187  1.00  0.00    -0.024 A 
HETATM   21  C19 UNL     1       0.975  53.927 -22.754  1.00  0.00     0.083 A 
HETATM   22  O5  UNL     1       1.763  54.562 -21.836  1.00  0.00    -0.324 OA
HETATM   23  C28 UNL     1       1.691  53.853 -20.684  1.00  0.00     0.143 A 
HETATM   24  C29 UNL     1       0.872  52.762 -20.843  1.00  0.00     0.034 A 
BRANCH  21  25
HETATM   25  C20 UNL     1       0.928  54.548 -24.105  1.00  0.00     0.244 C 
BRANCH  25  26
HETATM   26  O3  UNL     1       0.897  53.477 -25.060  1.00  0.00    -0.311 OA
BRANCH  26  27
HETATM   27  C21 UNL     1       0.156  53.684 -26.173  1.00  0.00     0.293 C 
HETATM   28  O4  UNL     1       0.161  54.683 -26.876  1.00  0.00    -0.259 OA
BRANCH  27  29
HETATM   29  C22 UNL     1      -0.682  52.485 -26.460  1.00  0.00     0.039 A 
HETATM   30  C23 UNL     1      -1.921  52.677 -27.092  1.00  0.00     0.019 A 
HETATM   31  C24 UNL     1      -2.735  51.581 -27.396  1.00  0.00     0.025 A 
HETATM   32  C25 UNL     1      -2.317  50.292 -27.066  1.00  0.00     0.034 A 
HETATM   33 CL1  UNL     1      -3.321  48.945 -27.432  1.00  0.00    -0.084 Cl
HETATM   34  C26 UNL     1      -1.092  50.088 -26.433  1.00  0.00     0.025 A 
HETATM   35  C27 UNL     1      -0.274  51.182 -26.133  1.00  0.00     0.019 A 
ENDBRANCH  27  29
ENDBRANCH  26  27
ENDBRANCH  25  26
ENDBRANCH  21  25
ENDBRANCH  19  20
ENDBRANCH   1  19
TORSDOF 9
ENDMDL
MODEL 6
REMARK minimizedAffinity -7.21588373
REMARK CNNscore 0.358002305
REMARK CNNaffinity 6.56695795
REMARK  9 active torsions:
REMARK  status: ('A' for Active; 'I' for Inactive)
REMARK    1  A    between atoms: C11_11  and  C13_13 
REMARK    2  A    between atoms: C13_13  and  O2_15 
REMARK    3  A    between atoms: C15_17  and  C16_18 
REMARK    4  A    between atoms: C16_18  and  C17_19 
REMARK    5  A    between atoms: C17_19  and  C18_20 
REMARK    6  A    between atoms: C19_21  and  C20_22 
REMARK    7  A    between atoms: C20_22  and  O3_23 
REMARK    8  A    between atoms: O3_23  and  C21_24 
REMARK    9  A    between atoms: C21_24  and  C22_26 
ROOT
HETATM    1  C16 UNL     1       2.626  51.587 -12.314  1.00  0.00     0.014 C 
ENDROOT
BRANCH   1   2
HETATM    2  C15 UNL     1       1.903  52.327 -11.155  1.00  0.00     0.022 C 
HETATM    3  C2  UNL     1       0.644  51.642 -10.630  1.00  0.00    -0.084 C 
HETATM    4  C1  UNL     1       0.240  50.387 -10.892  1.00  0.00     0.014 C 
HETATM    5  C3  UNL     1      -0.143  52.511  -9.684  1.00  0.00     0.034 C 
HETATM    6  C4  UNL     1       0.713  52.832  -8.467  1.00  0.00     0.011 C 
HETATM    7  C5  UNL     1       2.073  53.493  -8.805  1.00  0.00     0.012 C 
HETATM    8  C6  UNL     1       2.849  52.696  -9.938  1.00  0.00    -0.032 C 
HETATM    9  C11 UNL     1       2.060  55.075  -8.982  1.00  0.00     0.049 C 
HETATM   10  C7  UNL     1       3.434  51.394  -9.319  1.00  0.00     0.016 C 
HETATM   11  C8  UNL     1       4.058  53.559 -10.370  1.00  0.00     0.010 C 
HETATM   12  C9  UNL     1       3.655  54.867 -11.034  1.00  0.00     0.002 C 
HETATM   13  C10 UNL     1       2.418  55.522 -10.420  1.00  0.00     0.020 C 
HETATM   14  C12 UNL     1       0.712  55.756  -8.642  1.00  0.00     0.026 C 
BRANCH   9  15
HETATM   15  C13 UNL     1       3.031  55.660  -7.926  1.00  0.00     0.267 C 
HETATM   16  O1  UNL     1       3.426  55.029  -6.949  1.00  0.00    -0.264 OA
BRANCH  15  17
HETATM   17  O2  UNL     1       3.414  56.934  -8.209  1.00  0.00    -0.326 OA
HETATM   18  C14 UNL     1       3.168  57.876  -7.166  1.00  0.00     0.213 C 
ENDBRANCH  15  17
ENDBRANCH   9  15
ENDBRANCH   1   2
BRANCH   1  19
HETATM   19  C17 UNL     1       1.737  51.442 -13.562  1.00  0.00     0.042 C 
BRANCH  19  20
HETATM   20  C18 UNL     1       2.453  51.832 -14.815  1.00  0.00    -0.024 A 
HETATM   21  C19 UNL     1       1.923  51.976 -16.089  1.00  0.00     0.083 A 
HETATM   22  O5  UNL     1       2.903  52.349 -16.964  1.00  0.00    -0.324 OA
HETATM   23  C28 UNL     1       4.054  52.453 -16.258  1.00  0.00     0.143 A 
HETATM   24  C29 UNL     1       3.837  52.146 -14.937  1.00  0.00     0.034 A 
BRANCH  21  25
HETATM   25  C20 UNL     1       0.567  51.793 -16.675  1.00  0.00     0.244 C 
BRANCH  25  26
HETATM   26  O3  UNL     1       0.654  52.155 -18.061  1.00  0.00    -0.311 OA
BRANCH  26  27
HETATM   27  C21 UNL     1      -0.469  51.995 -18.797  1.00  0.00     0.293 C 
HETATM   28  O4  UNL     1      -1.572  51.673 -18.382  1.00  0.00    -0.259 OA
BRANCH  27  29
HETATM   29  C22 UNL     1      -0.189  52.294 -20.231  1.00  0.00     0.039 A 
HETATM   30  C23 UNL     1       0.824  53.218 -20.531  1.00  0.00     0.019 A 
HETATM   31  C24 UNL     1       1.133  53.518 -21.861  1.00  0.00     0.025 A 
HETATM   32  C25 UNL     1       0.430  52.900 -22.895  1.00  0.00     0.034 A 
HETATM   33 CL1  UNL     1       0.805  53.275 -24.531  1.00  0.00    -0.084 Cl
HETATM   34  C26 UNL     1      -0.582  51.985 -22.610  1.00  0.00     0.025 A 
HETATM   35  C27 UNL     1      -0.891  51.680 -21.281  1.00  0.00     0.019 A 
ENDBRANCH  27  29
ENDBRANCH  26  27
ENDBRANCH  25  26
ENDBRANCH  21  25
ENDBRANCH  19  20
ENDBRANCH   1  19
TORSDOF 9
ENDMDL
MODEL 7
REMARK minimizedAffinity -9.35330391
REMARK CNNscore 0.339018881
REMARK CNNaffinity 6.54981232
REMARK  9 active torsions:
REMARK  status: ('A' for Active; 'I' for Inactive)
REMARK    1  A    between atoms: C11_11  and  C13_13 
REMARK    2  A    between atoms: C13_13  and  O2_15 
REMARK    3  A    between atoms: C15_17  and  C16_18 
REMARK    4  A    between atoms: C16_18  and  C17_19 
REMARK    5  A    between atoms: C17_19  and  C18_20 
REMARK    6  A    between atoms: C19_21  and  C20_22 
REMARK    7  A    between atoms: C20_22  and  O3_23 
REMARK    8  A    between atoms: O3_23  and  C21_24 
REMARK    9  A    between atoms: C21_24  and  C22_26 
ROOT
HETATM    1  C16 UNL     1      -3.101  49.547 -23.428  1.00  0.00     0.014 C 
ENDROOT
BRANCH   1   2
HETATM    2  C15 UNL     1      -2.681  49.938 -24.872  1.00  0.00     0.022 C 
HETATM    3  C2  UNL     1      -3.431  49.213 -25.987  1.00  0.00    -0.084 C 
HETATM    4  C1  UNL     1      -4.546  48.473 -25.860  1.00  0.00     0.014 C 
HETATM    5  C3  UNL     1      -2.824  49.445 -27.346  1.00  0.00     0.034 C 
HETATM    6  C4  UNL     1      -2.889  50.929 -27.677  1.00  0.00     0.011 C 
HETATM    7  C5  UNL     1      -2.219  51.845 -26.622  1.00  0.00     0.012 C 
HETATM    8  C6  UNL     1      -2.704  51.498 -25.149  1.00  0.00    -0.032 C 
HETATM    9  C11 UNL     1      -0.651  52.067 -26.780  1.00  0.00     0.049 C 
HETATM   10  C7  UNL     1      -4.149  52.041 -24.961  1.00  0.00     0.016 C 
HETATM   11  C8  UNL     1      -1.807  52.286 -24.166  1.00  0.00     0.010 C 
HETATM   12  C9  UNL     1      -0.350  51.849 -24.199  1.00  0.00     0.002 C 
HETATM   13  C10 UNL     1       0.161  51.491 -25.595  1.00  0.00     0.020 C 
HETATM   14  C12 UNL     1      -0.034  51.456 -28.062  1.00  0.00     0.026 C 
BRANCH   9  15
HETATM   15  C13 UNL     1      -0.423  53.589 -26.964  1.00  0.00     0.267 C 
HETATM   16  O1  UNL     1      -1.109  54.290 -27.703  1.00  0.00    -0.264 OA
BRANCH  15  17
HETATM   17  O2  UNL     1       0.601  54.065 -26.205  1.00  0.00    -0.326 OA
HETATM   18  C14 UNL     1       0.304  55.263 -25.488  1.00  0.00     0.213 C 
ENDBRANCH  15  17
ENDBRANCH   9  15
ENDBRANCH   1   2
BRANCH   1  19
HETATM   19  C17 UNL     1      -1.895  49.199 -22.540  1.00  0.00     0.042 C 
BRANCH  19  20
HETATM   20  C18 UNL     1      -2.308  48.586 -21.240  1.00  0.00    -0.024 A 
HETATM   21  C19 UNL     1      -2.712  49.235 -20.082  1.00  0.00     0.083 A 
HETATM   22  O5  UNL     1      -3.009  48.321 -19.112  1.00  0.00    -0.324 OA
HETATM   23  C28 UNL     1      -2.807  47.091 -19.643  1.00  0.00     0.143 A 
HETATM   24  C29 UNL     1      -2.375  47.195 -20.942  1.00  0.00     0.034 A 
BRANCH  21  25
HETATM   25  C20 UNL     1      -2.859  50.664 -19.692  1.00  0.00     0.244 C 
BRANCH  25  26
HETATM   26  O3  UNL     1      -2.167  50.835 -18.447  1.00  0.00    -0.311 OA
BRANCH  26  27
HETATM   27  C21 UNL     1      -0.827  50.653 -18.472  1.00  0.00     0.293 C 
HETATM   28  O4  UNL     1      -0.195  49.811 -17.852  1.00  0.00    -0.259 OA
BRANCH  27  29
HETATM   29  C22 UNL     1      -0.194  51.629 -19.404  1.00  0.00     0.039 A 
HETATM   30  C23 UNL     1      -0.209  52.988 -19.052  1.00  0.00     0.019 A 
HETATM   31  C24 UNL     1       0.386  53.939 -19.887  1.00  0.00     0.025 A 
HETATM   32  C25 UNL     1       0.993  53.538 -21.077  1.00  0.00     0.034 A 
HETATM   33 CL1  UNL     1       1.718  54.708 -22.107  1.00  0.00    -0.084 Cl
HETATM   34  C26 UNL     1       1.010  52.192 -21.440  1.00  0.00     0.025 A 
HETATM   35  C27 UNL     1       0.420  51.239 -20.605  1.00  0.00     0.019 A 
ENDBRANCH  27  29
ENDBRANCH  26  27
ENDBRANCH  25  26
ENDBRANCH  21  25
ENDBRANCH  19  20
ENDBRANCH   1  19
TORSDOF 9
ENDMDL
MODEL 8
REMARK minimizedAffinity -9.27479458
REMARK CNNscore 0.302910209
REMARK CNNaffinity 6.36881781
REMARK  9 active torsions:
REMARK  status: ('A' for Active; 'I' for Inactive)
REMARK    1  A    between atoms: C11_11  and  C13_13 
REMARK    2  A    between atoms: C13_13  and  O2_15 
REMARK    3  A    between atoms: C15_17  and  C16_18 
REMARK    4  A    between atoms: C16_18  and  C17_19 
REMARK    5  A    between atoms: C17_19  and  C18_20 
REMARK    6  A    between atoms: C19_21  and  C20_22 
REMARK    7  A    between atoms: C20_22  and  O3_23 
REMARK    8  A    between atoms: O3_23  and  C21_24 
REMARK    9  A    between atoms: C21_24  and  C22_26 
ROOT
HETATM    1  C16 UNL     1      -2.768  49.802 -23.034  1.00  0.00     0.014 C 
ENDROOT
BRANCH   1   2
HETATM    2  C15 UNL     1      -2.359  50.083 -24.506  1.00  0.00     0.022 C 
HETATM    3  C2  UNL     1      -3.069  49.228 -25.554  1.00  0.00    -0.084 C 
HETATM    4  C1  UNL     1      -4.149  48.451 -25.362  1.00  0.00     0.014 C 
HETATM    5  C3  UNL     1      -2.467  49.369 -26.927  1.00  0.00     0.034 C 
HETATM    6  C4  UNL     1      -2.600  50.813 -27.388  1.00  0.00     0.011 C 
HETATM    7  C5  UNL     1      -1.979  51.849 -26.416  1.00  0.00     0.012 C 
HETATM    8  C6  UNL     1      -2.454  51.610 -24.919  1.00  0.00    -0.032 C 
HETATM    9  C11 UNL     1      -0.422  52.130 -26.592  1.00  0.00     0.049 C 
HETATM   10  C7  UNL     1      -3.924  52.099 -24.781  1.00  0.00     0.016 C 
HETATM   11  C8  UNL     1      -1.600  52.523 -24.009  1.00  0.00     0.010 C 
HETATM   12  C9  UNL     1      -0.124  52.153 -24.002  1.00  0.00     0.002 C 
HETATM   13  C10 UNL     1       0.410  51.699 -25.360  1.00  0.00     0.020 C 
HETATM   14  C12 UNL     1       0.229  51.438 -27.815  1.00  0.00     0.026 C 
BRANCH   9  15
HETATM   15  C13 UNL     1      -0.264  53.638 -26.909  1.00  0.00     0.267 C 
HETATM   16  O1  UNL     1      -0.923  54.220 -27.767  1.00  0.00    -0.264 OA
BRANCH  15  17
HETATM   17  O2  UNL     1       0.663  54.249 -26.124  1.00  0.00    -0.326 OA
HETATM   18  C14 UNL     1       0.288  55.544 -25.655  1.00  0.00     0.213 C 
ENDBRANCH  15  17
ENDBRANCH   9  15
ENDBRANCH   1   2
BRANCH   1  19
HETATM   19  C17 UNL     1      -1.566  49.421 -22.153  1.00  0.00     0.042 C 
BRANCH  19  20
HETATM   20  C18 UNL     1      -1.980  49.006 -20.778  1.00  0.00    -0.024 A 
HETATM   21  C19 UNL     1      -2.570  49.786 -19.793  1.00  0.00     0.083 A 
HETATM   22  O5  UNL     1      -2.799  49.036 -18.676  1.00  0.00    -0.324 OA
HETATM   23  C28 UNL     1      -2.367  47.779 -18.940  1.00  0.00     0.143 A 
HETATM   24  C29 UNL     1      -1.855  47.705 -20.212  1.00  0.00     0.034 A 
BRANCH  21  25
HETATM   25  C20 UNL     1      -2.967  51.218 -19.704  1.00  0.00     0.244 C 
BRANCH  25  26
HETATM   26  O3  UNL     1      -2.094  51.839 -18.750  1.00  0.00    -0.311 OA
BRANCH  26  27
HETATM   27  C21 UNL     1      -0.828  52.081 -19.160  1.00  0.00     0.293 C 
HETATM   28  O4  UNL     1      -0.480  52.445 -20.273  1.00  0.00    -0.259 OA
BRANCH  27  29
HETATM   29  C22 UNL     1       0.125  51.864 -18.035  1.00  0.00     0.039 A 
HETATM   30  C23 UNL     1       1.242  52.708 -17.938  1.00  0.00     0.019 A 
HETATM   31  C24 UNL     1       2.156  52.552 -16.891  1.00  0.00     0.025 A 
HETATM   32  C25 UNL     1       1.959  51.550 -15.940  1.00  0.00     0.034 A 
HETATM   33 CL1  UNL     1       3.086  51.353 -14.656  1.00  0.00    -0.084 Cl
HETATM   34  C26 UNL     1       0.857  50.702 -16.028  1.00  0.00     0.025 A 
HETATM   35  C27 UNL     1      -0.060  50.858 -17.072  1.00  0.00     0.019 A 
ENDBRANCH  27  29
ENDBRANCH  26  27
ENDBRANCH  25  26
ENDBRANCH  21  25
ENDBRANCH  19  20
ENDBRANCH   1  19
TORSDOF 9
ENDMDL
MODEL 9
REMARK minimizedAffinity -7.97295952
REMARK CNNscore 0.282482535
REMARK CNNaffinity 6.53635931
REMARK  9 active torsions:
REMARK  status: ('A' for Active; 'I' for Inactive)
REMARK    1  A    between atoms: C11_11  and  C13_13 
REMARK    2  A    between atoms: C13_13  and  O2_15 
REMARK    3  A    between atoms: C15_17  and  C16_18 
REMARK    4  A    between atoms: C16_18  and  C17_19 
REMARK    5  A    between atoms: C17_19  and  C18_20 
REMARK    6  A    between atoms: C19_21  and  C20_22 
REMARK    7  A    between atoms: C20_22  and  O3_23 
REMARK    8  A    between atoms: O3_23  and  C21_24 
REMARK    9  A    between atoms: C21_24  and  C22_26 
ROOT
HETATM    1  C16 UNL     1      -3.683  48.598 -22.813  1.00  0.00     0.014 C 
ENDROOT
BRANCH   1   2
HETATM    2  C15 UNL     1      -3.516  48.629 -21.269  1.00  0.00     0.022 C 
HETATM    3  C2  UNL     1      -4.205  47.493 -20.516  1.00  0.00    -0.084 C 
HETATM    4  C1  UNL     1      -4.722  46.371 -21.048  1.00  0.00     0.014 C 
HETATM    5  C3  UNL     1      -4.216  47.702 -19.025  1.00  0.00     0.034 C 
HETATM    6  C4  UNL     1      -2.783  47.751 -18.514  1.00  0.00     0.011 C 
HETATM    7  C5  UNL     1      -1.900  48.821 -19.204  1.00  0.00     0.012 C 
HETATM    8  C6  UNL     1      -2.011  48.744 -20.787  1.00  0.00    -0.032 C 
HETATM    9  C11 UNL     1      -1.972  50.290 -18.595  1.00  0.00     0.049 C 
HETATM   10  C7  UNL     1      -1.207  47.508 -21.282  1.00  0.00     0.016 C 
HETATM   11  C8  UNL     1      -1.299  49.990 -21.364  1.00  0.00     0.010 C 
HETATM   12  C9  UNL     1      -1.986  51.298 -20.999  1.00  0.00     0.002 C 
HETATM   13  C10 UNL     1      -2.562  51.324 -19.584  1.00  0.00     0.020 C 
HETATM   14  C12 UNL     1      -2.804  50.414 -17.295  1.00  0.00     0.026 C 
BRANCH   9  15
HETATM   15  C13 UNL     1      -0.539  50.665 -18.138  1.00  0.00     0.267 C 
HETATM   16  O1  UNL     1       0.206  49.888 -17.548  1.00  0.00    -0.264 OA
BRANCH  15  17
HETATM   17  O2  UNL     1      -0.192  51.935 -18.480  1.00  0.00    -0.326 OA
HETATM   18  C14 UNL     1       0.913  52.467 -17.749  1.00  0.00     0.213 C 
ENDBRANCH  15  17
ENDBRANCH   9  15
ENDBRANCH   1   2
BRANCH   1  19
HETATM   19  C17 UNL     1      -5.004  49.238 -23.273  1.00  0.00     0.042 C 
BRANCH  19  20
HETATM   20  C18 UNL     1      -5.550  48.586 -24.503  1.00  0.00    -0.024 A 
HETATM   21  C19 UNL     1      -4.911  48.387 -25.718  1.00  0.00     0.083 A 
HETATM   22  O5  UNL     1      -5.748  47.751 -26.589  1.00  0.00    -0.324 OA
HETATM   23  C28 UNL     1      -6.917  47.535 -25.938  1.00  0.00     0.143 A 
HETATM   24  C29 UNL     1      -6.852  48.027 -24.658  1.00  0.00     0.034 A 
BRANCH  21  25
HETATM   25  C20 UNL     1      -3.564  48.730 -26.249  1.00  0.00     0.244 C 
BRANCH  25  26
HETATM   26  O3  UNL     1      -3.674  50.013 -26.882  1.00  0.00    -0.311 OA
BRANCH  26  27
HETATM   27  C21 UNL     1      -3.211  51.073 -26.182  1.00  0.00     0.293 C 
HETATM   28  O4  UNL     1      -3.865  51.812 -25.462  1.00  0.00    -0.259 OA
BRANCH  27  29
HETATM   29  C22 UNL     1      -1.742  51.220 -26.386  1.00  0.00     0.039 A 
HETATM   30  C23 UNL     1      -0.904  51.138 -25.263  1.00  0.00     0.019 A 
HETATM   31  C24 UNL     1       0.482  51.254 -25.407  1.00  0.00     0.025 A 
HETATM   32  C25 UNL     1       1.036  51.455 -26.671  1.00  0.00     0.034 A 
HETATM   33 CL1  UNL     1       2.740  51.605 -26.848  1.00  0.00    -0.084 Cl
HETATM   34  C26 UNL     1       0.214  51.543 -27.794  1.00  0.00     0.025 A 
HETATM   35  C27 UNL     1      -1.172  51.424 -27.653  1.00  0.00     0.019 A 
ENDBRANCH  27  29
ENDBRANCH  26  27
ENDBRANCH  25  26
ENDBRANCH  21  25
ENDBRANCH  19  20
ENDBRANCH   1  19
TORSDOF 9
ENDMDL
